MODEL 1
REMARK VINA RESULT:    -4.596      0.000      0.000
REMARK INTER + INTRA:         -11.253
REMARK INTER:                  -8.358
REMARK INTRA:                  -2.896
REMARK UNBOUND:                -2.896
REMARK SMILES CCCCCCCCCCCCCCCC(=O)[O-]
REMARK SMILES IDX 9 1 10 2 11 3 12 4 13 5 14 6 15 7 16 8 17 9 18 10 8 11 7 12
REMARK SMILES IDX 6 13 5 14 4 15 3 16 2 17 1 18
REMARK H PARENT
REMARK Flexibility Score: inf
ROOT
ATOM      1  C   UNL     1     -16.408 -13.483 101.704  1.00  0.00     0.000 C 
ENDROOT
BRANCH   1   2
ATOM      2  C   UNL     1     -17.201 -14.790 101.921  1.00  0.00     0.000 C 
BRANCH   2   3
ATOM      3  C   UNL     1     -16.486 -15.742 102.897  1.00  0.00     0.000 C 
BRANCH   3   4
ATOM      4  C   UNL     1     -16.255 -17.139 102.297  1.00  0.00     0.000 C 
BRANCH   4   5
ATOM      5  C   UNL     1     -14.811 -17.634 102.495  1.00  0.00     0.000 C 
BRANCH   5   6
ATOM      6  C   UNL     1     -14.029 -16.777 103.512  1.00  0.00     0.006 C 
BRANCH   6   7
ATOM      7  C   UNL     1     -12.586 -16.475 103.078  1.00  0.00     0.053 C 
BRANCH   7   8
ATOM      8  C   UNL     1     -11.916 -15.483 103.976  1.00  0.00     0.041 C 
ATOM      9  O   UNL     1     -10.670 -15.309 103.912  1.00  0.00    -0.550 OA
ATOM     10  O   UNL     1     -12.671 -14.734 104.871  1.00  0.00    -0.550 OA
ENDBRANCH   7   8
ENDBRANCH   6   7
ENDBRANCH   5   6
ENDBRANCH   4   5
ENDBRANCH   3   4
ENDBRANCH   2   3
ENDBRANCH   1   2
BRANCH   1  11
ATOM     11  C   UNL     1     -14.996 -13.508 102.315  1.00  0.00     0.000 C 
BRANCH  11  12
ATOM     12  C   UNL     1     -13.884 -13.466 101.255  1.00  0.00    -0.000 C 
BRANCH  12  13
ATOM     13  C   UNL     1     -14.317 -14.060  99.903  1.00  0.00    -0.000 C 
BRANCH  13  14
ATOM     14  C   UNL     1     -13.905 -15.525  99.664  1.00  0.00    -0.000 C 
BRANCH  14  15
ATOM     15  C   UNL     1     -14.946 -16.319  98.860  1.00  0.00    -0.000 C 
BRANCH  15  16
ATOM     16  C   UNL     1     -15.791 -15.385  97.981  1.00  0.00    -0.000 C 
BRANCH  16  17
ATOM     17  C   UNL     1     -17.299 -15.626  98.142  1.00  0.00    -0.003 C 
ATOM     18  C   UNL     1     -17.616 -16.933  98.868  1.00  0.00     0.004 C 
ENDBRANCH  16  17
ENDBRANCH  15  16
ENDBRANCH  14  15
ENDBRANCH  13  14
ENDBRANCH  12  13
ENDBRANCH  11  12
ENDBRANCH   1  11
TORSDOF 14
ENDMDL
MODEL 2
REMARK VINA RESULT:    -4.457      2.006      3.559
REMARK INTER + INTRA:         -11.000
REMARK INTER:                  -8.343
REMARK INTRA:                  -2.657
REMARK UNBOUND:                -2.896
REMARK SMILES CCCCCCCCCCCCCCCC(=O)[O-]
REMARK SMILES IDX 9 1 10 2 11 3 12 4 13 5 14 6 15 7 16 8 17 9 18 10 8 11 7 12
REMARK SMILES IDX 6 13 5 14 4 15 3 16 2 17 1 18
REMARK H PARENT
REMARK Flexibility Score: inf
ROOT
ATOM      1  C   UNL     1     -15.015 -16.026 103.466  1.00  0.00     0.000 C 
ENDROOT
BRANCH   1   2
ATOM      2  C   UNL     1     -16.469 -16.142 102.959  1.00  0.00     0.000 C 
BRANCH   2   3
ATOM      3  C   UNL     1     -16.940 -14.854 102.262  1.00  0.00     0.000 C 
BRANCH   3   4
ATOM      4  C   UNL     1     -15.909 -13.718 102.358  1.00  0.00     0.000 C 
BRANCH   4   5
ATOM      5  C   UNL     1     -15.260 -13.394 101.001  1.00  0.00     0.000 C 
BRANCH   5   6
ATOM      6  C   UNL     1     -13.729 -13.585 101.019  1.00  0.00     0.006 C 
BRANCH   6   7
ATOM      7  C   UNL     1     -13.034 -13.092  99.740  1.00  0.00     0.053 C 
BRANCH   7   8
ATOM      8  C   UNL     1     -11.671 -13.685  99.567  1.00  0.00     0.041 C 
ATOM      9  O   UNL     1     -11.271 -14.031  98.424  1.00  0.00    -0.550 OA
ATOM     10  O   UNL     1     -10.834 -13.838 100.665  1.00  0.00    -0.550 OA
ENDBRANCH   7   8
ENDBRANCH   6   7
ENDBRANCH   5   6
ENDBRANCH   4   5
ENDBRANCH   3   4
ENDBRANCH   2   3
ENDBRANCH   1   2
BRANCH   1  11
ATOM     11  C   UNL     1     -14.151 -17.259 103.151  1.00  0.00     0.000 C 
BRANCH  11  12
ATOM     12  C   UNL     1     -12.716 -16.893 102.736  1.00  0.00    -0.000 C 
BRANCH  12  13
ATOM     13  C   UNL     1     -12.504 -16.919 101.212  1.00  0.00    -0.000 C 
BRANCH  13  14
ATOM     14  C   UNL     1     -13.582 -17.670 100.408  1.00  0.00    -0.000 C 
BRANCH  14  15
ATOM     15  C   UNL     1     -14.316 -16.772  99.401  1.00  0.00    -0.000 C 
BRANCH  15  16
ATOM     16  C   UNL     1     -15.834 -16.995  99.471  1.00  0.00    -0.000 C 
BRANCH  16  17
ATOM     17  C   UNL     1     -16.619 -15.977  98.630  1.00  0.00    -0.003 C 
ATOM     18  C   UNL     1     -15.780 -15.355  97.514  1.00  0.00     0.004 C 
ENDBRANCH  16  17
ENDBRANCH  15  16
ENDBRANCH  14  15
ENDBRANCH  13  14
ENDBRANCH  12  13
ENDBRANCH  11  12
ENDBRANCH   1  11
TORSDOF 14
ENDMDL
MODEL 3
REMARK VINA RESULT:    -4.431      2.446      5.005
REMARK INTER + INTRA:         -10.953
REMARK INTER:                  -8.551
REMARK INTRA:                  -2.402
REMARK UNBOUND:                -2.896
REMARK SMILES CCCCCCCCCCCCCCCC(=O)[O-]
REMARK SMILES IDX 9 1 10 2 11 3 12 4 13 5 14 6 15 7 16 8 17 9 18 10 8 11 7 12
REMARK SMILES IDX 6 13 5 14 4 15 3 16 2 17 1 18
REMARK H PARENT
REMARK Flexibility Score: inf
ROOT
ATOM      1  C   UNL     1     -13.248 -16.779  99.800  1.00  0.00     0.000 C 
ENDROOT
BRANCH   1   2
ATOM      2  C   UNL     1     -13.341 -17.876 100.882  1.00  0.00     0.000 C 
BRANCH   2   3
ATOM      3  C   UNL     1     -12.987 -17.337 102.280  1.00  0.00     0.000 C 
BRANCH   3   4
ATOM      4  C   UNL     1     -14.208 -17.265 103.212  1.00  0.00     0.000 C 
BRANCH   4   5
ATOM      5  C   UNL     1     -14.976 -15.938 103.074  1.00  0.00     0.000 C 
BRANCH   5   6
ATOM      6  C   UNL     1     -16.435 -16.146 102.616  1.00  0.00     0.006 C 
BRANCH   6   7
ATOM      7  C   UNL     1     -17.032 -14.927 101.896  1.00  0.00     0.053 C 
BRANCH   7   8
ATOM      8  C   UNL     1     -17.060 -13.709 102.764  1.00  0.00     0.041 C 
ATOM      9  O   UNL     1     -16.533 -12.635 102.367  1.00  0.00    -0.550 OA
ATOM     10  O   UNL     1     -17.687 -13.751 104.003  1.00  0.00    -0.550 OA
ENDBRANCH   7   8
ENDBRANCH   6   7
ENDBRANCH   5   6
ENDBRANCH   4   5
ENDBRANCH   3   4
ENDBRANCH   2   3
ENDBRANCH   1   2
BRANCH   1  11
ATOM     11  C   UNL     1     -14.602 -16.430  99.157  1.00  0.00     0.000 C 
BRANCH  11  12
ATOM     12  C   UNL     1     -14.867 -14.917  99.105  1.00  0.00    -0.000 C 
BRANCH  12  13
ATOM     13  C   UNL     1     -13.587 -14.075  99.248  1.00  0.00    -0.000 C 
BRANCH  13  14
ATOM     14  C   UNL     1     -13.577 -13.086 100.429  1.00  0.00    -0.000 C 
BRANCH  14  15
ATOM     15  C   UNL     1     -12.802 -13.611 101.647  1.00  0.00    -0.000 C 
BRANCH  15  16
ATOM     16  C   UNL     1     -11.338 -13.899 101.284  1.00  0.00    -0.000 C 
BRANCH  16  17
ATOM     17  C   UNL     1     -10.573 -14.591 102.422  1.00  0.00    -0.003 C 
ATOM     18  C   UNL     1      -9.144 -14.070 102.579  1.00  0.00     0.004 C 
ENDBRANCH  16  17
ENDBRANCH  15  16
ENDBRANCH  14  15
ENDBRANCH  13  14
ENDBRANCH  12  13
ENDBRANCH  11  12
ENDBRANCH   1  11
TORSDOF 14
ENDMDL
MODEL 4
REMARK VINA RESULT:    -4.430      1.853      4.662
REMARK INTER + INTRA:         -10.952
REMARK INTER:                  -8.381
REMARK INTRA:                  -2.571
REMARK UNBOUND:                -2.896
REMARK SMILES CCCCCCCCCCCCCCCC(=O)[O-]
REMARK SMILES IDX 9 1 10 2 11 3 12 4 13 5 14 6 15 7 16 8 17 9 18 10 8 11 7 12
REMARK SMILES IDX 6 13 5 14 4 15 3 16 2 17 1 18
REMARK H PARENT
REMARK Flexibility Score: inf
ROOT
ATOM      1  C   UNL     1     -18.232 -14.908  99.178  1.00  0.00     0.000 C 
ENDROOT
BRANCH   1   2
ATOM      2  C   UNL     1     -17.946 -16.347  98.698  1.00  0.00     0.000 C 
BRANCH   2   3
ATOM      3  C   UNL     1     -16.677 -16.929  99.345  1.00  0.00     0.000 C 
BRANCH   3   4
ATOM      4  C   UNL     1     -15.388 -16.427  98.674  1.00  0.00     0.000 C 
BRANCH   4   5
ATOM      5  C   UNL     1     -14.464 -15.685  99.655  1.00  0.00     0.000 C 
BRANCH   5   6
ATOM      6  C   UNL     1     -14.246 -14.210  99.259  1.00  0.00     0.006 C 
BRANCH   6   7
ATOM      7  C   UNL     1     -13.540 -13.381 100.343  1.00  0.00     0.053 C 
BRANCH   7   8
ATOM      8  C   UNL     1     -12.049 -13.435 100.222  1.00  0.00     0.041 C 
ATOM      9  O   UNL     1     -11.324 -13.250 101.236  1.00  0.00    -0.550 OA
ATOM     10  O   UNL     1     -11.460 -13.710  98.995  1.00  0.00    -0.550 OA
ENDBRANCH   7   8
ENDBRANCH   6   7
ENDBRANCH   5   6
ENDBRANCH   4   5
ENDBRANCH   3   4
ENDBRANCH   2   3
ENDBRANCH   1   2
BRANCH   1  11
ATOM     11  C   UNL     1     -18.162 -14.742 100.706  1.00  0.00     0.000 C 
BRANCH  11  12
ATOM     12  C   UNL     1     -17.311 -13.537 101.138  1.00  0.00    -0.000 C 
BRANCH  12  13
ATOM     13  C   UNL     1     -16.600 -13.753 102.486  1.00  0.00    -0.000 C 
BRANCH  13  14
ATOM     14  C   UNL     1     -16.516 -15.215 102.960  1.00  0.00    -0.000 C 
BRANCH  14  15
ATOM     15  C   UNL     1     -15.074 -15.687 103.206  1.00  0.00    -0.000 C 
BRANCH  15  16
ATOM     16  C   UNL     1     -14.256 -14.600 103.920  1.00  0.00    -0.000 C 
BRANCH  16  17
ATOM     17  C   UNL     1     -12.776 -14.981 104.074  1.00  0.00    -0.003 C 
ATOM     18  C   UNL     1     -12.351 -16.105 103.129  1.00  0.00     0.004 C 
ENDBRANCH  16  17
ENDBRANCH  15  16
ENDBRANCH  14  15
ENDBRANCH  13  14
ENDBRANCH  12  13
ENDBRANCH  11  12
ENDBRANCH   1  11
TORSDOF 14
ENDMDL
MODEL 5
REMARK VINA RESULT:    -4.403      3.105      5.588
REMARK INTER + INTRA:         -10.902
REMARK INTER:                  -8.311
REMARK INTRA:                  -2.592
REMARK UNBOUND:                -2.896
REMARK SMILES CCCCCCCCCCCCCCCC(=O)[O-]
REMARK SMILES IDX 9 1 10 2 11 3 12 4 13 5 14 6 15 7 16 8 17 9 18 10 8 11 7 12
REMARK SMILES IDX 6 13 5 14 4 15 3 16 2 17 1 18
REMARK H PARENT
REMARK Flexibility Score: inf
ROOT
ATOM      1  C   UNL     1     -12.966 -17.648 102.107  1.00  0.00     0.000 C 
ENDROOT
BRANCH   1   2
ATOM      2  C   UNL     1     -12.680 -17.471 100.600  1.00  0.00     0.000 C 
BRANCH   2   3
ATOM      3  C   UNL     1     -13.955 -17.130  99.808  1.00  0.00     0.000 C 
BRANCH   3   4
ATOM      4  C   UNL     1     -15.137 -18.045 100.168  1.00  0.00     0.000 C 
BRANCH   4   5
ATOM      5  C   UNL     1     -16.495 -17.332 100.038  1.00  0.00     0.000 C 
BRANCH   5   6
ATOM      6  C   UNL     1     -16.489 -16.247  98.941  1.00  0.00     0.006 C 
BRANCH   6   7
ATOM      7  C   UNL     1     -17.875 -15.981  98.334  1.00  0.00     0.053 C 
BRANCH   7   8
ATOM      8  C   UNL     1     -18.711 -15.084  99.192  1.00  0.00     0.041 C 
ATOM      9  O   UNL     1     -19.964 -15.069  99.063  1.00  0.00    -0.550 OA
ATOM     10  O   UNL     1     -18.108 -14.278 100.151  1.00  0.00    -0.550 OA
ENDBRANCH   7   8
ENDBRANCH   6   7
ENDBRANCH   5   6
ENDBRANCH   4   5
ENDBRANCH   3   4
ENDBRANCH   2   3
ENDBRANCH   1   2
BRANCH   1  11
ATOM     11  C   UNL     1     -12.441 -16.492 102.975  1.00  0.00     0.000 C 
BRANCH  11  12
ATOM     12  C   UNL     1     -13.532 -15.864 103.858  1.00  0.00    -0.000 C 
BRANCH  12  13
ATOM     13  C   UNL     1     -14.939 -15.967 103.244  1.00  0.00    -0.000 C 
BRANCH  13  14
ATOM     14  C   UNL     1     -15.596 -14.625 102.871  1.00  0.00    -0.000 C 
BRANCH  14  15
ATOM     15  C   UNL     1     -14.603 -13.613 102.279  1.00  0.00    -0.000 C 
BRANCH  15  16
ATOM     16  C   UNL     1     -14.657 -13.623 100.744  1.00  0.00    -0.000 C 
BRANCH  16  17
ATOM     17  C   UNL     1     -13.263 -13.559 100.104  1.00  0.00    -0.003 C 
ATOM     18  C   UNL     1     -12.142 -13.422 101.134  1.00  0.00     0.004 C 
ENDBRANCH  16  17
ENDBRANCH  15  16
ENDBRANCH  14  15
ENDBRANCH  13  14
ENDBRANCH  12  13
ENDBRANCH  11  12
ENDBRANCH   1  11
TORSDOF 14
ENDMDL
MODEL 6
REMARK VINA RESULT:    -4.363      1.352      2.845
REMARK INTER + INTRA:         -10.830
REMARK INTER:                  -8.142
REMARK INTRA:                  -2.688
REMARK UNBOUND:                -2.896
REMARK SMILES CCCCCCCCCCCCCCCC(=O)[O-]
REMARK SMILES IDX 9 1 10 2 11 3 12 4 13 5 14 6 15 7 16 8 17 9 18 10 8 11 7 12
REMARK SMILES IDX 6 13 5 14 4 15 3 16 2 17 1 18
REMARK H PARENT
REMARK Flexibility Score: inf
ROOT
ATOM      1  C   UNL     1     -14.886 -14.734  98.970  1.00  0.00     0.000 C 
ENDROOT
BRANCH   1   2
ATOM      2  C   UNL     1     -15.001 -16.273  98.990  1.00  0.00     0.000 C 
BRANCH   2   3
ATOM      3  C   UNL     1     -16.250 -16.747  99.753  1.00  0.00     0.000 C 
BRANCH   3   4
ATOM      4  C   UNL     1     -15.927 -17.224 101.178  1.00  0.00     0.000 C 
BRANCH   4   5
ATOM      5  C   UNL     1     -14.429 -17.515 101.376  1.00  0.00     0.000 C 
BRANCH   5   6
ATOM      6  C   UNL     1     -13.912 -17.042 102.750  1.00  0.00     0.006 C 
BRANCH   6   7
ATOM      7  C   UNL     1     -12.434 -16.624 102.740  1.00  0.00     0.053 C 
BRANCH   7   8
ATOM      8  C   UNL     1     -12.098 -15.688 103.858  1.00  0.00     0.041 C 
ATOM      9  O   UNL     1     -13.005 -15.018 104.418  1.00  0.00    -0.550 OA
ATOM     10  O   UNL     1     -10.785 -15.571 104.297  1.00  0.00    -0.550 OA
ENDBRANCH   7   8
ENDBRANCH   6   7
ENDBRANCH   5   6
ENDBRANCH   4   5
ENDBRANCH   3   4
ENDBRANCH   2   3
ENDBRANCH   1   2
BRANCH   1  11
ATOM     11  C   UNL     1     -13.576 -14.205  99.580  1.00  0.00     0.000 C 
BRANCH  11  12
ATOM     12  C   UNL     1     -13.758 -13.661 101.007  1.00  0.00    -0.000 C 
BRANCH  12  13
ATOM     13  C   UNL     1     -15.192 -13.183 101.292  1.00  0.00    -0.000 C 
BRANCH  13  14
ATOM     14  C   UNL     1     -15.864 -13.813 102.526  1.00  0.00    -0.000 C 
BRANCH  14  15
ATOM     15  C   UNL     1     -17.375 -14.028 102.345  1.00  0.00    -0.000 C 
BRANCH  15  16
ATOM     16  C   UNL     1     -17.821 -13.627 100.931  1.00  0.00    -0.000 C 
BRANCH  16  17
ATOM     17  C   UNL     1     -19.037 -14.430 100.445  1.00  0.00    -0.003 C 
ATOM     18  C   UNL     1     -19.891 -13.661  99.437  1.00  0.00     0.004 C 
ENDBRANCH  16  17
ENDBRANCH  15  16
ENDBRANCH  14  15
ENDBRANCH  13  14
ENDBRANCH  12  13
ENDBRANCH  11  12
ENDBRANCH   1  11
TORSDOF 14
ENDMDL
MODEL 7
REMARK VINA RESULT:    -4.362      3.271      5.380
REMARK INTER + INTRA:         -10.828
REMARK INTER:                  -8.157
REMARK INTRA:                  -2.671
REMARK UNBOUND:                -2.896
REMARK SMILES CCCCCCCCCCCCCCCC(=O)[O-]
REMARK SMILES IDX 9 1 10 2 11 3 12 4 13 5 14 6 15 7 16 8 17 9 18 10 8 11 7 12
REMARK SMILES IDX 6 13 5 14 4 15 3 16 2 17 1 18
REMARK H PARENT
REMARK Flexibility Score: inf
ROOT
ATOM      1  C   UNL     1     -16.341 -15.311 103.177  1.00  0.00     0.000 C 
ENDROOT
BRANCH   1   2
ATOM      2  C   UNL     1     -16.449 -16.778 102.709  1.00  0.00     0.000 C 
BRANCH   2   3
ATOM      3  C   UNL     1     -15.072 -17.379 102.375  1.00  0.00     0.000 C 
BRANCH   3   4
ATOM      4  C   UNL     1     -14.823 -17.482 100.862  1.00  0.00     0.000 C 
BRANCH   4   5
ATOM      5  C   UNL     1     -16.129 -17.476 100.048  1.00  0.00     0.000 C 
BRANCH   5   6
ATOM      6  C   UNL     1     -16.025 -16.615  98.772  1.00  0.00     0.006 C 
BRANCH   6   7
ATOM      7  C   UNL     1     -16.995 -15.424  98.754  1.00  0.00     0.053 C 
BRANCH   7   8
ATOM      8  C   UNL     1     -18.421 -15.851  98.605  1.00  0.00     0.041 C 
ATOM      9  O   UNL     1     -19.344 -15.181  99.141  1.00  0.00    -0.550 OA
ATOM     10  O   UNL     1     -18.736 -16.979  97.857  1.00  0.00    -0.550 OA
ENDBRANCH   7   8
ENDBRANCH   6   7
ENDBRANCH   5   6
ENDBRANCH   4   5
ENDBRANCH   3   4
ENDBRANCH   2   3
ENDBRANCH   1   2
BRANCH   1  11
ATOM     11  C   UNL     1     -17.130 -14.323 102.300  1.00  0.00     0.000 C 
BRANCH  11  12
ATOM     12  C   UNL     1     -16.340 -13.043 101.982  1.00  0.00    -0.000 C 
BRANCH  12  13
ATOM     13  C   UNL     1     -14.822 -13.279 101.888  1.00  0.00    -0.000 C 
BRANCH  13  14
ATOM     14  C   UNL     1     -14.309 -13.725 100.506  1.00  0.00    -0.000 C 
BRANCH  14  15
ATOM     15  C   UNL     1     -12.906 -14.350 100.559  1.00  0.00    -0.000 C 
BRANCH  15  16
ATOM     16  C   UNL     1     -12.220 -14.047 101.899  1.00  0.00    -0.000 C 
BRANCH  16  17
ATOM     17  C   UNL     1     -11.870 -15.320 102.684  1.00  0.00    -0.003 C 
ATOM     18  C   UNL     1     -12.524 -15.364 104.065  1.00  0.00     0.004 C 
ENDBRANCH  16  17
ENDBRANCH  15  16
ENDBRANCH  14  15
ENDBRANCH  13  14
ENDBRANCH  12  13
ENDBRANCH  11  12
ENDBRANCH   1  11
TORSDOF 14
ENDMDL
MODEL 8
REMARK VINA RESULT:    -4.359      3.117      5.566
REMARK INTER + INTRA:         -10.822
REMARK INTER:                  -8.197
REMARK INTRA:                  -2.625
REMARK UNBOUND:                -2.896
REMARK SMILES CCCCCCCCCCCCCCCC(=O)[O-]
REMARK SMILES IDX 9 1 10 2 11 3 12 4 13 5 14 6 15 7 16 8 17 9 18 10 8 11 7 12
REMARK SMILES IDX 6 13 5 14 4 15 3 16 2 17 1 18
REMARK H PARENT
REMARK Flexibility Score: inf
ROOT
ATOM      1  C   UNL     1     -12.712 -18.232 100.976  1.00  0.00     0.000 C 
ENDROOT
BRANCH   1   2
ATOM      2  C   UNL     1     -13.730 -18.853 101.956  1.00  0.00     0.000 C 
BRANCH   2   3
ATOM      3  C   UNL     1     -14.511 -17.780 102.734  1.00  0.00     0.000 C 
BRANCH   3   4
ATOM      4  C   UNL     1     -16.002 -17.748 102.363  1.00  0.00     0.000 C 
BRANCH   4   5
ATOM      5  C   UNL     1     -16.585 -16.324 102.385  1.00  0.00     0.000 C 
BRANCH   5   6
ATOM      6  C   UNL     1     -16.928 -15.805 100.973  1.00  0.00     0.006 C 
BRANCH   6   7
ATOM      7  C   UNL     1     -16.832 -16.883  99.883  1.00  0.00     0.053 C 
BRANCH   7   8
ATOM      8  C   UNL     1     -17.211 -16.364  98.532  1.00  0.00     0.041 C 
ATOM      9  O   UNL     1     -18.393 -16.488  98.114  1.00  0.00    -0.550 OA
ATOM     10  O   UNL     1     -16.265 -15.724  97.741  1.00  0.00    -0.550 OA
ENDBRANCH   7   8
ENDBRANCH   6   7
ENDBRANCH   5   6
ENDBRANCH   4   5
ENDBRANCH   3   4
ENDBRANCH   2   3
ENDBRANCH   1   2
BRANCH   1  11
ATOM     11  C   UNL     1     -13.323 -17.171 100.043  1.00  0.00     0.000 C 
BRANCH  11  12
ATOM     12  C   UNL     1     -12.667 -15.790 100.198  1.00  0.00    -0.000 C 
BRANCH  12  13
ATOM     13  C   UNL     1     -13.626 -14.627  99.888  1.00  0.00    -0.000 C 
BRANCH  13  14
ATOM     14  C   UNL     1     -14.001 -13.742 101.091  1.00  0.00    -0.000 C 
BRANCH  14  15
ATOM     15  C   UNL     1     -13.028 -13.887 102.271  1.00  0.00    -0.000 C 
BRANCH  15  16
ATOM     16  C   UNL     1     -13.777 -14.266 103.557  1.00  0.00    -0.000 C 
BRANCH  16  17
ATOM     17  C   UNL     1     -12.887 -15.015 104.560  1.00  0.00    -0.003 C 
ATOM     18  C   UNL     1     -11.644 -15.625 103.911  1.00  0.00     0.004 C 
ENDBRANCH  16  17
ENDBRANCH  15  16
ENDBRANCH  14  15
ENDBRANCH  13  14
ENDBRANCH  12  13
ENDBRANCH  11  12
ENDBRANCH   1  11
TORSDOF 14
ENDMDL
MODEL 9
REMARK VINA RESULT:    -4.332      3.199      6.138
REMARK INTER + INTRA:         -10.774
REMARK INTER:                  -8.228
REMARK INTRA:                  -2.546
REMARK UNBOUND:                -2.896
REMARK SMILES CCCCCCCCCCCCCCCC(=O)[O-]
REMARK SMILES IDX 9 1 10 2 11 3 12 4 13 5 14 6 15 7 16 8 17 9 18 10 8 11 7 12
REMARK SMILES IDX 6 13 5 14 4 15 3 16 2 17 1 18
REMARK H PARENT
REMARK Flexibility Score: inf
ROOT
ATOM      1  C   UNL     1     -13.493 -16.455  99.993  1.00  0.00     0.000 C 
ENDROOT
BRANCH   1   2
ATOM      2  C   UNL     1     -12.593 -15.216  99.803  1.00  0.00     0.000 C 
BRANCH   2   3
ATOM      3  C   UNL     1     -13.285 -13.924 100.271  1.00  0.00     0.000 C 
BRANCH   3   4
ATOM      4  C   UNL     1     -14.813 -13.979 100.109  1.00  0.00     0.000 C 
BRANCH   4   5
ATOM      5  C   UNL     1     -15.556 -13.607 101.404  1.00  0.00     0.000 C 
BRANCH   5   6
ATOM      6  C   UNL     1     -16.669 -14.616 101.756  1.00  0.00     0.006 C 
BRANCH   6   7
ATOM      7  C   UNL     1     -17.069 -15.523 100.582  1.00  0.00     0.053 C 
BRANCH   7   8
ATOM      8  C   UNL     1     -18.274 -15.017  99.854  1.00  0.00     0.041 C 
ATOM      9  O   UNL     1     -18.483 -15.357  98.659  1.00  0.00    -0.550 OA
ATOM     10  O   UNL     1     -19.179 -14.184 100.501  1.00  0.00    -0.550 OA
ENDBRANCH   7   8
ENDBRANCH   6   7
ENDBRANCH   5   6
ENDBRANCH   4   5
ENDBRANCH   3   4
ENDBRANCH   2   3
ENDBRANCH   1   2
BRANCH   1  11
ATOM     11  C   UNL     1     -12.759 -17.666 100.594  1.00  0.00     0.000 C 
BRANCH  11  12
ATOM     12  C   UNL     1     -12.772 -17.671 102.131  1.00  0.00    -0.000 C 
BRANCH  12  13
ATOM     13  C   UNL     1     -14.078 -17.116 102.726  1.00  0.00    -0.000 C 
BRANCH  13  14
ATOM     14  C   UNL     1     -13.904 -16.111 103.879  1.00  0.00    -0.000 C 
BRANCH  14  15
ATOM     15  C   UNL     1     -12.771 -15.102 103.632  1.00  0.00    -0.000 C 
BRANCH  15  16
ATOM     16  C   UNL     1     -11.602 -15.343 104.597  1.00  0.00    -0.000 C 
BRANCH  16  17
ATOM     17  C   UNL     1     -10.243 -15.374 103.882  1.00  0.00    -0.003 C 
ATOM     18  C   UNL     1     -10.252 -14.612 102.557  1.00  0.00     0.004 C 
ENDBRANCH  16  17
ENDBRANCH  15  16
ENDBRANCH  14  15
ENDBRANCH  13  14
ENDBRANCH  12  13
ENDBRANCH  11  12
ENDBRANCH   1  11
TORSDOF 14
ENDMDL
