MODEL 1
REMARK VINA RESULT:    -2.892      0.000      0.000
REMARK INTER + INTRA:         -13.376
REMARK INTER:                  -7.289
REMARK INTRA:                  -6.087
REMARK UNBOUND:                -6.087
REMARK SMILES CCCCCCCCCCCCCCCCCCCCCCCCCCCC(=O)[O-]
REMARK SMILES IDX 15 1 16 2 17 3 18 4 19 5 20 6 21 7 22 8 23 9 24 10 25 11
REMARK SMILES IDX 26 12 27 13 28 14 29 15 30 16 14 17 13 18 12 19 11 20 10 21
REMARK SMILES IDX 9 22 8 23 7 24 6 25 5 26 4 27 3 28 2 29 1 30
REMARK H PARENT
REMARK Flexibility Score: inf
ROOT
ATOM      1  C   UNL     1     169.145 153.768 154.302  1.00  0.00     0.000 C 
ENDROOT
BRANCH   1   2
ATOM      2  C   UNL     1     168.088 154.507 155.142  1.00  0.00     0.000 C 
BRANCH   2   3
ATOM      3  C   UNL     1     168.703 155.469 156.177  1.00  0.00     0.000 C 
BRANCH   3   4
ATOM      4  C   UNL     1     169.923 154.925 156.959  1.00  0.00     0.000 C 
BRANCH   4   5
ATOM      5  C   UNL     1     171.240 155.714 156.766  1.00  0.00     0.000 C 
BRANCH   5   6
ATOM      6  C   UNL     1     171.131 156.922 155.814  1.00  0.00     0.000 C 
BRANCH   6   7
ATOM      7  C   UNL     1     172.000 156.841 154.550  1.00  0.00     0.000 C 
BRANCH   7   8
ATOM      8  C   UNL     1     171.248 156.278 153.336  1.00  0.00     0.000 C 
BRANCH   8   9
ATOM      9  C   UNL     1     171.321 157.245 152.150  1.00  0.00     0.000 C 
BRANCH   9  10
ATOM     10  C   UNL     1     169.958 157.907 151.893  1.00  0.00     0.000 C 
BRANCH  10  11
ATOM     11  C   UNL     1     168.810 157.186 152.627  1.00  0.00     0.000 C 
BRANCH  11  12
ATOM     12  C   UNL     1     167.978 158.115 153.532  1.00  0.00     0.006 C 
BRANCH  12  13
ATOM     13  C   UNL     1     168.814 159.213 154.207  1.00  0.00     0.053 C 
BRANCH  13  14
ATOM     14  C   UNL     1     168.095 159.757 155.404  1.00  0.00     0.041 C 
ATOM     15  O   UNL     1     167.732 158.986 156.333  1.00  0.00    -0.550 OA
ATOM     16  O   UNL     1     167.746 161.103 155.449  1.00  0.00    -0.550 OA
ENDBRANCH  13  14
ENDBRANCH  12  13
ENDBRANCH  11  12
ENDBRANCH  10  11
ENDBRANCH   9  10
ENDBRANCH   8   9
ENDBRANCH   7   8
ENDBRANCH   6   7
ENDBRANCH   5   6
ENDBRANCH   4   5
ENDBRANCH   3   4
ENDBRANCH   2   3
ENDBRANCH   1   2
BRANCH   1  17
ATOM     17  C   UNL     1     168.955 152.238 154.318  1.00  0.00     0.000 C 
BRANCH  17  18
ATOM     18  C   UNL     1     169.400 151.562 155.631  1.00  0.00     0.000 C 
BRANCH  18  19
ATOM     19  C   UNL     1     170.847 151.030 155.641  1.00  0.00     0.000 C 
BRANCH  19  20
ATOM     20  C   UNL     1     171.863 151.891 156.413  1.00  0.00     0.000 C 
BRANCH  20  21
ATOM     21  C   UNL     1     173.103 152.258 155.584  1.00  0.00     0.000 C 
BRANCH  21  22
ATOM     22  C   UNL     1     172.738 153.184 154.413  1.00  0.00    -0.000 C 
BRANCH  22  23
ATOM     23  C   UNL     1     173.125 152.575 153.054  1.00  0.00    -0.000 C 
BRANCH  23  24
ATOM     24  C   UNL     1     171.944 152.565 152.056  1.00  0.00    -0.000 C 
BRANCH  24  25
ATOM     25  C   UNL     1     172.080 153.629 150.943  1.00  0.00    -0.000 C 
BRANCH  25  26
ATOM     26  C   UNL     1     170.893 153.644 149.953  1.00  0.00    -0.000 C 
BRANCH  26  27
ATOM     27  C   UNL     1     169.669 154.446 150.442  1.00  0.00    -0.000 C 
BRANCH  27  28
ATOM     28  C   UNL     1     168.311 153.816 150.078  1.00  0.00    -0.000 C 
BRANCH  28  29
ATOM     29  C   UNL     1     168.067 152.429 150.710  1.00  0.00    -0.003 C 
ATOM     30  C   UNL     1     166.699 152.322 151.384  1.00  0.00     0.004 C 
ENDBRANCH  28  29
ENDBRANCH  27  28
ENDBRANCH  26  27
ENDBRANCH  25  26
ENDBRANCH  24  25
ENDBRANCH  23  24
ENDBRANCH  22  23
ENDBRANCH  21  22
ENDBRANCH  20  21
ENDBRANCH  19  20
ENDBRANCH  18  19
ENDBRANCH  17  18
ENDBRANCH   1  17
TORSDOF 26
ENDMDL
MODEL 2
REMARK VINA RESULT:    -2.690     10.877     15.346
REMARK INTER + INTRA:         -12.866
REMARK INTER:                  -8.018
REMARK INTRA:                  -4.847
REMARK UNBOUND:                -6.087
REMARK SMILES CCCCCCCCCCCCCCCCCCCCCCCCCCCC(=O)[O-]
REMARK SMILES IDX 15 1 16 2 17 3 18 4 19 5 20 6 21 7 22 8 23 9 24 10 25 11
REMARK SMILES IDX 26 12 27 13 28 14 29 15 30 16 14 17 13 18 12 19 11 20 10 21
REMARK SMILES IDX 9 22 8 23 7 24 6 25 5 26 4 27 3 28 2 29 1 30
REMARK H PARENT
REMARK Flexibility Score: inf
ROOT
ATOM      1  C   UNL     1     167.010 165.681 142.708  1.00  0.00     0.000 C 
ENDROOT
BRANCH   1   2
ATOM      2  C   UNL     1     167.980 166.349 141.719  1.00  0.00     0.000 C 
BRANCH   2   3
ATOM      3  C   UNL     1     168.730 167.551 142.327  1.00  0.00     0.000 C 
BRANCH   3   4
ATOM      4  C   UNL     1     170.251 167.359 142.537  1.00  0.00     0.000 C 
BRANCH   4   5
ATOM      5  C   UNL     1     170.777 167.727 143.945  1.00  0.00     0.000 C 
BRANCH   5   6
ATOM      6  C   UNL     1     171.290 166.531 144.772  1.00  0.00     0.000 C 
BRANCH   6   7
ATOM      7  C   UNL     1     170.915 165.146 144.223  1.00  0.00     0.000 C 
BRANCH   7   8
ATOM      8  C   UNL     1     169.721 164.512 144.949  1.00  0.00     0.000 C 
BRANCH   8   9
ATOM      9  C   UNL     1     170.068 164.204 146.409  1.00  0.00     0.000 C 
BRANCH   9  10
ATOM     10  C   UNL     1     169.143 163.116 146.979  1.00  0.00     0.000 C 
BRANCH  10  11
ATOM     11  C   UNL     1     169.931 161.929 147.566  1.00  0.00     0.000 C 
BRANCH  11  12
ATOM     12  C   UNL     1     170.210 160.809 146.545  1.00  0.00     0.006 C 
BRANCH  12  13
ATOM     13  C   UNL     1     171.702 160.646 146.216  1.00  0.00     0.053 C 
BRANCH  13  14
ATOM     14  C   UNL     1     172.060 161.444 144.999  1.00  0.00     0.041 C 
ATOM     15  O   UNL     1     173.089 162.171 144.997  1.00  0.00    -0.550 OA
ATOM     16  O   UNL     1     171.204 161.454 143.902  1.00  0.00    -0.550 OA
ENDBRANCH  13  14
ENDBRANCH  12  13
ENDBRANCH  11  12
ENDBRANCH  10  11
ENDBRANCH   9  10
ENDBRANCH   8   9
ENDBRANCH   7   8
ENDBRANCH   6   7
ENDBRANCH   5   6
ENDBRANCH   4   5
ENDBRANCH   3   4
ENDBRANCH   2   3
ENDBRANCH   1   2
BRANCH   1  17
ATOM     17  C   UNL     1     166.588 166.621 143.856  1.00  0.00     0.000 C 
BRANCH  17  18
ATOM     18  C   UNL     1     166.238 165.892 145.169  1.00  0.00     0.000 C 
BRANCH  18  19
ATOM     19  C   UNL     1     166.892 166.470 146.440  1.00  0.00     0.000 C 
BRANCH  19  20
ATOM     20  C   UNL     1     167.889 167.621 146.205  1.00  0.00     0.000 C 
BRANCH  20  21
ATOM     21  C   UNL     1     168.990 167.698 147.275  1.00  0.00     0.000 C 
BRANCH  21  22
ATOM     22  C   UNL     1     169.539 169.127 147.408  1.00  0.00    -0.000 C 
BRANCH  22  23
ATOM     23  C   UNL     1     170.988 169.141 147.925  1.00  0.00    -0.000 C 
BRANCH  23  24
ATOM     24  C   UNL     1     171.104 169.767 149.334  1.00  0.00    -0.000 C 
BRANCH  24  25
ATOM     25  C   UNL     1     170.327 168.981 150.415  1.00  0.00    -0.000 C 
BRANCH  25  26
ATOM     26  C   UNL     1     169.208 169.803 151.093  1.00  0.00    -0.000 C 
BRANCH  26  27
ATOM     27  C   UNL     1     168.132 168.951 151.798  1.00  0.00    -0.000 C 
BRANCH  27  28
ATOM     28  C   UNL     1     166.714 169.112 151.219  1.00  0.00    -0.000 C 
BRANCH  28  29
ATOM     29  C   UNL     1     166.644 169.994 149.953  1.00  0.00    -0.003 C 
ATOM     30  C   UNL     1     165.916 169.308 148.797  1.00  0.00     0.004 C 
ENDBRANCH  28  29
ENDBRANCH  27  28
ENDBRANCH  26  27
ENDBRANCH  25  26
ENDBRANCH  24  25
ENDBRANCH  23  24
ENDBRANCH  22  23
ENDBRANCH  21  22
ENDBRANCH  20  21
ENDBRANCH  19  20
ENDBRANCH  18  19
ENDBRANCH  17  18
ENDBRANCH   1  17
TORSDOF 26
ENDMDL
MODEL 3
REMARK VINA RESULT:    -2.671     11.633     15.064
REMARK INTER + INTRA:         -12.818
REMARK INTER:                  -8.169
REMARK INTRA:                  -4.649
REMARK UNBOUND:                -6.087
REMARK SMILES CCCCCCCCCCCCCCCCCCCCCCCCCCCC(=O)[O-]
REMARK SMILES IDX 15 1 16 2 17 3 18 4 19 5 20 6 21 7 22 8 23 9 24 10 25 11
REMARK SMILES IDX 26 12 27 13 28 14 29 15 30 16 14 17 13 18 12 19 11 20 10 21
REMARK SMILES IDX 9 22 8 23 7 24 6 25 5 26 4 27 3 28 2 29 1 30
REMARK H PARENT
REMARK Flexibility Score: inf
ROOT
ATOM      1  C   UNL     1     165.088 170.513 154.488  1.00  0.00     0.000 C 
ENDROOT
BRANCH   1   2
ATOM      2  C   UNL     1     163.964 169.637 153.908  1.00  0.00     0.000 C 
BRANCH   2   3
ATOM      3  C   UNL     1     164.030 169.506 152.373  1.00  0.00     0.000 C 
BRANCH   3   4
ATOM      4  C   UNL     1     164.288 170.820 151.597  1.00  0.00     0.000 C 
BRANCH   4   5
ATOM      5  C   UNL     1     165.405 170.749 150.528  1.00  0.00     0.000 C 
BRANCH   5   6
ATOM      6  C   UNL     1     165.121 169.775 149.367  1.00  0.00     0.000 C 
BRANCH   6   7
ATOM      7  C   UNL     1     165.889 168.445 149.425  1.00  0.00     0.000 C 
BRANCH   7   8
ATOM      8  C   UNL     1     165.087 167.260 148.870  1.00  0.00     0.000 C 
BRANCH   8   9
ATOM      9  C   UNL     1     163.666 167.243 149.443  1.00  0.00     0.000 C 
BRANCH   9  10
ATOM     10  C   UNL     1     163.588 166.364 150.701  1.00  0.00     0.000 C 
BRANCH  10  11
ATOM     11  C   UNL     1     164.496 165.122 150.603  1.00  0.00     0.000 C 
BRANCH  11  12
ATOM     12  C   UNL     1     165.322 164.860 151.878  1.00  0.00     0.006 C 
BRANCH  12  13
ATOM     13  C   UNL     1     165.419 166.086 152.800  1.00  0.00     0.053 C 
BRANCH  13  14
ATOM     14  C   UNL     1     165.309 165.670 154.236  1.00  0.00     0.041 C 
ATOM     15  O   UNL     1     164.885 166.482 155.101  1.00  0.00    -0.550 OA
ATOM     16  O   UNL     1     165.760 164.414 154.629  1.00  0.00    -0.550 OA
ENDBRANCH  13  14
ENDBRANCH  12  13
ENDBRANCH  11  12
ENDBRANCH  10  11
ENDBRANCH   9  10
ENDBRANCH   8   9
ENDBRANCH   7   8
ENDBRANCH   6   7
ENDBRANCH   5   6
ENDBRANCH   4   5
ENDBRANCH   3   4
ENDBRANCH   2   3
ENDBRANCH   1   2
BRANCH   1  17
ATOM     17  C   UNL     1     166.198 169.686 155.168  1.00  0.00     0.000 C 
BRANCH  17  18
ATOM     18  C   UNL     1     167.507 169.603 154.357  1.00  0.00     0.000 C 
BRANCH  18  19
ATOM     19  C   UNL     1     167.906 170.894 153.616  1.00  0.00     0.000 C 
BRANCH  19  20
ATOM     20  C   UNL     1     168.636 170.688 152.275  1.00  0.00     0.000 C 
BRANCH  20  21
ATOM     21  C   UNL     1     168.613 169.230 151.789  1.00  0.00     0.000 C 
BRANCH  21  22
ATOM     22  C   UNL     1     169.512 169.038 150.557  1.00  0.00    -0.000 C 
BRANCH  22  23
ATOM     23  C   UNL     1     169.270 170.121 149.493  1.00  0.00    -0.000 C 
BRANCH  23  24
ATOM     24  C   UNL     1     169.736 169.679 148.087  1.00  0.00    -0.000 C 
BRANCH  24  25
ATOM     25  C   UNL     1     168.581 169.587 147.064  1.00  0.00    -0.000 C 
BRANCH  25  26
ATOM     26  C   UNL     1     168.191 168.137 146.699  1.00  0.00    -0.000 C 
BRANCH  26  27
ATOM     27  C   UNL     1     168.324 167.801 145.199  1.00  0.00    -0.000 C 
BRANCH  27  28
ATOM     28  C   UNL     1     169.569 166.965 144.844  1.00  0.00    -0.000 C 
BRANCH  28  29
ATOM     29  C   UNL     1     170.749 167.792 144.291  1.00  0.00    -0.003 C 
ATOM     30  C   UNL     1     171.882 167.953 145.305  1.00  0.00     0.004 C 
ENDBRANCH  28  29
ENDBRANCH  27  28
ENDBRANCH  26  27
ENDBRANCH  25  26
ENDBRANCH  24  25
ENDBRANCH  23  24
ENDBRANCH  22  23
ENDBRANCH  21  22
ENDBRANCH  20  21
ENDBRANCH  19  20
ENDBRANCH  18  19
ENDBRANCH  17  18
ENDBRANCH   1  17
TORSDOF 26
ENDMDL
MODEL 4
REMARK VINA RESULT:    -2.663     11.097     14.364
REMARK INTER + INTRA:         -12.797
REMARK INTER:                  -7.918
REMARK INTRA:                  -4.879
REMARK UNBOUND:                -6.087
REMARK SMILES CCCCCCCCCCCCCCCCCCCCCCCCCCCC(=O)[O-]
REMARK SMILES IDX 15 1 16 2 17 3 18 4 19 5 20 6 21 7 22 8 23 9 24 10 25 11
REMARK SMILES IDX 26 12 27 13 28 14 29 15 30 16 14 17 13 18 12 19 11 20 10 21
REMARK SMILES IDX 9 22 8 23 7 24 6 25 5 26 4 27 3 28 2 29 1 30
REMARK H PARENT
REMARK Flexibility Score: inf
ROOT
ATOM      1  C   UNL     1     170.686 159.948 145.229  1.00  0.00     0.000 C 
ENDROOT
BRANCH   1   2
ATOM      2  C   UNL     1     169.487 160.777 144.738  1.00  0.00     0.000 C 
BRANCH   2   3
ATOM      3  C   UNL     1     168.843 161.626 145.852  1.00  0.00     0.000 C 
BRANCH   3   4
ATOM      4  C   UNL     1     168.597 163.114 145.507  1.00  0.00     0.000 C 
BRANCH   4   5
ATOM      5  C   UNL     1     168.981 164.124 146.616  1.00  0.00     0.000 C 
BRANCH   5   6
ATOM      6  C   UNL     1     169.441 165.501 146.098  1.00  0.00     0.000 C 
BRANCH   6   7
ATOM      7  C   UNL     1     168.533 166.139 145.035  1.00  0.00     0.000 C 
BRANCH   7   8
ATOM      8  C   UNL     1     167.889 167.452 145.499  1.00  0.00     0.000 C 
BRANCH   8   9
ATOM      9  C   UNL     1     168.325 167.801 146.926  1.00  0.00     0.000 C 
BRANCH   9  10
ATOM     10  C   UNL     1     169.169 169.086 146.947  1.00  0.00     0.000 C 
BRANCH  10  11
ATOM     11  C   UNL     1     170.657 168.803 147.236  1.00  0.00     0.000 C 
BRANCH  11  12
ATOM     12  C   UNL     1     171.427 170.029 147.762  1.00  0.00     0.006 C 
BRANCH  12  13
ATOM     13  C   UNL     1     171.237 170.264 149.269  1.00  0.00     0.053 C 
BRANCH  13  14
ATOM     14  C   UNL     1     171.422 168.983 150.025  1.00  0.00     0.041 C 
ATOM     15  O   UNL     1     170.479 168.510 150.715  1.00  0.00    -0.550 OA
ATOM     16  O   UNL     1     172.667 168.363 150.039  1.00  0.00    -0.550 OA
ENDBRANCH  13  14
ENDBRANCH  12  13
ENDBRANCH  11  12
ENDBRANCH  10  11
ENDBRANCH   9  10
ENDBRANCH   8   9
ENDBRANCH   7   8
ENDBRANCH   6   7
ENDBRANCH   5   6
ENDBRANCH   4   5
ENDBRANCH   3   4
ENDBRANCH   2   3
ENDBRANCH   1   2
BRANCH   1  17
ATOM     17  C   UNL     1     171.788 160.815 145.871  1.00  0.00     0.000 C 
BRANCH  17  18
ATOM     18  C   UNL     1     172.736 161.482 144.854  1.00  0.00     0.000 C 
BRANCH  18  19
ATOM     19  C   UNL     1     172.926 163.002 145.026  1.00  0.00     0.000 C 
BRANCH  19  20
ATOM     20  C   UNL     1     172.047 163.885 144.121  1.00  0.00     0.000 C 
BRANCH  20  21
ATOM     21  C   UNL     1     172.776 164.377 142.861  1.00  0.00     0.000 C 
BRANCH  21  22
ATOM     22  C   UNL     1     172.968 165.903 142.886  1.00  0.00    -0.000 C 
BRANCH  22  23
ATOM     23  C   UNL     1     172.481 166.522 144.207  1.00  0.00    -0.000 C 
BRANCH  23  24
ATOM     24  C   UNL     1     171.615 167.782 143.983  1.00  0.00    -0.000 C 
BRANCH  24  25
ATOM     25  C   UNL     1     171.252 168.015 142.498  1.00  0.00    -0.000 C 
BRANCH  25  26
ATOM     26  C   UNL     1     169.737 168.187 142.250  1.00  0.00    -0.000 C 
BRANCH  26  27
ATOM     27  C   UNL     1     169.172 167.299 141.122  1.00  0.00    -0.000 C 
BRANCH  27  28
ATOM     28  C   UNL     1     170.211 166.367 140.469  1.00  0.00    -0.000 C 
BRANCH  28  29
ATOM     29  C   UNL     1     169.879 164.864 140.591  1.00  0.00    -0.003 C 
ATOM     30  C   UNL     1     169.093 164.537 141.861  1.00  0.00     0.004 C 
ENDBRANCH  28  29
ENDBRANCH  27  28
ENDBRANCH  26  27
ENDBRANCH  25  26
ENDBRANCH  24  25
ENDBRANCH  23  24
ENDBRANCH  22  23
ENDBRANCH  21  22
ENDBRANCH  20  21
ENDBRANCH  19  20
ENDBRANCH  18  19
ENDBRANCH  17  18
ENDBRANCH   1  17
TORSDOF 26
ENDMDL
MODEL 5
REMARK VINA RESULT:    -2.653      1.416      4.200
REMARK INTER + INTRA:         -12.774
REMARK INTER:                  -6.871
REMARK INTRA:                  -5.903
REMARK UNBOUND:                -6.087
REMARK SMILES CCCCCCCCCCCCCCCCCCCCCCCCCCCC(=O)[O-]
REMARK SMILES IDX 15 1 16 2 17 3 18 4 19 5 20 6 21 7 22 8 23 9 24 10 25 11
REMARK SMILES IDX 26 12 27 13 28 14 29 15 30 16 14 17 13 18 12 19 11 20 10 21
REMARK SMILES IDX 9 22 8 23 7 24 6 25 5 26 4 27 3 28 2 29 1 30
REMARK H PARENT
REMARK Flexibility Score: inf
ROOT
ATOM      1  C   UNL     1     168.993 154.182 150.629  1.00  0.00     0.000 C 
ENDROOT
BRANCH   1   2
ATOM      2  C   UNL     1     169.291 155.008 151.893  1.00  0.00     0.000 C 
BRANCH   2   3
ATOM      3  C   UNL     1     169.728 156.453 151.581  1.00  0.00     0.000 C 
BRANCH   3   4
ATOM      4  C   UNL     1     171.086 156.889 152.181  1.00  0.00     0.000 C 
BRANCH   4   5
ATOM      5  C   UNL     1     172.170 155.785 152.240  1.00  0.00     0.000 C 
BRANCH   5   6
ATOM      6  C   UNL     1     173.036 155.804 153.515  1.00  0.00     0.000 C 
BRANCH   6   7
ATOM      7  C   UNL     1     172.382 156.459 154.742  1.00  0.00     0.000 C 
BRANCH   7   8
ATOM      8  C   UNL     1     172.304 155.523 155.956  1.00  0.00     0.000 C 
BRANCH   8   9
ATOM      9  C   UNL     1     170.891 155.511 156.548  1.00  0.00     0.000 C 
BRANCH   9  10
ATOM     10  C   UNL     1     169.849 155.129 155.484  1.00  0.00     0.000 C 
BRANCH  10  11
ATOM     11  C   UNL     1     168.420 155.535 155.894  1.00  0.00     0.000 C 
BRANCH  11  12
ATOM     12  C   UNL     1     167.824 156.657 155.022  1.00  0.00     0.006 C 
BRANCH  12  13
ATOM     13  C   UNL     1     167.461 157.919 155.820  1.00  0.00     0.053 C 
BRANCH  13  14
ATOM     14  C   UNL     1     168.319 159.071 155.396  1.00  0.00     0.041 C 
ATOM     15  O   UNL     1     168.122 160.221 155.875  1.00  0.00    -0.550 OA
ATOM     16  O   UNL     1     169.278 158.892 154.404  1.00  0.00    -0.550 OA
ENDBRANCH  13  14
ENDBRANCH  12  13
ENDBRANCH  11  12
ENDBRANCH  10  11
ENDBRANCH   9  10
ENDBRANCH   8   9
ENDBRANCH   7   8
ENDBRANCH   6   7
ENDBRANCH   5   6
ENDBRANCH   4   5
ENDBRANCH   3   4
ENDBRANCH   2   3
ENDBRANCH   1   2
BRANCH   1  17
ATOM     17  C   UNL     1     170.135 154.244 149.594  1.00  0.00     0.000 C 
BRANCH  17  18
ATOM     18  C   UNL     1     171.110 153.052 149.662  1.00  0.00     0.000 C 
BRANCH  18  19
ATOM     19  C   UNL     1     170.488 151.714 150.107  1.00  0.00     0.000 C 
BRANCH  19  20
ATOM     20  C   UNL     1     170.997 151.163 151.452  1.00  0.00     0.000 C 
BRANCH  20  21
ATOM     21  C   UNL     1     171.893 152.153 152.213  1.00  0.00     0.000 C 
BRANCH  21  22
ATOM     22  C   UNL     1     171.344 152.435 153.621  1.00  0.00    -0.000 C 
BRANCH  22  23
ATOM     23  C   UNL     1     172.419 152.252 154.706  1.00  0.00    -0.000 C 
BRANCH  23  24
ATOM     24  C   UNL     1     171.839 151.673 156.017  1.00  0.00    -0.000 C 
BRANCH  24  25
ATOM     25  C   UNL     1     170.532 150.875 155.805  1.00  0.00    -0.000 C 
BRANCH  25  26
ATOM     26  C   UNL     1     169.263 151.636 156.252  1.00  0.00    -0.000 C 
BRANCH  26  27
ATOM     27  C   UNL     1     167.943 151.030 155.731  1.00  0.00    -0.000 C 
BRANCH  27  28
ATOM     28  C   UNL     1     166.853 152.068 155.405  1.00  0.00    -0.000 C 
BRANCH  28  29
ATOM     29  C   UNL     1     166.904 152.606 153.959  1.00  0.00    -0.003 C 
ATOM     30  C   UNL     1     167.733 151.719 153.029  1.00  0.00     0.004 C 
ENDBRANCH  28  29
ENDBRANCH  27  28
ENDBRANCH  26  27
ENDBRANCH  25  26
ENDBRANCH  24  25
ENDBRANCH  23  24
ENDBRANCH  22  23
ENDBRANCH  21  22
ENDBRANCH  20  21
ENDBRANCH  19  20
ENDBRANCH  18  19
ENDBRANCH  17  18
ENDBRANCH   1  17
TORSDOF 26
ENDMDL
MODEL 6
REMARK VINA RESULT:    -2.634     12.309     15.827
REMARK INTER + INTRA:         -12.724
REMARK INTER:                  -7.766
REMARK INTRA:                  -4.959
REMARK UNBOUND:                -6.087
REMARK SMILES CCCCCCCCCCCCCCCCCCCCCCCCCCCC(=O)[O-]
REMARK SMILES IDX 15 1 16 2 17 3 18 4 19 5 20 6 21 7 22 8 23 9 24 10 25 11
REMARK SMILES IDX 26 12 27 13 28 14 29 15 30 16 14 17 13 18 12 19 11 20 10 21
REMARK SMILES IDX 9 22 8 23 7 24 6 25 5 26 4 27 3 28 2 29 1 30
REMARK H PARENT
REMARK Flexibility Score: inf
ROOT
ATOM      1  C   UNL     1     169.469 164.049 146.066  1.00  0.00     0.000 C 
ENDROOT
BRANCH   1   2
ATOM      2  C   UNL     1     170.929 163.641 146.329  1.00  0.00     0.000 C 
BRANCH   2   3
ATOM      3  C   UNL     1     171.922 164.272 145.332  1.00  0.00     0.000 C 
BRANCH   3   4
ATOM      4  C   UNL     1     173.116 165.029 145.960  1.00  0.00     0.000 C 
BRANCH   4   5
ATOM      5  C   UNL     1     172.784 166.426 146.539  1.00  0.00     0.000 C 
BRANCH   5   6
ATOM      6  C   UNL     1     172.983 167.593 145.552  1.00  0.00     0.000 C 
BRANCH   6   7
ATOM      7  C   UNL     1     171.730 168.005 144.763  1.00  0.00     0.000 C 
BRANCH   7   8
ATOM      8  C   UNL     1     172.048 168.543 143.362  1.00  0.00     0.000 C 
BRANCH   8   9
ATOM      9  C   UNL     1     171.276 167.768 142.289  1.00  0.00     0.000 C 
BRANCH   9  10
ATOM     10  C   UNL     1     171.696 166.289 142.266  1.00  0.00     0.000 C 
BRANCH  10  11
ATOM     11  C   UNL     1     170.493 165.343 142.087  1.00  0.00     0.000 C 
BRANCH  11  12
ATOM     12  C   UNL     1     169.150 165.965 142.515  1.00  0.00     0.006 C 
BRANCH  12  13
ATOM     13  C   UNL     1     168.031 164.929 142.697  1.00  0.00     0.053 C 
BRANCH  13  14
ATOM     14  C   UNL     1     166.697 165.537 142.384  1.00  0.00     0.041 C 
ATOM     15  O   UNL     1     166.617 166.525 141.605  1.00  0.00    -0.550 OA
ATOM     16  O   UNL     1     165.555 165.068 143.024  1.00  0.00    -0.550 OA
ENDBRANCH  13  14
ENDBRANCH  12  13
ENDBRANCH  11  12
ENDBRANCH  10  11
ENDBRANCH   9  10
ENDBRANCH   8   9
ENDBRANCH   7   8
ENDBRANCH   6   7
ENDBRANCH   5   6
ENDBRANCH   4   5
ENDBRANCH   3   4
ENDBRANCH   2   3
ENDBRANCH   1   2
BRANCH   1  17
ATOM     17  C   UNL     1     169.244 165.570 146.185  1.00  0.00     0.000 C 
BRANCH  17  18
ATOM     18  C   UNL     1     167.760 165.984 146.248  1.00  0.00     0.000 C 
BRANCH  18  19
ATOM     19  C   UNL     1     167.489 167.384 146.833  1.00  0.00     0.000 C 
BRANCH  19  20
ATOM     20  C   UNL     1     168.724 168.119 147.386  1.00  0.00     0.000 C 
BRANCH  20  21
ATOM     21  C   UNL     1     168.723 169.625 147.080  1.00  0.00     0.000 C 
BRANCH  21  22
ATOM     22  C   UNL     1     169.909 170.334 147.753  1.00  0.00    -0.000 C 
BRANCH  22  23
ATOM     23  C   UNL     1     170.968 169.336 148.252  1.00  0.00    -0.000 C 
BRANCH  23  24
ATOM     24  C   UNL     1     171.238 169.473 149.768  1.00  0.00    -0.000 C 
BRANCH  24  25
ATOM     25  C   UNL     1     170.042 170.064 150.548  1.00  0.00    -0.000 C 
BRANCH  25  26
ATOM     26  C   UNL     1     169.126 168.993 151.183  1.00  0.00    -0.000 C 
BRANCH  26  27
ATOM     27  C   UNL     1     167.629 169.369 151.204  1.00  0.00    -0.000 C 
BRANCH  27  28
ATOM     28  C   UNL     1     167.274 170.610 150.362  1.00  0.00    -0.000 C 
BRANCH  28  29
ATOM     29  C   UNL     1     165.802 170.660 149.899  1.00  0.00    -0.003 C 
ATOM     30  C   UNL     1     165.428 169.482 148.999  1.00  0.00     0.004 C 
ENDBRANCH  28  29
ENDBRANCH  27  28
ENDBRANCH  26  27
ENDBRANCH  25  26
ENDBRANCH  24  25
ENDBRANCH  23  24
ENDBRANCH  22  23
ENDBRANCH  21  22
ENDBRANCH  20  21
ENDBRANCH  19  20
ENDBRANCH  18  19
ENDBRANCH  17  18
ENDBRANCH   1  17
TORSDOF 26
ENDMDL
MODEL 7
REMARK VINA RESULT:    -2.626     10.709     14.350
REMARK INTER + INTRA:         -12.704
REMARK INTER:                  -6.989
REMARK INTRA:                  -5.715
REMARK UNBOUND:                -6.087
REMARK SMILES CCCCCCCCCCCCCCCCCCCCCCCCCCCC(=O)[O-]
REMARK SMILES IDX 15 1 16 2 17 3 18 4 19 5 20 6 21 7 22 8 23 9 24 10 25 11
REMARK SMILES IDX 26 12 27 13 28 14 29 15 30 16 14 17 13 18 12 19 11 20 10 21
REMARK SMILES IDX 9 22 8 23 7 24 6 25 5 26 4 27 3 28 2 29 1 30
REMARK H PARENT
REMARK Flexibility Score: inf
ROOT
ATOM      1  C   UNL     1     173.020 164.261 144.034  1.00  0.00     0.000 C 
ENDROOT
BRANCH   1   2
ATOM      2  C   UNL     1     172.897 163.132 142.997  1.00  0.00     0.000 C 
BRANCH   2   3
ATOM      3  C   UNL     1     172.746 161.737 143.637  1.00  0.00     0.000 C 
BRANCH   3   4
ATOM      4  C   UNL     1     172.645 161.714 145.181  1.00  0.00     0.000 C 
BRANCH   4   5
ATOM      5  C   UNL     1     172.005 160.440 145.784  1.00  0.00     0.000 C 
BRANCH   5   6
ATOM      6  C   UNL     1     170.786 160.702 146.691  1.00  0.00     0.000 C 
BRANCH   6   7
ATOM      7  C   UNL     1     170.361 162.174 146.808  1.00  0.00     0.000 C 
BRANCH   7   8
ATOM      8  C   UNL     1     169.009 162.358 147.510  1.00  0.00     0.000 C 
BRANCH   8   9
ATOM      9  C   UNL     1     168.197 163.478 146.853  1.00  0.00     0.000 C 
BRANCH   9  10
ATOM     10  C   UNL     1     169.115 164.464 146.112  1.00  0.00     0.000 C 
BRANCH  10  11
ATOM     11  C   UNL     1     168.536 165.892 146.081  1.00  0.00     0.000 C 
BRANCH  11  12
ATOM     12  C   UNL     1     169.603 166.986 145.889  1.00  0.00     0.006 C 
BRANCH  12  13
ATOM     13  C   UNL     1     170.085 167.603 147.211  1.00  0.00     0.053 C 
BRANCH  13  14
ATOM     14  C   UNL     1     171.570 167.799 147.187  1.00  0.00     0.041 C 
ATOM     15  O   UNL     1     172.344 166.804 147.214  1.00  0.00    -0.550 OA
ATOM     16  O   UNL     1     172.099 169.086 147.225  1.00  0.00    -0.550 OA
ENDBRANCH  13  14
ENDBRANCH  12  13
ENDBRANCH  11  12
ENDBRANCH  10  11
ENDBRANCH   9  10
ENDBRANCH   8   9
ENDBRANCH   7   8
ENDBRANCH   6   7
ENDBRANCH   5   6
ENDBRANCH   4   5
ENDBRANCH   3   4
ENDBRANCH   2   3
ENDBRANCH   1   2
BRANCH   1  17
ATOM     17  C   UNL     1     171.991 165.389 143.813  1.00  0.00     0.000 C 
BRANCH  17  18
ATOM     18  C   UNL     1     172.613 166.796 143.709  1.00  0.00     0.000 C 
BRANCH  18  19
ATOM     19  C   UNL     1     172.162 167.628 142.492  1.00  0.00     0.000 C 
BRANCH  19  20
ATOM     20  C   UNL     1     171.431 166.842 141.387  1.00  0.00     0.000 C 
BRANCH  20  21
ATOM     21  C   UNL     1     170.046 167.413 141.049  1.00  0.00     0.000 C 
BRANCH  21  22
ATOM     22  C   UNL     1     169.290 167.833 142.321  1.00  0.00    -0.000 C 
BRANCH  22  23
ATOM     23  C   UNL     1     167.946 167.099 142.460  1.00  0.00    -0.000 C 
BRANCH  23  24
ATOM     24  C   UNL     1     167.905 165.786 141.646  1.00  0.00    -0.000 C 
BRANCH  24  25
ATOM     25  C   UNL     1     168.133 164.525 142.511  1.00  0.00    -0.000 C 
BRANCH  25  26
ATOM     26  C   UNL     1     169.418 163.748 142.146  1.00  0.00    -0.000 C 
BRANCH  26  27
ATOM     27  C   UNL     1     169.283 162.215 142.245  1.00  0.00    -0.000 C 
BRANCH  27  28
ATOM     28  C   UNL     1     168.710 161.713 143.585  1.00  0.00    -0.000 C 
BRANCH  28  29
ATOM     29  C   UNL     1     168.768 160.181 143.764  1.00  0.00    -0.003 C 
ATOM     30  C   UNL     1     169.796 159.519 142.845  1.00  0.00     0.004 C 
ENDBRANCH  28  29
ENDBRANCH  27  28
ENDBRANCH  26  27
ENDBRANCH  25  26
ENDBRANCH  24  25
ENDBRANCH  23  24
ENDBRANCH  22  23
ENDBRANCH  21  22
ENDBRANCH  20  21
ENDBRANCH  19  20
ENDBRANCH  18  19
ENDBRANCH  17  18
ENDBRANCH   1  17
TORSDOF 26
ENDMDL
MODEL 8
REMARK VINA RESULT:    -2.598     10.541     13.980
REMARK INTER + INTRA:         -12.635
REMARK INTER:                  -7.302
REMARK INTRA:                  -5.333
REMARK UNBOUND:                -6.087
REMARK SMILES CCCCCCCCCCCCCCCCCCCCCCCCCCCC(=O)[O-]
REMARK SMILES IDX 15 1 16 2 17 3 18 4 19 5 20 6 21 7 22 8 23 9 24 10 25 11
REMARK SMILES IDX 26 12 27 13 28 14 29 15 30 16 14 17 13 18 12 19 11 20 10 21
REMARK SMILES IDX 9 22 8 23 7 24 6 25 5 26 4 27 3 28 2 29 1 30
REMARK H PARENT
REMARK Flexibility Score: inf
ROOT
ATOM      1  C   UNL     1     168.473 164.327 143.906  1.00  0.00     0.000 C 
ENDROOT
BRANCH   1   2
ATOM      2  C   UNL     1     168.986 165.775 143.996  1.00  0.00     0.000 C 
BRANCH   2   3
ATOM      3  C   UNL     1     168.041 166.793 143.327  1.00  0.00     0.000 C 
BRANCH   3   4
ATOM      4  C   UNL     1     167.294 166.291 142.068  1.00  0.00     0.000 C 
BRANCH   4   5
ATOM      5  C   UNL     1     168.105 166.343 140.751  1.00  0.00     0.000 C 
BRANCH   5   6
ATOM      6  C   UNL     1     168.392 164.966 140.120  1.00  0.00     0.000 C 
BRANCH   6   7
ATOM      7  C   UNL     1     169.878 164.650 139.884  1.00  0.00     0.000 C 
BRANCH   7   8
ATOM      8  C   UNL     1     170.735 165.904 139.667  1.00  0.00     0.000 C 
BRANCH   8   9
ATOM      9  C   UNL     1     171.966 165.892 140.578  1.00  0.00     0.000 C 
BRANCH   9  10
ATOM     10  C   UNL     1     171.803 166.885 141.740  1.00  0.00     0.000 C 
BRANCH  10  11
ATOM     11  C   UNL     1     172.897 166.714 142.812  1.00  0.00     0.000 C 
BRANCH  11  12
ATOM     12  C   UNL     1     172.448 167.137 144.224  1.00  0.00     0.006 C 
BRANCH  12  13
ATOM     13  C   UNL     1     173.125 166.331 145.344  1.00  0.00     0.053 C 
BRANCH  13  14
ATOM     14  C   UNL     1     172.215 166.216 146.529  1.00  0.00     0.041 C 
ATOM     15  O   UNL     1     172.150 167.150 147.373  1.00  0.00    -0.550 OA
ATOM     16  O   UNL     1     171.508 165.038 146.747  1.00  0.00    -0.550 OA
ENDBRANCH  13  14
ENDBRANCH  12  13
ENDBRANCH  11  12
ENDBRANCH  10  11
ENDBRANCH   9  10
ENDBRANCH   8   9
ENDBRANCH   7   8
ENDBRANCH   6   7
ENDBRANCH   5   6
ENDBRANCH   4   5
ENDBRANCH   3   4
ENDBRANCH   2   3
ENDBRANCH   1   2
BRANCH   1  17
ATOM     17  C   UNL     1     169.512 163.364 143.295  1.00  0.00     0.000 C 
BRANCH  17  18
ATOM     18  C   UNL     1     170.975 163.793 143.520  1.00  0.00     0.000 C 
BRANCH  18  19
ATOM     19  C   UNL     1     172.030 162.962 142.763  1.00  0.00     0.000 C 
BRANCH  19  20
ATOM     20  C   UNL     1     173.125 162.326 143.640  1.00  0.00     0.000 C 
BRANCH  20  21
ATOM     21  C   UNL     1     172.700 162.146 145.105  1.00  0.00     0.000 C 
BRANCH  21  22
ATOM     22  C   UNL     1     172.360 160.678 145.412  1.00  0.00    -0.000 C 
BRANCH  22  23
ATOM     23  C   UNL     1     171.023 160.253 144.782  1.00  0.00    -0.000 C 
BRANCH  23  24
ATOM     24  C   UNL     1     169.931 159.985 145.843  1.00  0.00    -0.000 C 
BRANCH  24  25
ATOM     25  C   UNL     1     169.004 161.198 146.083  1.00  0.00    -0.000 C 
BRANCH  25  26
ATOM     26  C   UNL     1     169.535 162.181 147.151  1.00  0.00    -0.000 C 
BRANCH  26  27
ATOM     27  C   UNL     1     170.144 161.500 148.394  1.00  0.00    -0.000 C 
BRANCH  27  28
ATOM     28  C   UNL     1     169.133 160.704 149.241  1.00  0.00    -0.000 C 
BRANCH  28  29
ATOM     29  C   UNL     1     167.821 161.462 149.539  1.00  0.00    -0.003 C 
ATOM     30  C   UNL     1     166.582 160.703 149.064  1.00  0.00     0.004 C 
ENDBRANCH  28  29
ENDBRANCH  27  28
ENDBRANCH  26  27
ENDBRANCH  25  26
ENDBRANCH  24  25
ENDBRANCH  23  24
ENDBRANCH  22  23
ENDBRANCH  21  22
ENDBRANCH  20  21
ENDBRANCH  19  20
ENDBRANCH  18  19
ENDBRANCH  17  18
ENDBRANCH   1  17
TORSDOF 26
ENDMDL
MODEL 9
REMARK VINA RESULT:    -2.584     10.245     13.196
REMARK INTER + INTRA:         -12.598
REMARK INTER:                  -6.993
REMARK INTRA:                  -5.606
REMARK UNBOUND:                -6.087
REMARK SMILES CCCCCCCCCCCCCCCCCCCCCCCCCCCC(=O)[O-]
REMARK SMILES IDX 15 1 16 2 17 3 18 4 19 5 20 6 21 7 22 8 23 9 24 10 25 11
REMARK SMILES IDX 26 12 27 13 28 14 29 15 30 16 14 17 13 18 12 19 11 20 10 21
REMARK SMILES IDX 9 22 8 23 7 24 6 25 5 26 4 27 3 28 2 29 1 30
REMARK H PARENT
REMARK Flexibility Score: inf
ROOT
ATOM      1  C   UNL     1     169.230 164.392 146.064  1.00  0.00     0.000 C 
ENDROOT
BRANCH   1   2
ATOM      2  C   UNL     1     170.671 164.512 146.590  1.00  0.00     0.000 C 
BRANCH   2   3
ATOM      3  C   UNL     1     171.711 163.852 145.662  1.00  0.00     0.000 C 
BRANCH   3   4
ATOM      4  C   UNL     1     172.974 164.693 145.361  1.00  0.00     0.000 C 
BRANCH   4   5
ATOM      5  C   UNL     1     173.025 165.331 143.952  1.00  0.00     0.000 C 
BRANCH   5   6
ATOM      6  C   UNL     1     173.125 166.870 143.947  1.00  0.00     0.000 C 
BRANCH   6   7
ATOM      7  C   UNL     1     171.800 167.613 144.180  1.00  0.00     0.000 C 
BRANCH   7   8
ATOM      8  C   UNL     1     170.575 166.833 143.682  1.00  0.00     0.000 C 
BRANCH   8   9
ATOM      9  C   UNL     1     169.418 167.782 143.356  1.00  0.00     0.000 C 
BRANCH   9  10
ATOM     10  C   UNL     1     168.165 167.426 144.173  1.00  0.00     0.000 C 
BRANCH  10  11
ATOM     11  C   UNL     1     167.421 166.204 143.599  1.00  0.00     0.000 C 
BRANCH  11  12
ATOM     12  C   UNL     1     165.912 166.198 143.912  1.00  0.00     0.006 C 
BRANCH  12  13
ATOM     13  C   UNL     1     165.532 165.235 145.047  1.00  0.00     0.053 C 
BRANCH  13  14
ATOM     14  C   UNL     1     165.332 165.988 146.328  1.00  0.00     0.041 C 
ATOM     15  O   UNL     1     166.326 166.341 147.018  1.00  0.00    -0.550 OA
ATOM     16  O   UNL     1     164.045 166.218 146.801  1.00  0.00    -0.550 OA
ENDBRANCH  13  14
ENDBRANCH  12  13
ENDBRANCH  11  12
ENDBRANCH  10  11
ENDBRANCH   9  10
ENDBRANCH   8   9
ENDBRANCH   7   8
ENDBRANCH   6   7
ENDBRANCH   5   6
ENDBRANCH   4   5
ENDBRANCH   3   4
ENDBRANCH   2   3
ENDBRANCH   1   2
BRANCH   1  17
ATOM     17  C   UNL     1     168.360 163.447 146.918  1.00  0.00     0.000 C 
BRANCH  17  18
ATOM     18  C   UNL     1     167.775 162.254 146.137  1.00  0.00     0.000 C 
BRANCH  18  19
ATOM     19  C   UNL     1     168.230 160.862 146.619  1.00  0.00     0.000 C 
BRANCH  19  20
ATOM     20  C   UNL     1     169.474 160.292 145.912  1.00  0.00     0.000 C 
BRANCH  20  21
ATOM     21  C   UNL     1     170.790 160.630 146.631  1.00  0.00     0.000 C 
BRANCH  21  22
ATOM     22  C   UNL     1     172.008 160.210 145.793  1.00  0.00    -0.000 C 
BRANCH  22  23
ATOM     23  C   UNL     1     171.643 159.155 144.735  1.00  0.00    -0.000 C 
BRANCH  23  24
ATOM     24  C   UNL     1     172.019 159.602 143.304  1.00  0.00    -0.000 C 
BRANCH  24  25
ATOM     25  C   UNL     1     172.640 161.016 143.251  1.00  0.00    -0.000 C 
BRANCH  25  26
ATOM     26  C   UNL     1     171.805 162.029 142.436  1.00  0.00    -0.000 C 
BRANCH  26  27
ATOM     27  C   UNL     1     170.334 162.146 142.884  1.00  0.00    -0.000 C 
BRANCH  27  28
ATOM     28  C   UNL     1     169.639 163.450 142.447  1.00  0.00    -0.000 C 
BRANCH  28  29
ATOM     29  C   UNL     1     170.299 164.144 141.236  1.00  0.00    -0.003 C 
ATOM     30  C   UNL     1     169.381 165.169 140.572  1.00  0.00     0.004 C 
ENDBRANCH  28  29
ENDBRANCH  27  28
ENDBRANCH  26  27
ENDBRANCH  25  26
ENDBRANCH  24  25
ENDBRANCH  23  24
ENDBRANCH  22  23
ENDBRANCH  21  22
ENDBRANCH  20  21
ENDBRANCH  19  20
ENDBRANCH  18  19
ENDBRANCH  17  18
ENDBRANCH   1  17
TORSDOF 26
ENDMDL
