MODEL 1
REMARK VINA RESULT:    -3.290      0.000      0.000
REMARK INTER + INTRA:          -4.767
REMARK INTER:                  -4.251
REMARK INTRA:                  -0.516
REMARK UNBOUND:                -0.516
REMARK SMILES C=CC(=O)CCCCC
REMARK SMILES IDX 6 1 7 2 8 3 9 4 5 5 3 6 4 7 2 8 1 9
REMARK H PARENT
REMARK Flexibility Score: inf
ROOT
ATOM      1  C   UNL     1      67.981  67.748  40.595  1.00  0.00     0.008 C 
ENDROOT
BRANCH   1   2
ATOM      2  C   UNL     1      67.269  68.566  41.685  1.00  0.00     0.000 C 
BRANCH   2   3
ATOM      3  C   UNL     1      66.860  67.711  42.893  1.00  0.00    -0.003 C 
ATOM      4  C   UNL     1      67.795  66.516  43.061  1.00  0.00     0.004 C 
ENDBRANCH   2   3
ENDBRANCH   1   2
BRANCH   1   5
ATOM      5  C   UNL     1      67.073  67.444  39.396  1.00  0.00     0.080 C 
BRANCH   5   6
ATOM      6  C   UNL     1      66.084  66.372  39.745  1.00  0.00     0.155 C 
ATOM      7  O   UNL     1      66.499  65.209  40.000  1.00  0.00    -0.295 OA
BRANCH   6   8
ATOM      8  C   UNL     1      64.646  66.693  39.831  1.00  0.00     0.039 C 
ATOM      9  C   UNL     1      64.185  67.938  39.735  1.00  0.00     0.012 C 
ENDBRANCH   6   8
ENDBRANCH   5   6
ENDBRANCH   1   5
TORSDOF 5
ENDMDL
MODEL 2
REMARK VINA RESULT:    -3.288     13.322     14.462
REMARK INTER + INTRA:          -4.765
REMARK INTER:                  -4.525
REMARK INTRA:                  -0.240
REMARK UNBOUND:                -0.516
REMARK SMILES C=CC(=O)CCCCC
REMARK SMILES IDX 6 1 7 2 8 3 9 4 5 5 3 6 4 7 2 8 1 9
REMARK H PARENT
REMARK Flexibility Score: inf
ROOT
ATOM      1  C   UNL     1      54.088  66.571  34.771  1.00  0.00     0.008 C 
ENDROOT
BRANCH   1   2
ATOM      2  C   UNL     1      54.029  65.146  34.197  1.00  0.00     0.000 C 
BRANCH   2   3
ATOM      3  C   UNL     1      53.256  64.177  35.103  1.00  0.00    -0.003 C 
ATOM      4  C   UNL     1      53.167  64.712  36.530  1.00  0.00     0.004 C 
ENDBRANCH   2   3
ENDBRANCH   1   2
BRANCH   1   5
ATOM      5  C   UNL     1      53.133  67.536  34.057  1.00  0.00     0.080 C 
BRANCH   5   6
ATOM      6  C   UNL     1      53.877  68.742  33.564  1.00  0.00     0.155 C 
ATOM      7  O   UNL     1      53.416  69.396  32.590  1.00  0.00    -0.295 OA
BRANCH   6   8
ATOM      8  C   UNL     1      55.111  69.178  34.245  1.00  0.00     0.039 C 
ATOM      9  C   UNL     1      56.158  69.668  33.584  1.00  0.00     0.012 C 
ENDBRANCH   6   8
ENDBRANCH   5   6
ENDBRANCH   1   5
TORSDOF 5
ENDMDL
MODEL 3
REMARK VINA RESULT:    -3.205      1.428      2.109
REMARK INTER + INTRA:          -4.658
REMARK INTER:                  -4.400
REMARK INTRA:                  -0.258
REMARK UNBOUND:                -0.516
REMARK SMILES C=CC(=O)CCCCC
REMARK SMILES IDX 6 1 7 2 8 3 9 4 5 5 3 6 4 7 2 8 1 9
REMARK H PARENT
REMARK Flexibility Score: inf
ROOT
ATOM      1  C   UNL     1      66.654  67.275  42.586  1.00  0.00     0.008 C 
ENDROOT
BRANCH   1   2
ATOM      2  C   UNL     1      67.691  66.488  43.403  1.00  0.00     0.000 C 
BRANCH   2   3
ATOM      3  C   UNL     1      69.116  67.033  43.230  1.00  0.00    -0.003 C 
ATOM      4  C   UNL     1      69.767  67.308  44.583  1.00  0.00     0.004 C 
ENDBRANCH   2   3
ENDBRANCH   1   2
BRANCH   1   5
ATOM      5  C   UNL     1      67.278  68.014  41.394  1.00  0.00     0.080 C 
BRANCH   5   6
ATOM      6  C   UNL     1      66.695  67.517  40.105  1.00  0.00     0.155 C 
ATOM      7  O   UNL     1      67.387  67.573  39.052  1.00  0.00    -0.295 OA
BRANCH   6   8
ATOM      8  C   UNL     1      65.343  66.928  40.085  1.00  0.00     0.039 C 
ATOM      9  C   UNL     1      64.250  67.655  39.860  1.00  0.00     0.012 C 
ENDBRANCH   6   8
ENDBRANCH   5   6
ENDBRANCH   1   5
TORSDOF 5
ENDMDL
MODEL 4
REMARK VINA RESULT:    -3.181      1.331      4.165
REMARK INTER + INTRA:          -4.627
REMARK INTER:                  -4.395
REMARK INTRA:                  -0.233
REMARK UNBOUND:                -0.516
REMARK SMILES C=CC(=O)CCCCC
REMARK SMILES IDX 6 1 7 2 8 3 9 4 5 5 3 6 4 7 2 8 1 9
REMARK H PARENT
REMARK Flexibility Score: inf
ROOT
ATOM      1  C   UNL     1      67.060  67.992  41.010  1.00  0.00     0.008 C 
ENDROOT
BRANCH   1   2
ATOM      2  C   UNL     1      66.359  67.361  39.796  1.00  0.00     0.000 C 
BRANCH   2   3
ATOM      3  C   UNL     1      64.916  66.937  40.103  1.00  0.00    -0.003 C 
ATOM      4  C   UNL     1      63.925  68.026  39.698  1.00  0.00     0.004 C 
ENDBRANCH   2   3
ENDBRANCH   1   2
BRANCH   1   5
ATOM      5  C   UNL     1      66.737  67.266  42.322  1.00  0.00     0.080 C 
BRANCH   5   6
ATOM      6  C   UNL     1      67.873  66.370  42.719  1.00  0.00     0.155 C 
ATOM      7  O   UNL     1      68.256  65.469  41.924  1.00  0.00    -0.295 OA
BRANCH   6   8
ATOM      8  C   UNL     1      68.560  66.576  44.009  1.00  0.00     0.039 C 
ATOM      9  C   UNL     1      69.484  67.519  44.183  1.00  0.00     0.012 C 
ENDBRANCH   6   8
ENDBRANCH   5   6
ENDBRANCH   1   5
TORSDOF 5
ENDMDL
MODEL 5
REMARK VINA RESULT:    -3.131      1.308      1.968
REMARK INTER + INTRA:          -4.563
REMARK INTER:                  -4.312
REMARK INTRA:                  -0.251
REMARK UNBOUND:                -0.516
REMARK SMILES C=CC(=O)CCCCC
REMARK SMILES IDX 6 1 7 2 8 3 9 4 5 5 3 6 4 7 2 8 1 9
REMARK H PARENT
REMARK Flexibility Score: inf
ROOT
ATOM      1  C   UNL     1      67.156  66.751  42.472  1.00  0.00     0.008 C 
ENDROOT
BRANCH   1   2
ATOM      2  C   UNL     1      68.155  66.498  43.613  1.00  0.00     0.000 C 
BRANCH   2   3
ATOM      3  C   UNL     1      69.097  67.688  43.846  1.00  0.00    -0.003 C 
ATOM      4  C   UNL     1      68.570  68.948  43.164  1.00  0.00     0.004 C 
ENDBRANCH   2   3
ENDBRANCH   1   2
BRANCH   1   5
ATOM      5  C   UNL     1      67.491  65.952  41.205  1.00  0.00     0.080 C 
BRANCH   5   6
ATOM      6  C   UNL     1      66.402  66.107  40.185  1.00  0.00     0.155 C 
ATOM      7  O   UNL     1      66.139  65.146  39.413  1.00  0.00    -0.295 OA
BRANCH   6   8
ATOM      8  C   UNL     1      65.622  67.357  40.122  1.00  0.00     0.039 C 
ATOM      9  C   UNL     1      64.293  67.367  40.033  1.00  0.00     0.012 C 
ENDBRANCH   6   8
ENDBRANCH   5   6
ENDBRANCH   1   5
TORSDOF 5
ENDMDL
MODEL 6
REMARK VINA RESULT:    -3.088      1.367      2.160
REMARK INTER + INTRA:          -4.507
REMARK INTER:                  -4.050
REMARK INTRA:                  -0.457
REMARK UNBOUND:                -0.516
REMARK SMILES C=CC(=O)CCCCC
REMARK SMILES IDX 6 1 7 2 8 3 9 4 5 5 3 6 4 7 2 8 1 9
REMARK H PARENT
REMARK Flexibility Score: inf
ROOT
ATOM      1  C   UNL     1      67.145  68.347  41.652  1.00  0.00     0.008 C 
ENDROOT
BRANCH   1   2
ATOM      2  C   UNL     1      66.831  67.417  42.835  1.00  0.00     0.000 C 
BRANCH   2   3
ATOM      3  C   UNL     1      67.915  66.351  43.050  1.00  0.00    -0.003 C 
ATOM      4  C   UNL     1      68.926  66.800  44.102  1.00  0.00     0.004 C 
ENDBRANCH   2   3
ENDBRANCH   1   2
BRANCH   1   5
ATOM      5  C   UNL     1      67.348  67.582  40.337  1.00  0.00     0.080 C 
BRANCH   5   6
ATOM      6  C   UNL     1      66.064  66.942  39.899  1.00  0.00     0.155 C 
ATOM      7  O   UNL     1      65.025  67.650  39.794  1.00  0.00    -0.295 OA
BRANCH   6   8
ATOM      8  C   UNL     1      66.034  65.509  39.552  1.00  0.00     0.039 C 
ATOM      9  C   UNL     1      66.995  64.664  39.921  1.00  0.00     0.012 C 
ENDBRANCH   6   8
ENDBRANCH   5   6
ENDBRANCH   1   5
TORSDOF 5
ENDMDL
MODEL 7
REMARK VINA RESULT:    -3.072     12.892     13.929
REMARK INTER + INTRA:          -4.486
REMARK INTER:                  -4.260
REMARK INTRA:                  -0.225
REMARK UNBOUND:                -0.516
REMARK SMILES C=CC(=O)CCCCC
REMARK SMILES IDX 6 1 7 2 8 3 9 4 5 5 3 6 4 7 2 8 1 9
REMARK H PARENT
REMARK Flexibility Score: inf
ROOT
ATOM      1  C   UNL     1      53.445  67.233  35.144  1.00  0.00     0.008 C 
ENDROOT
BRANCH   1   2
ATOM      2  C   UNL     1      54.467  68.375  35.263  1.00  0.00     0.000 C 
BRANCH   2   3
ATOM      3  C   UNL     1      54.606  69.180  33.962  1.00  0.00    -0.003 C 
ATOM      4  C   UNL     1      56.068  69.513  33.676  1.00  0.00     0.004 C 
ENDBRANCH   2   3
ENDBRANCH   1   2
BRANCH   1   5
ATOM      5  C   UNL     1      54.000  66.018  34.390  1.00  0.00     0.080 C 
BRANCH   5   6
ATOM      6  C   UNL     1      54.159  64.852  35.320  1.00  0.00     0.155 C 
ATOM      7  O   UNL     1      55.241  64.708  35.951  1.00  0.00    -0.295 OA
BRANCH   6   8
ATOM      8  C   UNL     1      53.040  63.912  35.523  1.00  0.00     0.039 C 
ATOM      9  C   UNL     1      52.334  63.875  36.652  1.00  0.00     0.012 C 
ENDBRANCH   6   8
ENDBRANCH   5   6
ENDBRANCH   1   5
TORSDOF 5
ENDMDL
MODEL 8
REMARK VINA RESULT:    -3.044     13.468     14.444
REMARK INTER + INTRA:          -4.450
REMARK INTER:                  -4.316
REMARK INTRA:                  -0.134
REMARK UNBOUND:                -0.516
REMARK SMILES C=CC(=O)CCCCC
REMARK SMILES IDX 6 1 7 2 8 3 9 4 5 5 3 6 4 7 2 8 1 9
REMARK H PARENT
REMARK Flexibility Score: inf
ROOT
ATOM      1  C   UNL     1      54.907  68.820  34.649  1.00  0.00     0.008 C 
ENDROOT
BRANCH   1   2
ATOM      2  C   UNL     1      55.499  69.775  33.599  1.00  0.00     0.000 C 
BRANCH   2   3
ATOM      3  C   UNL     1      54.443  70.293  32.611  1.00  0.00    -0.003 C 
ATOM      4  C   UNL     1      54.990  71.451  31.780  1.00  0.00     0.004 C 
ENDBRANCH   2   3
ENDBRANCH   1   2
BRANCH   1   5
ATOM      5  C   UNL     1      53.809  67.916  34.074  1.00  0.00     0.080 C 
BRANCH   5   6
ATOM      6  C   UNL     1      53.592  66.726  34.961  1.00  0.00     0.155 C 
ATOM      7  O   UNL     1      53.016  66.881  36.072  1.00  0.00    -0.295 OA
BRANCH   6   8
ATOM      8  C   UNL     1      54.009  65.384  34.511  1.00  0.00     0.039 C 
ATOM      9  C   UNL     1      53.308  64.287  34.791  1.00  0.00     0.012 C 
ENDBRANCH   6   8
ENDBRANCH   5   6
ENDBRANCH   1   5
TORSDOF 5
ENDMDL
MODEL 9
REMARK VINA RESULT:    -2.974      2.434      4.716
REMARK INTER + INTRA:          -4.359
REMARK INTER:                  -4.100
REMARK INTRA:                  -0.259
REMARK UNBOUND:                -0.516
REMARK SMILES C=CC(=O)CCCCC
REMARK SMILES IDX 6 1 7 2 8 3 9 4 5 5 3 6 4 7 2 8 1 9
REMARK H PARENT
REMARK Flexibility Score: inf
ROOT
ATOM      1  C   UNL     1      66.514  67.294  42.196  1.00  0.00     0.008 C 
ENDROOT
BRANCH   1   2
ATOM      2  C   UNL     1      66.620  66.576  40.841  1.00  0.00     0.000 C 
BRANCH   2   3
ATOM      3  C   UNL     1      65.855  67.304  39.726  1.00  0.00    -0.003 C 
ATOM      4  C   UNL     1      64.362  67.376  40.041  1.00  0.00     0.004 C 
ENDBRANCH   2   3
ENDBRANCH   1   2
BRANCH   1   5
ATOM      5  C   UNL     1      67.254  68.639  42.211  1.00  0.00     0.080 C 
BRANCH   5   6
ATOM      6  C   UNL     1      68.473  68.557  43.081  1.00  0.00     0.155 C 
ATOM      7  O   UNL     1      69.184  69.585  43.247  1.00  0.00    -0.295 OA
BRANCH   6   8
ATOM      8  C   UNL     1      68.806  67.295  43.770  1.00  0.00     0.039 C 
ATOM      9  C   UNL     1      69.861  67.176  44.574  1.00  0.00     0.012 C 
ENDBRANCH   6   8
ENDBRANCH   5   6
ENDBRANCH   1   5
TORSDOF 5
ENDMDL
