MODEL 1
REMARK VINA RESULT:    25.650      0.000      0.000
REMARK INTER + INTRA:          63.175
REMARK INTER:                  64.637
REMARK INTRA:                  -1.462
REMARK UNBOUND:                -1.462
REMARK SMILES CCCCCCCCCCCCCCCCCCCCCCCCCCCC(=O)[O-]
REMARK SMILES IDX 15 1 16 2 17 3 18 4 19 5 20 6 21 7 22 8 23 9 24 10 25 11
REMARK SMILES IDX 26 12 27 13 28 14 29 15 30 16 14 17 13 18 12 19 11 20 10 21
REMARK SMILES IDX 9 22 8 23 7 24 6 25 5 26 4 27 3 28 2 29 1 30
REMARK H PARENT
REMARK Flexibility Score: inf
ROOT
ATOM      1  C   UNL     1     -13.872  34.849 -11.138  1.00  0.00     0.000 C 
ENDROOT
BRANCH   1   2
ATOM      2  C   UNL     1     -14.061  33.325 -11.021  1.00  0.00     0.000 C 
BRANCH   2   3
ATOM      3  C   UNL     1     -15.027  32.854  -9.919  1.00  0.00     0.000 C 
BRANCH   3   4
ATOM      4  C   UNL     1     -14.417  31.792  -8.990  1.00  0.00     0.000 C 
BRANCH   4   5
ATOM      5  C   UNL     1     -12.915  31.577  -9.251  1.00  0.00     0.000 C 
BRANCH   5   6
ATOM      6  C   UNL     1     -12.188  30.720  -8.195  1.00  0.00     0.000 C 
BRANCH   6   7
ATOM      7  C   UNL     1     -11.458  29.477  -8.745  1.00  0.00     0.000 C 
BRANCH   7   8
ATOM      8  C   UNL     1     -10.151  29.113  -8.015  1.00  0.00     0.000 C 
BRANCH   8   9
ATOM      9  C   UNL     1      -9.965  29.888  -6.704  1.00  0.00     0.000 C 
BRANCH   9  10
ATOM     10  C   UNL     1      -8.771  30.847  -6.792  1.00  0.00     0.000 C 
BRANCH  10  11
ATOM     11  C   UNL     1      -8.247  30.937  -8.233  1.00  0.00     0.000 C 
BRANCH  11  12
ATOM     12  C   UNL     1      -7.400  32.199  -8.483  1.00  0.00     0.006 C 
BRANCH  12  13
ATOM     13  C   UNL     1      -7.732  32.933  -9.793  1.00  0.00     0.053 C 
BRANCH  13  14
ATOM     14  C   UNL     1      -6.516  33.151 -10.640  1.00  0.00     0.041 C 
ATOM     15  O   UNL     1      -6.631  33.332 -11.881  1.00  0.00    -0.550 OA
ATOM     16  O   UNL     1      -5.252  33.125 -10.062  1.00  0.00    -0.550 OA
ENDBRANCH  13  14
ENDBRANCH  12  13
ENDBRANCH  11  12
ENDBRANCH  10  11
ENDBRANCH   9  10
ENDBRANCH   8   9
ENDBRANCH   7   8
ENDBRANCH   6   7
ENDBRANCH   5   6
ENDBRANCH   4   5
ENDBRANCH   3   4
ENDBRANCH   2   3
ENDBRANCH   1   2
BRANCH   1  17
ATOM     17  C   UNL     1     -13.325  35.290 -12.504  1.00  0.00     0.000 C 
BRANCH  17  18
ATOM     18  C   UNL     1     -12.308  36.441 -12.395  1.00  0.00     0.000 C 
BRANCH  18  19
ATOM     19  C   UNL     1     -12.713  37.710 -13.176  1.00  0.00     0.000 C 
BRANCH  19  20
ATOM     20  C   UNL     1     -11.550  38.296 -13.998  1.00  0.00     0.000 C 
BRANCH  20  21
ATOM     21  C   UNL     1     -10.919  39.534 -13.338  1.00  0.00     0.000 C 
BRANCH  21  22
ATOM     22  C   UNL     1     -11.787  40.123 -12.215  1.00  0.00    -0.000 C 
BRANCH  22  23
ATOM     23  C   UNL     1     -11.011  41.184 -11.419  1.00  0.00    -0.000 C 
BRANCH  23  24
ATOM     24  C   UNL     1     -11.263  41.090  -9.907  1.00  0.00    -0.000 C 
BRANCH  24  25
ATOM     25  C   UNL     1      -9.983  41.289  -9.078  1.00  0.00    -0.000 C 
BRANCH  25  26
ATOM     26  C   UNL     1     -10.252  41.924  -7.702  1.00  0.00    -0.000 C 
BRANCH  26  27
ATOM     27  C   UNL     1     -11.739  42.133  -7.362  1.00  0.00    -0.000 C 
BRANCH  27  28
ATOM     28  C   UNL     1     -12.298  41.056  -6.420  1.00  0.00    -0.000 C 
BRANCH  28  29
ATOM     29  C   UNL     1     -13.701  41.432  -5.930  1.00  0.00    -0.003 C 
ATOM     30  C   UNL     1     -13.749  41.511  -4.406  1.00  0.00     0.004 C 
ENDBRANCH  28  29
ENDBRANCH  27  28
ENDBRANCH  26  27
ENDBRANCH  25  26
ENDBRANCH  24  25
ENDBRANCH  23  24
ENDBRANCH  22  23
ENDBRANCH  21  22
ENDBRANCH  20  21
ENDBRANCH  19  20
ENDBRANCH  18  19
ENDBRANCH  17  18
ENDBRANCH   1  17
TORSDOF 26
ENDMDL
MODEL 2
REMARK VINA RESULT:    25.749      3.262     10.152
REMARK INTER + INTRA:          63.425
REMARK INTER:                  64.790
REMARK INTRA:                  -1.365
REMARK UNBOUND:                -1.462
REMARK SMILES CCCCCCCCCCCCCCCCCCCCCCCCCCCC(=O)[O-]
REMARK SMILES IDX 15 1 16 2 17 3 18 4 19 5 20 6 21 7 22 8 23 9 24 10 25 11
REMARK SMILES IDX 26 12 27 13 28 14 29 15 30 16 14 17 13 18 12 19 11 20 10 21
REMARK SMILES IDX 9 22 8 23 7 24 6 25 5 26 4 27 3 28 2 29 1 30
REMARK H PARENT
REMARK Flexibility Score: inf
ROOT
ATOM      1  C   UNL     1     -14.240  34.557 -11.122  1.00  0.00     0.000 C 
ENDROOT
BRANCH   1   2
ATOM      2  C   UNL     1     -13.256  34.826 -12.276  1.00  0.00     0.000 C 
BRANCH   2   3
ATOM      3  C   UNL     1     -12.542  36.190 -12.241  1.00  0.00     0.000 C 
BRANCH   3   4
ATOM      4  C   UNL     1     -13.009  37.148 -13.348  1.00  0.00     0.000 C 
BRANCH   4   5
ATOM      5  C   UNL     1     -12.039  38.326 -13.553  1.00  0.00     0.000 C 
BRANCH   5   6
ATOM      6  C   UNL     1     -12.344  39.575 -12.701  1.00  0.00     0.000 C 
BRANCH   6   7
ATOM      7  C   UNL     1     -11.141  40.507 -12.444  1.00  0.00     0.000 C 
BRANCH   7   8
ATOM      8  C   UNL     1     -11.499  41.888 -11.864  1.00  0.00     0.000 C 
BRANCH   8   9
ATOM      9  C   UNL     1     -11.567  41.891 -10.331  1.00  0.00     0.000 C 
BRANCH   9  10
ATOM     10  C   UNL     1     -10.429  41.060  -9.725  1.00  0.00     0.000 C 
BRANCH  10  11
ATOM     11  C   UNL     1      -9.763  41.809  -8.561  1.00  0.00     0.000 C 
BRANCH  11  12
ATOM     12  C   UNL     1     -10.783  42.373  -7.553  1.00  0.00     0.006 C 
BRANCH  12  13
ATOM     13  C   UNL     1     -11.286  41.348  -6.523  1.00  0.00     0.053 C 
BRANCH  13  14
ATOM     14  C   UNL     1     -12.716  41.585  -6.144  1.00  0.00     0.041 C 
ATOM     15  O   UNL     1     -13.026  41.799  -4.943  1.00  0.00    -0.550 OA
ATOM     16  O   UNL     1     -13.709  41.541  -7.116  1.00  0.00    -0.550 OA
ENDBRANCH  13  14
ENDBRANCH  12  13
ENDBRANCH  11  12
ENDBRANCH  10  11
ENDBRANCH   9  10
ENDBRANCH   8   9
ENDBRANCH   7   8
ENDBRANCH   6   7
ENDBRANCH   5   6
ENDBRANCH   4   5
ENDBRANCH   3   4
ENDBRANCH   2   3
ENDBRANCH   1   2
BRANCH   1  17
ATOM     17  C   UNL     1     -14.482  33.062 -10.867  1.00  0.00     0.000 C 
BRANCH  17  18
ATOM     18  C   UNL     1     -14.699  32.740  -9.376  1.00  0.00     0.000 C 
BRANCH  18  19
ATOM     19  C   UNL     1     -14.168  31.353  -8.951  1.00  0.00     0.000 C 
BRANCH  19  20
ATOM     20  C   UNL     1     -12.633  31.317  -8.837  1.00  0.00     0.000 C 
BRANCH  20  21
ATOM     21  C   UNL     1     -12.146  30.509  -7.622  1.00  0.00     0.000 C 
BRANCH  21  22
ATOM     22  C   UNL     1     -11.453  29.195  -8.014  1.00  0.00    -0.000 C 
BRANCH  22  23
ATOM     23  C   UNL     1     -10.060  29.095  -7.373  1.00  0.00    -0.000 C 
BRANCH  23  24
ATOM     24  C   UNL     1      -9.493  30.465  -6.972  1.00  0.00    -0.000 C 
BRANCH  24  25
ATOM     25  C   UNL     1      -8.039  30.663  -7.432  1.00  0.00    -0.000 C 
BRANCH  25  26
ATOM     26  C   UNL     1      -7.784  32.060  -8.028  1.00  0.00    -0.000 C 
BRANCH  26  27
ATOM     27  C   UNL     1      -6.797  32.092  -9.209  1.00  0.00    -0.000 C 
BRANCH  27  28
ATOM     28  C   UNL     1      -6.695  33.475  -9.869  1.00  0.00    -0.000 C 
BRANCH  28  29
ATOM     29  C   UNL     1      -7.370  33.475 -11.246  1.00  0.00    -0.003 C 
ATOM     30  C   UNL     1      -6.414  32.978 -12.328  1.00  0.00     0.004 C 
ENDBRANCH  28  29
ENDBRANCH  27  28
ENDBRANCH  26  27
ENDBRANCH  25  26
ENDBRANCH  24  25
ENDBRANCH  23  24
ENDBRANCH  22  23
ENDBRANCH  21  22
ENDBRANCH  20  21
ENDBRANCH  19  20
ENDBRANCH  18  19
ENDBRANCH  17  18
ENDBRANCH   1  17
TORSDOF 26
ENDMDL
MODEL 3
REMARK VINA RESULT:    25.899      3.260      9.969
REMARK INTER + INTRA:          63.802
REMARK INTER:                  65.391
REMARK INTRA:                  -1.589
REMARK UNBOUND:                -1.462
REMARK SMILES CCCCCCCCCCCCCCCCCCCCCCCCCCCC(=O)[O-]
REMARK SMILES IDX 15 1 16 2 17 3 18 4 19 5 20 6 21 7 22 8 23 9 24 10 25 11
REMARK SMILES IDX 26 12 27 13 28 14 29 15 30 16 14 17 13 18 12 19 11 20 10 21
REMARK SMILES IDX 9 22 8 23 7 24 6 25 5 26 4 27 3 28 2 29 1 30
REMARK H PARENT
REMARK Flexibility Score: inf
ROOT
ATOM      1  C   UNL     1     -14.053  33.783 -10.485  1.00  0.00     0.000 C 
ENDROOT
BRANCH   1   2
ATOM      2  C   UNL     1     -14.106  33.912 -12.019  1.00  0.00     0.000 C 
BRANCH   2   3
ATOM      3  C   UNL     1     -13.936  35.337 -12.576  1.00  0.00     0.000 C 
BRANCH   3   4
ATOM      4  C   UNL     1     -12.797  36.119 -11.904  1.00  0.00     0.000 C 
BRANCH   4   5
ATOM      5  C   UNL     1     -12.057  37.043 -12.889  1.00  0.00     0.000 C 
BRANCH   5   6
ATOM      6  C   UNL     1     -12.954  38.057 -13.628  1.00  0.00     0.000 C 
BRANCH   6   7
ATOM      7  C   UNL     1     -12.860  39.511 -13.120  1.00  0.00     0.000 C 
BRANCH   7   8
ATOM      8  C   UNL     1     -11.509  39.895 -12.488  1.00  0.00     0.000 C 
BRANCH   8   9
ATOM      9  C   UNL     1     -11.528  41.286 -11.840  1.00  0.00     0.000 C 
BRANCH   9  10
ATOM     10  C   UNL     1     -11.613  41.184 -10.312  1.00  0.00     0.000 C 
BRANCH  10  11
ATOM     11  C   UNL     1     -10.258  41.509  -9.666  1.00  0.00     0.000 C 
BRANCH  11  12
ATOM     12  C   UNL     1     -10.380  41.871  -8.174  1.00  0.00     0.006 C 
BRANCH  12  13
ATOM     13  C   UNL     1     -11.281  40.922  -7.366  1.00  0.00     0.053 C 
BRANCH  13  14
ATOM     14  C   UNL     1     -12.319  41.664  -6.580  1.00  0.00     0.041 C 
ATOM     15  O   UNL     1     -13.497  41.754  -7.014  1.00  0.00    -0.550 OA
ATOM     16  O   UNL     1     -11.976  42.278  -5.382  1.00  0.00    -0.550 OA
ENDBRANCH  13  14
ENDBRANCH  12  13
ENDBRANCH  11  12
ENDBRANCH  10  11
ENDBRANCH   9  10
ENDBRANCH   8   9
ENDBRANCH   7   8
ENDBRANCH   6   7
ENDBRANCH   5   6
ENDBRANCH   4   5
ENDBRANCH   3   4
ENDBRANCH   2   3
ENDBRANCH   1   2
BRANCH   1  17
ATOM     17  C   UNL     1     -15.071  32.778  -9.925  1.00  0.00     0.000 C 
BRANCH  17  18
ATOM     18  C   UNL     1     -14.408  31.651  -9.110  1.00  0.00     0.000 C 
BRANCH  18  19
ATOM     19  C   UNL     1     -12.865  31.712  -9.098  1.00  0.00     0.000 C 
BRANCH  19  20
ATOM     20  C   UNL     1     -12.228  30.454  -8.481  1.00  0.00     0.000 C 
BRANCH  20  21
ATOM     21  C   UNL     1     -12.309  30.438  -6.945  1.00  0.00     0.000 C 
BRANCH  21  22
ATOM     22  C   UNL     1     -11.214  29.578  -6.296  1.00  0.00    -0.000 C 
BRANCH  22  23
ATOM     23  C   UNL     1     -10.256  29.013  -7.356  1.00  0.00    -0.000 C 
BRANCH  23  24
ATOM     24  C   UNL     1      -8.835  29.583  -7.233  1.00  0.00    -0.000 C 
BRANCH  24  25
ATOM     25  C   UNL     1      -8.789  31.109  -7.419  1.00  0.00    -0.000 C 
BRANCH  25  26
ATOM     26  C   UNL     1      -7.451  31.602  -8.000  1.00  0.00    -0.000 C 
BRANCH  26  27
ATOM     27  C   UNL     1      -7.558  32.323  -9.356  1.00  0.00    -0.000 C 
BRANCH  27  28
ATOM     28  C   UNL     1      -6.386  33.280  -9.621  1.00  0.00    -0.000 C 
BRANCH  28  29
ATOM     29  C   UNL     1      -6.480  33.883 -11.028  1.00  0.00    -0.003 C 
ATOM     30  C   UNL     1      -6.952  32.844 -12.042  1.00  0.00     0.004 C 
ENDBRANCH  28  29
ENDBRANCH  27  28
ENDBRANCH  26  27
ENDBRANCH  25  26
ENDBRANCH  24  25
ENDBRANCH  23  24
ENDBRANCH  22  23
ENDBRANCH  21  22
ENDBRANCH  20  21
ENDBRANCH  19  20
ENDBRANCH  18  19
ENDBRANCH  17  18
ENDBRANCH   1  17
TORSDOF 26
ENDMDL
MODEL 4
REMARK VINA RESULT:    26.619      3.603     10.110
REMARK INTER + INTRA:          65.616
REMARK INTER:                  64.343
REMARK INTRA:                   1.273
REMARK UNBOUND:                -1.462
REMARK SMILES CCCCCCCCCCCCCCCCCCCCCCCCCCCC(=O)[O-]
REMARK SMILES IDX 15 1 16 2 17 3 18 4 19 5 20 6 21 7 22 8 23 9 24 10 25 11
REMARK SMILES IDX 26 12 27 13 28 14 29 15 30 16 14 17 13 18 12 19 11 20 10 21
REMARK SMILES IDX 9 22 8 23 7 24 6 25 5 26 4 27 3 28 2 29 1 30
REMARK H PARENT
REMARK Flexibility Score: inf
ROOT
ATOM      1  C   UNL     1     -13.303  35.490 -11.845  1.00  0.00     0.000 C 
ENDROOT
BRANCH   1   2
ATOM      2  C   UNL     1     -12.262  36.301 -12.640  1.00  0.00     0.000 C 
BRANCH   2   3
ATOM      3  C   UNL     1     -12.772  37.612 -13.267  1.00  0.00     0.000 C 
BRANCH   3   4
ATOM      4  C   UNL     1     -11.646  38.491 -13.835  1.00  0.00     0.000 C 
BRANCH   4   5
ATOM      5  C   UNL     1     -10.951  39.331 -12.748  1.00  0.00     0.000 C 
BRANCH   5   6
ATOM      6  C   UNL     1     -11.532  40.746 -12.549  1.00  0.00     0.000 C 
BRANCH   6   7
ATOM      7  C   UNL     1     -11.804  41.146 -11.083  1.00  0.00     0.000 C 
BRANCH   7   8
ATOM      8  C   UNL     1     -10.572  41.111 -10.159  1.00  0.00     0.000 C 
BRANCH   8   9
ATOM      9  C   UNL     1     -10.720  42.026  -8.935  1.00  0.00     0.000 C 
BRANCH   9  10
ATOM     10  C   UNL     1      -9.382  42.192  -8.204  1.00  0.00     0.000 C 
BRANCH  10  11
ATOM     11  C   UNL     1      -9.201  41.102  -7.137  1.00  0.00     0.000 C 
BRANCH  11  12
ATOM     12  C   UNL     1     -10.307  41.126  -6.066  1.00  0.00     0.006 C 
BRANCH  12  13
ATOM     13  C   UNL     1     -11.336  42.254  -6.246  1.00  0.00     0.053 C 
BRANCH  13  14
ATOM     14  C   UNL     1     -12.737  41.731  -6.338  1.00  0.00     0.041 C 
ATOM     15  O   UNL     1     -13.359  41.399  -5.294  1.00  0.00    -0.550 OA
ATOM     16  O   UNL     1     -13.344  41.582  -7.579  1.00  0.00    -0.550 OA
ENDBRANCH  13  14
ENDBRANCH  12  13
ENDBRANCH  11  12
ENDBRANCH  10  11
ENDBRANCH   9  10
ENDBRANCH   8   9
ENDBRANCH   7   8
ENDBRANCH   6   7
ENDBRANCH   5   6
ENDBRANCH   4   5
ENDBRANCH   3   4
ENDBRANCH   2   3
ENDBRANCH   1   2
BRANCH   1  17
ATOM     17  C   UNL     1     -13.973  34.385 -12.675  1.00  0.00     0.000 C 
BRANCH  17  18
ATOM     18  C   UNL     1     -14.969  33.546 -11.853  1.00  0.00     0.000 C 
BRANCH  18  19
ATOM     19  C   UNL     1     -14.820  33.716 -10.326  1.00  0.00     0.000 C 
BRANCH  19  20
ATOM     20  C   UNL     1     -14.765  32.368  -9.582  1.00  0.00     0.000 C 
BRANCH  20  21
ATOM     21  C   UNL     1     -13.339  31.798  -9.488  1.00  0.00     0.000 C 
BRANCH  21  22
ATOM     22  C   UNL     1     -13.107  30.969  -8.216  1.00  0.00    -0.000 C 
BRANCH  22  23
ATOM     23  C   UNL     1     -11.607  30.797  -7.937  1.00  0.00    -0.000 C 
BRANCH  23  24
ATOM     24  C   UNL     1     -11.025  29.532  -8.584  1.00  0.00    -0.000 C 
BRANCH  24  25
ATOM     25  C   UNL     1     -10.037  28.795  -7.664  1.00  0.00    -0.000 C 
BRANCH  25  26
ATOM     26  C   UNL     1     -10.632  28.473  -6.281  1.00  0.00    -0.000 C 
BRANCH  26  27
ATOM     27  C   UNL     1     -11.737  29.436  -5.809  1.00  0.00    -0.000 C 
BRANCH  27  28
ATOM     28  C   UNL     1     -12.136  29.219  -4.342  1.00  0.00    -0.000 C 
BRANCH  28  29
ATOM     29  C   UNL     1     -12.281  30.559  -3.610  1.00  0.00    -0.003 C 
ATOM     30  C   UNL     1     -11.497  31.661  -4.319  1.00  0.00     0.004 C 
ENDBRANCH  28  29
ENDBRANCH  27  28
ENDBRANCH  26  27
ENDBRANCH  25  26
ENDBRANCH  24  25
ENDBRANCH  23  24
ENDBRANCH  22  23
ENDBRANCH  21  22
ENDBRANCH  20  21
ENDBRANCH  19  20
ENDBRANCH  18  19
ENDBRANCH  17  18
ENDBRANCH   1  17
TORSDOF 26
ENDMDL
MODEL 5
REMARK VINA RESULT:    26.731      3.351     10.322
REMARK INTER + INTRA:          65.899
REMARK INTER:                  66.306
REMARK INTRA:                  -0.407
REMARK UNBOUND:                -1.462
REMARK SMILES CCCCCCCCCCCCCCCCCCCCCCCCCCCC(=O)[O-]
REMARK SMILES IDX 15 1 16 2 17 3 18 4 19 5 20 6 21 7 22 8 23 9 24 10 25 11
REMARK SMILES IDX 26 12 27 13 28 14 29 15 30 16 14 17 13 18 12 19 11 20 10 21
REMARK SMILES IDX 9 22 8 23 7 24 6 25 5 26 4 27 3 28 2 29 1 30
REMARK H PARENT
REMARK Flexibility Score: inf
ROOT
ATOM      1  C   UNL     1     -12.437  36.470 -12.378  1.00  0.00     0.000 C 
ENDROOT
BRANCH   1   2
ATOM      2  C   UNL     1     -12.789  37.598 -13.365  1.00  0.00     0.000 C 
BRANCH   2   3
ATOM      3  C   UNL     1     -11.643  38.067 -14.281  1.00  0.00     0.000 C 
BRANCH   3   4
ATOM      4  C   UNL     1     -10.697  39.071 -13.602  1.00  0.00     0.000 C 
BRANCH   4   5
ATOM      5  C   UNL     1     -11.367  39.808 -12.427  1.00  0.00     0.000 C 
BRANCH   5   6
ATOM      6  C   UNL     1     -11.202  41.341 -12.443  1.00  0.00     0.000 C 
BRANCH   6   7
ATOM      7  C   UNL     1     -11.626  42.062 -11.147  1.00  0.00     0.000 C 
BRANCH   7   8
ATOM      8  C   UNL     1     -11.454  41.239  -9.857  1.00  0.00     0.000 C 
BRANCH   8   9
ATOM      9  C   UNL     1      -9.984  41.070  -9.449  1.00  0.00     0.000 C 
BRANCH   9  10
ATOM     10  C   UNL     1      -9.746  41.570  -8.019  1.00  0.00     0.000 C 
BRANCH  10  11
ATOM     11  C   UNL     1     -10.778  42.641  -7.634  1.00  0.00     0.000 C 
BRANCH  11  12
ATOM     12  C   UNL     1     -11.267  42.503  -6.180  1.00  0.00     0.006 C 
BRANCH  12  13
ATOM     13  C   UNL     1     -12.278  41.365  -5.960  1.00  0.00     0.053 C 
BRANCH  13  14
ATOM     14  C   UNL     1     -13.601  41.654  -6.602  1.00  0.00     0.041 C 
ATOM     15  O   UNL     1     -14.649  41.691  -5.906  1.00  0.00    -0.550 OA
ATOM     16  O   UNL     1     -13.678  41.853  -7.976  1.00  0.00    -0.550 OA
ENDBRANCH  13  14
ENDBRANCH  12  13
ENDBRANCH  11  12
ENDBRANCH  10  11
ENDBRANCH   9  10
ENDBRANCH   8   9
ENDBRANCH   7   8
ENDBRANCH   6   7
ENDBRANCH   5   6
ENDBRANCH   4   5
ENDBRANCH   3   4
ENDBRANCH   2   3
ENDBRANCH   1   2
BRANCH   1  17
ATOM     17  C   UNL     1     -13.280  35.202 -12.580  1.00  0.00     0.000 C 
BRANCH  17  18
ATOM     18  C   UNL     1     -13.666  34.526 -11.251  1.00  0.00     0.000 C 
BRANCH  18  19
ATOM     19  C   UNL     1     -15.065  33.871 -11.264  1.00  0.00     0.000 C 
BRANCH  19  20
ATOM     20  C   UNL     1     -15.028  32.386 -10.858  1.00  0.00     0.000 C 
BRANCH  20  21
ATOM     21  C   UNL     1     -14.753  32.186  -9.359  1.00  0.00     0.000 C 
BRANCH  21  22
ATOM     22  C   UNL     1     -13.260  32.010  -9.041  1.00  0.00    -0.000 C 
BRANCH  22  23
ATOM     23  C   UNL     1     -12.963  30.579  -8.567  1.00  0.00    -0.000 C 
BRANCH  23  24
ATOM     24  C   UNL     1     -13.110  30.417  -7.046  1.00  0.00    -0.000 C 
BRANCH  24  25
ATOM     25  C   UNL     1     -11.761  30.463  -6.311  1.00  0.00    -0.000 C 
BRANCH  25  26
ATOM     26  C   UNL     1     -11.097  29.079  -6.189  1.00  0.00    -0.000 C 
BRANCH  26  27
ATOM     27  C   UNL     1     -10.006  28.787  -7.235  1.00  0.00    -0.000 C 
BRANCH  27  28
ATOM     28  C   UNL     1      -9.899  29.876  -8.312  1.00  0.00    -0.000 C 
BRANCH  28  29
ATOM     29  C   UNL     1      -8.598  30.674  -8.155  1.00  0.00    -0.003 C 
ATOM     30  C   UNL     1      -8.312  30.978  -6.686  1.00  0.00     0.004 C 
ENDBRANCH  28  29
ENDBRANCH  27  28
ENDBRANCH  26  27
ENDBRANCH  25  26
ENDBRANCH  24  25
ENDBRANCH  23  24
ENDBRANCH  22  23
ENDBRANCH  21  22
ENDBRANCH  20  21
ENDBRANCH  19  20
ENDBRANCH  18  19
ENDBRANCH  17  18
ENDBRANCH   1  17
TORSDOF 26
ENDMDL
MODEL 6
REMARK VINA RESULT:    27.033      5.237      9.368
REMARK INTER + INTRA:          66.661
REMARK INTER:                  67.796
REMARK INTRA:                  -1.135
REMARK UNBOUND:                -1.462
REMARK SMILES CCCCCCCCCCCCCCCCCCCCCCCCCCCC(=O)[O-]
REMARK SMILES IDX 15 1 16 2 17 3 18 4 19 5 20 6 21 7 22 8 23 9 24 10 25 11
REMARK SMILES IDX 26 12 27 13 28 14 29 15 30 16 14 17 13 18 12 19 11 20 10 21
REMARK SMILES IDX 9 22 8 23 7 24 6 25 5 26 4 27 3 28 2 29 1 30
REMARK H PARENT
REMARK Flexibility Score: inf
ROOT
ATOM      1  C   UNL     1     -13.197  35.538 -11.831  1.00  0.00     0.000 C 
ENDROOT
BRANCH   1   2
ATOM      2  C   UNL     1     -12.807  36.188 -13.172  1.00  0.00     0.000 C 
BRANCH   2   3
ATOM      3  C   UNL     1     -12.840  37.727 -13.204  1.00  0.00     0.000 C 
BRANCH   3   4
ATOM      4  C   UNL     1     -11.526  38.352 -13.700  1.00  0.00     0.000 C 
BRANCH   4   5
ATOM      5  C   UNL     1     -10.851  39.228 -12.628  1.00  0.00     0.000 C 
BRANCH   5   6
ATOM      6  C   UNL     1     -11.313  40.699 -12.607  1.00  0.00     0.000 C 
BRANCH   6   7
ATOM      7  C   UNL     1     -11.833  41.206 -11.245  1.00  0.00     0.000 C 
BRANCH   7   8
ATOM      8  C   UNL     1     -10.757  41.799 -10.316  1.00  0.00     0.000 C 
BRANCH   8   9
ATOM      9  C   UNL     1     -10.124  40.749  -9.392  1.00  0.00     0.000 C 
BRANCH   9  10
ATOM     10  C   UNL     1      -9.319  41.414  -8.268  1.00  0.00     0.000 C 
BRANCH  10  11
ATOM     11  C   UNL     1      -9.963  42.744  -7.847  1.00  0.00     0.000 C 
BRANCH  11  12
ATOM     12  C   UNL     1     -11.085  42.561  -6.808  1.00  0.00     0.006 C 
BRANCH  12  13
ATOM     13  C   UNL     1     -12.053  41.408  -7.120  1.00  0.00     0.053 C 
BRANCH  13  14
ATOM     14  C   UNL     1     -13.383  41.592  -6.454  1.00  0.00     0.041 C 
ATOM     15  O   UNL     1     -14.409  41.831  -7.142  1.00  0.00    -0.550 OA
ATOM     16  O   UNL     1     -13.481  41.528  -5.069  1.00  0.00    -0.550 OA
ENDBRANCH  13  14
ENDBRANCH  12  13
ENDBRANCH  11  12
ENDBRANCH  10  11
ENDBRANCH   9  10
ENDBRANCH   8   9
ENDBRANCH   7   8
ENDBRANCH   6   7
ENDBRANCH   5   6
ENDBRANCH   4   5
ENDBRANCH   3   4
ENDBRANCH   2   3
ENDBRANCH   1   2
BRANCH   1  17
ATOM     17  C   UNL     1     -14.573  34.857 -11.864  1.00  0.00     0.000 C 
BRANCH  17  18
ATOM     18  C   UNL     1     -14.489  33.362 -12.223  1.00  0.00     0.000 C 
BRANCH  18  19
ATOM     19  C   UNL     1     -15.828  32.755 -12.696  1.00  0.00     0.000 C 
BRANCH  19  20
ATOM     20  C   UNL     1     -16.260  33.279 -14.079  1.00  0.00     0.000 C 
BRANCH  20  21
ATOM     21  C   UNL     1     -17.767  33.574 -14.159  1.00  0.00     0.000 C 
BRANCH  21  22
ATOM     22  C   UNL     1     -18.126  34.558 -15.283  1.00  0.00    -0.000 C 
BRANCH  22  23
ATOM     23  C   UNL     1     -18.896  35.767 -14.730  1.00  0.00    -0.000 C 
BRANCH  23  24
ATOM     24  C   UNL     1     -18.971  35.771 -13.196  1.00  0.00    -0.000 C 
BRANCH  24  25
ATOM     25  C   UNL     1     -19.107  37.186 -12.611  1.00  0.00    -0.000 C 
BRANCH  25  26
ATOM     26  C   UNL     1     -18.105  37.464 -11.476  1.00  0.00    -0.000 C 
BRANCH  26  27
ATOM     27  C   UNL     1     -18.183  38.878 -10.871  1.00  0.00    -0.000 C 
BRANCH  27  28
ATOM     28  C   UNL     1     -19.623  39.393 -10.730  1.00  0.00    -0.000 C 
BRANCH  28  29
ATOM     29  C   UNL     1     -20.438  38.490  -9.796  1.00  0.00    -0.003 C 
ATOM     30  C   UNL     1     -19.822  38.442  -8.400  1.00  0.00     0.004 C 
ENDBRANCH  28  29
ENDBRANCH  27  28
ENDBRANCH  26  27
ENDBRANCH  25  26
ENDBRANCH  24  25
ENDBRANCH  23  24
ENDBRANCH  22  23
ENDBRANCH  21  22
ENDBRANCH  20  21
ENDBRANCH  19  20
ENDBRANCH  18  19
ENDBRANCH  17  18
ENDBRANCH   1  17
TORSDOF 26
ENDMDL
MODEL 7
REMARK VINA RESULT:    27.188      1.745      3.562
REMARK INTER + INTRA:          67.050
REMARK INTER:                  67.093
REMARK INTRA:                  -0.043
REMARK UNBOUND:                -1.462
REMARK SMILES CCCCCCCCCCCCCCCCCCCCCCCCCCCC(=O)[O-]
REMARK SMILES IDX 15 1 16 2 17 3 18 4 19 5 20 6 21 7 22 8 23 9 24 10 25 11
REMARK SMILES IDX 26 12 27 13 28 14 29 15 30 16 14 17 13 18 12 19 11 20 10 21
REMARK SMILES IDX 9 22 8 23 7 24 6 25 5 26 4 27 3 28 2 29 1 30
REMARK H PARENT
REMARK Flexibility Score: inf
ROOT
ATOM      1  C   UNL     1     -12.161  36.897 -13.360  1.00  0.00     0.000 C 
ENDROOT
BRANCH   1   2
ATOM      2  C   UNL     1     -13.125  36.483 -12.233  1.00  0.00     0.000 C 
BRANCH   2   3
ATOM      3  C   UNL     1     -13.157  34.980 -11.899  1.00  0.00     0.000 C 
BRANCH   3   4
ATOM      4  C   UNL     1     -14.577  34.391 -11.885  1.00  0.00     0.000 C 
BRANCH   4   5
ATOM      5  C   UNL     1     -14.636  33.014 -11.199  1.00  0.00     0.000 C 
BRANCH   5   6
ATOM      6  C   UNL     1     -14.809  33.058  -9.667  1.00  0.00     0.000 C 
BRANCH   6   7
ATOM      7  C   UNL     1     -14.344  31.793  -8.915  1.00  0.00     0.000 C 
BRANCH   7   8
ATOM      8  C   UNL     1     -12.960  31.260  -9.330  1.00  0.00     0.000 C 
BRANCH   8   9
ATOM      9  C   UNL     1     -12.019  31.055  -8.134  1.00  0.00     0.000 C 
BRANCH   9  10
ATOM     10  C   UNL     1     -12.637  30.107  -7.100  1.00  0.00     0.000 C 
BRANCH  10  11
ATOM     11  C   UNL     1     -11.554  29.506  -6.190  1.00  0.00     0.000 C 
BRANCH  11  12
ATOM     12  C   UNL     1     -10.408  28.849  -6.981  1.00  0.00     0.006 C 
BRANCH  12  13
ATOM     13  C   UNL     1      -9.764  29.763  -8.037  1.00  0.00     0.053 C 
BRANCH  13  14
ATOM     14  C   UNL     1      -8.727  30.666  -7.444  1.00  0.00     0.041 C 
ATOM     15  O   UNL     1      -8.728  30.908  -6.208  1.00  0.00    -0.550 OA
ATOM     16  O   UNL     1      -7.775  31.264  -8.262  1.00  0.00    -0.550 OA
ENDBRANCH  13  14
ENDBRANCH  12  13
ENDBRANCH  11  12
ENDBRANCH  10  11
ENDBRANCH   9  10
ENDBRANCH   8   9
ENDBRANCH   7   8
ENDBRANCH   6   7
ENDBRANCH   5   6
ENDBRANCH   4   5
ENDBRANCH   3   4
ENDBRANCH   2   3
ENDBRANCH   1   2
BRANCH   1  17
ATOM     17  C   UNL     1     -12.216  38.397 -13.684  1.00  0.00     0.000 C 
BRANCH  17  18
ATOM     18  C   UNL     1     -11.291  39.235 -12.781  1.00  0.00     0.000 C 
BRANCH  18  19
ATOM     19  C   UNL     1     -11.890  40.596 -12.363  1.00  0.00     0.000 C 
BRANCH  19  20
ATOM     20  C   UNL     1     -11.631  40.927 -10.882  1.00  0.00     0.000 C 
BRANCH  20  21
ATOM     21  C   UNL     1     -10.143  41.165 -10.577  1.00  0.00     0.000 C 
BRANCH  21  22
ATOM     22  C   UNL     1      -9.588  40.207  -9.511  1.00  0.00    -0.000 C 
BRANCH  22  23
ATOM     23  C   UNL     1      -8.555  40.914  -8.620  1.00  0.00    -0.000 C 
BRANCH  23  24
ATOM     24  C   UNL     1      -9.168  42.057  -7.797  1.00  0.00    -0.000 C 
BRANCH  24  25
ATOM     25  C   UNL     1     -10.547  41.700  -7.219  1.00  0.00    -0.000 C 
BRANCH  25  26
ATOM     26  C   UNL     1     -11.098  42.780  -6.271  1.00  0.00    -0.000 C 
BRANCH  26  27
ATOM     27  C   UNL     1     -12.176  42.292  -5.285  1.00  0.00    -0.000 C 
BRANCH  27  28
ATOM     28  C   UNL     1     -13.017  41.133  -5.840  1.00  0.00    -0.000 C 
BRANCH  28  29
ATOM     29  C   UNL     1     -14.287  41.656  -6.522  1.00  0.00    -0.003 C 
ATOM     30  C   UNL     1     -14.019  42.023  -7.979  1.00  0.00     0.004 C 
ENDBRANCH  28  29
ENDBRANCH  27  28
ENDBRANCH  26  27
ENDBRANCH  25  26
ENDBRANCH  24  25
ENDBRANCH  23  24
ENDBRANCH  22  23
ENDBRANCH  21  22
ENDBRANCH  20  21
ENDBRANCH  19  20
ENDBRANCH  18  19
ENDBRANCH  17  18
ENDBRANCH   1  17
TORSDOF 26
ENDMDL
MODEL 8
REMARK VINA RESULT:    27.654      1.713      2.982
REMARK INTER + INTRA:          68.225
REMARK INTER:                  69.052
REMARK INTRA:                  -0.827
REMARK UNBOUND:                -1.462
REMARK SMILES CCCCCCCCCCCCCCCCCCCCCCCCCCCC(=O)[O-]
REMARK SMILES IDX 15 1 16 2 17 3 18 4 19 5 20 6 21 7 22 8 23 9 24 10 25 11
REMARK SMILES IDX 26 12 27 13 28 14 29 15 30 16 14 17 13 18 12 19 11 20 10 21
REMARK SMILES IDX 9 22 8 23 7 24 6 25 5 26 4 27 3 28 2 29 1 30
REMARK H PARENT
REMARK Flexibility Score: inf
ROOT
ATOM      1  C   UNL     1     -12.928  36.322 -13.608  1.00  0.00     0.000 C 
ENDROOT
BRANCH   1   2
ATOM      2  C   UNL     1     -13.882  35.718 -12.559  1.00  0.00     0.000 C 
BRANCH   2   3
ATOM      3  C   UNL     1     -13.206  35.000 -11.377  1.00  0.00     0.000 C 
BRANCH   3   4
ATOM      4  C   UNL     1     -14.210  34.396 -10.381  1.00  0.00     0.000 C 
BRANCH   4   5
ATOM      5  C   UNL     1     -14.512  32.916 -10.677  1.00  0.00     0.000 C 
BRANCH   5   6
ATOM      6  C   UNL     1     -14.651  32.019  -9.430  1.00  0.00     0.000 C 
BRANCH   6   7
ATOM      7  C   UNL     1     -13.322  31.605  -8.765  1.00  0.00     0.000 C 
BRANCH   7   8
ATOM      8  C   UNL     1     -13.455  30.578  -7.625  1.00  0.00     0.000 C 
BRANCH   8   9
ATOM      9  C   UNL     1     -12.467  30.831  -6.478  1.00  0.00     0.000 C 
BRANCH   9  10
ATOM     10  C   UNL     1     -11.481  29.665  -6.330  1.00  0.00     0.000 C 
BRANCH  10  11
ATOM     11  C   UNL     1     -11.266  28.956  -7.676  1.00  0.00     0.000 C 
BRANCH  11  12
ATOM     12  C   UNL     1      -9.832  29.119  -8.214  1.00  0.00     0.006 C 
BRANCH  12  13
ATOM     13  C   UNL     1      -8.800  29.520  -7.147  1.00  0.00     0.053 C 
BRANCH  13  14
ATOM     14  C   UNL     1      -8.440  30.972  -7.229  1.00  0.00     0.041 C 
ATOM     15  O   UNL     1      -7.761  31.404  -8.197  1.00  0.00    -0.550 OA
ATOM     16  O   UNL     1      -8.832  31.843  -6.219  1.00  0.00    -0.550 OA
ENDBRANCH  13  14
ENDBRANCH  12  13
ENDBRANCH  11  12
ENDBRANCH  10  11
ENDBRANCH   9  10
ENDBRANCH   8   9
ENDBRANCH   7   8
ENDBRANCH   6   7
ENDBRANCH   5   6
ENDBRANCH   4   5
ENDBRANCH   3   4
ENDBRANCH   2   3
ENDBRANCH   1   2
BRANCH   1  17
ATOM     17  C   UNL     1     -12.522  37.770 -13.296  1.00  0.00     0.000 C 
BRANCH  17  18
ATOM     18  C   UNL     1     -11.048  38.061 -13.636  1.00  0.00     0.000 C 
BRANCH  18  19
ATOM     19  C   UNL     1     -10.495  39.344 -12.976  1.00  0.00     0.000 C 
BRANCH  19  20
ATOM     20  C   UNL     1     -11.607  40.334 -12.583  1.00  0.00     0.000 C 
BRANCH  20  21
ATOM     21  C   UNL     1     -11.147  41.358 -11.532  1.00  0.00     0.000 C 
BRANCH  21  22
ATOM     22  C   UNL     1     -12.115  41.476 -10.345  1.00  0.00    -0.000 C 
BRANCH  22  23
ATOM     23  C   UNL     1     -11.380  41.267  -9.012  1.00  0.00    -0.000 C 
BRANCH  23  24
ATOM     24  C   UNL     1      -9.853  41.318  -9.165  1.00  0.00    -0.000 C 
BRANCH  24  25
ATOM     25  C   UNL     1      -9.143  41.778  -7.880  1.00  0.00    -0.000 C 
BRANCH  25  26
ATOM     26  C   UNL     1      -9.961  41.492  -6.608  1.00  0.00    -0.000 C 
BRANCH  26  27
ATOM     27  C   UNL     1     -11.093  42.495  -6.322  1.00  0.00    -0.000 C 
BRANCH  27  28
ATOM     28  C   UNL     1     -12.259  41.878  -5.538  1.00  0.00    -0.000 C 
BRANCH  28  29
ATOM     29  C   UNL     1     -13.204  41.113  -6.473  1.00  0.00    -0.003 C 
ATOM     30  C   UNL     1     -14.490  41.899  -6.720  1.00  0.00     0.004 C 
ENDBRANCH  28  29
ENDBRANCH  27  28
ENDBRANCH  26  27
ENDBRANCH  25  26
ENDBRANCH  24  25
ENDBRANCH  23  24
ENDBRANCH  22  23
ENDBRANCH  21  22
ENDBRANCH  20  21
ENDBRANCH  19  20
ENDBRANCH  18  19
ENDBRANCH  17  18
ENDBRANCH   1  17
TORSDOF 26
ENDMDL
MODEL 9
REMARK VINA RESULT:    27.658      1.836      3.954
REMARK INTER + INTRA:          68.235
REMARK INTER:                  69.317
REMARK INTRA:                  -1.083
REMARK UNBOUND:                -1.462
REMARK SMILES CCCCCCCCCCCCCCCCCCCCCCCCCCCC(=O)[O-]
REMARK SMILES IDX 15 1 16 2 17 3 18 4 19 5 20 6 21 7 22 8 23 9 24 10 25 11
REMARK SMILES IDX 26 12 27 13 28 14 29 15 30 16 14 17 13 18 12 19 11 20 10 21
REMARK SMILES IDX 9 22 8 23 7 24 6 25 5 26 4 27 3 28 2 29 1 30
REMARK H PARENT
REMARK Flexibility Score: inf
ROOT
ATOM      1  C   UNL     1     -12.682  37.202 -13.265  1.00  0.00     0.000 C 
ENDROOT
BRANCH   1   2
ATOM      2  C   UNL     1     -12.487  36.417 -11.954  1.00  0.00     0.000 C 
BRANCH   2   3
ATOM      3  C   UNL     1     -12.875  34.928 -12.003  1.00  0.00     0.000 C 
BRANCH   3   4
ATOM      4  C   UNL     1     -14.361  34.699 -12.325  1.00  0.00     0.000 C 
BRANCH   4   5
ATOM      5  C   UNL     1     -15.153  34.185 -11.109  1.00  0.00     0.000 C 
BRANCH   5   6
ATOM      6  C   UNL     1     -15.178  32.651 -10.951  1.00  0.00     0.000 C 
BRANCH   6   7
ATOM      7  C   UNL     1     -15.102  32.137  -9.498  1.00  0.00     0.000 C 
BRANCH   7   8
ATOM      8  C   UNL     1     -13.678  32.017  -8.922  1.00  0.00     0.000 C 
BRANCH   8   9
ATOM      9  C   UNL     1     -13.189  30.564  -8.842  1.00  0.00     0.000 C 
BRANCH   9  10
ATOM     10  C   UNL     1     -11.831  30.477  -8.135  1.00  0.00     0.000 C 
BRANCH  10  11
ATOM     11  C   UNL     1     -11.121  29.157  -8.474  1.00  0.00     0.000 C 
BRANCH  11  12
ATOM     12  C   UNL     1      -9.972  28.831  -7.502  1.00  0.00     0.006 C 
BRANCH  12  13
ATOM     13  C   UNL     1      -9.684  29.935  -6.471  1.00  0.00     0.053 C 
BRANCH  13  14
ATOM     14  C   UNL     1      -8.679  30.927  -6.973  1.00  0.00     0.041 C 
ATOM     15  O   UNL     1      -8.134  30.764  -8.096  1.00  0.00    -0.550 OA
ATOM     16  O   UNL     1      -8.325  32.016  -6.186  1.00  0.00    -0.550 OA
ENDBRANCH  13  14
ENDBRANCH  12  13
ENDBRANCH  11  12
ENDBRANCH  10  11
ENDBRANCH   9  10
ENDBRANCH   8   9
ENDBRANCH   7   8
ENDBRANCH   6   7
ENDBRANCH   5   6
ENDBRANCH   4   5
ENDBRANCH   3   4
ENDBRANCH   2   3
ENDBRANCH   1   2
BRANCH   1  17
ATOM     17  C   UNL     1     -12.567  38.723 -13.084  1.00  0.00     0.000 C 
BRANCH  17  18
ATOM     18  C   UNL     1     -11.121  39.232 -13.225  1.00  0.00     0.000 C 
BRANCH  18  19
ATOM     19  C   UNL     1     -10.840  40.542 -12.458  1.00  0.00     0.000 C 
BRANCH  19  20
ATOM     20  C   UNL     1     -12.053  41.021 -11.639  1.00  0.00     0.000 C 
BRANCH  20  21
ATOM     21  C   UNL     1     -11.654  41.907 -10.447  1.00  0.00     0.000 C 
BRANCH  21  22
ATOM     22  C   UNL     1     -11.488  41.116  -9.140  1.00  0.00    -0.000 C 
BRANCH  22  23
ATOM     23  C   UNL     1     -10.605  41.881  -8.143  1.00  0.00    -0.000 C 
BRANCH  23  24
ATOM     24  C   UNL     1     -11.391  42.388  -6.924  1.00  0.00    -0.000 C 
BRANCH  24  25
ATOM     25  C   UNL     1     -12.412  41.361  -6.408  1.00  0.00    -0.000 C 
BRANCH  25  26
ATOM     26  C   UNL     1     -12.867  41.642  -4.964  1.00  0.00    -0.000 C 
BRANCH  26  27
ATOM     27  C   UNL     1     -14.363  41.398  -4.694  1.00  0.00    -0.000 C 
BRANCH  27  28
ATOM     28  C   UNL     1     -14.702  41.342  -3.198  1.00  0.00    -0.000 C 
BRANCH  28  29
ATOM     29  C   UNL     1     -16.214  41.196  -2.984  1.00  0.00    -0.003 C 
ATOM     30  C   UNL     1     -16.937  42.515  -3.246  1.00  0.00     0.004 C 
ENDBRANCH  28  29
ENDBRANCH  27  28
ENDBRANCH  26  27
ENDBRANCH  25  26
ENDBRANCH  24  25
ENDBRANCH  23  24
ENDBRANCH  22  23
ENDBRANCH  21  22
ENDBRANCH  20  21
ENDBRANCH  19  20
ENDBRANCH  18  19
ENDBRANCH  17  18
ENDBRANCH   1  17
TORSDOF 26
ENDMDL
