MODEL 1
REMARK VINA RESULT:    -3.061      0.000      0.000
REMARK INTER + INTRA:         -13.462
REMARK INTER:                  -7.714
REMARK INTRA:                  -5.747
REMARK UNBOUND:                -5.747
REMARK SMILES CCCCCCCCCCCCCCCCCCCCCCCCCCCC(=O)[O-]
REMARK SMILES IDX 15 1 16 2 17 3 18 4 19 5 20 6 21 7 22 8 23 9 24 10 25 11
REMARK SMILES IDX 26 12 27 13 28 14 29 15 30 16 14 17 13 18 12 19 11 20 10 21
REMARK SMILES IDX 9 22 8 23 7 24 6 25 5 26 4 27 3 28 2 29 1 30
REMARK H PARENT
REMARK Flexibility Score: inf
ROOT
ATOM      1  C   UNL     1      86.088  27.053  28.740  1.00  0.00     0.000 C 
ENDROOT
BRANCH   1   2
ATOM      2  C   UNL     1      87.425  27.375  29.429  1.00  0.00     0.000 C 
BRANCH   2   3
ATOM      3  C   UNL     1      87.931  28.798  29.100  1.00  0.00     0.000 C 
BRANCH   3   4
ATOM      4  C   UNL     1      89.365  28.838  28.538  1.00  0.00     0.000 C 
BRANCH   4   5
ATOM      5  C   UNL     1      89.510  29.551  27.183  1.00  0.00     0.000 C 
BRANCH   5   6
ATOM      6  C   UNL     1      88.854  28.773  26.027  1.00  0.00     0.000 C 
BRANCH   6   7
ATOM      7  C   UNL     1      87.721  29.564  25.353  1.00  0.00     0.000 C 
BRANCH   7   8
ATOM      8  C   UNL     1      87.387  30.863  26.102  1.00  0.00     0.000 C 
BRANCH   8   9
ATOM      9  C   UNL     1      85.933  31.282  25.858  1.00  0.00     0.000 C 
BRANCH   9  10
ATOM     10  C   UNL     1      85.244  31.665  27.173  1.00  0.00     0.000 C 
BRANCH  10  11
ATOM     11  C   UNL     1      84.689  30.423  27.885  1.00  0.00     0.000 C 
BRANCH  11  12
ATOM     12  C   UNL     1      84.708  30.557  29.419  1.00  0.00     0.006 C 
BRANCH  12  13
ATOM     13  C   UNL     1      85.853  31.425  29.968  1.00  0.00     0.053 C 
BRANCH  13  14
ATOM     14  C   UNL     1      85.375  32.420  30.979  1.00  0.00     0.041 C 
ATOM     15  O   UNL     1      84.866  33.510  30.606  1.00  0.00    -0.550 OA
ATOM     16  O   UNL     1      85.475  32.136  32.337  1.00  0.00    -0.550 OA
ENDBRANCH  13  14
ENDBRANCH  12  13
ENDBRANCH  11  12
ENDBRANCH  10  11
ENDBRANCH   9  10
ENDBRANCH   8   9
ENDBRANCH   7   8
ENDBRANCH   6   7
ENDBRANCH   5   6
ENDBRANCH   4   5
ENDBRANCH   3   4
ENDBRANCH   2   3
ENDBRANCH   1   2
BRANCH   1  17
ATOM     17  C   UNL     1      86.264  26.533  27.303  1.00  0.00     0.000 C 
BRANCH  17  18
ATOM     18  C   UNL     1      85.625  25.148  27.063  1.00  0.00     0.000 C 
BRANCH  18  19
ATOM     19  C   UNL     1      85.698  24.249  28.310  1.00  0.00     0.000 C 
BRANCH  19  20
ATOM     20  C   UNL     1      84.378  23.488  28.559  1.00  0.00     0.000 C 
BRANCH  20  21
ATOM     21  C   UNL     1      83.664  23.912  29.853  1.00  0.00     0.000 C 
BRANCH  21  22
ATOM     22  C   UNL     1      82.565  24.957  29.614  1.00  0.00    -0.000 C 
BRANCH  22  23
ATOM     23  C   UNL     1      82.843  26.286  30.355  1.00  0.00    -0.000 C 
BRANCH  23  24
ATOM     24  C   UNL     1      82.501  27.533  29.521  1.00  0.00    -0.000 C 
BRANCH  24  25
ATOM     25  C   UNL     1      82.445  27.280  28.003  1.00  0.00    -0.000 C 
BRANCH  25  26
ATOM     26  C   UNL     1      81.598  28.320  27.235  1.00  0.00    -0.000 C 
BRANCH  26  27
ATOM     27  C   UNL     1      82.159  28.623  25.839  1.00  0.00    -0.000 C 
BRANCH  27  28
ATOM     28  C   UNL     1      83.225  27.595  25.437  1.00  0.00    -0.000 C 
BRANCH  28  29
ATOM     29  C   UNL     1      84.339  28.250  24.614  1.00  0.00    -0.003 C 
ATOM     30  C   UNL     1      85.124  27.210  23.818  1.00  0.00     0.004 C 
ENDBRANCH  28  29
ENDBRANCH  27  28
ENDBRANCH  26  27
ENDBRANCH  25  26
ENDBRANCH  24  25
ENDBRANCH  23  24
ENDBRANCH  22  23
ENDBRANCH  21  22
ENDBRANCH  20  21
ENDBRANCH  19  20
ENDBRANCH  18  19
ENDBRANCH  17  18
ENDBRANCH   1  17
TORSDOF 26
ENDMDL
MODEL 2
REMARK VINA RESULT:    -3.011      1.403      3.514
REMARK INTER + INTRA:         -13.334
REMARK INTER:                  -7.604
REMARK INTRA:                  -5.730
REMARK UNBOUND:                -5.747
REMARK SMILES CCCCCCCCCCCCCCCCCCCCCCCCCCCC(=O)[O-]
REMARK SMILES IDX 15 1 16 2 17 3 18 4 19 5 20 6 21 7 22 8 23 9 24 10 25 11
REMARK SMILES IDX 26 12 27 13 28 14 29 15 30 16 14 17 13 18 12 19 11 20 10 21
REMARK SMILES IDX 9 22 8 23 7 24 6 25 5 26 4 27 3 28 2 29 1 30
REMARK H PARENT
REMARK Flexibility Score: inf
ROOT
ATOM      1  C   UNL     1      85.744  30.304  24.833  1.00  0.00     0.000 C 
ENDROOT
BRANCH   1   2
ATOM      2  C   UNL     1      87.215  30.602  25.174  1.00  0.00     0.000 C 
BRANCH   2   3
ATOM      3  C   UNL     1      88.196  29.946  24.176  1.00  0.00     0.000 C 
BRANCH   3   4
ATOM      4  C   UNL     1      89.558  29.571  24.794  1.00  0.00     0.000 C 
BRANCH   4   5
ATOM      5  C   UNL     1      89.723  29.950  26.275  1.00  0.00     0.000 C 
BRANCH   5   6
ATOM      6  C   UNL     1      89.782  28.722  27.201  1.00  0.00     0.000 C 
BRANCH   6   7
ATOM      7  C   UNL     1      89.260  29.025  28.615  1.00  0.00     0.000 C 
BRANCH   7   8
ATOM      8  C   UNL     1      88.517  30.367  28.691  1.00  0.00     0.000 C 
BRANCH   8   9
ATOM      9  C   UNL     1      87.090  30.179  29.217  1.00  0.00     0.000 C 
BRANCH   9  10
ATOM     10  C   UNL     1      86.129  31.183  28.569  1.00  0.00     0.000 C 
BRANCH  10  11
ATOM     11  C   UNL     1      84.667  30.794  28.833  1.00  0.00     0.000 C 
BRANCH  11  12
ATOM     12  C   UNL     1      83.960  31.757  29.804  1.00  0.00     0.006 C 
BRANCH  12  13
ATOM     13  C   UNL     1      84.045  31.344  31.283  1.00  0.00     0.053 C 
BRANCH  13  14
ATOM     14  C   UNL     1      84.916  32.265  32.080  1.00  0.00     0.041 C 
ATOM     15  O   UNL     1      84.844  32.277  33.337  1.00  0.00    -0.550 OA
ATOM     16  O   UNL     1      85.823  33.099  31.433  1.00  0.00    -0.550 OA
ENDBRANCH  13  14
ENDBRANCH  12  13
ENDBRANCH  11  12
ENDBRANCH  10  11
ENDBRANCH   9  10
ENDBRANCH   8   9
ENDBRANCH   7   8
ENDBRANCH   6   7
ENDBRANCH   5   6
ENDBRANCH   4   5
ENDBRANCH   3   4
ENDBRANCH   2   3
ENDBRANCH   1   2
BRANCH   1  17
ATOM     17  C   UNL     1      85.187  29.089  25.594  1.00  0.00     0.000 C 
BRANCH  17  18
ATOM     18  C   UNL     1      85.816  27.747  25.164  1.00  0.00     0.000 C 
BRANCH  18  19
ATOM     19  C   UNL     1      86.649  27.108  26.291  1.00  0.00     0.000 C 
BRANCH  19  20
ATOM     20  C   UNL     1      85.972  27.253  27.671  1.00  0.00     0.000 C 
BRANCH  20  21
ATOM     21  C   UNL     1      86.433  26.198  28.691  1.00  0.00     0.000 C 
BRANCH  21  22
ATOM     22  C   UNL     1      85.440  25.037  28.839  1.00  0.00    -0.000 C 
BRANCH  22  23
ATOM     23  C   UNL     1      85.878  23.780  28.052  1.00  0.00    -0.000 C 
BRANCH  23  24
ATOM     24  C   UNL     1      85.262  23.696  26.645  1.00  0.00    -0.000 C 
BRANCH  24  25
ATOM     25  C   UNL     1      83.758  24.025  26.594  1.00  0.00    -0.000 C 
BRANCH  25  26
ATOM     26  C   UNL     1      83.407  25.154  25.598  1.00  0.00    -0.000 C 
BRANCH  26  27
ATOM     27  C   UNL     1      82.324  26.100  26.136  1.00  0.00    -0.000 C 
BRANCH  27  28
ATOM     28  C   UNL     1      82.191  25.978  27.660  1.00  0.00    -0.000 C 
BRANCH  28  29
ATOM     29  C   UNL     1      82.468  27.321  28.344  1.00  0.00    -0.003 C 
ATOM     30  C   UNL     1      82.107  28.491  27.433  1.00  0.00     0.004 C 
ENDBRANCH  28  29
ENDBRANCH  27  28
ENDBRANCH  26  27
ENDBRANCH  25  26
ENDBRANCH  24  25
ENDBRANCH  23  24
ENDBRANCH  22  23
ENDBRANCH  21  22
ENDBRANCH  20  21
ENDBRANCH  19  20
ENDBRANCH  18  19
ENDBRANCH  17  18
ENDBRANCH   1  17
TORSDOF 26
ENDMDL
MODEL 3
REMARK VINA RESULT:    -2.853      1.597      3.855
REMARK INTER + INTRA:         -12.937
REMARK INTER:                  -8.416
REMARK INTRA:                  -4.521
REMARK UNBOUND:                -5.747
REMARK SMILES CCCCCCCCCCCCCCCCCCCCCCCCCCCC(=O)[O-]
REMARK SMILES IDX 15 1 16 2 17 3 18 4 19 5 20 6 21 7 22 8 23 9 24 10 25 11
REMARK SMILES IDX 26 12 27 13 28 14 29 15 30 16 14 17 13 18 12 19 11 20 10 21
REMARK SMILES IDX 9 22 8 23 7 24 6 25 5 26 4 27 3 28 2 29 1 30
REMARK H PARENT
REMARK Flexibility Score: inf
ROOT
ATOM      1  C   UNL     1      89.484  28.901  28.384  1.00  0.00     0.000 C 
ENDROOT
BRANCH   1   2
ATOM      2  C   UNL     1      89.639  28.862  26.854  1.00  0.00     0.000 C 
BRANCH   2   3
ATOM      3  C   UNL     1      88.728  29.889  26.143  1.00  0.00     0.000 C 
BRANCH   3   4
ATOM      4  C   UNL     1      87.510  29.261  25.437  1.00  0.00     0.000 C 
BRANCH   4   5
ATOM      5  C   UNL     1      86.190  30.028  25.618  1.00  0.00     0.000 C 
BRANCH   5   6
ATOM      6  C   UNL     1      86.382  31.389  26.312  1.00  0.00     0.000 C 
BRANCH   6   7
ATOM      7  C   UNL     1      85.120  32.264  26.254  1.00  0.00     0.000 C 
BRANCH   7   8
ATOM      8  C   UNL     1      84.143  31.961  27.399  1.00  0.00     0.000 C 
BRANCH   8   9
ATOM      9  C   UNL     1      84.641  32.554  28.722  1.00  0.00     0.000 C 
BRANCH   9  10
ATOM     10  C   UNL     1      83.759  32.103  29.892  1.00  0.00     0.000 C 
BRANCH  10  11
ATOM     11  C   UNL     1      84.598  31.415  30.979  1.00  0.00     0.000 C 
BRANCH  11  12
ATOM     12  C   UNL     1      84.674  32.233  32.281  1.00  0.00     0.006 C 
BRANCH  12  13
ATOM     13  C   UNL     1      86.028  32.923  32.519  1.00  0.00     0.053 C 
BRANCH  13  14
ATOM     14  C   UNL     1      85.895  34.411  32.627  1.00  0.00     0.041 C 
ATOM     15  O   UNL     1      85.417  35.076  31.670  1.00  0.00    -0.550 OA
ATOM     16  O   UNL     1      86.283  35.062  33.792  1.00  0.00    -0.550 OA
ENDBRANCH  13  14
ENDBRANCH  12  13
ENDBRANCH  11  12
ENDBRANCH  10  11
ENDBRANCH   9  10
ENDBRANCH   8   9
ENDBRANCH   7   8
ENDBRANCH   6   7
ENDBRANCH   5   6
ENDBRANCH   4   5
ENDBRANCH   3   4
ENDBRANCH   2   3
ENDBRANCH   1   2
BRANCH   1  17
ATOM     17  C   UNL     1      88.263  29.716  28.842  1.00  0.00     0.000 C 
BRANCH  17  18
ATOM     18  C   UNL     1      87.012  28.856  29.120  1.00  0.00     0.000 C 
BRANCH  18  19
ATOM     19  C   UNL     1      87.366  27.381  29.378  1.00  0.00     0.000 C 
BRANCH  19  20
ATOM     20  C   UNL     1      86.259  26.421  28.889  1.00  0.00     0.000 C 
BRANCH  20  21
ATOM     21  C   UNL     1      86.117  26.384  27.358  1.00  0.00     0.000 C 
BRANCH  21  22
ATOM     22  C   UNL     1      85.802  24.980  26.822  1.00  0.00    -0.000 C 
BRANCH  22  23
ATOM     23  C   UNL     1      85.800  23.908  27.937  1.00  0.00    -0.000 C 
BRANCH  23  24
ATOM     24  C   UNL     1      84.439  23.212  28.113  1.00  0.00    -0.000 C 
BRANCH  24  25
ATOM     25  C   UNL     1      83.838  23.353  29.523  1.00  0.00    -0.000 C 
BRANCH  25  26
ATOM     26  C   UNL     1      83.069  24.677  29.737  1.00  0.00    -0.000 C 
BRANCH  26  27
ATOM     27  C   UNL     1      82.129  25.009  28.569  1.00  0.00    -0.000 C 
BRANCH  27  28
ATOM     28  C   UNL     1      82.455  26.384  27.972  1.00  0.00    -0.000 C 
BRANCH  28  29
ATOM     29  C   UNL     1      82.747  27.408  29.074  1.00  0.00    -0.003 C 
ATOM     30  C   UNL     1      83.313  28.701  28.492  1.00  0.00     0.004 C 
ENDBRANCH  28  29
ENDBRANCH  27  28
ENDBRANCH  26  27
ENDBRANCH  25  26
ENDBRANCH  24  25
ENDBRANCH  23  24
ENDBRANCH  22  23
ENDBRANCH  21  22
ENDBRANCH  20  21
ENDBRANCH  19  20
ENDBRANCH  18  19
ENDBRANCH  17  18
ENDBRANCH   1  17
TORSDOF 26
ENDMDL
MODEL 4
REMARK VINA RESULT:    -2.849      1.994      5.971
REMARK INTER + INTRA:         -12.926
REMARK INTER:                  -8.174
REMARK INTRA:                  -4.752
REMARK UNBOUND:                -5.747
REMARK SMILES CCCCCCCCCCCCCCCCCCCCCCCCCCCC(=O)[O-]
REMARK SMILES IDX 15 1 16 2 17 3 18 4 19 5 20 6 21 7 22 8 23 9 24 10 25 11
REMARK SMILES IDX 26 12 27 13 28 14 29 15 30 16 14 17 13 18 12 19 11 20 10 21
REMARK SMILES IDX 9 22 8 23 7 24 6 25 5 26 4 27 3 28 2 29 1 30
REMARK H PARENT
REMARK Flexibility Score: inf
ROOT
ATOM      1  C   UNL     1      85.911  30.908  26.451  1.00  0.00     0.000 C 
ENDROOT
BRANCH   1   2
ATOM      2  C   UNL     1      85.176  31.724  27.528  1.00  0.00     0.000 C 
BRANCH   2   3
ATOM      3  C   UNL     1      83.683  31.339  27.644  1.00  0.00     0.000 C 
BRANCH   3   4
ATOM      4  C   UNL     1      83.444  29.922  28.203  1.00  0.00     0.000 C 
BRANCH   4   5
ATOM      5  C   UNL     1      83.951  29.698  29.637  1.00  0.00     0.000 C 
BRANCH   5   6
ATOM      6  C   UNL     1      82.826  29.311  30.613  1.00  0.00     0.000 C 
BRANCH   6   7
ATOM      7  C   UNL     1      82.659  30.328  31.754  1.00  0.00     0.000 C 
BRANCH   7   8
ATOM      8  C   UNL     1      82.469  31.762  31.237  1.00  0.00     0.000 C 
BRANCH   8   9
ATOM      9  C   UNL     1      83.518  32.707  31.833  1.00  0.00     0.000 C 
BRANCH   9  10
ATOM     10  C   UNL     1      84.467  33.228  30.747  1.00  0.00     0.000 C 
BRANCH  10  11
ATOM     11  C   UNL     1      84.236  34.723  30.486  1.00  0.00     0.000 C 
BRANCH  11  12
ATOM     12  C   UNL     1      84.300  35.570  31.770  1.00  0.00     0.006 C 
BRANCH  12  13
ATOM     13  C   UNL     1      85.720  35.786  32.318  1.00  0.00     0.053 C 
BRANCH  13  14
ATOM     14  C   UNL     1      85.938  35.082  33.622  1.00  0.00     0.041 C 
ATOM     15  O   UNL     1      85.703  35.674  34.709  1.00  0.00    -0.550 OA
ATOM     16  O   UNL     1      86.383  33.765  33.636  1.00  0.00    -0.550 OA
ENDBRANCH  13  14
ENDBRANCH  12  13
ENDBRANCH  11  12
ENDBRANCH  10  11
ENDBRANCH   9  10
ENDBRANCH   8   9
ENDBRANCH   7   8
ENDBRANCH   6   7
ENDBRANCH   5   6
ENDBRANCH   4   5
ENDBRANCH   3   4
ENDBRANCH   2   3
ENDBRANCH   1   2
BRANCH   1  17
ATOM     17  C   UNL     1      87.005  31.713  25.731  1.00  0.00     0.000 C 
BRANCH  17  18
ATOM     18  C   UNL     1      87.927  30.851  24.843  1.00  0.00     0.000 C 
BRANCH  18  19
ATOM     19  C   UNL     1      87.614  29.348  24.967  1.00  0.00     0.000 C 
BRANCH  19  20
ATOM     20  C   UNL     1      88.858  28.524  25.366  1.00  0.00     0.000 C 
BRANCH  20  21
ATOM     21  C   UNL     1      89.843  29.299  26.257  1.00  0.00     0.000 C 
BRANCH  21  22
ATOM     22  C   UNL     1      89.731  28.920  27.740  1.00  0.00    -0.000 C 
BRANCH  22  23
ATOM     23  C   UNL     1      88.953  29.974  28.563  1.00  0.00    -0.000 C 
BRANCH  23  24
ATOM     24  C   UNL     1      87.702  29.407  29.256  1.00  0.00    -0.000 C 
BRANCH  24  25
ATOM     25  C   UNL     1      87.468  27.906  29.002  1.00  0.00    -0.000 C 
BRANCH  25  26
ATOM     26  C   UNL     1      86.346  27.621  27.978  1.00  0.00    -0.000 C 
BRANCH  26  27
ATOM     27  C   UNL     1      86.248  26.135  27.608  1.00  0.00    -0.000 C 
BRANCH  27  28
ATOM     28  C   UNL     1      85.326  25.384  28.579  1.00  0.00    -0.000 C 
BRANCH  28  29
ATOM     29  C   UNL     1      83.914  25.980  28.568  1.00  0.00    -0.003 C 
ATOM     30  C   UNL     1      83.195  25.720  29.890  1.00  0.00     0.004 C 
ENDBRANCH  28  29
ENDBRANCH  27  28
ENDBRANCH  26  27
ENDBRANCH  25  26
ENDBRANCH  24  25
ENDBRANCH  23  24
ENDBRANCH  22  23
ENDBRANCH  21  22
ENDBRANCH  20  21
ENDBRANCH  19  20
ENDBRANCH  18  19
ENDBRANCH  17  18
ENDBRANCH   1  17
TORSDOF 26
ENDMDL
MODEL 5
REMARK VINA RESULT:    -2.819      2.620      6.424
REMARK INTER + INTRA:         -12.852
REMARK INTER:                  -7.758
REMARK INTRA:                  -5.094
REMARK UNBOUND:                -5.747
REMARK SMILES CCCCCCCCCCCCCCCCCCCCCCCCCCCC(=O)[O-]
REMARK SMILES IDX 15 1 16 2 17 3 18 4 19 5 20 6 21 7 22 8 23 9 24 10 25 11
REMARK SMILES IDX 26 12 27 13 28 14 29 15 30 16 14 17 13 18 12 19 11 20 10 21
REMARK SMILES IDX 9 22 8 23 7 24 6 25 5 26 4 27 3 28 2 29 1 30
REMARK H PARENT
REMARK Flexibility Score: inf
ROOT
ATOM      1  C   UNL     1      84.551  31.204  27.336  1.00  0.00     0.000 C 
ENDROOT
BRANCH   1   2
ATOM      2  C   UNL     1      84.492  31.987  28.659  1.00  0.00     0.000 C 
BRANCH   2   3
ATOM      3  C   UNL     1      84.128  31.088  29.862  1.00  0.00     0.000 C 
BRANCH   3   4
ATOM      4  C   UNL     1      84.759  31.538  31.193  1.00  0.00     0.000 C 
BRANCH   4   5
ATOM      5  C   UNL     1      85.749  32.710  31.077  1.00  0.00     0.000 C 
BRANCH   5   6
ATOM      6  C   UNL     1      85.950  33.455  32.409  1.00  0.00     0.000 C 
BRANCH   6   7
ATOM      7  C   UNL     1      85.631  34.954  32.300  1.00  0.00     0.000 C 
BRANCH   7   8
ATOM      8  C   UNL     1      84.700  35.271  31.120  1.00  0.00     0.000 C 
BRANCH   8   9
ATOM      9  C   UNL     1      83.249  35.427  31.587  1.00  0.00     0.000 C 
BRANCH   9  10
ATOM     10  C   UNL     1      82.336  34.406  30.897  1.00  0.00     0.000 C 
BRANCH  10  11
ATOM     11  C   UNL     1      81.870  33.327  31.885  1.00  0.00     0.000 C 
BRANCH  11  12
ATOM     12  C   UNL     1      82.062  33.743  33.355  1.00  0.00     0.006 C 
BRANCH  12  13
ATOM     13  C   UNL     1      82.884  32.750  34.194  1.00  0.00     0.053 C 
BRANCH  13  14
ATOM     14  C   UNL     1      82.350  32.606  35.586  1.00  0.00     0.041 C 
ATOM     15  O   UNL     1      83.001  33.059  36.565  1.00  0.00    -0.550 OA
ATOM     16  O   UNL     1      81.124  31.987  35.800  1.00  0.00    -0.550 OA
ENDBRANCH  13  14
ENDBRANCH  12  13
ENDBRANCH  11  12
ENDBRANCH  10  11
ENDBRANCH   9  10
ENDBRANCH   8   9
ENDBRANCH   7   8
ENDBRANCH   6   7
ENDBRANCH   5   6
ENDBRANCH   4   5
ENDBRANCH   3   4
ENDBRANCH   2   3
ENDBRANCH   1   2
BRANCH   1  17
ATOM     17  C   UNL     1      85.346  31.936  26.241  1.00  0.00     0.000 C 
BRANCH  17  18
ATOM     18  C   UNL     1      86.799  31.437  26.092  1.00  0.00     0.000 C 
BRANCH  18  19
ATOM     19  C   UNL     1      86.996  30.589  24.823  1.00  0.00     0.000 C 
BRANCH  19  20
ATOM     20  C   UNL     1      88.144  29.568  24.975  1.00  0.00     0.000 C 
BRANCH  20  21
ATOM     21  C   UNL     1      89.204  29.991  26.006  1.00  0.00     0.000 C 
BRANCH  21  22
ATOM     22  C   UNL     1      89.892  28.795  26.680  1.00  0.00    -0.000 C 
BRANCH  22  23
ATOM     23  C   UNL     1      89.676  28.776  28.211  1.00  0.00    -0.000 C 
BRANCH  23  24
ATOM     24  C   UNL     1      88.847  29.965  28.727  1.00  0.00    -0.000 C 
BRANCH  24  25
ATOM     25  C   UNL     1      87.438  29.584  29.218  1.00  0.00    -0.000 C 
BRANCH  25  26
ATOM     26  C   UNL     1      87.048  28.122  28.902  1.00  0.00    -0.000 C 
BRANCH  26  27
ATOM     27  C   UNL     1      86.186  28.000  27.638  1.00  0.00    -0.000 C 
BRANCH  27  28
ATOM     28  C   UNL     1      84.939  27.145  27.900  1.00  0.00    -0.000 C 
BRANCH  28  29
ATOM     29  C   UNL     1      84.361  27.427  29.291  1.00  0.00    -0.003 C 
ATOM     30  C   UNL     1      82.853  27.658  29.226  1.00  0.00     0.004 C 
ENDBRANCH  28  29
ENDBRANCH  27  28
ENDBRANCH  26  27
ENDBRANCH  25  26
ENDBRANCH  24  25
ENDBRANCH  23  24
ENDBRANCH  22  23
ENDBRANCH  21  22
ENDBRANCH  20  21
ENDBRANCH  19  20
ENDBRANCH  18  19
ENDBRANCH  17  18
ENDBRANCH   1  17
TORSDOF 26
ENDMDL
MODEL 6
REMARK VINA RESULT:    -2.804      1.628      4.198
REMARK INTER + INTRA:         -12.814
REMARK INTER:                  -8.259
REMARK INTRA:                  -4.555
REMARK UNBOUND:                -5.747
REMARK SMILES CCCCCCCCCCCCCCCCCCCCCCCCCCCC(=O)[O-]
REMARK SMILES IDX 15 1 16 2 17 3 18 4 19 5 20 6 21 7 22 8 23 9 24 10 25 11
REMARK SMILES IDX 26 12 27 13 28 14 29 15 30 16 14 17 13 18 12 19 11 20 10 21
REMARK SMILES IDX 9 22 8 23 7 24 6 25 5 26 4 27 3 28 2 29 1 30
REMARK H PARENT
REMARK Flexibility Score: inf
ROOT
ATOM      1  C   UNL     1      88.753  29.511  23.797  1.00  0.00     0.000 C 
ENDROOT
BRANCH   1   2
ATOM      2  C   UNL     1      88.792  30.477  24.994  1.00  0.00     0.000 C 
BRANCH   2   3
ATOM      3  C   UNL     1      89.845  30.068  26.049  1.00  0.00     0.000 C 
BRANCH   3   4
ATOM      4  C   UNL     1      89.655  28.641  26.600  1.00  0.00     0.000 C 
BRANCH   4   5
ATOM      5  C   UNL     1      89.511  28.552  28.129  1.00  0.00     0.000 C 
BRANCH   5   6
ATOM      6  C   UNL     1      88.999  29.861  28.757  1.00  0.00     0.000 C 
BRANCH   6   7
ATOM      7  C   UNL     1      87.503  29.801  29.107  1.00  0.00     0.000 C 
BRANCH   7   8
ATOM      8  C   UNL     1      86.621  30.430  28.019  1.00  0.00     0.000 C 
BRANCH   8   9
ATOM      9  C   UNL     1      85.705  31.509  28.606  1.00  0.00     0.000 C 
BRANCH   9  10
ATOM     10  C   UNL     1      85.764  31.505  30.139  1.00  0.00     0.000 C 
BRANCH  10  11
ATOM     11  C   UNL     1      84.510  32.156  30.739  1.00  0.00     0.000 C 
BRANCH  11  12
ATOM     12  C   UNL     1      84.720  33.639  31.095  1.00  0.00     0.006 C 
BRANCH  12  13
ATOM     13  C   UNL     1      85.764  33.887  32.197  1.00  0.00     0.053 C 
BRANCH  13  14
ATOM     14  C   UNL     1      85.139  34.021  33.551  1.00  0.00     0.041 C 
ATOM     15  O   UNL     1      85.352  33.151  34.437  1.00  0.00    -0.550 OA
ATOM     16  O   UNL     1      84.336  35.118  33.841  1.00  0.00    -0.550 OA
ENDBRANCH  13  14
ENDBRANCH  12  13
ENDBRANCH  11  12
ENDBRANCH  10  11
ENDBRANCH   9  10
ENDBRANCH   8   9
ENDBRANCH   7   8
ENDBRANCH   6   7
ENDBRANCH   5   6
ENDBRANCH   4   5
ENDBRANCH   3   4
ENDBRANCH   2   3
ENDBRANCH   1   2
BRANCH   1  17
ATOM     17  C   UNL     1      87.341  28.978  23.503  1.00  0.00     0.000 C 
BRANCH  17  18
ATOM     18  C   UNL     1      86.262  29.516  24.467  1.00  0.00     0.000 C 
BRANCH  18  19
ATOM     19  C   UNL     1      85.493  28.383  25.169  1.00  0.00     0.000 C 
BRANCH  19  20
ATOM     20  C   UNL     1      86.265  27.046  25.138  1.00  0.00     0.000 C 
BRANCH  20  21
ATOM     21  C   UNL     1      85.898  26.102  26.296  1.00  0.00     0.000 C 
BRANCH  21  22
ATOM     22  C   UNL     1      86.350  26.631  27.664  1.00  0.00    -0.000 C 
BRANCH  22  23
ATOM     23  C   UNL     1      86.258  25.557  28.773  1.00  0.00    -0.000 C 
BRANCH  23  24
ATOM     24  C   UNL     1      85.651  24.229  28.288  1.00  0.00    -0.000 C 
BRANCH  24  25
ATOM     25  C   UNL     1      84.438  23.754  29.110  1.00  0.00    -0.000 C 
BRANCH  25  26
ATOM     26  C   UNL     1      83.187  24.645  28.935  1.00  0.00    -0.000 C 
BRANCH  26  27
ATOM     27  C   UNL     1      82.829  25.417  30.213  1.00  0.00    -0.000 C 
BRANCH  27  28
ATOM     28  C   UNL     1      82.319  26.826  29.881  1.00  0.00    -0.000 C 
BRANCH  28  29
ATOM     29  C   UNL     1      83.482  27.814  29.744  1.00  0.00    -0.003 C 
ATOM     30  C   UNL     1      83.382  28.609  28.444  1.00  0.00     0.004 C 
ENDBRANCH  28  29
ENDBRANCH  27  28
ENDBRANCH  26  27
ENDBRANCH  25  26
ENDBRANCH  24  25
ENDBRANCH  23  24
ENDBRANCH  22  23
ENDBRANCH  21  22
ENDBRANCH  20  21
ENDBRANCH  19  20
ENDBRANCH  18  19
ENDBRANCH  17  18
ENDBRANCH   1  17
TORSDOF 26
ENDMDL
MODEL 7
REMARK VINA RESULT:    -2.801      3.012      6.711
REMARK INTER + INTRA:         -12.807
REMARK INTER:                  -8.719
REMARK INTRA:                  -4.088
REMARK UNBOUND:                -5.747
REMARK SMILES CCCCCCCCCCCCCCCCCCCCCCCCCCCC(=O)[O-]
REMARK SMILES IDX 15 1 16 2 17 3 18 4 19 5 20 6 21 7 22 8 23 9 24 10 25 11
REMARK SMILES IDX 26 12 27 13 28 14 29 15 30 16 14 17 13 18 12 19 11 20 10 21
REMARK SMILES IDX 9 22 8 23 7 24 6 25 5 26 4 27 3 28 2 29 1 30
REMARK H PARENT
REMARK Flexibility Score: inf
ROOT
ATOM      1  C   UNL     1      84.646  30.927  28.296  1.00  0.00     0.000 C 
ENDROOT
BRANCH   1   2
ATOM      2  C   UNL     1      84.219  30.369  29.665  1.00  0.00     0.000 C 
BRANCH   2   3
ATOM      3  C   UNL     1      83.201  31.283  30.384  1.00  0.00     0.000 C 
BRANCH   3   4
ATOM      4  C   UNL     1      83.700  31.834  31.734  1.00  0.00     0.000 C 
BRANCH   4   5
ATOM      5  C   UNL     1      85.230  31.891  31.884  1.00  0.00     0.000 C 
BRANCH   5   6
ATOM      6  C   UNL     1      85.807  33.284  31.571  1.00  0.00     0.000 C 
BRANCH   6   7
ATOM      7  C   UNL     1      84.754  34.398  31.684  1.00  0.00     0.000 C 
BRANCH   7   8
ATOM      8  C   UNL     1      85.123  35.447  32.744  1.00  0.00     0.000 C 
BRANCH   8   9
ATOM      9  C   UNL     1      85.936  34.820  33.883  1.00  0.00     0.000 C 
BRANCH   9  10
ATOM     10  C   UNL     1      85.017  34.132  34.899  1.00  0.00     0.000 C 
BRANCH  10  11
ATOM     11  C   UNL     1      83.630  34.789  34.921  1.00  0.00     0.000 C 
BRANCH  11  12
ATOM     12  C   UNL     1      82.488  33.779  34.701  1.00  0.00     0.006 C 
BRANCH  12  13
ATOM     13  C   UNL     1      82.421  32.658  35.752  1.00  0.00     0.053 C 
BRANCH  13  14
ATOM     14  C   UNL     1      81.191  31.816  35.603  1.00  0.00     0.041 C 
ATOM     15  O   UNL     1      80.548  31.447  36.621  1.00  0.00    -0.550 OA
ATOM     16  O   UNL     1      80.746  31.452  34.337  1.00  0.00    -0.550 OA
ENDBRANCH  13  14
ENDBRANCH  12  13
ENDBRANCH  11  12
ENDBRANCH  10  11
ENDBRANCH   9  10
ENDBRANCH   8   9
ENDBRANCH   7   8
ENDBRANCH   6   7
ENDBRANCH   5   6
ENDBRANCH   4   5
ENDBRANCH   3   4
ENDBRANCH   2   3
ENDBRANCH   1   2
BRANCH   1  17
ATOM     17  C   UNL     1      86.145  31.261  28.226  1.00  0.00     0.000 C 
BRANCH  17  18
ATOM     18  C   UNL     1      87.021  30.371  29.134  1.00  0.00     0.000 C 
BRANCH  18  19
ATOM     19  C   UNL     1      88.515  30.467  28.776  1.00  0.00     0.000 C 
BRANCH  19  20
ATOM     20  C   UNL     1      89.214  29.091  28.816  1.00  0.00     0.000 C 
BRANCH  20  21
ATOM     21  C   UNL     1      89.824  28.677  27.466  1.00  0.00     0.000 C 
BRANCH  21  22
ATOM     22  C   UNL     1      89.659  29.751  26.382  1.00  0.00    -0.000 C 
BRANCH  22  23
ATOM     23  C   UNL     1      88.812  29.257  25.185  1.00  0.00    -0.000 C 
BRANCH  23  24
ATOM     24  C   UNL     1      87.317  29.108  25.515  1.00  0.00    -0.000 C 
BRANCH  24  25
ATOM     25  C   UNL     1      86.816  27.651  25.526  1.00  0.00    -0.000 C 
BRANCH  25  26
ATOM     26  C   UNL     1      85.427  27.481  26.181  1.00  0.00    -0.000 C 
BRANCH  26  27
ATOM     27  C   UNL     1      85.501  27.401  27.712  1.00  0.00    -0.000 C 
BRANCH  27  28
ATOM     28  C   UNL     1      86.380  26.226  28.161  1.00  0.00    -0.000 C 
BRANCH  28  29
ATOM     29  C   UNL     1      85.525  25.068  28.686  1.00  0.00    -0.003 C 
ATOM     30  C   UNL     1      85.894  23.754  28.003  1.00  0.00     0.004 C 
ENDBRANCH  28  29
ENDBRANCH  27  28
ENDBRANCH  26  27
ENDBRANCH  25  26
ENDBRANCH  24  25
ENDBRANCH  23  24
ENDBRANCH  22  23
ENDBRANCH  21  22
ENDBRANCH  20  21
ENDBRANCH  19  20
ENDBRANCH  18  19
ENDBRANCH  17  18
ENDBRANCH   1  17
TORSDOF 26
ENDMDL
MODEL 8
REMARK VINA RESULT:    -2.789      1.861      6.436
REMARK INTER + INTRA:         -12.775
REMARK INTER:                  -7.769
REMARK INTRA:                  -5.006
REMARK UNBOUND:                -5.747
REMARK SMILES CCCCCCCCCCCCCCCCCCCCCCCCCCCC(=O)[O-]
REMARK SMILES IDX 15 1 16 2 17 3 18 4 19 5 20 6 21 7 22 8 23 9 24 10 25 11
REMARK SMILES IDX 26 12 27 13 28 14 29 15 30 16 14 17 13 18 12 19 11 20 10 21
REMARK SMILES IDX 9 22 8 23 7 24 6 25 5 26 4 27 3 28 2 29 1 30
REMARK H PARENT
REMARK Flexibility Score: inf
ROOT
ATOM      1  C   UNL     1      84.784  29.705  25.484  1.00  0.00     0.000 C 
ENDROOT
BRANCH   1   2
ATOM      2  C   UNL     1      83.737  29.230  26.506  1.00  0.00     0.000 C 
BRANCH   2   3
ATOM      3  C   UNL     1      83.912  27.740  26.879  1.00  0.00     0.000 C 
BRANCH   3   4
ATOM      4  C   UNL     1      84.977  27.487  27.965  1.00  0.00     0.000 C 
BRANCH   4   5
ATOM      5  C   UNL     1      86.233  26.746  27.479  1.00  0.00     0.000 C 
BRANCH   5   6
ATOM      6  C   UNL     1      86.020  26.031  26.132  1.00  0.00     0.000 C 
BRANCH   6   7
ATOM      7  C   UNL     1      85.366  24.650  26.295  1.00  0.00     0.000 C 
BRANCH   7   8
ATOM      8  C   UNL     1      85.862  23.911  27.548  1.00  0.00     0.000 C 
BRANCH   8   9
ATOM      9  C   UNL     1      84.705  23.213  28.272  1.00  0.00     0.000 C 
BRANCH   9  10
ATOM     10  C   UNL     1      84.168  24.084  29.414  1.00  0.00     0.000 C 
BRANCH  10  11
ATOM     11  C   UNL     1      82.802  24.685  29.052  1.00  0.00     0.000 C 
BRANCH  11  12
ATOM     12  C   UNL     1      82.135  25.407  30.237  1.00  0.00     0.006 C 
BRANCH  12  13
ATOM     13  C   UNL     1      82.178  26.941  30.152  1.00  0.00     0.053 C 
BRANCH  13  14
ATOM     14  C   UNL     1      82.374  27.578  31.494  1.00  0.00     0.041 C 
ATOM     15  O   UNL     1      82.242  26.897  32.545  1.00  0.00    -0.550 OA
ATOM     16  O   UNL     1      82.721  28.922  31.583  1.00  0.00    -0.550 OA
ENDBRANCH  13  14
ENDBRANCH  12  13
ENDBRANCH  11  12
ENDBRANCH  10  11
ENDBRANCH   9  10
ENDBRANCH   8   9
ENDBRANCH   7   8
ENDBRANCH   6   7
ENDBRANCH   5   6
ENDBRANCH   4   5
ENDBRANCH   3   4
ENDBRANCH   2   3
ENDBRANCH   1   2
BRANCH   1  17
ATOM     17  C   UNL     1      85.364  31.089  25.820  1.00  0.00     0.000 C 
BRANCH  17  18
ATOM     18  C   UNL     1      86.824  31.278  25.355  1.00  0.00     0.000 C 
BRANCH  18  19
ATOM     19  C   UNL     1      87.532  29.935  25.100  1.00  0.00     0.000 C 
BRANCH  19  20
ATOM     20  C   UNL     1      89.039  30.115  24.815  1.00  0.00     0.000 C 
BRANCH  20  21
ATOM     21  C   UNL     1      89.915  30.009  26.075  1.00  0.00     0.000 C 
BRANCH  21  22
ATOM     22  C   UNL     1      89.905  28.604  26.693  1.00  0.00    -0.000 C 
BRANCH  22  23
ATOM     23  C   UNL     1      89.573  28.625  28.204  1.00  0.00    -0.000 C 
BRANCH  23  24
ATOM     24  C   UNL     1      88.932  29.944  28.669  1.00  0.00    -0.000 C 
BRANCH  24  25
ATOM     25  C   UNL     1      87.521  29.782  29.265  1.00  0.00    -0.000 C 
BRANCH  25  26
ATOM     26  C   UNL     1      86.659  31.061  29.164  1.00  0.00    -0.000 C 
BRANCH  26  27
ATOM     27  C   UNL     1      85.191  30.815  29.541  1.00  0.00    -0.000 C 
BRANCH  27  28
ATOM     28  C   UNL     1      84.438  32.139  29.725  1.00  0.00    -0.000 C 
BRANCH  28  29
ATOM     29  C   UNL     1      82.953  31.980  29.383  1.00  0.00    -0.003 C 
ATOM     30  C   UNL     1      82.649  32.505  27.982  1.00  0.00     0.004 C 
ENDBRANCH  28  29
ENDBRANCH  27  28
ENDBRANCH  26  27
ENDBRANCH  25  26
ENDBRANCH  24  25
ENDBRANCH  23  24
ENDBRANCH  22  23
ENDBRANCH  21  22
ENDBRANCH  20  21
ENDBRANCH  19  20
ENDBRANCH  18  19
ENDBRANCH  17  18
ENDBRANCH   1  17
TORSDOF 26
ENDMDL
MODEL 9
REMARK VINA RESULT:    -2.787      1.536      3.711
REMARK INTER + INTRA:         -12.770
REMARK INTER:                  -7.827
REMARK INTRA:                  -4.943
REMARK UNBOUND:                -5.747
REMARK SMILES CCCCCCCCCCCCCCCCCCCCCCCCCCCC(=O)[O-]
REMARK SMILES IDX 15 1 16 2 17 3 18 4 19 5 20 6 21 7 22 8 23 9 24 10 25 11
REMARK SMILES IDX 26 12 27 13 28 14 29 15 30 16 14 17 13 18 12 19 11 20 10 21
REMARK SMILES IDX 9 22 8 23 7 24 6 25 5 26 4 27 3 28 2 29 1 30
REMARK H PARENT
REMARK Flexibility Score: inf
ROOT
ATOM      1  C   UNL     1      89.795  28.737  27.957  1.00  0.00     0.000 C 
ENDROOT
BRANCH   1   2
ATOM      2  C   UNL     1      89.616  28.620  26.434  1.00  0.00     0.000 C 
BRANCH   2   3
ATOM      3  C   UNL     1      89.249  29.971  25.777  1.00  0.00     0.000 C 
BRANCH   3   4
ATOM      4  C   UNL     1      87.831  30.009  25.174  1.00  0.00     0.000 C 
BRANCH   4   5
ATOM      5  C   UNL     1      87.102  31.356  25.319  1.00  0.00     0.000 C 
BRANCH   5   6
ATOM      6  C   UNL     1      86.334  31.478  26.648  1.00  0.00     0.000 C 
BRANCH   6   7
ATOM      7  C   UNL     1      84.971  32.168  26.479  1.00  0.00     0.000 C 
BRANCH   7   8
ATOM      8  C   UNL     1      83.835  31.166  26.224  1.00  0.00     0.000 C 
BRANCH   8   9
ATOM      9  C   UNL     1      82.841  31.150  27.391  1.00  0.00     0.000 C 
BRANCH   9  10
ATOM     10  C   UNL     1      83.164  30.016  28.372  1.00  0.00     0.000 C 
BRANCH  10  11
ATOM     11  C   UNL     1      83.359  30.559  29.795  1.00  0.00     0.000 C 
BRANCH  11  12
ATOM     12  C   UNL     1      84.756  31.166  30.015  1.00  0.00     0.006 C 
BRANCH  12  13
ATOM     13  C   UNL     1      84.757  32.683  30.271  1.00  0.00     0.053 C 
BRANCH  13  14
ATOM     14  C   UNL     1      85.353  33.033  31.600  1.00  0.00     0.041 C 
ATOM     15  O   UNL     1      85.551  32.136  32.462  1.00  0.00    -0.550 OA
ATOM     16  O   UNL     1      85.708  34.348  31.879  1.00  0.00    -0.550 OA
ENDBRANCH  13  14
ENDBRANCH  12  13
ENDBRANCH  11  12
ENDBRANCH  10  11
ENDBRANCH   9  10
ENDBRANCH   8   9
ENDBRANCH   7   8
ENDBRANCH   6   7
ENDBRANCH   5   6
ENDBRANCH   4   5
ENDBRANCH   3   4
ENDBRANCH   2   3
ENDBRANCH   1   2
BRANCH   1  17
ATOM     17  C   UNL     1      88.977  29.886  28.571  1.00  0.00     0.000 C 
BRANCH  17  18
ATOM     18  C   UNL     1      87.777  29.409  29.417  1.00  0.00     0.000 C 
BRANCH  18  19
ATOM     19  C   UNL     1      87.331  27.984  29.042  1.00  0.00     0.000 C 
BRANCH  19  20
ATOM     20  C   UNL     1      86.116  27.984  28.090  1.00  0.00     0.000 C 
BRANCH  20  21
ATOM     21  C   UNL     1      85.158  26.803  28.323  1.00  0.00     0.000 C 
BRANCH  21  22
ATOM     22  C   UNL     1      85.893  25.483  28.593  1.00  0.00    -0.000 C 
BRANCH  22  23
ATOM     23  C   UNL     1      84.926  24.280  28.704  1.00  0.00    -0.000 C 
BRANCH  23  24
ATOM     24  C   UNL     1      85.208  23.174  27.674  1.00  0.00    -0.000 C 
BRANCH  24  25
ATOM     25  C   UNL     1      85.867  23.675  26.375  1.00  0.00    -0.000 C 
BRANCH  25  26
ATOM     26  C   UNL     1      84.853  24.167  25.318  1.00  0.00    -0.000 C 
BRANCH  26  27
ATOM     27  C   UNL     1      85.508  25.021  24.223  1.00  0.00    -0.000 C 
BRANCH  27  28
ATOM     28  C   UNL     1      86.019  26.351  24.792  1.00  0.00    -0.000 C 
BRANCH  28  29
ATOM     29  C   UNL     1      85.199  27.530  24.255  1.00  0.00    -0.003 C 
ATOM     30  C   UNL     1      83.875  27.669  25.003  1.00  0.00     0.004 C 
ENDBRANCH  28  29
ENDBRANCH  27  28
ENDBRANCH  26  27
ENDBRANCH  25  26
ENDBRANCH  24  25
ENDBRANCH  23  24
ENDBRANCH  22  23
ENDBRANCH  21  22
ENDBRANCH  20  21
ENDBRANCH  19  20
ENDBRANCH  18  19
ENDBRANCH  17  18
ENDBRANCH   1  17
TORSDOF 26
ENDMDL
