MODEL 1
REMARK VINA RESULT:    -5.862      0.000      0.000
REMARK INTER + INTRA:          -7.431
REMARK INTER:                  -7.061
REMARK INTRA:                  -0.370
REMARK UNBOUND:                -0.370
REMARK SMILES CCCCc1oc(O)c2ccccc12
REMARK SMILES IDX 4 1 5 2 7 3 6 4 9 5 14 6 10 7 13 8 11 9 12 10 8 11 3 13 2 14
REMARK SMILES IDX 1 15
REMARK H PARENT 8 12
REMARK Flexibility Score: inf
ROOT
ATOM      1  C   UNL     1      12.030  19.674  -4.253  1.00  0.00     0.076 C 
ENDROOT
BRANCH   1   2
ATOM      2  C   UNL     1      11.984  18.954  -5.566  1.00  0.00     0.116 A 
ATOM      3  C   UNL     1      11.687  18.607  -7.660  1.00  0.00     0.290 A 
ATOM      4  O   UNL     1      11.576  19.502  -6.697  1.00  0.00    -0.430 OA
ATOM      5  C   UNL     1      12.189  17.432  -7.149  1.00  0.00     0.066 A 
ATOM      6  C   UNL     1      12.383  17.651  -5.812  1.00  0.00     0.027 A 
ATOM      7  C   UNL     1      12.492  16.213  -7.750  1.00  0.00     0.016 A 
ATOM      8  C   UNL     1      12.899  16.662  -4.975  1.00  0.00     0.012 A 
ATOM      9  C   UNL     1      13.012  15.193  -6.932  1.00  0.00     0.001 A 
ATOM     10  C   UNL     1      13.215  15.418  -5.551  1.00  0.00     0.001 A 
BRANCH   3  11
ATOM     11  O   UNL     1      11.346  18.835  -8.988  1.00  0.00    -0.480 OA
ATOM     12  H   UNL     1      12.066  18.903  -9.698  1.00  0.00     0.297 HD
ENDBRANCH   3  11
ENDBRANCH   1   2
BRANCH   1  13
ATOM     13  C   UNL     1      13.103  20.766  -4.277  1.00  0.00     0.008 C 
BRANCH  13  14
ATOM     14  C   UNL     1      14.504  20.162  -4.129  1.00  0.00    -0.003 C 
ATOM     15  C   UNL     1      15.514  21.216  -3.683  1.00  0.00     0.004 C 
ENDBRANCH  13  14
ENDBRANCH   1  13
TORSDOF 4
ENDMDL
MODEL 2
REMARK VINA RESULT:    -5.829      1.743      2.542
REMARK INTER + INTRA:          -7.392
REMARK INTER:                  -7.100
REMARK INTRA:                  -0.291
REMARK UNBOUND:                -0.370
REMARK SMILES CCCCc1oc(O)c2ccccc12
REMARK SMILES IDX 4 1 5 2 7 3 6 4 9 5 14 6 10 7 13 8 11 9 12 10 8 11 3 13 2 14
REMARK SMILES IDX 1 15
REMARK H PARENT 8 12
REMARK Flexibility Score: inf
ROOT
ATOM      1  C   UNL     1      13.684  19.930  -2.746  1.00  0.00     0.076 C 
ENDROOT
BRANCH   1   2
ATOM      2  C   UNL     1      12.923  20.108  -4.024  1.00  0.00     0.116 A 
ATOM      3  C   UNL     1      11.775  21.057  -5.567  1.00  0.00     0.290 A 
ATOM      4  O   UNL     1      12.328  21.233  -4.381  1.00  0.00    -0.430 OA
ATOM      5  C   UNL     1      12.019  19.776  -6.009  1.00  0.00     0.066 A 
ATOM      6  C   UNL     1      12.754  19.169  -5.027  1.00  0.00     0.027 A 
ATOM      7  C   UNL     1      11.662  19.117  -7.182  1.00  0.00     0.016 A 
ATOM      8  C   UNL     1      13.191  17.850  -5.149  1.00  0.00     0.012 A 
ATOM      9  C   UNL     1      12.086  17.783  -7.335  1.00  0.00     0.001 A 
ATOM     10  C   UNL     1      12.847  17.153  -6.323  1.00  0.00     0.001 A 
BRANCH   3  11
ATOM     11  O   UNL     1      11.061  22.031  -6.253  1.00  0.00    -0.480 OA
ATOM     12  H   UNL     1      11.131  22.102  -7.262  1.00  0.00     0.297 HD
ENDBRANCH   3  11
ENDBRANCH   1   2
BRANCH   1  13
ATOM     13  C   UNL     1      15.191  20.024  -3.001  1.00  0.00     0.008 C 
BRANCH  13  14
ATOM     14  C   UNL     1      15.537  21.296  -3.782  1.00  0.00    -0.003 C 
ATOM     15  C   UNL     1      16.661  22.072  -3.101  1.00  0.00     0.004 C 
ENDBRANCH  13  14
ENDBRANCH   1  13
TORSDOF 4
ENDMDL
MODEL 3
REMARK VINA RESULT:    -5.656      3.381      4.326
REMARK INTER + INTRA:          -7.183
REMARK INTER:                  -6.966
REMARK INTRA:                  -0.217
REMARK UNBOUND:                -0.370
REMARK SMILES CCCCc1oc(O)c2ccccc12
REMARK SMILES IDX 4 1 5 2 7 3 6 4 9 5 14 6 10 7 13 8 11 9 12 10 8 11 3 13 2 14
REMARK SMILES IDX 1 15
REMARK H PARENT 8 12
REMARK Flexibility Score: inf
ROOT
ATOM      1  C   UNL     1      14.477  19.904  -4.348  1.00  0.00     0.076 C 
ENDROOT
BRANCH   1   2
ATOM      2  C   UNL     1      13.086  19.430  -4.059  1.00  0.00     0.116 A 
ATOM      3  C   UNL     1      11.484  18.326  -3.158  1.00  0.00     0.290 A 
ATOM      4  O   UNL     1      12.794  18.477  -3.190  1.00  0.00    -0.430 OA
ATOM      5  C   UNL     1      10.891  19.210  -4.030  1.00  0.00     0.066 A 
ATOM      6  C   UNL     1      11.912  19.919  -4.605  1.00  0.00     0.027 A 
ATOM      7  C   UNL     1       9.556  19.445  -4.349  1.00  0.00     0.016 A 
ATOM      8  C   UNL     1      11.669  20.922  -5.543  1.00  0.00     0.012 A 
ATOM      9  C   UNL     1       9.278  20.450  -5.295  1.00  0.00     0.001 A 
ATOM     10  C   UNL     1      10.330  21.185  -5.888  1.00  0.00     0.001 A 
BRANCH   3  11
ATOM     11  O   UNL     1      10.818  17.407  -2.356  1.00  0.00    -0.480 OA
ATOM     12  H   UNL     1      10.538  16.508  -2.730  1.00  0.00     0.297 HD
ENDBRANCH   3  11
ENDBRANCH   1   2
BRANCH   1  13
ATOM     13  C   UNL     1      14.732  21.259  -3.683  1.00  0.00     0.008 C 
BRANCH  13  14
ATOM     14  C   UNL     1      16.219  21.441  -3.361  1.00  0.00    -0.003 C 
ATOM     15  C   UNL     1      16.530  22.890  -2.995  1.00  0.00     0.004 C 
ENDBRANCH  13  14
ENDBRANCH   1  13
TORSDOF 4
ENDMDL
MODEL 4
REMARK VINA RESULT:    -5.626      1.619      3.257
REMARK INTER + INTRA:          -7.147
REMARK INTER:                  -6.664
REMARK INTRA:                  -0.483
REMARK UNBOUND:                -0.370
REMARK SMILES CCCCc1oc(O)c2ccccc12
REMARK SMILES IDX 4 1 5 2 7 3 6 4 9 5 14 6 10 7 13 8 11 9 12 10 8 11 3 13 2 14
REMARK SMILES IDX 1 15
REMARK H PARENT 8 12
REMARK Flexibility Score: inf
ROOT
ATOM      1  C   UNL     1      13.979  17.774  -5.055  1.00  0.00     0.076 C 
ENDROOT
BRANCH   1   2
ATOM      2  C   UNL     1      12.954  18.268  -6.029  1.00  0.00     0.116 A 
ATOM      3  C   UNL     1      11.816  18.437  -7.839  1.00  0.00     0.290 A 
ATOM      4  O   UNL     1      12.825  17.812  -7.263  1.00  0.00    -0.430 OA
ATOM      5  C   UNL     1      11.257  19.332  -6.954  1.00  0.00     0.066 A 
ATOM      6  C   UNL     1      11.981  19.224  -5.797  1.00  0.00     0.027 A 
ATOM      7  C   UNL     1      10.183  20.210  -7.076  1.00  0.00     0.016 A 
ATOM      8  C   UNL     1      11.678  19.988  -4.670  1.00  0.00     0.012 A 
ATOM      9  C   UNL     1       9.854  20.998  -5.957  1.00  0.00     0.001 A 
ATOM     10  C   UNL     1      10.598  20.886  -4.760  1.00  0.00     0.001 A 
BRANCH   3  11
ATOM     11  O   UNL     1      11.392  18.212  -9.143  1.00  0.00    -0.480 OA
ATOM     12  H   UNL     1      10.914  18.942  -9.659  1.00  0.00     0.297 HD
ENDBRANCH   3  11
ENDBRANCH   1   2
BRANCH   1  13
ATOM     13  C   UNL     1      15.156  18.749  -4.973  1.00  0.00     0.008 C 
BRANCH  13  14
ATOM     14  C   UNL     1      15.189  19.457  -3.615  1.00  0.00    -0.003 C 
ATOM     15  C   UNL     1      15.396  20.960  -3.781  1.00  0.00     0.004 C 
ENDBRANCH  13  14
ENDBRANCH   1  13
TORSDOF 4
ENDMDL
MODEL 5
REMARK VINA RESULT:    -5.543      2.533      3.223
REMARK INTER + INTRA:          -7.047
REMARK INTER:                  -6.832
REMARK INTRA:                  -0.215
REMARK UNBOUND:                -0.370
REMARK SMILES CCCCc1oc(O)c2ccccc12
REMARK SMILES IDX 4 1 5 2 7 3 6 4 9 5 14 6 10 7 13 8 11 9 12 10 8 11 3 13 2 14
REMARK SMILES IDX 1 15
REMARK H PARENT 8 12
REMARK Flexibility Score: inf
ROOT
ATOM      1  C   UNL     1      14.287  19.074  -5.341  1.00  0.00     0.076 C 
ENDROOT
BRANCH   1   2
ATOM      2  C   UNL     1      12.863  19.503  -5.163  1.00  0.00     0.116 A 
ATOM      3  C   UNL     1      11.085  20.692  -5.320  1.00  0.00     0.290 A 
ATOM      4  O   UNL     1      12.368  20.638  -5.625  1.00  0.00    -0.430 OA
ATOM      5  C   UNL     1      10.721  19.553  -4.639  1.00  0.00     0.066 A 
ATOM      6  C   UNL     1      11.853  18.790  -4.539  1.00  0.00     0.027 A 
ATOM      7  C   UNL     1       9.499  19.135  -4.116  1.00  0.00     0.016 A 
ATOM      8  C   UNL     1      11.845  17.546  -3.908  1.00  0.00     0.012 A 
ATOM      9  C   UNL     1       9.459  17.885  -3.471  1.00  0.00     0.001 A 
ATOM     10  C   UNL     1      10.626  17.094  -3.369  1.00  0.00     0.001 A 
BRANCH   3  11
ATOM     11  O   UNL     1      10.243  21.747  -5.648  1.00  0.00    -0.480 OA
ATOM     12  H   UNL     1       9.715  21.730  -6.513  1.00  0.00     0.297 HD
ENDBRANCH   3  11
ENDBRANCH   1   2
BRANCH   1  13
ATOM     13  C   UNL     1      15.126  19.481  -4.127  1.00  0.00     0.008 C 
BRANCH  13  14
ATOM     14  C   UNL     1      14.897  20.953  -3.770  1.00  0.00    -0.003 C 
ATOM     15  C   UNL     1      16.209  21.643  -3.404  1.00  0.00     0.004 C 
ENDBRANCH  13  14
ENDBRANCH   1  13
TORSDOF 4
ENDMDL
MODEL 6
REMARK VINA RESULT:    -5.541      1.043      1.996
REMARK INTER + INTRA:          -7.045
REMARK INTER:                  -6.662
REMARK INTRA:                  -0.383
REMARK UNBOUND:                -0.370
REMARK SMILES CCCCc1oc(O)c2ccccc12
REMARK SMILES IDX 4 1 5 2 7 3 6 4 9 5 14 6 10 7 13 8 11 9 12 10 8 11 3 13 2 14
REMARK SMILES IDX 1 15
REMARK H PARENT 8 12
REMARK Flexibility Score: inf
ROOT
ATOM      1  C   UNL     1      13.311  19.796  -4.772  1.00  0.00     0.076 C 
ENDROOT
BRANCH   1   2
ATOM      2  C   UNL     1      12.857  18.928  -5.905  1.00  0.00     0.116 A 
ATOM      3  C   UNL     1      11.998  18.361  -7.786  1.00  0.00     0.290 A 
ATOM      4  O   UNL     1      12.229  19.378  -6.977  1.00  0.00    -0.430 OA
ATOM      5  C   UNL     1      12.495  17.203  -7.233  1.00  0.00     0.066 A 
ATOM      6  C   UNL     1      13.047  17.562  -6.032  1.00  0.00     0.027 A 
ATOM      7  C   UNL     1      12.509  15.888  -7.690  1.00  0.00     0.016 A 
ATOM      8  C   UNL     1      13.659  16.626  -5.198  1.00  0.00     0.012 A 
ATOM      9  C   UNL     1      13.118  14.919  -6.870  1.00  0.00     0.001 A 
ATOM     10  C   UNL     1      13.690  15.287  -5.631  1.00  0.00     0.001 A 
BRANCH   3  11
ATOM     11  O   UNL     1      11.352  18.463  -9.013  1.00  0.00    -0.480 OA
ATOM     12  H   UNL     1      10.357  18.289  -9.083  1.00  0.00     0.297 HD
ENDBRANCH   3  11
ENDBRANCH   1   2
BRANCH   1  13
ATOM     13  C   UNL     1      12.107  20.372  -4.022  1.00  0.00     0.008 C 
BRANCH  13  14
ATOM     14  C   UNL     1      11.073  19.282  -3.723  1.00  0.00    -0.003 C 
ATOM     15  C   UNL     1       9.746  19.577  -4.417  1.00  0.00     0.004 C 
ENDBRANCH  13  14
ENDBRANCH   1  13
TORSDOF 4
ENDMDL
MODEL 7
REMARK VINA RESULT:    -5.534      2.565      5.030
REMARK INTER + INTRA:          -7.036
REMARK INTER:                  -6.581
REMARK INTRA:                  -0.455
REMARK UNBOUND:                -0.370
REMARK SMILES CCCCc1oc(O)c2ccccc12
REMARK SMILES IDX 4 1 5 2 7 3 6 4 9 5 14 6 10 7 13 8 11 9 12 10 8 11 3 13 2 14
REMARK SMILES IDX 1 15
REMARK H PARENT 8 12
REMARK Flexibility Score: inf
ROOT
ATOM      1  C   UNL     1      11.271  18.721  -5.272  1.00  0.00     0.076 C 
ENDROOT
BRANCH   1   2
ATOM      2  C   UNL     1      12.728  18.847  -4.948  1.00  0.00     0.116 A 
ATOM      3  C   UNL     1      14.805  18.339  -4.790  1.00  0.00     0.290 A 
ATOM      4  O   UNL     1      13.619  17.894  -5.159  1.00  0.00    -0.430 OA
ATOM      5  C   UNL     1      14.694  19.630  -4.326  1.00  0.00     0.066 A 
ATOM      6  C   UNL     1      13.369  19.959  -4.428  1.00  0.00     0.027 A 
ATOM      7  C   UNL     1      15.643  20.525  -3.838  1.00  0.00     0.016 A 
ATOM      8  C   UNL     1      12.895  21.215  -4.050  1.00  0.00     0.012 A 
ATOM      9  C   UNL     1      15.195  21.801  -3.445  1.00  0.00     0.001 A 
ATOM     10  C   UNL     1      13.828  22.144  -3.552  1.00  0.00     0.001 A 
BRANCH   3  11
ATOM     11  O   UNL     1      15.981  17.602  -4.868  1.00  0.00    -0.480 OA
ATOM     12  H   UNL     1      16.023  16.763  -5.435  1.00  0.00     0.297 HD
ENDBRANCH   3  11
ENDBRANCH   1   2
BRANCH   1  13
ATOM     13  C   UNL     1      10.924  19.541  -6.517  1.00  0.00     0.008 C 
BRANCH  13  14
ATOM     14  C   UNL     1       9.878  20.612  -6.195  1.00  0.00    -0.003 C 
ATOM     15  C   UNL     1       9.099  20.260  -4.931  1.00  0.00     0.004 C 
ENDBRANCH  13  14
ENDBRANCH   1  13
TORSDOF 4
ENDMDL
MODEL 8
REMARK VINA RESULT:    -5.491      2.080      3.581
REMARK INTER + INTRA:          -6.985
REMARK INTER:                  -6.702
REMARK INTRA:                  -0.282
REMARK UNBOUND:                -0.370
REMARK SMILES CCCCc1oc(O)c2ccccc12
REMARK SMILES IDX 4 1 5 2 7 3 6 4 9 5 14 6 10 7 13 8 11 9 12 10 8 11 3 13 2 14
REMARK SMILES IDX 1 15
REMARK H PARENT 8 12
REMARK Flexibility Score: inf
ROOT
ATOM      1  C   UNL     1      14.312  20.332  -3.177  1.00  0.00     0.076 C 
ENDROOT
BRANCH   1   2
ATOM      2  C   UNL     1      13.634  19.613  -4.303  1.00  0.00     0.116 A 
ATOM      3  C   UNL     1      13.176  18.069  -5.718  1.00  0.00     0.290 A 
ATOM      4  O   UNL     1      13.993  18.420  -4.743  1.00  0.00    -0.430 OA
ATOM      5  C   UNL     1      12.245  19.061  -5.926  1.00  0.00     0.066 A 
ATOM      6  C   UNL     1      12.533  20.047  -5.021  1.00  0.00     0.027 A 
ATOM      7  C   UNL     1      11.182  19.163  -6.819  1.00  0.00     0.016 A 
ATOM      8  C   UNL     1      11.772  21.214  -4.943  1.00  0.00     0.012 A 
ATOM      9  C   UNL     1      10.396  20.330  -6.767  1.00  0.00     0.001 A 
ATOM     10  C   UNL     1      10.689  21.350  -5.833  1.00  0.00     0.001 A 
BRANCH   3  11
ATOM     11  O   UNL     1      13.257  16.871  -6.419  1.00  0.00    -0.480 OA
ATOM     12  H   UNL     1      13.940  16.170  -6.158  1.00  0.00     0.297 HD
ENDBRANCH   3  11
ENDBRANCH   1   2
BRANCH   1  13
ATOM     13  C   UNL     1      15.302  21.366  -3.719  1.00  0.00     0.008 C 
BRANCH  13  14
ATOM     14  C   UNL     1      16.637  21.291  -2.972  1.00  0.00    -0.003 C 
ATOM     15  C   UNL     1      16.615  20.194  -1.911  1.00  0.00     0.004 C 
ENDBRANCH  13  14
ENDBRANCH   1  13
TORSDOF 4
ENDMDL
MODEL 9
REMARK VINA RESULT:    -5.412      9.619     11.293
REMARK INTER + INTRA:          -6.890
REMARK INTER:                  -6.544
REMARK INTRA:                  -0.345
REMARK UNBOUND:                -0.370
REMARK SMILES CCCCc1oc(O)c2ccccc12
REMARK SMILES IDX 4 1 5 2 7 3 6 4 9 5 14 6 10 7 13 8 11 9 12 10 8 11 3 13 2 14
REMARK SMILES IDX 1 15
REMARK H PARENT 8 12
REMARK Flexibility Score: inf
ROOT
ATOM      1  C   UNL     1      10.102  19.946   2.584  1.00  0.00     0.076 C 
ENDROOT
BRANCH   1   2
ATOM      2  C   UNL     1       9.130  21.036   2.917  1.00  0.00     0.116 A 
ATOM      3  C   UNL     1       8.365  23.003   3.295  1.00  0.00     0.290 A 
ATOM      4  O   UNL     1       9.455  22.313   3.020  1.00  0.00    -0.430 OA
ATOM      5  C   UNL     1       7.284  22.154   3.372  1.00  0.00     0.066 A 
ATOM      6  C   UNL     1       7.769  20.897   3.128  1.00  0.00     0.027 A 
ATOM      7  C   UNL     1       5.935  22.390   3.625  1.00  0.00     0.016 A 
ATOM      8  C   UNL     1       6.934  19.780   3.117  1.00  0.00     0.012 A 
ATOM      9  C   UNL     1       5.067  21.282   3.623  1.00  0.00     0.001 A 
ATOM     10  C   UNL     1       5.565  19.984   3.369  1.00  0.00     0.001 A 
BRANCH   3  11
ATOM     11  O   UNL     1       8.330  24.380   3.475  1.00  0.00    -0.480 OA
ATOM     12  H   UNL     1       9.073  24.850   3.979  1.00  0.00     0.297 HD
ENDBRANCH   3  11
ENDBRANCH   1   2
BRANCH   1  13
ATOM     13  C   UNL     1      10.708  19.358   3.862  1.00  0.00     0.008 C 
BRANCH  13  14
ATOM     14  C   UNL     1      12.109  19.922   4.115  1.00  0.00    -0.003 C 
ATOM     15  C   UNL     1      12.072  21.047   5.146  1.00  0.00     0.004 C 
ENDBRANCH  13  14
ENDBRANCH   1  13
TORSDOF 4
ENDMDL
