MODEL 1
REMARK VINA RESULT:    -4.523      0.000      0.000
REMARK INTER + INTRA:          -8.275
REMARK INTER:                  -6.638
REMARK INTRA:                  -1.637
REMARK UNBOUND:                -1.637
REMARK SMILES CC(C)COC(=O)c1ccccc1C(=O)OCC(C)C
REMARK SMILES IDX 8 1 9 2 10 3 11 4 12 5 13 6 6 7 7 8 5 9 4 10 2 11 1 12 3 13
REMARK SMILES IDX 14 14 15 15 16 16 17 17 18 18 19 19 20 20
REMARK H PARENT
REMARK Flexibility Score: inf
ROOT
ATOM      1  C   UNL     1     -10.941  -2.480  -0.494  1.00  0.00     0.074 A 
ATOM      2  C   UNL     1     -11.440  -3.796  -0.492  1.00  0.00     0.016 A 
ATOM      3  C   UNL     1     -12.569  -4.133  -1.240  1.00  0.00     0.001 A 
ATOM      4  C   UNL     1     -13.218  -3.162  -2.000  1.00  0.00     0.001 A 
ATOM      5  C   UNL     1     -12.728  -1.856  -2.033  1.00  0.00     0.016 A 
ATOM      6  C   UNL     1     -11.577  -1.501  -1.306  1.00  0.00     0.074 A 
ENDROOT
BRANCH   1   7
ATOM      7  C   UNL     1      -9.813  -2.166   0.411  1.00  0.00     0.339 C 
ATOM      8  O   UNL     1      -8.645  -2.042  -0.049  1.00  0.00    -0.246 OA
BRANCH   7   9
ATOM      9  O   UNL     1     -10.064  -1.953   1.773  1.00  0.00    -0.462 OA
BRANCH   9  10
ATOM     10  C   UNL     1      -9.588  -2.807   2.814  1.00  0.00     0.236 C 
BRANCH  10  11
ATOM     11  C   UNL     1     -10.715  -3.685   3.390  1.00  0.00     0.021 C 
ATOM     12  C   UNL     1     -12.104  -3.104   3.096  1.00  0.00     0.011 C 
ATOM     13  C   UNL     1     -10.612  -5.127   2.879  1.00  0.00     0.011 C 
ENDBRANCH  10  11
ENDBRANCH   9  10
ENDBRANCH   7   9
ENDBRANCH   1   7
BRANCH   6  14
ATOM     14  C   UNL     1     -11.051  -0.129  -1.470  1.00  0.00     0.339 C 
ATOM     15  O   UNL     1     -11.148   0.705  -0.529  1.00  0.00    -0.246 OA
BRANCH  14  16
ATOM     16  O   UNL     1     -10.395   0.219  -2.657  1.00  0.00    -0.462 OA
BRANCH  16  17
ATOM     17  C   UNL     1      -9.002   0.002  -2.880  1.00  0.00     0.236 C 
BRANCH  17  18
ATOM     18  C   UNL     1      -8.772  -0.984  -4.041  1.00  0.00     0.021 C 
ATOM     19  C   UNL     1      -8.432  -2.376  -3.498  1.00  0.00     0.011 C 
ATOM     20  C   UNL     1     -10.001  -1.054  -4.957  1.00  0.00     0.011 C 
ENDBRANCH  17  18
ENDBRANCH  16  17
ENDBRANCH  14  16
ENDBRANCH   6  14
TORSDOF 8
ENDMDL
MODEL 2
REMARK VINA RESULT:    -4.499      2.224      6.147
REMARK INTER + INTRA:          -8.241
REMARK INTER:                  -7.189
REMARK INTRA:                  -1.051
REMARK UNBOUND:                -1.637
REMARK SMILES CC(C)COC(=O)c1ccccc1C(=O)OCC(C)C
REMARK SMILES IDX 8 1 9 2 10 3 11 4 12 5 13 6 6 7 7 8 5 9 4 10 2 11 1 12 3 13
REMARK SMILES IDX 14 14 15 15 16 16 17 17 18 18 19 19 20 20
REMARK H PARENT
REMARK Flexibility Score: inf
ROOT
ATOM      1  C   UNL     1     -10.036   0.504  -3.365  1.00  0.00     0.074 A 
ATOM      2  C   UNL     1      -9.444   1.780  -3.414  1.00  0.00     0.016 A 
ATOM      3  C   UNL     1     -10.061   2.877  -2.811  1.00  0.00     0.001 A 
ATOM      4  C   UNL     1     -11.278   2.718  -2.151  1.00  0.00     0.001 A 
ATOM      5  C   UNL     1     -11.872   1.458  -2.072  1.00  0.00     0.016 A 
ATOM      6  C   UNL     1     -11.255   0.335  -2.652  1.00  0.00     0.074 A 
ENDROOT
BRANCH   1   7
ATOM      7  C   UNL     1      -9.388  -0.589  -4.124  1.00  0.00     0.339 C 
ATOM      8  O   UNL     1      -9.955  -1.081  -5.138  1.00  0.00    -0.246 OA
BRANCH   7   9
ATOM      9  O   UNL     1      -8.116  -1.032  -3.741  1.00  0.00    -0.462 OA
BRANCH   9  10
ATOM     10  C   UNL     1      -6.983  -1.053  -4.610  1.00  0.00     0.236 C 
BRANCH  10  11
ATOM     11  C   UNL     1      -5.996   0.084  -4.287  1.00  0.00     0.021 C 
ATOM     12  C   UNL     1      -6.221   1.312  -5.178  1.00  0.00     0.011 C 
ATOM     13  C   UNL     1      -6.062   0.472  -2.804  1.00  0.00     0.011 C 
ENDBRANCH  10  11
ENDBRANCH   9  10
ENDBRANCH   7   9
ENDBRANCH   1   7
BRANCH   6  14
ATOM     14  C   UNL     1     -11.883  -0.987  -2.440  1.00  0.00     0.339 C 
ATOM     15  O   UNL     1     -12.642  -1.479  -3.320  1.00  0.00    -0.246 OA
BRANCH  14  16
ATOM     16  O   UNL     1     -11.587  -1.711  -1.279  1.00  0.00    -0.462 OA
BRANCH  16  17
ATOM     17  C   UNL     1     -10.677  -2.810  -1.248  1.00  0.00     0.236 C 
BRANCH  17  18
ATOM     18  C   UNL     1     -11.360  -4.084  -0.714  1.00  0.00     0.021 C 
ATOM     19  C   UNL     1     -11.117  -4.225   0.793  1.00  0.00     0.011 C 
ATOM     20  C   UNL     1     -12.864  -4.070  -1.013  1.00  0.00     0.011 C 
ENDBRANCH  17  18
ENDBRANCH  16  17
ENDBRANCH  14  16
ENDBRANCH   6  14
TORSDOF 8
ENDMDL
MODEL 3
REMARK VINA RESULT:    -4.499      0.111      5.490
REMARK INTER + INTRA:          -8.240
REMARK INTER:                  -6.612
REMARK INTRA:                  -1.628
REMARK UNBOUND:                -1.637
REMARK SMILES CC(C)COC(=O)c1ccccc1C(=O)OCC(C)C
REMARK SMILES IDX 8 1 9 2 10 3 11 4 12 5 13 6 6 7 7 8 5 9 4 10 2 11 1 12 3 13
REMARK SMILES IDX 14 14 15 15 16 16 17 17 18 18 19 19 20 20
REMARK H PARENT
REMARK Flexibility Score: inf
ROOT
ATOM      1  C   UNL     1     -11.613  -1.500  -1.210  1.00  0.00     0.074 A 
ATOM      2  C   UNL     1     -12.747  -1.858  -1.962  1.00  0.00     0.016 A 
ATOM      3  C   UNL     1     -13.218  -3.172  -1.963  1.00  0.00     0.001 A 
ATOM      4  C   UNL     1     -12.564  -4.148  -1.215  1.00  0.00     0.001 A 
ATOM      5  C   UNL     1     -11.450  -3.811  -0.446  1.00  0.00     0.016 A 
ATOM      6  C   UNL     1     -10.974  -2.488  -0.411  1.00  0.00     0.074 A 
ENDROOT
BRANCH   1   7
ATOM      7  C   UNL     1     -11.100  -0.119  -1.346  1.00  0.00     0.339 C 
ATOM      8  O   UNL     1     -11.218   0.700  -0.394  1.00  0.00    -0.246 OA
BRANCH   7   9
ATOM      9  O   UNL     1     -10.432   0.254  -2.520  1.00  0.00    -0.462 OA
BRANCH   9  10
ATOM     10  C   UNL     1      -9.035   0.056  -2.739  1.00  0.00     0.236 C 
BRANCH  10  11
ATOM     11  C   UNL     1      -8.774  -0.941  -3.885  1.00  0.00     0.021 C 
ATOM     12  C   UNL     1      -8.460  -2.348  -3.362  1.00  0.00     0.011 C 
ATOM     13  C   UNL     1      -9.952  -0.979  -4.867  1.00  0.00     0.011 C 
ENDBRANCH  10  11
ENDBRANCH   9  10
ENDBRANCH   7   9
ENDBRANCH   1   7
BRANCH   6  14
ATOM     14  C   UNL     1      -9.857  -2.178   0.506  1.00  0.00     0.339 C 
ATOM     15  O   UNL     1      -8.687  -2.030   0.057  1.00  0.00    -0.246 OA
BRANCH  14  16
ATOM     16  O   UNL     1     -10.117  -1.997   1.870  1.00  0.00    -0.462 OA
BRANCH  16  17
ATOM     17  C   UNL     1      -9.605  -2.855   2.890  1.00  0.00     0.236 C 
BRANCH  17  18
ATOM     18  C   UNL     1     -10.712  -3.761   3.461  1.00  0.00     0.021 C 
ATOM     19  C   UNL     1     -12.093  -3.167   3.163  1.00  0.00     0.011 C 
ATOM     20  C   UNL     1     -10.609  -5.183   2.894  1.00  0.00     0.011 C 
ENDBRANCH  17  18
ENDBRANCH  16  17
ENDBRANCH  14  16
ENDBRANCH   6  14
TORSDOF 8
ENDMDL
MODEL 4
REMARK VINA RESULT:    -4.497     10.819     12.983
REMARK INTER + INTRA:          -8.237
REMARK INTER:                  -6.643
REMARK INTRA:                  -1.594
REMARK UNBOUND:                -1.637
REMARK SMILES CC(C)COC(=O)c1ccccc1C(=O)OCC(C)C
REMARK SMILES IDX 8 1 9 2 10 3 11 4 12 5 13 6 6 7 7 8 5 9 4 10 2 11 1 12 3 13
REMARK SMILES IDX 14 14 15 15 16 16 17 17 18 18 19 19 20 20
REMARK H PARENT
REMARK Flexibility Score: inf
ROOT
ATOM      1  C   UNL     1      -5.179 -12.041  -3.635  1.00  0.00     0.074 A 
ATOM      2  C   UNL     1      -4.436 -10.848  -3.705  1.00  0.00     0.016 A 
ATOM      3  C   UNL     1      -4.858  -9.704  -3.026  1.00  0.00     0.001 A 
ATOM      4  C   UNL     1      -6.027  -9.732  -2.269  1.00  0.00     0.001 A 
ATOM      5  C   UNL     1      -6.767 -10.911  -2.169  1.00  0.00     0.016 A 
ATOM      6  C   UNL     1      -6.347 -12.081  -2.825  1.00  0.00     0.074 A 
ENDROOT
BRANCH   1   7
ATOM      7  C   UNL     1      -4.739 -13.180  -4.472  1.00  0.00     0.339 C 
ATOM      8  O   UNL     1      -4.018 -14.090  -3.978  1.00  0.00    -0.246 OA
BRANCH   7   9
ATOM      9  O   UNL     1      -5.176 -13.266  -5.800  1.00  0.00    -0.462 OA
BRANCH   9  10
ATOM     10  C   UNL     1      -6.537 -13.480  -6.179  1.00  0.00     0.236 C 
BRANCH  10  11
ATOM     11  C   UNL     1      -7.149 -12.227  -6.834  1.00  0.00     0.021 C 
ATOM     12  C   UNL     1      -8.226 -11.585  -5.951  1.00  0.00     0.011 C 
ATOM     13  C   UNL     1      -6.065 -11.203  -7.195  1.00  0.00     0.011 C 
ENDBRANCH  10  11
ENDBRANCH   9  10
ENDBRANCH   7   9
ENDBRANCH   1   7
BRANCH   6  14
ATOM     14  C   UNL     1      -7.118 -13.321  -2.591  1.00  0.00     0.339 C 
ATOM     15  O   UNL     1      -6.622 -14.260  -1.910  1.00  0.00    -0.246 OA
BRANCH  14  16
ATOM     16  O   UNL     1      -8.424 -13.423  -3.086  1.00  0.00    -0.462 OA
BRANCH  16  17
ATOM     17  C   UNL     1      -9.052 -14.666  -3.399  1.00  0.00     0.236 C 
BRANCH  17  18
ATOM     18  C   UNL     1     -10.157 -14.480  -4.457  1.00  0.00     0.021 C 
ATOM     19  C   UNL     1      -9.812 -15.262  -5.730  1.00  0.00     0.011 C 
ATOM     20  C   UNL     1     -11.522 -14.921  -3.913  1.00  0.00     0.011 C 
ENDBRANCH  17  18
ENDBRANCH  16  17
ENDBRANCH  14  16
ENDBRANCH   6  14
TORSDOF 8
ENDMDL
MODEL 5
REMARK VINA RESULT:    -4.464     10.410     12.638
REMARK INTER + INTRA:          -8.188
REMARK INTER:                  -7.016
REMARK INTRA:                  -1.172
REMARK UNBOUND:                -1.637
REMARK SMILES CC(C)COC(=O)c1ccccc1C(=O)OCC(C)C
REMARK SMILES IDX 8 1 9 2 10 3 11 4 12 5 13 6 6 7 7 8 5 9 4 10 2 11 1 12 3 13
REMARK SMILES IDX 14 14 15 15 16 16 17 17 18 18 19 19 20 20
REMARK H PARENT
REMARK Flexibility Score: inf
ROOT
ATOM      1  C   UNL     1      -7.243 -11.351  -4.566  1.00  0.00     0.074 A 
ATOM      2  C   UNL     1      -6.676 -10.089  -4.313  1.00  0.00     0.016 A 
ATOM      3  C   UNL     1      -6.180  -9.769  -3.048  1.00  0.00     0.001 A 
ATOM      4  C   UNL     1      -6.243 -10.704  -2.017  1.00  0.00     0.001 A 
ATOM      5  C   UNL     1      -6.782 -11.969  -2.252  1.00  0.00     0.016 A 
ATOM      6  C   UNL     1      -7.265 -12.320  -3.525  1.00  0.00     0.074 A 
ENDROOT
BRANCH   1   7
ATOM      7  C   UNL     1      -7.855 -11.581  -5.894  1.00  0.00     0.339 C 
ATOM      8  O   UNL     1      -7.148 -11.986  -6.858  1.00  0.00    -0.246 OA
BRANCH   7   9
ATOM      9  O   UNL     1      -9.234 -11.400  -6.056  1.00  0.00    -0.462 OA
BRANCH   9  10
ATOM     10  C   UNL     1      -9.910 -11.497  -7.311  1.00  0.00     0.236 C 
BRANCH  10  11
ATOM     11  C   UNL     1     -11.358 -10.980  -7.220  1.00  0.00     0.021 C 
ATOM     12  C   UNL     1     -11.567  -9.707  -8.049  1.00  0.00     0.011 C 
ATOM     13  C   UNL     1     -12.362 -12.064  -7.630  1.00  0.00     0.011 C 
ENDBRANCH  10  11
ENDBRANCH   9  10
ENDBRANCH   7   9
ENDBRANCH   1   7
BRANCH   6  14
ATOM     14  C   UNL     1      -7.724 -13.710  -3.733  1.00  0.00     0.339 C 
ATOM     15  O   UNL     1      -7.050 -14.502  -4.447  1.00  0.00    -0.246 OA
BRANCH  14  16
ATOM     16  O   UNL     1      -8.883 -14.156  -3.087  1.00  0.00    -0.462 OA
BRANCH  16  17
ATOM     17  C   UNL     1      -9.796 -15.089  -3.664  1.00  0.00     0.236 C 
BRANCH  17  18
ATOM     18  C   UNL     1     -10.715 -14.403  -4.693  1.00  0.00     0.021 C 
ATOM     19  C   UNL     1     -10.446 -14.954  -6.098  1.00  0.00     0.011 C 
ATOM     20  C   UNL     1     -12.192 -14.588  -4.322  1.00  0.00     0.011 C 
ENDBRANCH  17  18
ENDBRANCH  16  17
ENDBRANCH  14  16
ENDBRANCH   6  14
TORSDOF 8
ENDMDL
MODEL 6
REMARK VINA RESULT:    -4.392     10.440     12.655
REMARK INTER + INTRA:          -8.083
REMARK INTER:                  -6.307
REMARK INTRA:                  -1.776
REMARK UNBOUND:                -1.637
REMARK SMILES CC(C)COC(=O)c1ccccc1C(=O)OCC(C)C
REMARK SMILES IDX 8 1 9 2 10 3 11 4 12 5 13 6 6 7 7 8 5 9 4 10 2 11 1 12 3 13
REMARK SMILES IDX 14 14 15 15 16 16 17 17 18 18 19 19 20 20
REMARK H PARENT
REMARK Flexibility Score: inf
ROOT
ATOM      1  C   UNL     1      -5.030 -11.679  -3.744  1.00  0.00     0.074 A 
ATOM      2  C   UNL     1      -4.244 -10.512  -3.722  1.00  0.00     0.016 A 
ATOM      3  C   UNL     1      -4.624  -9.409  -2.955  1.00  0.00     0.001 A 
ATOM      4  C   UNL     1      -5.794  -9.454  -2.200  1.00  0.00     0.001 A 
ATOM      5  C   UNL     1      -6.577 -10.608  -2.191  1.00  0.00     0.016 A 
ATOM      6  C   UNL     1      -6.199 -11.739  -2.937  1.00  0.00     0.074 A 
ENDROOT
BRANCH   1   7
ATOM      7  C   UNL     1      -4.631 -12.765  -4.667  1.00  0.00     0.339 C 
ATOM      8  O   UNL     1      -3.883 -13.698  -4.266  1.00  0.00    -0.246 OA
BRANCH   7   9
ATOM      9  O   UNL     1      -5.138 -12.777  -5.973  1.00  0.00    -0.462 OA
BRANCH   9  10
ATOM     10  C   UNL     1      -4.569 -12.040  -7.056  1.00  0.00     0.236 C 
BRANCH  10  11
ATOM     11  C   UNL     1      -5.382 -10.769  -7.368  1.00  0.00     0.021 C 
ATOM     12  C   UNL     1      -4.516  -9.504  -7.311  1.00  0.00     0.011 C 
ATOM     13  C   UNL     1      -6.088 -10.880  -8.725  1.00  0.00     0.011 C 
ENDBRANCH  10  11
ENDBRANCH   9  10
ENDBRANCH   7   9
ENDBRANCH   1   7
BRANCH   6  14
ATOM     14  C   UNL     1      -7.016 -12.964  -2.798  1.00  0.00     0.339 C 
ATOM     15  O   UNL     1      -6.669 -13.871  -1.992  1.00  0.00    -0.246 OA
BRANCH  14  16
ATOM     16  O   UNL     1      -8.205 -13.085  -3.528  1.00  0.00    -0.462 OA
BRANCH  16  17
ATOM     17  C   UNL     1      -8.301 -13.795  -4.763  1.00  0.00     0.236 C 
BRANCH  17  18
ATOM     18  C   UNL     1      -8.929 -12.916  -5.861  1.00  0.00     0.021 C 
ATOM     19  C   UNL     1      -8.579 -11.442  -5.630  1.00  0.00     0.011 C 
ATOM     20  C   UNL     1      -8.467 -13.362  -7.255  1.00  0.00     0.011 C 
ENDBRANCH  17  18
ENDBRANCH  16  17
ENDBRANCH  14  16
ENDBRANCH   6  14
TORSDOF 8
ENDMDL
MODEL 7
REMARK VINA RESULT:    -4.345      2.206      4.414
REMARK INTER + INTRA:          -8.015
REMARK INTER:                  -6.492
REMARK INTRA:                  -1.522
REMARK UNBOUND:                -1.637
REMARK SMILES CC(C)COC(=O)c1ccccc1C(=O)OCC(C)C
REMARK SMILES IDX 8 1 9 2 10 3 11 4 12 5 13 6 6 7 7 8 5 9 4 10 2 11 1 12 3 13
REMARK SMILES IDX 14 14 15 15 16 16 17 17 18 18 19 19 20 20
REMARK H PARENT
REMARK Flexibility Score: inf
ROOT
ATOM      1  C   UNL     1     -11.468   0.251  -2.742  1.00  0.00     0.074 A 
ATOM      2  C   UNL     1     -12.108   1.377  -2.192  1.00  0.00     0.016 A 
ATOM      3  C   UNL     1     -11.485   2.626  -2.199  1.00  0.00     0.001 A 
ATOM      4  C   UNL     1     -10.215   2.770  -2.752  1.00  0.00     0.001 A 
ATOM      5  C   UNL     1      -9.571   1.671  -3.322  1.00  0.00     0.016 A 
ATOM      6  C   UNL     1     -10.191   0.409  -3.348  1.00  0.00     0.074 A 
ENDROOT
BRANCH   1   7
ATOM      7  C   UNL     1     -12.134  -1.063  -2.597  1.00  0.00     0.339 C 
ATOM      8  O   UNL     1     -12.756  -1.571  -3.570  1.00  0.00    -0.246 OA
BRANCH   7   9
ATOM      9  O   UNL     1     -12.020  -1.762  -1.388  1.00  0.00    -0.462 OA
BRANCH   9  10
ATOM     10  C   UNL     1     -13.127  -2.329  -0.687  1.00  0.00     0.236 C 
BRANCH  10  11
ATOM     11  C   UNL     1     -12.833  -3.770  -0.229  1.00  0.00     0.021 C 
ATOM     12  C   UNL     1     -11.458  -4.255  -0.703  1.00  0.00     0.011 C 
ATOM     13  C   UNL     1     -12.960  -3.906   1.294  1.00  0.00     0.011 C 
ENDBRANCH  10  11
ENDBRANCH   9  10
ENDBRANCH   7   9
ENDBRANCH   1   7
BRANCH   6  14
ATOM     14  C   UNL     1      -9.500  -0.687  -4.060  1.00  0.00     0.339 C 
ATOM     15  O   UNL     1      -9.846  -1.001  -5.232  1.00  0.00    -0.246 OA
BRANCH  14  16
ATOM     16  O   UNL     1      -8.424  -1.338  -3.445  1.00  0.00    -0.462 OA
BRANCH  16  17
ATOM     17  C   UNL     1      -8.553  -2.120  -2.258  1.00  0.00     0.236 C 
BRANCH  17  18
ATOM     18  C   UNL     1      -7.909  -1.411  -1.051  1.00  0.00     0.021 C 
ATOM     19  C   UNL     1      -6.987  -0.283  -1.527  1.00  0.00     0.011 C 
ATOM     20  C   UNL     1      -8.980  -0.861  -0.100  1.00  0.00     0.011 C 
ENDBRANCH  17  18
ENDBRANCH  16  17
ENDBRANCH  14  16
ENDBRANCH   6  14
TORSDOF 8
ENDMDL
MODEL 8
REMARK VINA RESULT:    -4.309      1.946      4.342
REMARK INTER + INTRA:          -7.961
REMARK INTER:                  -6.344
REMARK INTRA:                  -1.618
REMARK UNBOUND:                -1.637
REMARK SMILES CC(C)COC(=O)c1ccccc1C(=O)OCC(C)C
REMARK SMILES IDX 8 1 9 2 10 3 11 4 12 5 13 6 6 7 7 8 5 9 4 10 2 11 1 12 3 13
REMARK SMILES IDX 14 14 15 15 16 16 17 17 18 18 19 19 20 20
REMARK H PARENT
REMARK Flexibility Score: inf
ROOT
ATOM      1  C   UNL     1     -10.678  -0.669  -3.318  1.00  0.00     0.074 A 
ATOM      2  C   UNL     1      -9.857  -1.127  -4.365  1.00  0.00     0.016 A 
ATOM      3  C   UNL     1      -8.769  -0.371  -4.803  1.00  0.00     0.001 A 
ATOM      4  C   UNL     1      -8.485   0.854  -4.204  1.00  0.00     0.001 A 
ATOM      5  C   UNL     1      -9.273   1.318  -3.150  1.00  0.00     0.016 A 
ATOM      6  C   UNL     1     -10.359   0.560  -2.677  1.00  0.00     0.074 A 
ENDROOT
BRANCH   1   7
ATOM      7  C   UNL     1     -11.881  -1.464  -2.983  1.00  0.00     0.339 C 
ATOM      8  O   UNL     1     -12.888  -1.444  -3.743  1.00  0.00    -0.246 OA
BRANCH   7   9
ATOM      9  O   UNL     1     -11.869  -2.283  -1.847  1.00  0.00    -0.462 OA
BRANCH   9  10
ATOM     10  C   UNL     1     -13.031  -2.602  -1.081  1.00  0.00     0.236 C 
BRANCH  10  11
ATOM     11  C   UNL     1     -12.812  -3.851  -0.206  1.00  0.00     0.021 C 
ATOM     12  C   UNL     1     -11.424  -4.468  -0.422  1.00  0.00     0.011 C 
ATOM     13  C   UNL     1     -13.040  -3.537   1.278  1.00  0.00     0.011 C 
ENDBRANCH  10  11
ENDBRANCH   9  10
ENDBRANCH   7   9
ENDBRANCH   1   7
BRANCH   6  14
ATOM     14  C   UNL     1     -11.086   1.057  -1.490  1.00  0.00     0.339 C 
ATOM     15  O   UNL     1     -11.878   2.034  -1.592  1.00  0.00    -0.246 OA
BRANCH  14  16
ATOM     16  O   UNL     1     -10.930   0.402  -0.262  1.00  0.00    -0.462 OA
BRANCH  16  17
ATOM     17  C   UNL     1      -9.659   0.083   0.303  1.00  0.00     0.236 C 
BRANCH  17  18
ATOM     18  C   UNL     1      -9.323  -1.409   0.112  1.00  0.00     0.021 C 
ATOM     19  C   UNL     1      -8.053  -1.565  -0.731  1.00  0.00     0.011 C 
ATOM     20  C   UNL     1      -9.157  -2.114   1.464  1.00  0.00     0.011 C 
ENDBRANCH  17  18
ENDBRANCH  16  17
ENDBRANCH  14  16
ENDBRANCH   6  14
TORSDOF 8
ENDMDL
MODEL 9
REMARK VINA RESULT:    -4.298      1.913      5.725
REMARK INTER + INTRA:          -7.944
REMARK INTER:                  -6.350
REMARK INTRA:                  -1.594
REMARK UNBOUND:                -1.637
REMARK SMILES CC(C)COC(=O)c1ccccc1C(=O)OCC(C)C
REMARK SMILES IDX 8 1 9 2 10 3 11 4 12 5 13 6 6 7 7 8 5 9 4 10 2 11 1 12 3 13
REMARK SMILES IDX 14 14 15 15 16 16 17 17 18 18 19 19 20 20
REMARK H PARENT
REMARK Flexibility Score: inf
ROOT
ATOM      1  C   UNL     1     -10.702  -1.130  -2.907  1.00  0.00     0.074 A 
ATOM      2  C   UNL     1     -10.217  -0.845  -4.197  1.00  0.00     0.016 A 
ATOM      3  C   UNL     1      -8.872  -1.042  -4.513  1.00  0.00     0.001 A 
ATOM      4  C   UNL     1      -7.992  -1.526  -3.548  1.00  0.00     0.001 A 
ATOM      5  C   UNL     1      -8.456  -1.835  -2.269  1.00  0.00     0.016 A 
ATOM      6  C   UNL     1      -9.812  -1.666  -1.937  1.00  0.00     0.074 A 
ENDROOT
BRANCH   1   7
ATOM      7  C   UNL     1     -12.111  -0.787  -2.607  1.00  0.00     0.339 C 
ATOM      8  O   UNL     1     -12.985  -1.694  -2.539  1.00  0.00    -0.246 OA
BRANCH   7   9
ATOM      9  O   UNL     1     -12.452   0.546  -2.342  1.00  0.00    -0.462 OA
BRANCH   9  10
ATOM     10  C   UNL     1     -11.967   1.285  -1.220  1.00  0.00     0.236 C 
BRANCH  10  11
ATOM     11  C   UNL     1     -10.971   2.380  -1.649  1.00  0.00     0.021 C 
ATOM     12  C   UNL     1      -9.518   1.976  -1.372  1.00  0.00     0.011 C 
ATOM     13  C   UNL     1     -11.158   2.754  -3.125  1.00  0.00     0.011 C 
ENDBRANCH  10  11
ENDBRANCH   9  10
ENDBRANCH   7   9
ENDBRANCH   1   7
BRANCH   6  14
ATOM     14  C   UNL     1     -10.258  -2.113  -0.599  1.00  0.00     0.339 C 
ATOM     15  O   UNL     1     -10.087  -1.373   0.408  1.00  0.00    -0.246 OA
BRANCH  14  16
ATOM     16  O   UNL     1     -10.920  -3.340  -0.469  1.00  0.00    -0.462 OA
BRANCH  16  17
ATOM     17  C   UNL     1     -10.974  -4.079   0.751  1.00  0.00     0.236 C 
BRANCH  17  18
ATOM     18  C   UNL     1     -12.382  -4.021   1.375  1.00  0.00     0.021 C 
ATOM     19  C   UNL     1     -12.424  -2.980   2.499  1.00  0.00     0.011 C 
ATOM     20  C   UNL     1     -13.443  -3.703   0.313  1.00  0.00     0.011 C 
ENDBRANCH  17  18
ENDBRANCH  16  17
ENDBRANCH  14  16
ENDBRANCH   6  14
TORSDOF 8
ENDMDL
