MODEL 1
REMARK VINA RESULT:    -5.140      0.000      0.000
REMARK INTER + INTRA:          -9.025
REMARK INTER:                  -8.296
REMARK INTRA:                  -0.729
REMARK UNBOUND:                -0.729
REMARK SMILES CCCCCCCCCCCCO
REMARK SMILES IDX 7 1 6 2 5 3 4 4 3 5 2 6 1 7 8 8 9 9 10 10 11 11 12 12 13 13
REMARK H PARENT 13 14
REMARK Flexibility Score: inf
ROOT
ATOM      1  C   UNL     1      12.911  14.410  27.303  1.00  0.00     0.000 C 
ENDROOT
BRANCH   1   2
ATOM      2  C   UNL     1      13.995  14.363  28.392  1.00  0.00    -0.000 C 
BRANCH   2   3
ATOM      3  C   UNL     1      13.964  13.058  29.202  1.00  0.00    -0.000 C 
BRANCH   3   4
ATOM      4  C   UNL     1      13.226  13.258  30.535  1.00  0.00    -0.000 C 
BRANCH   4   5
ATOM      5  C   UNL     1      13.536  14.615  31.186  1.00  0.00    -0.000 C 
BRANCH   5   6
ATOM      6  C   UNL     1      12.292  15.508  31.317  1.00  0.00    -0.003 C 
ATOM      7  C   UNL     1      12.580  16.925  30.831  1.00  0.00     0.004 C 
ENDBRANCH   5   6
ENDBRANCH   4   5
ENDBRANCH   3   4
ENDBRANCH   2   3
ENDBRANCH   1   2
BRANCH   1   8
ATOM      8  C   UNL     1      12.204  15.772  27.228  1.00  0.00     0.000 C 
BRANCH   8   9
ATOM      9  C   UNL     1      12.066  16.241  25.775  1.00  0.00     0.000 C 
BRANCH   9  10
ATOM     10  C   UNL     1      12.343  17.747  25.654  1.00  0.00     0.002 C 
BRANCH  10  11
ATOM     11  C   UNL     1      12.803  18.154  24.246  1.00  0.00     0.028 C 
BRANCH  11  12
ATOM     12  C   UNL     1      11.890  17.610  23.144  1.00  0.00     0.156 C 
BRANCH  12  13
ATOM     13  O   UNL     1      10.656  18.270  23.195  1.00  0.00    -0.396 OA
ATOM     14  H   UNL     1      10.560  18.744  22.329  1.00  0.00     0.210 HD
ENDBRANCH  12  13
ENDBRANCH  11  12
ENDBRANCH  10  11
ENDBRANCH   9  10
ENDBRANCH   8   9
ENDBRANCH   1   8
TORSDOF 11
ENDMDL
MODEL 2
REMARK VINA RESULT:    -5.039      2.434      6.144
REMARK INTER + INTRA:          -8.861
REMARK INTER:                  -8.129
REMARK INTRA:                  -0.733
REMARK UNBOUND:                -0.729
REMARK SMILES CCCCCCCCCCCCO
REMARK SMILES IDX 7 1 6 2 5 3 4 4 3 5 2 6 1 7 8 8 9 9 10 10 11 11 12 12 13 13
REMARK H PARENT 13 14
REMARK Flexibility Score: inf
ROOT
ATOM      1  C   UNL     1      13.907  14.413  28.138  1.00  0.00     0.000 C 
ENDROOT
BRANCH   1   2
ATOM      2  C   UNL     1      12.511  14.938  27.765  1.00  0.00    -0.000 C 
BRANCH   2   3
ATOM      3  C   UNL     1      12.173  14.718  26.283  1.00  0.00    -0.000 C 
BRANCH   3   4
ATOM      4  C   UNL     1      11.654  16.014  25.641  1.00  0.00    -0.000 C 
BRANCH   4   5
ATOM      5  C   UNL     1      12.529  17.232  25.976  1.00  0.00    -0.000 C 
BRANCH   5   6
ATOM      6  C   UNL     1      12.703  18.183  24.782  1.00  0.00    -0.003 C 
ATOM      7  C   UNL     1      12.470  17.454  23.461  1.00  0.00     0.004 C 
ENDBRANCH   5   6
ENDBRANCH   4   5
ENDBRANCH   3   4
ENDBRANCH   2   3
ENDBRANCH   1   2
BRANCH   1   8
ATOM      8  C   UNL     1      13.862  13.331  29.228  1.00  0.00     0.000 C 
BRANCH   8   9
ATOM      9  C   UNL     1      12.876  13.711  30.339  1.00  0.00     0.000 C 
BRANCH   9  10
ATOM     10  C   UNL     1      13.620  14.100  31.626  1.00  0.00     0.002 C 
BRANCH  10  11
ATOM     11  C   UNL     1      13.159  15.451  32.192  1.00  0.00     0.028 C 
BRANCH  11  12
ATOM     12  C   UNL     1      12.964  16.513  31.107  1.00  0.00     0.156 C 
BRANCH  12  13
ATOM     13  O   UNL     1      14.215  16.980  30.684  1.00  0.00    -0.396 OA
ATOM     14  H   UNL     1      14.760  17.092  31.506  1.00  0.00     0.210 HD
ENDBRANCH  12  13
ENDBRANCH  11  12
ENDBRANCH  10  11
ENDBRANCH   9  10
ENDBRANCH   8   9
ENDBRANCH   1   8
TORSDOF 11
ENDMDL
MODEL 3
REMARK VINA RESULT:    -5.011      0.858      1.297
REMARK INTER + INTRA:          -8.816
REMARK INTER:                  -7.900
REMARK INTRA:                  -0.917
REMARK UNBOUND:                -0.729
REMARK SMILES CCCCCCCCCCCCO
REMARK SMILES IDX 7 1 6 2 5 3 4 4 3 5 2 6 1 7 8 8 9 9 10 10 11 11 12 12 13 13
REMARK H PARENT 13 14
REMARK Flexibility Score: inf
ROOT
ATOM      1  C   UNL     1      13.815  14.478  28.160  1.00  0.00     0.000 C 
ENDROOT
BRANCH   1   2
ATOM      2  C   UNL     1      13.974  13.257  29.080  1.00  0.00    -0.000 C 
BRANCH   2   3
ATOM      3  C   UNL     1      13.017  13.292  30.281  1.00  0.00    -0.000 C 
BRANCH   3   4
ATOM      4  C   UNL     1      13.638  14.066  31.454  1.00  0.00    -0.000 C 
BRANCH   4   5
ATOM      5  C   UNL     1      12.599  14.877  32.245  1.00  0.00    -0.000 C 
BRANCH   5   6
ATOM      6  C   UNL     1      11.937  15.976  31.399  1.00  0.00    -0.003 C 
ATOM      7  C   UNL     1      12.968  16.989  30.911  1.00  0.00     0.004 C 
ENDBRANCH   5   6
ENDBRANCH   4   5
ENDBRANCH   3   4
ENDBRANCH   2   3
ENDBRANCH   1   2
BRANCH   1   8
ATOM      8  C   UNL     1      12.344  14.820  27.878  1.00  0.00     0.000 C 
BRANCH   8   9
ATOM      9  C   UNL     1      12.230  16.078  27.007  1.00  0.00     0.000 C 
BRANCH   9  10
ATOM     10  C   UNL     1      11.816  15.718  25.572  1.00  0.00     0.002 C 
BRANCH  10  11
ATOM     11  C   UNL     1      12.219  16.794  24.552  1.00  0.00     0.028 C 
BRANCH  11  12
ATOM     12  C   UNL     1      11.303  18.019  24.590  1.00  0.00     0.156 C 
BRANCH  12  13
ATOM     13  O   UNL     1      10.675  18.168  23.347  1.00  0.00    -0.396 OA
ATOM     14  H   UNL     1      11.368  17.976  22.663  1.00  0.00     0.210 HD
ENDBRANCH  12  13
ENDBRANCH  11  12
ENDBRANCH  10  11
ENDBRANCH   9  10
ENDBRANCH   8   9
ENDBRANCH   1   8
TORSDOF 11
ENDMDL
MODEL 4
REMARK VINA RESULT:    -4.978      3.832      5.482
REMARK INTER + INTRA:          -8.763
REMARK INTER:                  -7.421
REMARK INTRA:                  -1.342
REMARK UNBOUND:                -0.729
REMARK SMILES CCCCCCCCCCCCO
REMARK SMILES IDX 7 1 6 2 5 3 4 4 3 5 2 6 1 7 8 8 9 9 10 10 11 11 12 12 13 13
REMARK H PARENT 13 14
REMARK Flexibility Score: inf
ROOT
ATOM      1  C   UNL     1      12.419  16.170  31.796  1.00  0.00     0.000 C 
ENDROOT
BRANCH   1   2
ATOM      2  C   UNL     1      12.524  14.705  32.246  1.00  0.00    -0.000 C 
BRANCH   2   3
ATOM      3  C   UNL     1      13.676  13.956  31.560  1.00  0.00    -0.000 C 
BRANCH   3   4
ATOM      4  C   UNL     1      13.163  13.135  30.367  1.00  0.00    -0.000 C 
BRANCH   4   5
ATOM      5  C   UNL     1      13.947  13.414  29.075  1.00  0.00    -0.000 C 
BRANCH   5   6
ATOM      6  C   UNL     1      13.340  14.560  28.250  1.00  0.00    -0.003 C 
ATOM      7  C   UNL     1      14.102  15.862  28.476  1.00  0.00     0.004 C 
ENDBRANCH   5   6
ENDBRANCH   4   5
ENDBRANCH   3   4
ENDBRANCH   2   3
ENDBRANCH   1   2
BRANCH   1   8
ATOM      8  C   UNL     1      11.258  16.409  30.817  1.00  0.00     0.000 C 
BRANCH   8   9
ATOM      9  C   UNL     1      10.209  15.296  30.928  1.00  0.00     0.000 C 
BRANCH   9  10
ATOM     10  C   UNL     1       9.843  14.745  29.541  1.00  0.00     0.002 C 
BRANCH  10  11
ATOM     11  C   UNL     1       8.380  14.282  29.455  1.00  0.00     0.028 C 
BRANCH  11  12
ATOM     12  C   UNL     1       7.550  14.713  30.666  1.00  0.00     0.156 C 
BRANCH  12  13
ATOM     13  O   UNL     1       6.515  13.791  30.871  1.00  0.00    -0.396 OA
ATOM     14  H   UNL     1       6.513  13.591  31.843  1.00  0.00     0.210 HD
ENDBRANCH  12  13
ENDBRANCH  11  12
ENDBRANCH  10  11
ENDBRANCH   9  10
ENDBRANCH   8   9
ENDBRANCH   1   8
TORSDOF 11
ENDMDL
MODEL 5
REMARK VINA RESULT:    -4.951      1.525      3.305
REMARK INTER + INTRA:          -8.719
REMARK INTER:                  -7.409
REMARK INTRA:                  -1.310
REMARK UNBOUND:                -0.729
REMARK SMILES CCCCCCCCCCCCO
REMARK SMILES IDX 7 1 6 2 5 3 4 4 3 5 2 6 1 7 8 8 9 9 10 10 11 11 12 12 13 13
REMARK H PARENT 13 14
REMARK Flexibility Score: inf
ROOT
ATOM      1  C   UNL     1      13.181  13.131  30.359  1.00  0.00     0.000 C 
ENDROOT
BRANCH   1   2
ATOM      2  C   UNL     1      13.656  14.080  31.470  1.00  0.00    -0.000 C 
BRANCH   2   3
ATOM      3  C   UNL     1      12.508  14.897  32.083  1.00  0.00    -0.000 C 
BRANCH   3   4
ATOM      4  C   UNL     1      12.295  16.208  31.310  1.00  0.00    -0.000 C 
BRANCH   4   5
ATOM      5  C   UNL     1      10.885  16.317  30.708  1.00  0.00    -0.000 C 
BRANCH   5   6
ATOM      6  C   UNL     1      10.120  14.985  30.745  1.00  0.00    -0.003 C 
ATOM      7  C   UNL     1       9.349  14.759  29.449  1.00  0.00     0.004 C 
ENDBRANCH   5   6
ENDBRANCH   4   5
ENDBRANCH   3   4
ENDBRANCH   2   3
ENDBRANCH   1   2
BRANCH   1   8
ATOM      8  C   UNL     1      14.011  13.259  29.073  1.00  0.00     0.000 C 
BRANCH   8   9
ATOM      9  C   UNL     1      13.859  14.656  28.458  1.00  0.00     0.000 C 
BRANCH   9  10
ATOM     10  C   UNL     1      12.529  14.780  27.699  1.00  0.00     0.002 C 
BRANCH  10  11
ATOM     11  C   UNL     1      12.434  16.076  26.879  1.00  0.00     0.028 C 
BRANCH  11  12
ATOM     12  C   UNL     1      12.005  15.831  25.430  1.00  0.00     0.156 C 
BRANCH  12  13
ATOM     13  O   UNL     1      10.978  16.722  25.094  1.00  0.00    -0.396 OA
ATOM     14  H   UNL     1      11.377  17.630  25.127  1.00  0.00     0.210 HD
ENDBRANCH  12  13
ENDBRANCH  11  12
ENDBRANCH  10  11
ENDBRANCH   9  10
ENDBRANCH   8   9
ENDBRANCH   1   8
TORSDOF 11
ENDMDL
MODEL 6
REMARK VINA RESULT:    -4.878      1.707      2.575
REMARK INTER + INTRA:          -8.602
REMARK INTER:                  -8.009
REMARK INTRA:                  -0.593
REMARK UNBOUND:                -0.729
REMARK SMILES CCCCCCCCCCCCO
REMARK SMILES IDX 7 1 6 2 5 3 4 4 3 5 2 6 1 7 8 8 9 9 10 10 11 11 12 12 13 13
REMARK H PARENT 13 14
REMARK Flexibility Score: inf
ROOT
ATOM      1  C   UNL     1      12.114  14.966  26.085  1.00  0.00     0.000 C 
ENDROOT
BRANCH   1   2
ATOM      2  C   UNL     1      12.456  16.198  26.939  1.00  0.00    -0.000 C 
BRANCH   2   3
ATOM      3  C   UNL     1      12.771  15.837  28.399  1.00  0.00    -0.000 C 
BRANCH   3   4
ATOM      4  C   UNL     1      14.048  14.987  28.491  1.00  0.00    -0.000 C 
BRANCH   4   5
ATOM      5  C   UNL     1      13.776  13.564  29.003  1.00  0.00    -0.000 C 
BRANCH   5   6
ATOM      6  C   UNL     1      12.912  13.546  30.273  1.00  0.00    -0.003 C 
ATOM      7  C   UNL     1      13.701  14.046  31.480  1.00  0.00     0.004 C 
ENDBRANCH   5   6
ENDBRANCH   4   5
ENDBRANCH   3   4
ENDBRANCH   2   3
ENDBRANCH   1   2
BRANCH   1   8
ATOM      8  C   UNL     1      11.395  15.332  24.778  1.00  0.00     0.000 C 
BRANCH   8   9
ATOM      9  C   UNL     1      11.100  16.836  24.716  1.00  0.00     0.000 C 
BRANCH   9  10
ATOM     10  C   UNL     1      11.672  17.455  23.431  1.00  0.00     0.002 C 
BRANCH  10  11
ATOM     11  C   UNL     1      12.888  18.356  23.700  1.00  0.00     0.028 C 
BRANCH  11  12
ATOM     12  C   UNL     1      13.338  19.131  22.458  1.00  0.00     0.156 C 
BRANCH  12  13
ATOM     13  O   UNL     1      14.416  19.959  22.794  1.00  0.00    -0.396 OA
ATOM     14  H   UNL     1      14.745  19.641  23.674  1.00  0.00     0.210 HD
ENDBRANCH  12  13
ENDBRANCH  11  12
ENDBRANCH  10  11
ENDBRANCH   9  10
ENDBRANCH   8   9
ENDBRANCH   1   8
TORSDOF 11
ENDMDL
MODEL 7
REMARK VINA RESULT:    -4.793      6.464      7.868
REMARK INTER + INTRA:          -8.464
REMARK INTER:                  -7.821
REMARK INTRA:                  -0.644
REMARK UNBOUND:                -0.729
REMARK SMILES CCCCCCCCCCCCO
REMARK SMILES IDX 7 1 6 2 5 3 4 4 3 5 2 6 1 7 8 8 9 9 10 10 11 11 12 12 13 13
REMARK H PARENT 13 14
REMARK Flexibility Score: inf
ROOT
ATOM      1  C   UNL     1      17.088  13.950  20.303  1.00  0.00     0.000 C 
ENDROOT
BRANCH   1   2
ATOM      2  C   UNL     1      18.419  13.907  21.069  1.00  0.00    -0.000 C 
BRANCH   2   3
ATOM      3  C   UNL     1      18.250  13.451  22.526  1.00  0.00    -0.000 C 
BRANCH   3   4
ATOM      4  C   UNL     1      19.198  12.286  22.850  1.00  0.00    -0.000 C 
BRANCH   4   5
ATOM      5  C   UNL     1      19.946  12.483  24.179  1.00  0.00    -0.000 C 
BRANCH   5   6
ATOM      6  C   UNL     1      19.613  13.824  24.852  1.00  0.00    -0.003 C 
ATOM      7  C   UNL     1      20.388  13.990  26.156  1.00  0.00     0.004 C 
ENDBRANCH   5   6
ENDBRANCH   4   5
ENDBRANCH   3   4
ENDBRANCH   2   3
ENDBRANCH   1   2
BRANCH   1   8
ATOM      8  C   UNL     1      16.164  12.773  20.653  1.00  0.00     0.000 C 
BRANCH   8   9
ATOM      9  C   UNL     1      14.760  13.267  21.022  1.00  0.00     0.000 C 
BRANCH   9  10
ATOM     10  C   UNL     1      14.556  13.256  22.545  1.00  0.00     0.002 C 
BRANCH  10  11
ATOM     11  C   UNL     1      13.331  14.074  22.984  1.00  0.00     0.028 C 
BRANCH  11  12
ATOM     12  C   UNL     1      12.381  13.282  23.886  1.00  0.00     0.156 C 
BRANCH  12  13
ATOM     13  O   UNL     1      12.253  11.978  23.392  1.00  0.00    -0.396 OA
ATOM     14  H   UNL     1      12.430  12.033  22.417  1.00  0.00     0.210 HD
ENDBRANCH  12  13
ENDBRANCH  11  12
ENDBRANCH  10  11
ENDBRANCH   9  10
ENDBRANCH   8   9
ENDBRANCH   1   8
TORSDOF 11
ENDMDL
MODEL 8
REMARK VINA RESULT:    -4.746      1.738      2.157
REMARK INTER + INTRA:          -8.388
REMARK INTER:                  -7.435
REMARK INTRA:                  -0.954
REMARK UNBOUND:                -0.729
REMARK SMILES CCCCCCCCCCCCO
REMARK SMILES IDX 7 1 6 2 5 3 4 4 3 5 2 6 1 7 8 8 9 9 10 10 11 11 12 12 13 13
REMARK H PARENT 13 14
REMARK Flexibility Score: inf
ROOT
ATOM      1  C   UNL     1      13.920  14.355  28.216  1.00  0.00     0.000 C 
ENDROOT
BRANCH   1   2
ATOM      2  C   UNL     1      13.961  13.253  29.287  1.00  0.00    -0.000 C 
BRANCH   2   3
ATOM      3  C   UNL     1      12.943  13.484  30.414  1.00  0.00    -0.000 C 
BRANCH   3   4
ATOM      4  C   UNL     1      13.632  14.034  31.672  1.00  0.00    -0.000 C 
BRANCH   4   5
ATOM      5  C   UNL     1      13.033  15.370  32.139  1.00  0.00    -0.000 C 
BRANCH   5   6
ATOM      6  C   UNL     1      13.322  16.522  31.164  1.00  0.00    -0.003 C 
ATOM      7  C   UNL     1      12.027  17.111  30.611  1.00  0.00     0.004 C 
ENDBRANCH   5   6
ENDBRANCH   4   5
ENDBRANCH   3   4
ENDBRANCH   2   3
ENDBRANCH   1   2
BRANCH   1   8
ATOM      8  C   UNL     1      12.487  14.742  27.819  1.00  0.00     0.000 C 
BRANCH   8   9
ATOM      9  C   UNL     1      12.476  16.029  26.985  1.00  0.00     0.000 C 
BRANCH   9  10
ATOM     10  C   UNL     1      11.798  15.798  25.626  1.00  0.00     0.002 C 
BRANCH  10  11
ATOM     11  C   UNL     1      12.085  14.402  25.051  1.00  0.00     0.028 C 
BRANCH  11  12
ATOM     12  C   UNL     1      11.705  14.280  23.573  1.00  0.00     0.156 C 
BRANCH  12  13
ATOM     13  O   UNL     1      12.545  15.099  22.808  1.00  0.00    -0.396 OA
ATOM     14  H   UNL     1      13.362  14.565  22.628  1.00  0.00     0.210 HD
ENDBRANCH  12  13
ENDBRANCH  11  12
ENDBRANCH  10  11
ENDBRANCH   9  10
ENDBRANCH   8   9
ENDBRANCH   1   8
TORSDOF 11
ENDMDL
MODEL 9
REMARK VINA RESULT:    -4.743      2.147      3.415
REMARK INTER + INTRA:          -8.384
REMARK INTER:                  -7.233
REMARK INTRA:                  -1.150
REMARK UNBOUND:                -0.729
REMARK SMILES CCCCCCCCCCCCO
REMARK SMILES IDX 7 1 6 2 5 3 4 4 3 5 2 6 1 7 8 8 9 9 10 10 11 11 12 12 13 13
REMARK H PARENT 13 14
REMARK Flexibility Score: inf
ROOT
ATOM      1  C   UNL     1      13.908  16.139  28.909  1.00  0.00     0.000 C 
ENDROOT
BRANCH   1   2
ATOM      2  C   UNL     1      13.967  16.433  30.416  1.00  0.00    -0.000 C 
BRANCH   2   3
ATOM      3  C   UNL     1      12.676  17.078  30.945  1.00  0.00    -0.000 C 
BRANCH   3   4
ATOM      4  C   UNL     1      11.703  16.009  31.465  1.00  0.00    -0.000 C 
BRANCH   4   5
ATOM      5  C   UNL     1      10.408  15.936  30.640  1.00  0.00    -0.000 C 
BRANCH   5   6
ATOM      6  C   UNL     1      10.211  14.569  29.966  1.00  0.00    -0.003 C 
ATOM      7  C   UNL     1       8.758  14.369  29.545  1.00  0.00     0.004 C 
ENDBRANCH   5   6
ENDBRANCH   4   5
ENDBRANCH   3   4
ENDBRANCH   2   3
ENDBRANCH   1   2
BRANCH   1   8
ATOM      8  C   UNL     1      13.882  14.634  28.599  1.00  0.00     0.000 C 
BRANCH   8   9
ATOM      9  C   UNL     1      12.928  14.328  27.439  1.00  0.00     0.000 C 
BRANCH   9  10
ATOM     10  C   UNL     1      12.169  15.591  27.003  1.00  0.00     0.002 C 
BRANCH  10  11
ATOM     11  C   UNL     1      11.677  15.515  25.549  1.00  0.00     0.028 C 
BRANCH  11  12
ATOM     12  C   UNL     1      12.123  14.234  24.839  1.00  0.00     0.156 C 
BRANCH  12  13
ATOM     13  O   UNL     1      12.980  14.565  23.782  1.00  0.00    -0.396 OA
ATOM     14  H   UNL     1      13.516  15.340  24.094  1.00  0.00     0.210 HD
ENDBRANCH  12  13
ENDBRANCH  11  12
ENDBRANCH  10  11
ENDBRANCH   9  10
ENDBRANCH   8   9
ENDBRANCH   1   8
TORSDOF 11
ENDMDL
