MODEL 1
REMARK VINA RESULT:    -4.452      0.000      0.000
REMARK INTER + INTRA:          -6.636
REMARK INTER:                  -6.014
REMARK INTRA:                  -0.622
REMARK UNBOUND:                -0.622
REMARK SMILES CCCCCCC=CC(=O)[O-]
REMARK SMILES IDX 5 1 6 2 7 3 8 4 9 5 10 6 11 7 4 8 3 9 2 10 1 11
REMARK H PARENT
REMARK Flexibility Score: inf
ROOT
ATOM      1  C   UNL     1      -5.603 -23.925  48.536  1.00  0.00     0.004 C 
ENDROOT
BRANCH   1   2
ATOM      2  C   UNL     1      -4.840 -24.478  49.754  1.00  0.00     0.027 C 
BRANCH   2   3
ATOM      3  C   UNL     1      -3.353 -24.311  49.630  1.00  0.00    -0.025 C 
ATOM      4  C   UNL     1      -2.649 -23.615  50.530  1.00  0.00     0.020 C 
BRANCH   4   5
ATOM      5  C   UNL     1      -1.192 -23.436  50.424  1.00  0.00     0.064 C 
ATOM      6  O   UNL     1      -0.413 -24.426  50.412  1.00  0.00    -0.545 OA
ATOM      7  O   UNL     1      -0.668 -22.153  50.336  1.00  0.00    -0.545 OA
ENDBRANCH   4   5
ENDBRANCH   2   3
ENDBRANCH   1   2
BRANCH   1   8
ATOM      8  C   UNL     1      -5.248 -22.470  48.177  1.00  0.00     0.000 C 
BRANCH   8   9
ATOM      9  C   UNL     1      -5.643 -21.472  49.276  1.00  0.00    -0.000 C 
BRANCH   9  10
ATOM     10  C   UNL     1      -4.460 -20.571  49.649  1.00  0.00    -0.003 C 
ATOM     11  C   UNL     1      -4.437 -20.284  51.147  1.00  0.00     0.004 C 
ENDBRANCH   9  10
ENDBRANCH   8   9
ENDBRANCH   1   8
TORSDOF 6
ENDMDL
MODEL 2
REMARK VINA RESULT:    -4.443      2.616      4.160
REMARK INTER + INTRA:          -6.624
REMARK INTER:                  -5.948
REMARK INTRA:                  -0.677
REMARK UNBOUND:                -0.622
REMARK SMILES CCCCCCC=CC(=O)[O-]
REMARK SMILES IDX 5 1 6 2 7 3 8 4 9 5 10 6 11 7 4 8 3 9 2 10 1 11
REMARK H PARENT
REMARK Flexibility Score: inf
ROOT
ATOM      1  C   UNL     1      -4.355 -24.590  49.412  1.00  0.00     0.004 C 
ENDROOT
BRANCH   1   2
ATOM      2  C   UNL     1      -5.551 -24.033  48.619  1.00  0.00     0.027 C 
BRANCH   2   3
ATOM      3  C   UNL     1      -5.544 -22.533  48.539  1.00  0.00    -0.025 C 
ATOM      4  C   UNL     1      -5.286 -21.776  49.611  1.00  0.00     0.020 C 
BRANCH   4   5
ATOM      5  C   UNL     1      -5.280 -20.305  49.554  1.00  0.00     0.064 C 
ATOM      6  O   UNL     1      -4.916 -19.616  50.544  1.00  0.00    -0.545 OA
ATOM      7  O   UNL     1      -5.683 -19.667  48.389  1.00  0.00    -0.545 OA
ENDBRANCH   4   5
ENDBRANCH   2   3
ENDBRANCH   1   2
BRANCH   1   8
ATOM      8  C   UNL     1      -3.088 -24.818  48.566  1.00  0.00     0.000 C 
BRANCH   8   9
ATOM      9  C   UNL     1      -1.821 -24.255  49.227  1.00  0.00    -0.000 C 
BRANCH   9  10
ATOM     10  C   UNL     1      -2.142 -23.642  50.596  1.00  0.00    -0.003 C 
ATOM     11  C   UNL     1      -1.751 -22.169  50.646  1.00  0.00     0.004 C 
ENDBRANCH   9  10
ENDBRANCH   8   9
ENDBRANCH   1   8
TORSDOF 6
ENDMDL
MODEL 3
REMARK VINA RESULT:    -4.288      2.738      4.244
REMARK INTER + INTRA:          -6.414
REMARK INTER:                  -5.679
REMARK INTRA:                  -0.735
REMARK UNBOUND:                -0.622
REMARK SMILES CCCCCCC=CC(=O)[O-]
REMARK SMILES IDX 5 1 6 2 7 3 8 4 9 5 10 6 11 7 4 8 3 9 2 10 1 11
REMARK H PARENT
REMARK Flexibility Score: inf
ROOT
ATOM      1  C   UNL     1      -4.480 -24.521  49.597  1.00  0.00     0.004 C 
ENDROOT
BRANCH   1   2
ATOM      2  C   UNL     1      -5.502 -24.052  48.547  1.00  0.00     0.027 C 
BRANCH   2   3
ATOM      3  C   UNL     1      -5.576 -22.555  48.439  1.00  0.00    -0.025 C 
ATOM      4  C   UNL     1      -5.365 -21.766  49.498  1.00  0.00     0.020 C 
BRANCH   4   5
ATOM      5  C   UNL     1      -5.438 -20.298  49.414  1.00  0.00     0.064 C 
ATOM      6  O   UNL     1      -5.813 -19.724  48.358  1.00  0.00    -0.545 OA
ATOM      7  O   UNL     1      -5.086 -19.535  50.519  1.00  0.00    -0.545 OA
ENDBRANCH   4   5
ENDBRANCH   2   3
ENDBRANCH   1   2
BRANCH   1   8
ATOM      8  C   UNL     1      -3.090 -24.852  49.022  1.00  0.00     0.000 C 
BRANCH   8   9
ATOM      9  C   UNL     1      -2.047 -23.765  49.324  1.00  0.00    -0.000 C 
BRANCH   9  10
ATOM     10  C   UNL     1      -1.708 -22.965  48.061  1.00  0.00    -0.003 C 
ATOM     11  C   UNL     1      -1.851 -21.466  48.303  1.00  0.00     0.004 C 
ENDBRANCH   9  10
ENDBRANCH   8   9
ENDBRANCH   1   8
TORSDOF 6
ENDMDL
MODEL 4
REMARK VINA RESULT:    -4.247      2.445      4.046
REMARK INTER + INTRA:          -6.358
REMARK INTER:                  -5.608
REMARK INTRA:                  -0.750
REMARK UNBOUND:                -0.622
REMARK SMILES CCCCCCC=CC(=O)[O-]
REMARK SMILES IDX 5 1 6 2 7 3 8 4 9 5 10 6 11 7 4 8 3 9 2 10 1 11
REMARK H PARENT
REMARK Flexibility Score: inf
ROOT
ATOM      1  C   UNL     1      -1.876 -24.829  49.025  1.00  0.00     0.004 C 
ENDROOT
BRANCH   1   2
ATOM      2  C   UNL     1      -1.538 -23.679  49.991  1.00  0.00     0.027 C 
BRANCH   2   3
ATOM      3  C   UNL     1      -2.763 -22.992  50.524  1.00  0.00    -0.025 C 
ATOM      4  C   UNL     1      -3.058 -21.729  50.193  1.00  0.00     0.020 C 
BRANCH   4   5
ATOM      5  C   UNL     1      -4.250 -21.037  50.708  1.00  0.00     0.064 C 
ATOM      6  O   UNL     1      -4.172 -20.244  51.684  1.00  0.00    -0.545 OA
ATOM      7  O   UNL     1      -5.482 -21.263  50.109  1.00  0.00    -0.545 OA
ENDBRANCH   4   5
ENDBRANCH   2   3
ENDBRANCH   1   2
BRANCH   1   8
ATOM      8  C   UNL     1      -2.200 -24.373  47.590  1.00  0.00     0.000 C 
BRANCH   8   9
ATOM      9  C   UNL     1      -3.582 -24.845  47.113  1.00  0.00    -0.000 C 
BRANCH   9  10
ATOM     10  C   UNL     1      -4.678 -23.865  47.549  1.00  0.00    -0.003 C 
ATOM     11  C   UNL     1      -5.589 -24.488  48.601  1.00  0.00     0.004 C 
ENDBRANCH   9  10
ENDBRANCH   8   9
ENDBRANCH   1   8
TORSDOF 6
ENDMDL
MODEL 5
REMARK VINA RESULT:    -4.231      1.889      3.213
REMARK INTER + INTRA:          -6.337
REMARK INTER:                  -5.628
REMARK INTRA:                  -0.709
REMARK UNBOUND:                -0.622
REMARK SMILES CCCCCCC=CC(=O)[O-]
REMARK SMILES IDX 5 1 6 2 7 3 8 4 9 5 10 6 11 7 4 8 3 9 2 10 1 11
REMARK H PARENT
REMARK Flexibility Score: inf
ROOT
ATOM      1  C   UNL     1      -5.334 -24.263  48.399  1.00  0.00     0.004 C 
ENDROOT
BRANCH   1   2
ATOM      2  C   UNL     1      -4.622 -24.541  49.735  1.00  0.00     0.027 C 
BRANCH   2   3
ATOM      3  C   UNL     1      -3.420 -23.666  49.943  1.00  0.00    -0.025 C 
ATOM      4  C   UNL     1      -2.276 -24.154  50.436  1.00  0.00     0.020 C 
BRANCH   4   5
ATOM      5  C   UNL     1      -1.088 -23.311  50.653  1.00  0.00     0.064 C 
ATOM      6  O   UNL     1      -0.037 -23.785  51.159  1.00  0.00    -0.545 OA
ATOM      7  O   UNL     1      -1.130 -21.970  50.295  1.00  0.00    -0.545 OA
ENDBRANCH   4   5
ENDBRANCH   2   3
ENDBRANCH   1   2
BRANCH   1   8
ATOM      8  C   UNL     1      -4.382 -23.967  47.226  1.00  0.00     0.000 C 
BRANCH   8   9
ATOM      9  C   UNL     1      -4.032 -25.221  46.411  1.00  0.00    -0.000 C 
BRANCH   9  10
ATOM     10  C   UNL     1      -2.563 -25.611  46.606  1.00  0.00    -0.003 C 
ATOM     11  C   UNL     1      -1.676 -24.376  46.731  1.00  0.00     0.004 C 
ENDBRANCH   9  10
ENDBRANCH   8   9
ENDBRANCH   1   8
TORSDOF 6
ENDMDL
MODEL 6
REMARK VINA RESULT:    -4.226      1.420      2.160
REMARK INTER + INTRA:          -6.330
REMARK INTER:                  -5.606
REMARK INTRA:                  -0.724
REMARK UNBOUND:                -0.622
REMARK SMILES CCCCCCC=CC(=O)[O-]
REMARK SMILES IDX 5 1 6 2 7 3 8 4 9 5 10 6 11 7 4 8 3 9 2 10 1 11
REMARK H PARENT
REMARK Flexibility Score: inf
ROOT
ATOM      1  C   UNL     1      -5.643 -23.792  48.597  1.00  0.00     0.004 C 
ENDROOT
BRANCH   1   2
ATOM      2  C   UNL     1      -4.787 -24.552  49.627  1.00  0.00     0.027 C 
BRANCH   2   3
ATOM      3  C   UNL     1      -3.669 -23.715  50.181  1.00  0.00    -0.025 C 
ATOM      4  C   UNL     1      -2.393 -24.109  50.098  1.00  0.00     0.020 C 
BRANCH   4   5
ATOM      5  C   UNL     1      -1.284 -23.306  50.639  1.00  0.00     0.064 C 
ATOM      6  O   UNL     1      -1.422 -22.075  50.868  1.00  0.00    -0.545 OA
ATOM      7  O   UNL     1      -0.065 -23.918  50.901  1.00  0.00    -0.545 OA
ENDBRANCH   4   5
ENDBRANCH   2   3
ENDBRANCH   1   2
BRANCH   1   8
ATOM      8  C   UNL     1      -5.228 -22.323  48.394  1.00  0.00     0.000 C 
BRANCH   8   9
ATOM      9  C   UNL     1      -4.844 -22.009  46.940  1.00  0.00    -0.000 C 
BRANCH   9  10
ATOM     10  C   UNL     1      -3.396 -22.421  46.654  1.00  0.00    -0.003 C 
ATOM     11  C   UNL     1      -2.412 -21.570  47.449  1.00  0.00     0.004 C 
ENDBRANCH   9  10
ENDBRANCH   8   9
ENDBRANCH   1   8
TORSDOF 6
ENDMDL
MODEL 7
REMARK VINA RESULT:    -4.195     12.408     13.627
REMARK INTER + INTRA:          -6.289
REMARK INTER:                  -5.891
REMARK INTRA:                  -0.398
REMARK UNBOUND:                -0.622
REMARK SMILES CCCCCCC=CC(=O)[O-]
REMARK SMILES IDX 5 1 6 2 7 3 8 4 9 5 10 6 11 7 4 8 3 9 2 10 1 11
REMARK H PARENT
REMARK Flexibility Score: inf
ROOT
ATOM      1  C   UNL     1      -5.973 -11.930  52.944  1.00  0.00     0.004 C 
ENDROOT
BRANCH   1   2
ATOM      2  C   UNL     1      -5.280 -10.846  53.789  1.00  0.00     0.027 C 
BRANCH   2   3
ATOM      3  C   UNL     1      -6.127 -10.377  54.937  1.00  0.00    -0.025 C 
ATOM      4  C   UNL     1      -7.194 -11.071  55.349  1.00  0.00     0.020 C 
BRANCH   4   5
ATOM      5  C   UNL     1      -8.040 -10.625  56.468  1.00  0.00     0.064 C 
ATOM      6  O   UNL     1      -9.033  -9.875  56.275  1.00  0.00    -0.545 OA
ATOM      7  O   UNL     1      -7.735 -11.038  57.759  1.00  0.00    -0.545 OA
ENDBRANCH   4   5
ENDBRANCH   2   3
ENDBRANCH   1   2
BRANCH   1   8
ATOM      8  C   UNL     1      -6.525 -11.425  51.598  1.00  0.00     0.000 C 
BRANCH   8   9
ATOM      9  C   UNL     1      -7.899 -10.752  51.733  1.00  0.00    -0.000 C 
BRANCH   9  10
ATOM     10  C   UNL     1      -8.998 -11.619  51.107  1.00  0.00    -0.003 C 
ATOM     11  C   UNL     1      -8.564 -12.165  49.751  1.00  0.00     0.004 C 
ENDBRANCH   9  10
ENDBRANCH   8   9
ENDBRANCH   1   8
TORSDOF 6
ENDMDL
MODEL 8
REMARK VINA RESULT:    -4.138      4.887      6.624
REMARK INTER + INTRA:          -6.211
REMARK INTER:                  -5.852
REMARK INTRA:                  -0.359
REMARK UNBOUND:                -0.622
REMARK SMILES CCCCCCC=CC(=O)[O-]
REMARK SMILES IDX 5 1 6 2 7 3 8 4 9 5 10 6 11 7 4 8 3 9 2 10 1 11
REMARK H PARENT
REMARK Flexibility Score: inf
ROOT
ATOM      1  C   UNL     1      -3.947 -25.903  45.141  1.00  0.00     0.004 C 
ENDROOT
BRANCH   1   2
ATOM      2  C   UNL     1      -2.853 -25.630  46.189  1.00  0.00     0.027 C 
BRANCH   2   3
ATOM      3  C   UNL     1      -3.385 -24.949  47.418  1.00  0.00    -0.025 C 
ATOM      4  C   UNL     1      -4.644 -24.503  47.481  1.00  0.00     0.020 C 
BRANCH   4   5
ATOM      5  C   UNL     1      -5.183 -23.829  48.673  1.00  0.00     0.064 C 
ATOM      6  O   UNL     1      -5.248 -24.422  49.783  1.00  0.00    -0.545 OA
ATOM      7  O   UNL     1      -5.627 -22.517  48.572  1.00  0.00    -0.545 OA
ENDBRANCH   4   5
ENDBRANCH   2   3
ENDBRANCH   1   2
BRANCH   1   8
ATOM      8  C   UNL     1      -4.207 -27.397  44.874  1.00  0.00     0.000 C 
BRANCH   8   9
ATOM      9  C   UNL     1      -2.999 -28.282  45.214  1.00  0.00    -0.000 C 
BRANCH   9  10
ATOM     10  C   UNL     1      -3.282 -29.750  44.876  1.00  0.00    -0.003 C 
ATOM     11  C   UNL     1      -4.600 -29.899  44.123  1.00  0.00     0.004 C 
ENDBRANCH   9  10
ENDBRANCH   8   9
ENDBRANCH   1   8
TORSDOF 6
ENDMDL
MODEL 9
REMARK VINA RESULT:    -4.119      1.408      2.936
REMARK INTER + INTRA:          -6.186
REMARK INTER:                  -5.610
REMARK INTRA:                  -0.576
REMARK UNBOUND:                -0.622
REMARK SMILES CCCCCCC=CC(=O)[O-]
REMARK SMILES IDX 5 1 6 2 7 3 8 4 9 5 10 6 11 7 4 8 3 9 2 10 1 11
REMARK H PARENT
REMARK Flexibility Score: inf
ROOT
ATOM      1  C   UNL     1      -4.513 -22.115  48.760  1.00  0.00     0.004 C 
ENDROOT
BRANCH   1   2
ATOM      2  C   UNL     1      -4.009 -21.951  50.206  1.00  0.00     0.027 C 
BRANCH   2   3
ATOM      3  C   UNL     1      -2.775 -22.761  50.484  1.00  0.00    -0.025 C 
ATOM      4  C   UNL     1      -1.570 -22.188  50.582  1.00  0.00     0.020 C 
BRANCH   4   5
ATOM      5  C   UNL     1      -0.348 -22.964  50.848  1.00  0.00     0.064 C 
ATOM      6  O   UNL     1      -0.358 -24.224  50.825  1.00  0.00    -0.545 OA
ATOM      7  O   UNL     1       0.836 -22.296  51.132  1.00  0.00    -0.545 OA
ENDBRANCH   4   5
ENDBRANCH   2   3
ENDBRANCH   1   2
BRANCH   1   8
ATOM      8  C   UNL     1      -5.602 -23.190  48.590  1.00  0.00     0.000 C 
BRANCH   8   9
ATOM      9  C   UNL     1      -5.031 -24.558  48.186  1.00  0.00    -0.000 C 
BRANCH   9  10
ATOM     10  C   UNL     1      -3.914 -24.401  47.147  1.00  0.00    -0.003 C 
ATOM     11  C   UNL     1      -2.637 -25.099  47.601  1.00  0.00     0.004 C 
ENDBRANCH   9  10
ENDBRANCH   8   9
ENDBRANCH   1   8
TORSDOF 6
ENDMDL
