MODEL 1
REMARK VINA RESULT:    -6.033      0.000      0.000
REMARK INTER + INTRA:          -8.212
REMARK INTER:                  -7.619
REMARK INTRA:                  -0.593
REMARK UNBOUND:                -0.593
REMARK SMILES O=C(C=Cc1ccc(O)cc1)c1ccc(O)cc1O
REMARK SMILES IDX 4 1 3 2 5 3 6 4 7 5 8 6 11 7 10 8 9 9 2 11 1 12 12 13 18 14
REMARK SMILES IDX 13 15 17 16 14 17 15 18 19 19 16 21
REMARK H PARENT 9 10 19 20 16 22
REMARK Flexibility Score: inf
ROOT
ATOM      1  C   UNL     1      47.287 -30.946 -28.973  1.00  0.00     0.012 C 
ATOM      2  C   UNL     1      47.018 -30.480 -30.202  1.00  0.00     0.053 C 
ENDROOT
BRANCH   1   3
ATOM      3  C   UNL     1      47.020 -32.342 -28.546  1.00  0.00    -0.025 A 
ATOM      4  C   UNL     1      46.744 -33.305 -29.531  1.00  0.00     0.012 A 
ATOM      5  C   UNL     1      46.497 -34.634 -29.177  1.00  0.00     0.047 A 
ATOM      6  C   UNL     1      46.533 -35.022 -27.832  1.00  0.00     0.115 A 
ATOM      7  C   UNL     1      47.070 -32.745 -27.196  1.00  0.00     0.012 A 
ATOM      8  C   UNL     1      46.822 -34.075 -26.845  1.00  0.00     0.047 A 
BRANCH   6   9
ATOM      9  O   UNL     1      46.288 -36.344 -27.466  1.00  0.00    -0.508 OA
ATOM     10  H   UNL     1      45.799 -36.575 -26.609  1.00  0.00     0.293 HD
ENDBRANCH   6   9
ENDBRANCH   1   3
BRANCH   2  11
ATOM     11  C   UNL     1      47.310 -29.085 -30.597  1.00  0.00     0.189 C 
ATOM     12  O   UNL     1      46.420 -28.198 -30.494  1.00  0.00    -0.289 OA
BRANCH  11  13
ATOM     13  C   UNL     1      48.638 -28.725 -31.143  1.00  0.00     0.064 A 
ATOM     14  C   UNL     1      48.779 -27.982 -32.340  1.00  0.00     0.130 A 
ATOM     15  C   UNL     1      49.794 -29.168 -30.475  1.00  0.00     0.020 A 
ATOM     16  C   UNL     1      50.056 -27.730 -32.855  1.00  0.00     0.093 A 
ATOM     17  C   UNL     1      51.063 -28.897 -30.992  1.00  0.00     0.047 A 
ATOM     18  C   UNL     1      51.197 -28.183 -32.187  1.00  0.00     0.119 A 
BRANCH  14  19
ATOM     19  O   UNL     1      47.681 -27.456 -33.026  1.00  0.00    -0.507 OA
ATOM     20  H   UNL     1      47.125 -27.994 -33.677  1.00  0.00     0.293 HD
ENDBRANCH  14  19
BRANCH  18  21
ATOM     21  O   UNL     1      52.457 -27.913 -32.716  1.00  0.00    -0.508 OA
ATOM     22  H   UNL     1      53.253 -27.727 -32.118  1.00  0.00     0.293 HD
ENDBRANCH  18  21
ENDBRANCH  11  13
ENDBRANCH   2  11
TORSDOF 6
ENDMDL
MODEL 2
REMARK VINA RESULT:    -5.711      3.323      3.971
REMARK INTER + INTRA:          -7.806
REMARK INTER:                  -7.179
REMARK INTRA:                  -0.627
REMARK UNBOUND:                -0.593
REMARK SMILES O=C(C=Cc1ccc(O)cc1)c1ccc(O)cc1O
REMARK SMILES IDX 4 1 3 2 5 3 6 4 7 5 8 6 11 7 10 8 9 9 2 11 1 12 12 13 18 14
REMARK SMILES IDX 13 15 17 16 14 17 15 18 19 19 16 21
REMARK H PARENT 9 10 19 20 16 22
REMARK Flexibility Score: inf
ROOT
ATOM      1  C   UNL     1      45.489 -28.354 -30.720  1.00  0.00     0.012 C 
ATOM      2  C   UNL     1      46.609 -28.923 -31.189  1.00  0.00     0.053 C 
ENDROOT
BRANCH   1   3
ATOM      3  C   UNL     1      44.346 -29.121 -30.166  1.00  0.00    -0.025 A 
ATOM      4  C   UNL     1      44.550 -29.888 -29.007  1.00  0.00     0.012 A 
ATOM      5  C   UNL     1      43.500 -30.619 -28.444  1.00  0.00     0.047 A 
ATOM      6  C   UNL     1      42.227 -30.585 -29.026  1.00  0.00     0.115 A 
ATOM      7  C   UNL     1      43.057 -29.080 -30.736  1.00  0.00     0.012 A 
ATOM      8  C   UNL     1      42.009 -29.812 -30.170  1.00  0.00     0.047 A 
BRANCH   6   9
ATOM      9  O   UNL     1      41.172 -31.309 -28.474  1.00  0.00    -0.508 OA
ATOM     10  H   UNL     1      40.918 -31.212 -27.497  1.00  0.00     0.293 HD
ENDBRANCH   6   9
ENDBRANCH   1   3
BRANCH   2  11
ATOM     11  C   UNL     1      47.735 -28.126 -31.722  1.00  0.00     0.189 C 
ATOM     12  O   UNL     1      47.510 -27.105 -32.428  1.00  0.00    -0.289 OA
BRANCH  11  13
ATOM     13  C   UNL     1      49.132 -28.534 -31.456  1.00  0.00     0.064 A 
ATOM     14  C   UNL     1      50.172 -28.299 -32.389  1.00  0.00     0.130 A 
ATOM     15  C   UNL     1      49.430 -29.211 -30.260  1.00  0.00     0.020 A 
ATOM     16  C   UNL     1      51.463 -28.770 -32.123  1.00  0.00     0.093 A 
ATOM     17  C   UNL     1      50.726 -29.664 -30.001  1.00  0.00     0.047 A 
ATOM     18  C   UNL     1      51.744 -29.449 -30.935  1.00  0.00     0.119 A 
BRANCH  14  19
ATOM     19  O   UNL     1      49.967 -27.580 -33.569  1.00  0.00    -0.507 OA
ATOM     20  H   UNL     1      50.624 -27.578 -34.338  1.00  0.00     0.293 HD
ENDBRANCH  14  19
BRANCH  18  21
ATOM     21  O   UNL     1      53.039 -29.902 -30.691  1.00  0.00    -0.508 OA
ATOM     22  H   UNL     1      53.821 -29.601 -31.261  1.00  0.00     0.293 HD
ENDBRANCH  18  21
ENDBRANCH  11  13
ENDBRANCH   2  11
TORSDOF 6
ENDMDL
MODEL 3
REMARK VINA RESULT:    -5.677      2.834      4.031
REMARK INTER + INTRA:          -7.763
REMARK INTER:                  -7.164
REMARK INTRA:                  -0.599
REMARK UNBOUND:                -0.593
REMARK SMILES O=C(C=Cc1ccc(O)cc1)c1ccc(O)cc1O
REMARK SMILES IDX 4 1 3 2 5 3 6 4 7 5 8 6 11 7 10 8 9 9 2 11 1 12 12 13 18 14
REMARK SMILES IDX 13 15 17 16 14 17 15 18 19 19 16 21
REMARK H PARENT 9 10 19 20 16 22
REMARK Flexibility Score: inf
ROOT
ATOM      1  C   UNL     1      47.948 -29.119 -31.117  1.00  0.00     0.012 C 
ATOM      2  C   UNL     1      48.069 -28.322 -32.190  1.00  0.00     0.053 C 
ENDROOT
BRANCH   1   3
ATOM      3  C   UNL     1      46.644 -29.504 -30.522  1.00  0.00    -0.025 A 
ATOM      4  C   UNL     1      46.574 -30.683 -29.762  1.00  0.00     0.012 A 
ATOM      5  C   UNL     1      45.370 -31.080 -29.173  1.00  0.00     0.047 A 
ATOM      6  C   UNL     1      44.220 -30.298 -29.329  1.00  0.00     0.115 A 
ATOM      7  C   UNL     1      45.485 -28.714 -30.660  1.00  0.00     0.012 A 
ATOM      8  C   UNL     1      44.282 -29.114 -30.070  1.00  0.00     0.047 A 
BRANCH   6   9
ATOM      9  O   UNL     1      43.014 -30.683 -28.747  1.00  0.00    -0.508 OA
ATOM     10  H   UNL     1      42.959 -31.475 -28.118  1.00  0.00     0.293 HD
ENDBRANCH   6   9
ENDBRANCH   1   3
BRANCH   2  11
ATOM     11  C   UNL     1      49.386 -27.970 -32.764  1.00  0.00     0.189 C 
ATOM     12  O   UNL     1      49.509 -27.798 -34.007  1.00  0.00    -0.289 OA
BRANCH  11  13
ATOM     13  C   UNL     1      50.574 -27.847 -31.890  1.00  0.00     0.064 A 
ATOM     14  C   UNL     1      51.762 -28.580 -32.134  1.00  0.00     0.130 A 
ATOM     15  C   UNL     1      50.509 -27.010 -30.762  1.00  0.00     0.020 A 
ATOM     16  C   UNL     1      52.832 -28.485 -31.237  1.00  0.00     0.093 A 
ATOM     17  C   UNL     1      51.589 -26.914 -29.883  1.00  0.00     0.047 A 
ATOM     18  C   UNL     1      52.752 -27.656 -30.115  1.00  0.00     0.119 A 
BRANCH  14  19
ATOM     19  O   UNL     1      51.925 -29.383 -33.265  1.00  0.00    -0.507 OA
ATOM     20  H   UNL     1      52.714 -29.303 -33.893  1.00  0.00     0.293 HD
ENDBRANCH  14  19
BRANCH  18  21
ATOM     21  O   UNL     1      53.834 -27.573 -29.241  1.00  0.00    -0.508 OA
ATOM     22  H   UNL     1      54.499 -26.811 -29.293  1.00  0.00     0.293 HD
ENDBRANCH  18  21
ENDBRANCH  11  13
ENDBRANCH   2  11
TORSDOF 6
ENDMDL
MODEL 4
REMARK VINA RESULT:    -5.558     12.055     13.861
REMARK INTER + INTRA:          -7.613
REMARK INTER:                  -7.051
REMARK INTRA:                  -0.562
REMARK UNBOUND:                -0.593
REMARK SMILES O=C(C=Cc1ccc(O)cc1)c1ccc(O)cc1O
REMARK SMILES IDX 4 1 3 2 5 3 6 4 7 5 8 6 11 7 10 8 9 9 2 11 1 12 12 13 18 14
REMARK SMILES IDX 13 15 17 16 14 17 15 18 19 19 16 21
REMARK H PARENT 9 10 19 20 16 22
REMARK Flexibility Score: inf
ROOT
ATOM      1  C   UNL     1      54.901 -41.335 -29.003  1.00  0.00     0.012 C 
ATOM      2  C   UNL     1      55.995 -41.030 -28.289  1.00  0.00     0.053 C 
ENDROOT
BRANCH   1   3
ATOM      3  C   UNL     1      54.728 -40.980 -30.434  1.00  0.00    -0.025 A 
ATOM      4  C   UNL     1      55.827 -40.458 -31.135  1.00  0.00     0.012 A 
ATOM      5  C   UNL     1      55.714 -40.120 -32.487  1.00  0.00     0.047 A 
ATOM      6  C   UNL     1      54.501 -40.308 -33.160  1.00  0.00     0.115 A 
ATOM      7  C   UNL     1      53.515 -41.182 -31.124  1.00  0.00     0.012 A 
ATOM      8  C   UNL     1      53.405 -40.842 -32.476  1.00  0.00     0.047 A 
BRANCH   6   9
ATOM      9  O   UNL     1      54.376 -39.975 -34.507  1.00  0.00    -0.508 OA
ATOM     10  H   UNL     1      53.512 -39.598 -34.881  1.00  0.00     0.293 HD
ENDBRANCH   6   9
ENDBRANCH   1   3
BRANCH   2  11
ATOM     11  C   UNL     1      56.138 -41.412 -26.868  1.00  0.00     0.189 C 
ATOM     12  O   UNL     1      56.262 -42.625 -26.546  1.00  0.00    -0.289 OA
BRANCH  11  13
ATOM     13  C   UNL     1      56.109 -40.377 -25.810  1.00  0.00     0.064 A 
ATOM     14  C   UNL     1      56.289 -40.700 -24.442  1.00  0.00     0.130 A 
ATOM     15  C   UNL     1      55.855 -39.041 -26.167  1.00  0.00     0.020 A 
ATOM     16  C   UNL     1      56.178 -39.697 -23.472  1.00  0.00     0.093 A 
ATOM     17  C   UNL     1      55.761 -38.048 -25.190  1.00  0.00     0.047 A 
ATOM     18  C   UNL     1      55.917 -38.374 -23.839  1.00  0.00     0.119 A 
BRANCH  14  19
ATOM     19  O   UNL     1      56.606 -41.992 -24.015  1.00  0.00    -0.507 OA
ATOM     20  H   UNL     1      57.251 -42.595 -24.507  1.00  0.00     0.293 HD
ENDBRANCH  14  19
BRANCH  18  21
ATOM     21  O   UNL     1      55.819 -37.393 -22.855  1.00  0.00    -0.508 OA
ATOM     22  H   UNL     1      55.600 -37.627 -21.894  1.00  0.00     0.293 HD
ENDBRANCH  18  21
ENDBRANCH  11  13
ENDBRANCH   2  11
TORSDOF 6
ENDMDL
MODEL 5
REMARK VINA RESULT:    -5.541      3.256      7.175
REMARK INTER + INTRA:          -7.591
REMARK INTER:                  -6.958
REMARK INTRA:                  -0.633
REMARK UNBOUND:                -0.593
REMARK SMILES O=C(C=Cc1ccc(O)cc1)c1ccc(O)cc1O
REMARK SMILES IDX 4 1 3 2 5 3 6 4 7 5 8 6 11 7 10 8 9 9 2 11 1 12 12 13 18 14
REMARK SMILES IDX 13 15 17 16 14 17 15 18 19 19 16 21
REMARK H PARENT 9 10 19 20 16 22
REMARK Flexibility Score: inf
ROOT
ATOM      1  C   UNL     1      51.918 -28.834 -31.850  1.00  0.00     0.012 C 
ATOM      2  C   UNL     1      50.970 -27.886 -31.796  1.00  0.00     0.053 C 
ENDROOT
BRANCH   1   3
ATOM      3  C   UNL     1      53.237 -28.717 -31.181  1.00  0.00    -0.025 A 
ATOM      4  C   UNL     1      54.138 -27.741 -31.637  1.00  0.00     0.012 A 
ATOM      5  C   UNL     1      55.388 -27.587 -31.030  1.00  0.00     0.047 A 
ATOM      6  C   UNL     1      55.752 -28.402 -29.952  1.00  0.00     0.115 A 
ATOM      7  C   UNL     1      53.605 -29.523 -30.084  1.00  0.00     0.012 A 
ATOM      8  C   UNL     1      54.856 -29.367 -29.480  1.00  0.00     0.047 A 
BRANCH   6   9
ATOM      9  O   UNL     1      56.994 -28.259 -29.339  1.00  0.00    -0.508 OA
ATOM     10  H   UNL     1      57.474 -29.049 -28.922  1.00  0.00     0.293 HD
ENDBRANCH   6   9
ENDBRANCH   1   3
BRANCH   2  11
ATOM     11  C   UNL     1      49.661 -28.043 -32.465  1.00  0.00     0.189 C 
ATOM     12  O   UNL     1      49.549 -27.819 -33.701  1.00  0.00    -0.289 OA
BRANCH  11  13
ATOM     13  C   UNL     1      48.465 -28.433 -31.685  1.00  0.00     0.064 A 
ATOM     14  C   UNL     1      47.194 -27.853 -31.920  1.00  0.00     0.130 A 
ATOM     15  C   UNL     1      48.602 -29.379 -30.653  1.00  0.00     0.020 A 
ATOM     16  C   UNL     1      46.110 -28.202 -31.106  1.00  0.00     0.093 A 
ATOM     17  C   UNL     1      47.508 -29.729 -29.857  1.00  0.00     0.047 A 
ATOM     18  C   UNL     1      46.261 -29.136 -30.079  1.00  0.00     0.119 A 
BRANCH  14  19
ATOM     19  O   UNL     1      46.966 -26.954 -32.965  1.00  0.00    -0.507 OA
ATOM     20  H   UNL     1      46.199 -26.295 -32.972  1.00  0.00     0.293 HD
ENDBRANCH  14  19
BRANCH  18  21
ATOM     21  O   UNL     1      45.164 -29.472 -29.288  1.00  0.00    -0.508 OA
ATOM     22  H   UNL     1      45.248 -30.123 -28.516  1.00  0.00     0.293 HD
ENDBRANCH  18  21
ENDBRANCH  11  13
ENDBRANCH   2  11
TORSDOF 6
ENDMDL
MODEL 6
REMARK VINA RESULT:    -5.459      1.593      7.252
REMARK INTER + INTRA:          -7.488
REMARK INTER:                  -6.760
REMARK INTRA:                  -0.728
REMARK UNBOUND:                -0.593
REMARK SMILES O=C(C=Cc1ccc(O)cc1)c1ccc(O)cc1O
REMARK SMILES IDX 4 1 3 2 5 3 6 4 7 5 8 6 11 7 10 8 9 9 2 11 1 12 12 13 18 14
REMARK SMILES IDX 13 15 17 16 14 17 15 18 19 19 16 21
REMARK H PARENT 9 10 19 20 16 22
REMARK Flexibility Score: inf
ROOT
ATOM      1  C   UNL     1      48.724 -30.011 -29.430  1.00  0.00     0.012 C 
ATOM      2  C   UNL     1      47.449 -30.095 -29.837  1.00  0.00     0.053 C 
ENDROOT
BRANCH   1   3
ATOM      3  C   UNL     1      49.822 -29.476 -30.273  1.00  0.00    -0.025 A 
ATOM      4  C   UNL     1      51.142 -29.858 -29.980  1.00  0.00     0.012 A 
ATOM      5  C   UNL     1      52.207 -29.388 -30.753  1.00  0.00     0.047 A 
ATOM      6  C   UNL     1      51.967 -28.536 -31.837  1.00  0.00     0.115 A 
ATOM      7  C   UNL     1      49.588 -28.631 -31.377  1.00  0.00     0.012 A 
ATOM      8  C   UNL     1      50.656 -28.162 -32.148  1.00  0.00     0.047 A 
BRANCH   6   9
ATOM      9  O   UNL     1      53.021 -28.061 -32.615  1.00  0.00    -0.508 OA
ATOM     10  H   UNL     1      52.908 -27.259 -33.225  1.00  0.00     0.293 HD
ENDBRANCH   6   9
ENDBRANCH   1   3
BRANCH   2  11
ATOM     11  C   UNL     1      46.377 -30.622 -28.964  1.00  0.00     0.189 C 
ATOM     12  O   UNL     1      45.494 -29.847 -28.507  1.00  0.00    -0.289 OA
BRANCH  11  13
ATOM     13  C   UNL     1      46.349 -32.055 -28.596  1.00  0.00     0.064 A 
ATOM     14  C   UNL     1      46.175 -32.481 -27.256  1.00  0.00     0.130 A 
ATOM     15  C   UNL     1      46.541 -33.022 -29.600  1.00  0.00     0.020 A 
ATOM     16  C   UNL     1      46.231 -33.846 -26.949  1.00  0.00     0.093 A 
ATOM     17  C   UNL     1      46.579 -34.381 -29.281  1.00  0.00     0.047 A 
ATOM     18  C   UNL     1      46.430 -34.796 -27.954  1.00  0.00     0.119 A 
BRANCH  14  19
ATOM     19  O   UNL     1      45.919 -31.586 -26.215  1.00  0.00    -0.507 OA
ATOM     20  H   UNL     1      46.161 -30.605 -26.256  1.00  0.00     0.293 HD
ENDBRANCH  14  19
BRANCH  18  21
ATOM     21  O   UNL     1      46.473 -36.149 -27.623  1.00  0.00    -0.508 OA
ATOM     22  H   UNL     1      46.935 -36.473 -26.782  1.00  0.00     0.293 HD
ENDBRANCH  18  21
ENDBRANCH  11  13
ENDBRANCH   2  11
TORSDOF 6
ENDMDL
MODEL 7
REMARK VINA RESULT:    -5.419     12.028     13.331
REMARK INTER + INTRA:          -7.438
REMARK INTER:                  -6.806
REMARK INTRA:                  -0.631
REMARK UNBOUND:                -0.593
REMARK SMILES O=C(C=Cc1ccc(O)cc1)c1ccc(O)cc1O
REMARK SMILES IDX 4 1 3 2 5 3 6 4 7 5 8 6 11 7 10 8 9 9 2 11 1 12 12 13 18 14
REMARK SMILES IDX 13 15 17 16 14 17 15 18 19 19 16 21
REMARK H PARENT 9 10 19 20 16 22
REMARK Flexibility Score: inf
ROOT
ATOM      1  C   UNL     1      56.778 -37.947 -25.312  1.00  0.00     0.012 C 
ATOM      2  C   UNL     1      56.000 -38.214 -26.371  1.00  0.00     0.053 C 
ENDROOT
BRANCH   1   3
ATOM      3  C   UNL     1      56.255 -37.739 -23.939  1.00  0.00    -0.025 A 
ATOM      4  C   UNL     1      56.102 -36.424 -23.470  1.00  0.00     0.012 A 
ATOM      5  C   UNL     1      55.602 -36.179 -22.187  1.00  0.00     0.047 A 
ATOM      6  C   UNL     1      55.240 -37.247 -21.358  1.00  0.00     0.115 A 
ATOM      7  C   UNL     1      55.872 -38.808 -23.103  1.00  0.00     0.012 A 
ATOM      8  C   UNL     1      55.373 -38.560 -21.820  1.00  0.00     0.047 A 
BRANCH   6   9
ATOM      9  O   UNL     1      54.741 -37.017 -20.078  1.00  0.00    -0.508 OA
ATOM     10  H   UNL     1      54.064 -36.284 -19.897  1.00  0.00     0.293 HD
ENDBRANCH   6   9
ENDBRANCH   1   3
BRANCH   2  11
ATOM     11  C   UNL     1      56.558 -38.429 -27.724  1.00  0.00     0.189 C 
ATOM     12  O   UNL     1      56.966 -37.449 -28.404  1.00  0.00    -0.289 OA
BRANCH  11  13
ATOM     13  C   UNL     1      56.615 -39.790 -28.301  1.00  0.00     0.064 A 
ATOM     14  C   UNL     1      56.550 -40.015 -29.698  1.00  0.00     0.130 A 
ATOM     15  C   UNL     1      56.697 -40.897 -27.436  1.00  0.00     0.020 A 
ATOM     16  C   UNL     1      56.533 -41.325 -30.191  1.00  0.00     0.093 A 
ATOM     17  C   UNL     1      56.693 -42.198 -27.942  1.00  0.00     0.047 A 
ATOM     18  C   UNL     1      56.605 -42.416 -29.320  1.00  0.00     0.119 A 
BRANCH  14  19
ATOM     19  O   UNL     1      56.530 -38.968 -30.623  1.00  0.00    -0.507 OA
ATOM     20  H   UNL     1      56.331 -38.009 -30.369  1.00  0.00     0.293 HD
ENDBRANCH  14  19
BRANCH  18  21
ATOM     21  O   UNL     1      56.595 -43.710 -29.836  1.00  0.00    -0.508 OA
ATOM     22  H   UNL     1      56.457 -43.884 -30.825  1.00  0.00     0.293 HD
ENDBRANCH  18  21
ENDBRANCH  11  13
ENDBRANCH   2  11
TORSDOF 6
ENDMDL
MODEL 8
REMARK VINA RESULT:    -5.337     11.960     14.159
REMARK INTER + INTRA:          -7.333
REMARK INTER:                  -6.739
REMARK INTRA:                  -0.594
REMARK UNBOUND:                -0.593
REMARK SMILES O=C(C=Cc1ccc(O)cc1)c1ccc(O)cc1O
REMARK SMILES IDX 4 1 3 2 5 3 6 4 7 5 8 6 11 7 10 8 9 9 2 11 1 12 12 13 18 14
REMARK SMILES IDX 13 15 17 16 14 17 15 18 19 19 16 21
REMARK H PARENT 9 10 19 20 16 22
REMARK Flexibility Score: inf
ROOT
ATOM      1  C   UNL     1      54.979 -42.025 -28.526  1.00  0.00     0.012 C 
ATOM      2  C   UNL     1      54.982 -41.233 -27.443  1.00  0.00     0.053 C 
ENDROOT
BRANCH   1   3
ATOM      3  C   UNL     1      54.780 -41.525 -29.909  1.00  0.00    -0.025 A 
ATOM      4  C   UNL     1      53.473 -41.459 -30.419  1.00  0.00     0.012 A 
ATOM      5  C   UNL     1      53.237 -40.985 -31.712  1.00  0.00     0.047 A 
ATOM      6  C   UNL     1      54.305 -40.562 -32.513  1.00  0.00     0.115 A 
ATOM      7  C   UNL     1      55.848 -41.082 -30.716  1.00  0.00     0.012 A 
ATOM      8  C   UNL     1      55.608 -40.609 -32.010  1.00  0.00     0.047 A 
BRANCH   6   9
ATOM      9  O   UNL     1      54.082 -40.088 -33.804  1.00  0.00    -0.508 OA
ATOM     10  H   UNL     1      53.722 -40.691 -34.534  1.00  0.00     0.293 HD
ENDBRANCH   6   9
ENDBRANCH   1   3
BRANCH   2  11
ATOM     11  C   UNL     1      55.197 -41.764 -26.080  1.00  0.00     0.189 C 
ATOM     12  O   UNL     1      55.974 -42.740 -25.895  1.00  0.00    -0.289 OA
BRANCH  11  13
ATOM     13  C   UNL     1      54.479 -41.176 -24.927  1.00  0.00     0.064 A 
ATOM     14  C   UNL     1      55.167 -40.600 -23.831  1.00  0.00     0.130 A 
ATOM     15  C   UNL     1      53.074 -41.226 -24.899  1.00  0.00     0.020 A 
ATOM     16  C   UNL     1      54.445 -40.123 -22.730  1.00  0.00     0.093 A 
ATOM     17  C   UNL     1      52.365 -40.734 -23.801  1.00  0.00     0.047 A 
ATOM     18  C   UNL     1      53.049 -40.187 -22.711  1.00  0.00     0.119 A 
BRANCH  14  19
ATOM     19  O   UNL     1      56.557 -40.458 -23.813  1.00  0.00    -0.507 OA
ATOM     20  H   UNL     1      57.180 -41.152 -23.420  1.00  0.00     0.293 HD
ENDBRANCH  14  19
BRANCH  18  21
ATOM     21  O   UNL     1      52.353 -39.698 -21.608  1.00  0.00    -0.508 OA
ATOM     22  H   UNL     1      51.362 -39.871 -21.488  1.00  0.00     0.293 HD
ENDBRANCH  18  21
ENDBRANCH  11  13
ENDBRANCH   2  11
TORSDOF 6
ENDMDL
MODEL 9
REMARK VINA RESULT:    -5.329     11.942     14.025
REMARK INTER + INTRA:          -7.324
REMARK INTER:                  -6.759
REMARK INTRA:                  -0.565
REMARK UNBOUND:                -0.593
REMARK SMILES O=C(C=Cc1ccc(O)cc1)c1ccc(O)cc1O
REMARK SMILES IDX 4 1 3 2 5 3 6 4 7 5 8 6 11 7 10 8 9 9 2 11 1 12 12 13 18 14
REMARK SMILES IDX 13 15 17 16 14 17 15 18 19 19 16 21
REMARK H PARENT 9 10 19 20 16 22
REMARK Flexibility Score: inf
ROOT
ATOM      1  C   UNL     1      54.625 -42.110 -28.982  1.00  0.00     0.012 C 
ATOM      2  C   UNL     1      53.762 -41.863 -27.986  1.00  0.00     0.053 C 
ENDROOT
BRANCH   1   3
ATOM      3  C   UNL     1      54.520 -41.500 -30.331  1.00  0.00    -0.025 A 
ATOM      4  C   UNL     1      55.700 -41.113 -30.987  1.00  0.00     0.012 A 
ATOM      5  C   UNL     1      55.651 -40.544 -32.263  1.00  0.00     0.047 A 
ATOM      6  C   UNL     1      54.420 -40.363 -32.906  1.00  0.00     0.115 A 
ATOM      7  C   UNL     1      53.287 -41.329 -30.992  1.00  0.00     0.012 A 
ATOM      8  C   UNL     1      53.241 -40.759 -32.268  1.00  0.00     0.047 A 
BRANCH   6   9
ATOM      9  O   UNL     1      54.358 -39.797 -34.177  1.00  0.00    -0.508 OA
ATOM     10  H   UNL     1      54.013 -40.320 -34.974  1.00  0.00     0.293 HD
ENDBRANCH   6   9
ENDBRANCH   1   3
BRANCH   2  11
ATOM     11  C   UNL     1      53.905 -42.479 -26.649  1.00  0.00     0.189 C 
ATOM     12  O   UNL     1      53.593 -43.688 -26.471  1.00  0.00    -0.289 OA
BRANCH  11  13
ATOM     13  C   UNL     1      54.388 -41.675 -25.503  1.00  0.00     0.064 A 
ATOM     14  C   UNL     1      53.500 -41.138 -24.539  1.00  0.00     0.130 A 
ATOM     15  C   UNL     1      55.763 -41.403 -25.390  1.00  0.00     0.020 A 
ATOM     16  C   UNL     1      53.998 -40.322 -23.515  1.00  0.00     0.093 A 
ATOM     17  C   UNL     1      56.248 -40.600 -24.356  1.00  0.00     0.047 A 
ATOM     18  C   UNL     1      55.365 -40.053 -23.419  1.00  0.00     0.119 A 
BRANCH  14  19
ATOM     19  O   UNL     1      52.131 -41.414 -24.549  1.00  0.00    -0.507 OA
ATOM     20  H   UNL     1      51.444 -40.828 -24.092  1.00  0.00     0.293 HD
ENDBRANCH  14  19
BRANCH  18  21
ATOM     21  O   UNL     1      55.836 -39.245 -22.387  1.00  0.00    -0.508 OA
ATOM     22  H   UNL     1      56.547 -39.570 -21.742  1.00  0.00     0.293 HD
ENDBRANCH  18  21
ENDBRANCH  11  13
ENDBRANCH   2  11
TORSDOF 6
ENDMDL
