MODEL 1
REMARK VINA RESULT:    -5.155      0.000      0.000
REMARK INTER + INTRA:          -7.247
REMARK INTER:                  -6.963
REMARK INTRA:                  -0.285
REMARK UNBOUND:                -0.285
REMARK SMILES O=c1c(-c2ccc(O)cc2)coc2c([C@H]3O[C@@H](CO)[C@H](O)[C@H](O)[C@@H]3O)c(O)ccc12
REMARK SMILES IDX 3 1 11 2 12 3 13 4 30 5 2 6 1 7 29 8 28 9 26 10 14 11 4 12
REMARK SMILES IDX 5 13 6 14 7 15 10 16 9 17 8 18 15 20 24 21 16 22 22 23 17 24
REMARK SMILES IDX 20 25 25 26 23 28 18 30 19 31 21 33 27 35
REMARK H PARENT 8 19 25 27 23 29 19 32 21 34 27 36
REMARK Flexibility Score: inf
ROOT
ATOM      1  C   UNL     1      21.854  16.267   4.263  1.00  0.00     0.065 A 
ATOM      2  C   UNL     1      21.921  16.632   5.616  1.00  0.00     0.208 A 
ATOM      3  O   UNL     1      22.512  17.761   5.988  1.00  0.00    -0.463 OA
ATOM      4  C   UNL     1      23.071  18.610   5.129  1.00  0.00     0.147 A 
ATOM      5  C   UNL     1      23.049  18.319   3.744  1.00  0.00     0.066 A 
ATOM      6  C   UNL     1      22.437  17.127   3.315  1.00  0.00     0.200 A 
ATOM      7  O   UNL     1      22.429  16.821   2.090  1.00  0.00    -0.288 OA
ATOM      8  C   UNL     1      23.632  19.218   2.838  1.00  0.00     0.020 A 
ATOM      9  C   UNL     1      24.218  20.396   3.296  1.00  0.00     0.047 A 
ATOM     10  C   UNL     1      24.242  20.696   4.663  1.00  0.00     0.125 A 
ATOM     11  C   UNL     1      23.682  19.795   5.599  1.00  0.00     0.069 A 
ENDROOT
BRANCH   1  12
ATOM     12  C   UNL     1      21.182  15.003   3.872  1.00  0.00    -0.011 A 
ATOM     13  C   UNL     1      19.837  14.778   4.214  1.00  0.00     0.013 A 
ATOM     14  C   UNL     1      19.201  13.591   3.839  1.00  0.00     0.047 A 
ATOM     15  C   UNL     1      19.895  12.618   3.114  1.00  0.00     0.115 A 
ATOM     16  C   UNL     1      21.874  14.022   3.137  1.00  0.00     0.013 A 
ATOM     17  C   UNL     1      21.234  12.837   2.764  1.00  0.00     0.047 A 
BRANCH  15  18
ATOM     18  O   UNL     1      19.248  11.440   2.747  1.00  0.00    -0.508 OA
ATOM     19  H   UNL     1      19.694  10.755   2.148  1.00  0.00     0.293 HD
ENDBRANCH  15  18
ENDBRANCH   1  12
BRANCH  11  20
ATOM     20  C   UNL     1      23.684  20.123   7.086  1.00  0.00     0.188 C 
ATOM     21  C   UNL     1      24.922  19.493   7.774  1.00  0.00     0.179 C 
ATOM     22  O   UNL     1      22.487  19.637   7.674  1.00  0.00    -0.362 OA
ATOM     23  C   UNL     1      24.897  19.774   9.287  1.00  0.00     0.177 C 
ATOM     24  C   UNL     1      22.392  20.024   9.036  1.00  0.00     0.176 C 
ATOM     25  C   UNL     1      23.528  19.369   9.862  1.00  0.00     0.177 C 
BRANCH  21  26
ATOM     26  O   UNL     1      26.125  19.941   7.199  1.00  0.00    -0.387 OA
ATOM     27  H   UNL     1      26.370  20.802   7.630  1.00  0.00     0.211 HD
ENDBRANCH  21  26
BRANCH  23  28
ATOM     28  O   UNL     1      25.141  21.140   9.525  1.00  0.00    -0.387 OA
ATOM     29  H   UNL     1      25.477  21.527   8.675  1.00  0.00     0.211 HD
ENDBRANCH  23  28
BRANCH  24  30
ATOM     30  C   UNL     1      21.016  19.598   9.561  1.00  0.00     0.191 C 
BRANCH  30  31
ATOM     31  O   UNL     1      20.595  20.491  10.557  1.00  0.00    -0.394 OA
ATOM     32  H   UNL     1      20.709  21.400  10.177  1.00  0.00     0.210 HD
ENDBRANCH  30  31
ENDBRANCH  24  30
BRANCH  25  33
ATOM     33  O   UNL     1      23.454  19.767  11.209  1.00  0.00    -0.388 OA
ATOM     34  H   UNL     1      22.743  20.457  11.274  1.00  0.00     0.211 HD
ENDBRANCH  25  33
ENDBRANCH  11  20
BRANCH  10  35
ATOM     35  O   UNL     1      24.820  21.891   5.091  1.00  0.00    -0.507 OA
ATOM     36  H   UNL     1      25.461  22.414   4.505  1.00  0.00     0.293 HD
ENDBRANCH  10  35
TORSDOF 9
ENDMDL
