MODEL 1
REMARK VINA RESULT:    -3.552      0.000      0.000
REMARK INTER + INTRA:          -6.716
REMARK INTER:                  -5.421
REMARK INTRA:                  -1.295
REMARK UNBOUND:                -1.295
REMARK SMILES CCCCCCCCCCC(=O)[O-]
REMARK SMILES IDX 7 1 8 2 9 3 10 4 11 5 12 6 13 7 6 8 5 9 4 10 3 11 2 12 1 13
REMARK H PARENT
REMARK Flexibility Score: inf
ROOT
ATOM      1  C   UNL     1     104.412  98.155  92.146  1.00  0.00     0.000 C 
ENDROOT
BRANCH   1   2
ATOM      2  C   UNL     1     105.152  98.985  91.084  1.00  0.00     0.000 C 
BRANCH   2   3
ATOM      3  C   UNL     1     106.595  98.503  90.859  1.00  0.00     0.006 C 
BRANCH   3   4
ATOM      4  C   UNL     1     107.158  97.738  92.064  1.00  0.00     0.053 C 
BRANCH   4   5
ATOM      5  C   UNL     1     108.312  98.482  92.660  1.00  0.00     0.041 C 
ATOM      6  O   UNL     1     109.035  97.933  93.532  1.00  0.00    -0.550 OA
ATOM      7  O   UNL     1     108.557  99.798  92.289  1.00  0.00    -0.550 OA
ENDBRANCH   4   5
ENDBRANCH   3   4
ENDBRANCH   2   3
ENDBRANCH   1   2
BRANCH   1   8
ATOM      8  C   UNL     1     102.963  97.819  91.746  1.00  0.00     0.000 C 
BRANCH   8   9
ATOM      9  C   UNL     1     102.609  96.316  91.723  1.00  0.00    -0.000 C 
BRANCH   9  10
ATOM     10  C   UNL     1     103.792  95.359  91.968  1.00  0.00    -0.000 C 
BRANCH  10  11
ATOM     11  C   UNL     1     104.179  94.514  90.733  1.00  0.00    -0.000 C 
BRANCH  11  12
ATOM     12  C   UNL     1     105.290  95.148  89.880  1.00  0.00    -0.003 C 
ATOM     13  C   UNL     1     104.745  95.995  88.732  1.00  0.00     0.004 C 
ENDBRANCH  11  12
ENDBRANCH  10  11
ENDBRANCH   9  10
ENDBRANCH   8   9
ENDBRANCH   1   8
TORSDOF 9
ENDMDL
MODEL 2
REMARK VINA RESULT:    -3.490     13.305     14.856
REMARK INTER + INTRA:          -6.620
REMARK INTER:                  -5.451
REMARK INTRA:                  -1.169
REMARK UNBOUND:                -1.295
REMARK SMILES CCCCCCCCCCC(=O)[O-]
REMARK SMILES IDX 7 1 8 2 9 3 10 4 11 5 12 6 13 7 6 8 5 9 4 10 3 11 2 12 1 13
REMARK H PARENT
REMARK Flexibility Score: inf
ROOT
ATOM      1  C   UNL     1      93.789  99.779  90.791  1.00  0.00     0.000 C 
ENDROOT
BRANCH   1   2
ATOM      2  C   UNL     1      92.637  98.938  91.367  1.00  0.00     0.000 C 
BRANCH   2   3
ATOM      3  C   UNL     1      92.027  99.562  92.633  1.00  0.00     0.006 C 
BRANCH   3   4
ATOM      4  C   UNL     1      90.635 100.158  92.387  1.00  0.00     0.053 C 
BRANCH   4   5
ATOM      5  C   UNL     1      89.755  99.160  91.701  1.00  0.00     0.041 C 
ATOM      6  O   UNL     1      89.312  99.396  90.546  1.00  0.00    -0.550 OA
ATOM      7  O   UNL     1      89.384  97.993  92.356  1.00  0.00    -0.550 OA
ENDBRANCH   4   5
ENDBRANCH   3   4
ENDBRANCH   2   3
ENDBRANCH   1   2
BRANCH   1   8
ATOM      8  C   UNL     1      93.513 100.277  89.360  1.00  0.00     0.000 C 
BRANCH   8   9
ATOM      9  C   UNL     1      92.347 101.279  89.215  1.00  0.00    -0.000 C 
BRANCH   9  10
ATOM     10  C   UNL     1      92.451 102.538  90.098  1.00  0.00    -0.000 C 
BRANCH  10  11
ATOM     11  C   UNL     1      93.668 103.433  89.771  1.00  0.00    -0.000 C 
BRANCH  11  12
ATOM     12  C   UNL     1      94.524 103.778  91.000  1.00  0.00    -0.003 C 
ATOM     13  C   UNL     1      93.998 103.144  92.286  1.00  0.00     0.004 C 
ENDBRANCH  11  12
ENDBRANCH  10  11
ENDBRANCH   9  10
ENDBRANCH   8   9
ENDBRANCH   1   8
TORSDOF 9
ENDMDL
MODEL 3
REMARK VINA RESULT:    -3.479     12.205     14.193
REMARK INTER + INTRA:          -6.604
REMARK INTER:                  -5.304
REMARK INTRA:                  -1.300
REMARK UNBOUND:                -1.295
REMARK SMILES CCCCCCCCCCC(=O)[O-]
REMARK SMILES IDX 7 1 8 2 9 3 10 4 11 5 12 6 13 7 6 8 5 9 4 10 3 11 2 12 1 13
REMARK H PARENT
REMARK Flexibility Score: inf
ROOT
ATOM      1  C   UNL     1      92.334 102.739  90.129  1.00  0.00     0.000 C 
ENDROOT
BRANCH   1   2
ATOM      2  C   UNL     1      92.257 101.372  89.428  1.00  0.00     0.000 C 
BRANCH   2   3
ATOM      3  C   UNL     1      91.816 100.247  90.378  1.00  0.00     0.006 C 
BRANCH   3   4
ATOM      4  C   UNL     1      91.561 100.743  91.807  1.00  0.00     0.053 C 
BRANCH   4   5
ATOM      5  C   UNL     1      90.278 100.180  92.333  1.00  0.00     0.041 C 
ATOM      6  O   UNL     1      89.390 100.946  92.789  1.00  0.00    -0.550 OA
ATOM      7  O   UNL     1      90.084  98.804  92.365  1.00  0.00    -0.550 OA
ENDBRANCH   4   5
ENDBRANCH   3   4
ENDBRANCH   2   3
ENDBRANCH   1   2
BRANCH   1   8
ATOM      8  C   UNL     1      93.614 103.522  89.783  1.00  0.00     0.000 C 
BRANCH   8   9
ATOM      9  C   UNL     1      94.528 103.868  90.978  1.00  0.00    -0.000 C 
BRANCH   9  10
ATOM     10  C   UNL     1      94.735 102.730  91.997  1.00  0.00    -0.000 C 
BRANCH  10  11
ATOM     11  C   UNL     1      95.866 101.748  91.616  1.00  0.00    -0.000 C 
BRANCH  11  12
ATOM     12  C   UNL     1      95.387 100.297  91.445  1.00  0.00    -0.003 C 
ATOM     13  C   UNL     1      95.536  99.788  90.013  1.00  0.00     0.004 C 
ENDBRANCH  11  12
ENDBRANCH  10  11
ENDBRANCH   9  10
ENDBRANCH   8   9
ENDBRANCH   1   8
TORSDOF 9
ENDMDL
MODEL 4
REMARK VINA RESULT:    -3.422      3.180      4.940
REMARK INTER + INTRA:          -6.518
REMARK INTER:                  -5.279
REMARK INTRA:                  -1.239
REMARK UNBOUND:                -1.295
REMARK SMILES CCCCCCCCCCC(=O)[O-]
REMARK SMILES IDX 7 1 8 2 9 3 10 4 11 5 12 6 13 7 6 8 5 9 4 10 3 11 2 12 1 13
REMARK H PARENT
REMARK Flexibility Score: inf
ROOT
ATOM      1  C   UNL     1     104.743  98.112  90.639  1.00  0.00     0.000 C 
ENDROOT
BRANCH   1   2
ATOM      2  C   UNL     1     105.458  97.011  89.835  1.00  0.00     0.000 C 
BRANCH   2   3
ATOM      3  C   UNL     1     105.679  95.731  90.657  1.00  0.00     0.006 C 
BRANCH   3   4
ATOM      4  C   UNL     1     104.971  94.511  90.055  1.00  0.00     0.053 C 
BRANCH   4   5
ATOM      5  C   UNL     1     103.664  94.274  90.745  1.00  0.00     0.041 C 
ATOM      6  O   UNL     1     103.590  94.341  92.000  1.00  0.00    -0.550 OA
ATOM      7  O   UNL     1     102.539  93.931  90.006  1.00  0.00    -0.550 OA
ENDBRANCH   4   5
ENDBRANCH   3   4
ENDBRANCH   2   3
ENDBRANCH   1   2
BRANCH   1   8
ATOM      8  C   UNL     1     104.493  97.720  92.106  1.00  0.00     0.000 C 
BRANCH   8   9
ATOM      9  C   UNL     1     105.222  98.580  93.161  1.00  0.00    -0.000 C 
BRANCH   9  10
ATOM     10  C   UNL     1     106.668  98.975  92.799  1.00  0.00    -0.000 C 
BRANCH  10  11
ATOM     11  C   UNL     1     107.697  97.842  93.015  1.00  0.00    -0.000 C 
BRANCH  11  12
ATOM     12  C   UNL     1     108.793  97.796  91.938  1.00  0.00    -0.003 C 
ATOM     13  C   UNL     1     108.580  98.826  90.830  1.00  0.00     0.004 C 
ENDBRANCH  11  12
ENDBRANCH  10  11
ENDBRANCH   9  10
ENDBRANCH   8   9
ENDBRANCH   1   8
TORSDOF 9
ENDMDL
MODEL 5
REMARK VINA RESULT:    -3.414      1.838      3.346
REMARK INTER + INTRA:          -6.505
REMARK INTER:                  -5.222
REMARK INTRA:                  -1.283
REMARK UNBOUND:                -1.295
REMARK SMILES CCCCCCCCCCC(=O)[O-]
REMARK SMILES IDX 7 1 8 2 9 3 10 4 11 5 12 6 13 7 6 8 5 9 4 10 3 11 2 12 1 13
REMARK H PARENT
REMARK Flexibility Score: inf
ROOT
ATOM      1  C   UNL     1     105.818  97.211  88.556  1.00  0.00     0.000 C 
ENDROOT
BRANCH   1   2
ATOM      2  C   UNL     1     105.163  98.577  88.824  1.00  0.00     0.000 C 
BRANCH   2   3
ATOM      3  C   UNL     1     106.184  99.651  89.232  1.00  0.00     0.006 C 
BRANCH   3   4
ATOM      4  C   UNL     1     107.581  99.072  89.489  1.00  0.00     0.053 C 
BRANCH   4   5
ATOM      5  C   UNL     1     108.497 100.135  90.012  1.00  0.00     0.041 C 
ATOM      6  O   UNL     1     108.886 100.102  91.209  1.00  0.00    -0.550 OA
ATOM      7  O   UNL     1     108.881 101.188  89.191  1.00  0.00    -0.550 OA
ENDBRANCH   4   5
ENDBRANCH   3   4
ENDBRANCH   2   3
ENDBRANCH   1   2
BRANCH   1   8
ATOM      8  C   UNL     1     104.966  96.028  89.049  1.00  0.00     0.000 C 
BRANCH   8   9
ATOM      9  C   UNL     1     105.549  95.235  90.239  1.00  0.00    -0.000 C 
BRANCH   9  10
ATOM     10  C   UNL     1     105.801  96.060  91.516  1.00  0.00    -0.000 C 
BRANCH  10  11
ATOM     11  C   UNL     1     104.528  96.713  92.101  1.00  0.00    -0.000 C 
BRANCH  11  12
ATOM     12  C   UNL     1     104.734  98.169  92.547  1.00  0.00    -0.003 C 
ATOM     13  C   UNL     1     106.188  98.483  92.893  1.00  0.00     0.004 C 
ENDBRANCH  11  12
ENDBRANCH  10  11
ENDBRANCH   9  10
ENDBRANCH   8   9
ENDBRANCH   1   8
TORSDOF 9
ENDMDL
MODEL 6
REMARK VINA RESULT:    -3.404     11.787     13.787
REMARK INTER + INTRA:          -6.490
REMARK INTER:                  -5.300
REMARK INTRA:                  -1.190
REMARK UNBOUND:                -1.295
REMARK SMILES CCCCCCCCCCC(=O)[O-]
REMARK SMILES IDX 7 1 8 2 9 3 10 4 11 5 12 6 13 7 6 8 5 9 4 10 3 11 2 12 1 13
REMARK H PARENT
REMARK Flexibility Score: inf
ROOT
ATOM      1  C   UNL     1      95.051  99.769  90.549  1.00  0.00     0.000 C 
ENDROOT
BRANCH   1   2
ATOM      2  C   UNL     1      93.652  99.393  91.065  1.00  0.00     0.000 C 
BRANCH   2   3
ATOM      3  C   UNL     1      93.409  99.863  92.508  1.00  0.00     0.006 C 
BRANCH   3   4
ATOM      4  C   UNL     1      92.252  99.120  93.187  1.00  0.00     0.053 C 
BRANCH   4   5
ATOM      5  C   UNL     1      90.942  99.551  92.605  1.00  0.00     0.041 C 
ATOM      6  O   UNL     1      90.464 100.680  92.890  1.00  0.00    -0.550 OA
ATOM      7  O   UNL     1      90.226  98.686  91.787  1.00  0.00    -0.550 OA
ENDBRANCH   4   5
ENDBRANCH   3   4
ENDBRANCH   2   3
ENDBRANCH   1   2
BRANCH   1   8
ATOM      8  C   UNL     1      95.887 100.541  91.586  1.00  0.00     0.000 C 
BRANCH   8   9
ATOM      9  C   UNL     1      96.249 101.993  91.203  1.00  0.00    -0.000 C 
BRANCH   9  10
ATOM     10  C   UNL     1      95.078 102.995  91.249  1.00  0.00    -0.000 C 
BRANCH  10  11
ATOM     11  C   UNL     1      94.604 103.466  89.856  1.00  0.00    -0.000 C 
BRANCH  11  12
ATOM     12  C   UNL     1      93.269 102.843  89.418  1.00  0.00    -0.003 C 
ATOM     13  C   UNL     1      92.220 102.846  90.529  1.00  0.00     0.004 C 
ENDBRANCH  11  12
ENDBRANCH  10  11
ENDBRANCH   9  10
ENDBRANCH   8   9
ENDBRANCH   1   8
TORSDOF 9
ENDMDL
MODEL 7
REMARK VINA RESULT:    -3.398      1.013      2.691
REMARK INTER + INTRA:          -6.481
REMARK INTER:                  -5.517
REMARK INTRA:                  -0.964
REMARK UNBOUND:                -1.295
REMARK SMILES CCCCCCCCCCC(=O)[O-]
REMARK SMILES IDX 7 1 8 2 9 3 10 4 11 5 12 6 13 7 6 8 5 9 4 10 3 11 2 12 1 13
REMARK H PARENT
REMARK Flexibility Score: inf
ROOT
ATOM      1  C   UNL     1     105.428  96.330  89.069  1.00  0.00     0.000 C 
ENDROOT
BRANCH   1   2
ATOM      2  C   UNL     1     105.595  97.698  89.751  1.00  0.00     0.000 C 
BRANCH   2   3
ATOM      3  C   UNL     1     106.485  97.629  91.003  1.00  0.00     0.006 C 
BRANCH   3   4
ATOM      4  C   UNL     1     106.835  99.015  91.559  1.00  0.00     0.053 C 
BRANCH   4   5
ATOM      5  C   UNL     1     108.082  98.945  92.384  1.00  0.00     0.041 C 
ATOM      6  O   UNL     1     108.895  99.907  92.385  1.00  0.00    -0.550 OA
ATOM      7  O   UNL     1     108.370  97.799  93.114  1.00  0.00    -0.550 OA
ENDBRANCH   4   5
ENDBRANCH   3   4
ENDBRANCH   2   3
ENDBRANCH   1   2
BRANCH   1   8
ATOM      8  C   UNL     1     105.450  95.155  90.064  1.00  0.00     0.000 C 
BRANCH   8   9
ATOM      9  C   UNL     1     104.287  94.147  89.933  1.00  0.00    -0.000 C 
BRANCH   9  10
ATOM     10  C   UNL     1     103.317  94.105  91.130  1.00  0.00    -0.000 C 
BRANCH  10  11
ATOM     11  C   UNL     1     103.262  95.423  91.936  1.00  0.00    -0.000 C 
BRANCH  11  12
ATOM     12  C   UNL     1     102.079  96.327  91.554  1.00  0.00    -0.003 C 
ATOM     13  C   UNL     1     102.437  97.811  91.567  1.00  0.00     0.004 C 
ENDBRANCH  11  12
ENDBRANCH  10  11
ENDBRANCH   9  10
ENDBRANCH   8   9
ENDBRANCH   1   8
TORSDOF 9
ENDMDL
MODEL 8
REMARK VINA RESULT:    -3.392     13.015     14.843
REMARK INTER + INTRA:          -6.471
REMARK INTER:                  -5.442
REMARK INTRA:                  -1.029
REMARK UNBOUND:                -1.295
REMARK SMILES CCCCCCCCCCC(=O)[O-]
REMARK SMILES IDX 7 1 8 2 9 3 10 4 11 5 12 6 13 7 6 8 5 9 4 10 3 11 2 12 1 13
REMARK H PARENT
REMARK Flexibility Score: inf
ROOT
ATOM      1  C   UNL     1      92.924  98.162  90.164  1.00  0.00     0.000 C 
ENDROOT
BRANCH   1   2
ATOM      2  C   UNL     1      91.562  98.047  89.459  1.00  0.00     0.000 C 
BRANCH   2   3
ATOM      3  C   UNL     1      90.507  98.991  90.059  1.00  0.00     0.006 C 
BRANCH   3   4
ATOM      4  C   UNL     1      90.042  98.551  91.453  1.00  0.00     0.053 C 
BRANCH   4   5
ATOM      5  C   UNL     1      89.984  99.726  92.378  1.00  0.00     0.041 C 
ATOM      6  O   UNL     1      90.776  99.804  93.353  1.00  0.00    -0.550 OA
ATOM      7  O   UNL     1      89.022 100.711  92.191  1.00  0.00    -0.550 OA
ENDBRANCH   4   5
ENDBRANCH   3   4
ENDBRANCH   2   3
ENDBRANCH   1   2
BRANCH   1   8
ATOM      8  C   UNL     1      93.448  99.608  90.231  1.00  0.00     0.000 C 
BRANCH   8   9
ATOM      9  C   UNL     1      93.848 100.108  91.636  1.00  0.00    -0.000 C 
BRANCH   9  10
ATOM     10  C   UNL     1      93.663 101.620  91.872  1.00  0.00    -0.000 C 
BRANCH  10  11
ATOM     11  C   UNL     1      92.376 102.198  91.240  1.00  0.00    -0.000 C 
BRANCH  11  12
ATOM     12  C   UNL     1      92.646 103.193  90.100  1.00  0.00    -0.003 C 
ATOM     13  C   UNL     1      94.051 103.789  90.152  1.00  0.00     0.004 C 
ENDBRANCH  11  12
ENDBRANCH  10  11
ENDBRANCH   9  10
ENDBRANCH   8   9
ENDBRANCH   1   8
TORSDOF 9
ENDMDL
