MODEL 1
REMARK VINA RESULT:    -3.847      0.000      0.000
REMARK INTER + INTRA:          -4.651
REMARK INTER:                  -5.196
REMARK INTRA:                   0.545
REMARK UNBOUND:                 0.545
REMARK SMILES C=C1C(=O)O[C@@H]2[C@H]3O[C@]3(C)CCC=C(C)CC[C@@H]12
REMARK SMILES IDX 6 1 18 2 2 3 1 4 3 5 4 6 5 7 17 8 16 9 14 10 15 11 13 12
REMARK SMILES IDX 7 14 9 15 8 16 10 17 11 18 12 19
REMARK H PARENT
REMARK Flexibility Score: 70.00
ROOT
ATOM      1  C   UNL     1      18.812  -2.579   4.832  1.00  0.00     0.216 C 
ATOM      2  C   UNL     1      18.485  -2.886   3.341  1.00  0.00     0.070 C 
ATOM      3  C   UNL     1      17.520  -4.032   3.454  1.00  0.00     0.037 C 
ATOM      4  C   UNL     1      17.010  -4.749   2.452  1.00  0.00     0.021 C 
ATOM      5  C   UNL     1      17.063  -4.065   4.826  1.00  0.00     0.334 C 
ATOM      6  O   UNL     1      16.148  -4.803   5.278  1.00  0.00    -0.247 OA
ATOM      7  O   UNL     1      17.741  -3.137   5.587  1.00  0.00    -0.455 OA
ENDROOT
BRANCH   2   8
ATOM      8  C   UNL     1      19.752  -3.179   2.501  1.00  0.00     0.017 C 
BRANCH   8   9
ATOM      9  C   UNL     1      20.241  -1.941   1.698  1.00  0.00     0.031 C 
BRANCH   9  10
ATOM     10  C   UNL     1      21.596  -1.402   2.149  1.00  0.00    -0.077 C 
ATOM     11  C   UNL     1      22.825  -2.186   1.761  1.00  0.00     0.039 C 
ATOM     12  C   UNL     1      21.795  -0.203   2.761  1.00  0.00    -0.028 CG0
ATOM     13  G   UNL     1      20.742   0.763   3.271  1.00  0.00     0.000 G0
ENDBRANCH   9  10
ENDBRANCH   8   9
ENDBRANCH   2   8
BRANCH   1  14
ATOM     14  C   UNL     1      18.959  -1.069   5.056  1.00  0.00     0.192 C 
ATOM     15  C   UNL     1      20.332  -0.585   5.384  1.00  0.00     0.096 C 
ATOM     16  O   UNL     1      19.309  -0.649   6.357  1.00  0.00    -0.362 OA
ATOM     17  C   UNL     1      21.497  -1.510   5.769  1.00  0.00     0.045 C 
BRANCH  15  18
ATOM     18  C   UNL     1      20.643   0.803   4.806  1.00  0.00     0.042 C 
BRANCH  18  19
ATOM     19  C   UNL     1      20.740   0.765   3.266  1.00  0.00     0.030 CG0
ATOM     20  G   UNL     1      21.798  -0.210   2.784  1.00  0.00     0.000 G0
ENDBRANCH  18  19
ENDBRANCH  15  18
ENDBRANCH   1  14
TORSDOF 0
ENDMDL
MODEL 2
REMARK VINA RESULT:    -3.840      2.013      3.341
REMARK INTER + INTRA:          -4.641
REMARK INTER:                  -5.402
REMARK INTRA:                   0.761
REMARK UNBOUND:                 0.545
REMARK SMILES C=C1C(=O)O[C@@H]2[C@H]3O[C@]3(C)CCC=C(C)CC[C@@H]12
REMARK SMILES IDX 6 1 18 2 2 3 1 4 3 5 4 6 5 7 17 8 16 9 14 10 15 11 13 12
REMARK SMILES IDX 7 14 9 15 8 16 10 17 11 18 12 19
REMARK H PARENT
REMARK Flexibility Score: 70.00
ROOT
ATOM      1  C   UNL     1      18.870  -2.563   2.836  1.00  0.00     0.216 C 
ATOM      2  C   UNL     1      18.676  -2.879   4.348  1.00  0.00     0.070 C 
ATOM      3  C   UNL     1      17.519  -3.838   4.328  1.00  0.00     0.037 C 
ATOM      4  C   UNL     1      16.877  -4.338   5.385  1.00  0.00     0.021 C 
ATOM      5  C   UNL     1      17.379  -4.302   2.965  1.00  0.00     0.334 C 
ATOM      6  O   UNL     1      16.604  -5.216   2.576  1.00  0.00    -0.247 OA
ATOM      7  O   UNL     1      18.250  -3.634   2.131  1.00  0.00    -0.455 OA
ENDROOT
BRANCH   2   8
ATOM      8  C   UNL     1      18.454  -1.607   5.200  1.00  0.00     0.017 C 
BRANCH   8   9
ATOM      9  C   UNL     1      19.686  -1.248   6.078  1.00  0.00     0.031 C 
BRANCH   9  10
ATOM     10  C   UNL     1      20.812  -2.277   6.022  1.00  0.00    -0.077 C 
ATOM     11  C   UNL     1      20.567  -3.618   6.668  1.00  0.00     0.039 C 
ATOM     12  C   UNL     1      21.971  -2.129   5.325  1.00  0.00    -0.028 CG0
ATOM     13  G   UNL     1      22.469  -0.888   4.607  1.00  0.00     0.000 G0
ENDBRANCH   9  10
ENDBRANCH   8   9
ENDBRANCH   2   8
BRANCH   1  14
ATOM     14  C   UNL     1      20.359  -2.425   2.497  1.00  0.00     0.192 C 
ATOM     15  C   UNL     1      20.931  -1.051   2.596  1.00  0.00     0.096 C 
ATOM     16  O   UNL     1      20.685  -1.670   1.350  1.00  0.00    -0.362 OA
ATOM     17  C   UNL     1      20.082   0.222   2.740  1.00  0.00     0.045 C 
BRANCH  15  18
ATOM     18  C   UNL     1      22.390  -1.030   3.076  1.00  0.00     0.042 C 
BRANCH  18  19
ATOM     19  C   UNL     1      22.478  -0.886   4.610  1.00  0.00     0.030 CG0
ATOM     20  G   UNL     1      21.976  -2.123   5.330  1.00  0.00     0.000 G0
ENDBRANCH  18  19
ENDBRANCH  15  18
ENDBRANCH   1  14
TORSDOF 0
ENDMDL
MODEL 3
REMARK VINA RESULT:    -3.750     10.912     12.500
REMARK INTER + INTRA:          -4.521
REMARK INTER:                  -5.001
REMARK INTRA:                   0.480
REMARK UNBOUND:                 0.545
REMARK SMILES C=C1C(=O)O[C@@H]2[C@H]3O[C@]3(C)CCC=C(C)CC[C@@H]12
REMARK SMILES IDX 6 1 18 2 2 3 1 4 3 5 4 6 5 7 17 8 16 9 14 10 15 11 13 12
REMARK SMILES IDX 7 14 9 15 8 16 10 17 11 18 12 19
REMARK H PARENT
REMARK Flexibility Score: 70.00
ROOT
ATOM      1  C   UNL     1       8.903   0.008  -2.138  1.00  0.00     0.216 C 
ATOM      2  C   UNL     1      10.240  -0.482  -1.510  1.00  0.00     0.070 C 
ATOM      3  C   UNL     1       9.807  -0.927  -0.142  1.00  0.00     0.037 C 
ATOM      4  C   UNL     1      10.596  -1.338   0.852  1.00  0.00     0.021 C 
ATOM      5  C   UNL     1       8.366  -1.052  -0.175  1.00  0.00     0.334 C 
ATOM      6  O   UNL     1       7.649  -1.530   0.743  1.00  0.00    -0.247 OA
ATOM      7  O   UNL     1       7.867  -0.613  -1.383  1.00  0.00    -0.455 OA
ENDROOT
BRANCH   2   8
ATOM      8  C   UNL     1      11.340   0.606  -1.525  1.00  0.00     0.017 C 
BRANCH   8   9
ATOM      9  C   UNL     1      11.376   1.408  -2.857  1.00  0.00     0.031 C 
BRANCH   9  10
ATOM     10  C   UNL     1      12.159   0.725  -3.974  1.00  0.00    -0.077 C 
ATOM     11  C   UNL     1      13.358  -0.103  -3.583  1.00  0.00     0.039 C 
ATOM     12  C   UNL     1      11.790   0.698  -5.284  1.00  0.00    -0.028 CG0
ATOM     13  G   UNL     1      10.647   1.451  -5.940  1.00  0.00     0.000 G0
ENDBRANCH   9  10
ENDBRANCH   8   9
ENDBRANCH   2   8
BRANCH   1  14
ATOM     14  C   UNL     1       8.837  -0.353  -3.627  1.00  0.00     0.192 C 
ATOM     15  C   UNL     1       8.603   0.780  -4.568  1.00  0.00     0.096 C 
ATOM     16  O   UNL     1       7.597  -0.166  -4.274  1.00  0.00    -0.362 OA
ATOM     17  C   UNL     1       8.165   2.185  -4.126  1.00  0.00     0.045 C 
BRANCH  15  18
ATOM     18  C   UNL     1       9.328   0.616  -5.912  1.00  0.00     0.042 C 
BRANCH  18  19
ATOM     19  C   UNL     1      10.639   1.430  -5.951  1.00  0.00     0.030 CG0
ATOM     20  G   UNL     1      11.784   0.701  -5.274  1.00  0.00     0.000 G0
ENDBRANCH  18  19
ENDBRANCH  15  18
ENDBRANCH   1  14
TORSDOF 0
ENDMDL
MODEL 4
REMARK VINA RESULT:    -3.457      2.627      4.865
REMARK INTER + INTRA:          -4.125
REMARK INTER:                  -4.578
REMARK INTRA:                   0.453
REMARK UNBOUND:                 0.545
REMARK SMILES C=C1C(=O)O[C@@H]2[C@H]3O[C@]3(C)CCC=C(C)CC[C@@H]12
REMARK SMILES IDX 6 1 18 2 2 3 1 4 3 5 4 6 5 7 17 8 16 9 14 10 15 11 13 12
REMARK SMILES IDX 7 14 9 15 8 16 10 17 11 18 12 19
REMARK H PARENT
REMARK Flexibility Score: 70.00
ROOT
ATOM      1  C   UNL     1      21.144  -1.180   5.955  1.00  0.00     0.216 C 
ATOM      2  C   UNL     1      19.807  -0.397   5.806  1.00  0.00     0.070 C 
ATOM      3  C   UNL     1      19.810   0.477   7.028  1.00  0.00     0.037 C 
ATOM      4  C   UNL     1      18.826   1.277   7.443  1.00  0.00     0.021 C 
ATOM      5  C   UNL     1      21.161   0.473   7.547  1.00  0.00     0.334 C 
ATOM      6  O   UNL     1      21.590   1.193   8.487  1.00  0.00    -0.247 OA
ATOM      7  O   UNL     1      21.951  -0.408   6.839  1.00  0.00    -0.455 OA
ENDROOT
BRANCH   2   8
ATOM      8  C   UNL     1      18.580  -1.331   5.675  1.00  0.00     0.017 C 
BRANCH   8   9
ATOM      9  C   UNL     1      18.133  -1.534   4.200  1.00  0.00     0.031 C 
BRANCH   9  10
ATOM     10  C   UNL     1      18.326  -2.957   3.681  1.00  0.00    -0.077 C 
ATOM     11  C   UNL     1      17.341  -4.006   4.134  1.00  0.00     0.039 C 
ATOM     12  C   UNL     1      19.238  -3.329   2.742  1.00  0.00    -0.028 CG0
ATOM     13  G   UNL     1      20.344  -2.483   2.138  1.00  0.00     0.000 G0
ENDBRANCH   9  10
ENDBRANCH   8   9
ENDBRANCH   2   8
BRANCH   1  14
ATOM     14  C   UNL     1      21.808  -1.385   4.588  1.00  0.00     0.192 C 
ATOM     15  C   UNL     1      21.909  -2.795   4.112  1.00  0.00     0.096 C 
ATOM     16  O   UNL     1      23.036  -2.079   4.573  1.00  0.00    -0.362 OA
ATOM     17  C   UNL     1      21.650  -4.020   5.002  1.00  0.00     0.045 C 
BRANCH  15  18
ATOM     18  C   UNL     1      21.762  -2.937   2.590  1.00  0.00     0.042 C 
BRANCH  18  19
ATOM     19  C   UNL     1      20.361  -2.499   2.114  1.00  0.00     0.030 CG0
ATOM     20  G   UNL     1      19.259  -3.331   2.743  1.00  0.00     0.000 G0
ENDBRANCH  18  19
ENDBRANCH  15  18
ENDBRANCH   1  14
TORSDOF 0
ENDMDL
MODEL 5
REMARK VINA RESULT:    -3.394      2.240      4.078
REMARK INTER + INTRA:          -4.040
REMARK INTER:                  -4.511
REMARK INTRA:                   0.471
REMARK UNBOUND:                 0.545
REMARK SMILES C=C1C(=O)O[C@@H]2[C@H]3O[C@]3(C)CCC=C(C)CC[C@@H]12
REMARK SMILES IDX 6 1 18 2 2 3 1 4 3 5 4 6 5 7 17 8 16 9 14 10 15 11 13 12
REMARK SMILES IDX 7 14 9 15 8 16 10 17 11 18 12 19
REMARK H PARENT
REMARK Flexibility Score: 70.00
ROOT
ATOM      1  C   UNL     1      20.693  -3.112   5.693  1.00  0.00     0.216 C 
ATOM      2  C   UNL     1      22.220  -3.117   5.388  1.00  0.00     0.070 C 
ATOM      3  C   UNL     1      22.806  -3.570   6.696  1.00  0.00     0.037 C 
ATOM      4  C   UNL     1      24.100  -3.641   7.010  1.00  0.00     0.021 C 
ATOM      5  C   UNL     1      21.723  -4.136   7.470  1.00  0.00     0.334 C 
ATOM      6  O   UNL     1      21.843  -4.742   8.568  1.00  0.00    -0.247 OA
ATOM      7  O   UNL     1      20.519  -3.964   6.820  1.00  0.00    -0.455 OA
ENDROOT
BRANCH   2   8
ATOM      8  C   UNL     1      22.732  -1.746   4.884  1.00  0.00     0.017 C 
BRANCH   8   9
ATOM      9  C   UNL     1      21.762  -1.078   3.870  1.00  0.00     0.031 C 
BRANCH   9  10
ATOM     10  C   UNL     1      21.877  -1.618   2.447  1.00  0.00    -0.077 C 
ATOM     11  C   UNL     1      23.243  -2.044   1.970  1.00  0.00     0.039 C 
ATOM     12  C   UNL     1      20.826  -1.868   1.619  1.00  0.00    -0.028 CG0
ATOM     13  G   UNL     1      19.366  -1.523   1.845  1.00  0.00     0.000 G0
ENDBRANCH   9  10
ENDBRANCH   8   9
ENDBRANCH   2   8
BRANCH   1  14
ATOM     14  C   UNL     1      19.895  -3.587   4.473  1.00  0.00     0.192 C 
ATOM     15  C   UNL     1      18.773  -2.705   4.039  1.00  0.00     0.096 C 
ATOM     16  O   UNL     1      18.545  -3.937   4.691  1.00  0.00    -0.362 OA
ATOM     17  C   UNL     1      18.222  -1.543   4.880  1.00  0.00     0.045 C 
BRANCH  15  18
ATOM     18  C   UNL     1      18.566  -2.685   2.517  1.00  0.00     0.042 C 
BRANCH  18  19
ATOM     19  C   UNL     1      19.343  -1.527   1.856  1.00  0.00     0.030 CG0
ATOM     20  G   UNL     1      20.801  -1.876   1.626  1.00  0.00     0.000 G0
ENDBRANCH  18  19
ENDBRANCH  15  18
ENDBRANCH   1  14
TORSDOF 0
ENDMDL
MODEL 6
REMARK VINA RESULT:    -3.337     11.162     12.668
REMARK INTER + INTRA:          -3.962
REMARK INTER:                  -4.480
REMARK INTRA:                   0.518
REMARK UNBOUND:                 0.545
REMARK SMILES C=C1C(=O)O[C@@H]2[C@H]3O[C@]3(C)CCC=C(C)CC[C@@H]12
REMARK SMILES IDX 6 1 18 2 2 3 1 4 3 5 4 6 5 7 17 8 16 9 14 10 15 11 13 12
REMARK SMILES IDX 7 14 9 15 8 16 10 17 11 18 12 19
REMARK H PARENT
REMARK Flexibility Score: 70.00
ROOT
ATOM      1  C   UNL     1       9.462  -0.714  -1.331  1.00  0.00     0.216 C 
ATOM      2  C   UNL     1       7.980  -0.250  -1.441  1.00  0.00     0.070 C 
ATOM      3  C   UNL     1       7.336  -0.955  -0.281  1.00  0.00     0.037 C 
ATOM      4  C   UNL     1       6.037  -0.983   0.017  1.00  0.00     0.021 C 
ATOM      5  C   UNL     1       8.404  -1.404   0.586  1.00  0.00     0.334 C 
ATOM      6  O   UNL     1       8.259  -1.918   1.726  1.00  0.00    -0.247 OA
ATOM      7  O   UNL     1       9.633  -1.152   0.014  1.00  0.00    -0.455 OA
ENDROOT
BRANCH   2   8
ATOM      8  C   UNL     1       7.357  -0.565  -2.822  1.00  0.00     0.017 C 
BRANCH   8   9
ATOM      9  C   UNL     1       8.328  -0.272  -4.001  1.00  0.00     0.031 C 
BRANCH   9  10
ATOM     10  C   UNL     1       8.314   1.179  -4.474  1.00  0.00    -0.077 C 
ATOM     11  C   UNL     1       7.006   1.926  -4.399  1.00  0.00     0.039 C 
ATOM     12  C   UNL     1       9.414   1.893  -4.839  1.00  0.00    -0.028 CG0
ATOM     13  G   UNL     1      10.833   1.383  -5.013  1.00  0.00     0.000 G0
ENDBRANCH   9  10
ENDBRANCH   8   9
ENDBRANCH   2   8
BRANCH   1  14
ATOM     14  C   UNL     1      10.417   0.427  -1.700  1.00  0.00     0.192 C 
ATOM     15  C   UNL     1      11.346   0.164  -2.838  1.00  0.00     0.096 C 
ATOM     16  O   UNL     1      11.794   0.196  -1.498  1.00  0.00    -0.362 OA
ATOM     17  C   UNL     1      11.579  -1.226  -3.449  1.00  0.00     0.045 C 
BRANCH  15  18
ATOM     18  C   UNL     1      11.636   1.410  -3.688  1.00  0.00     0.042 C 
BRANCH  18  19
ATOM     19  C   UNL     1      10.849   1.384  -5.015  1.00  0.00     0.030 CG0
ATOM     20  G   UNL     1       9.425   1.881  -4.845  1.00  0.00     0.000 G0
ENDBRANCH  18  19
ENDBRANCH  15  18
ENDBRANCH   1  14
TORSDOF 0
ENDMDL
MODEL 7
REMARK VINA RESULT:    -3.208      2.808      4.036
REMARK INTER + INTRA:          -3.788
REMARK INTER:                  -4.265
REMARK INTRA:                   0.477
REMARK UNBOUND:                 0.545
REMARK SMILES C=C1C(=O)O[C@@H]2[C@H]3O[C@]3(C)CCC=C(C)CC[C@@H]12
REMARK SMILES IDX 6 1 18 2 2 3 1 4 3 5 4 6 5 7 17 8 16 9 14 10 15 11 13 12
REMARK SMILES IDX 7 14 9 15 8 16 10 17 11 18 12 19
REMARK H PARENT
REMARK Flexibility Score: 70.00
ROOT
ATOM      1  C   UNL     1      20.367  -1.721   3.688  1.00  0.00     0.216 C 
ATOM      2  C   UNL     1      19.710  -3.002   4.280  1.00  0.00     0.070 C 
ATOM      3  C   UNL     1      18.431  -3.097   3.498  1.00  0.00     0.037 C 
ATOM      4  C   UNL     1      17.439  -3.966   3.691  1.00  0.00     0.021 C 
ATOM      5  C   UNL     1      18.572  -2.227   2.351  1.00  0.00     0.334 C 
ATOM      6  O   UNL     1      17.760  -2.138   1.392  1.00  0.00    -0.247 OA
ATOM      7  O   UNL     1      19.754  -1.520   2.418  1.00  0.00    -0.455 OA
ENDROOT
BRANCH   2   8
ATOM      8  C   UNL     1      19.533  -2.927   5.815  1.00  0.00     0.017 C 
BRANCH   8   9
ATOM      9  C   UNL     1      20.773  -2.326   6.535  1.00  0.00     0.031 C 
BRANCH   9  10
ATOM     10  C   UNL     1      21.895  -3.329   6.787  1.00  0.00    -0.077 C 
ATOM     11  C   UNL     1      21.505  -4.762   7.056  1.00  0.00     0.039 C 
ATOM     12  C   UNL     1      23.224  -3.063   6.661  1.00  0.00    -0.028 CG0
ATOM     13  G   UNL     1      23.880  -1.717   6.416  1.00  0.00     0.000 G0
ENDBRANCH   9  10
ENDBRANCH   8   9
ENDBRANCH   2   8
BRANCH   1  14
ATOM     14  C   UNL     1      21.888  -1.888   3.582  1.00  0.00     0.192 C 
ATOM     15  C   UNL     1      22.712  -0.861   4.284  1.00  0.00     0.096 C 
ATOM     16  O   UNL     1      22.592  -0.890   2.877  1.00  0.00    -0.362 OA
ATOM     17  C   UNL     1      22.147   0.453   4.844  1.00  0.00     0.045 C 
BRANCH  15  18
ATOM     18  C   UNL     1      24.014  -1.423   4.873  1.00  0.00     0.042 C 
BRANCH  18  19
ATOM     19  C   UNL     1      23.877  -1.700   6.385  1.00  0.00     0.030 CG0
ATOM     20  G   UNL     1      23.246  -3.052   6.663  1.00  0.00     0.000 G0
ENDBRANCH  18  19
ENDBRANCH  15  18
ENDBRANCH   1  14
TORSDOF 0
ENDMDL
MODEL 8
REMARK VINA RESULT:    -3.163      2.058      3.038
REMARK INTER + INTRA:          -3.728
REMARK INTER:                  -4.453
REMARK INTRA:                   0.725
REMARK UNBOUND:                 0.545
REMARK SMILES C=C1C(=O)O[C@@H]2[C@H]3O[C@]3(C)CCC=C(C)CC[C@@H]12
REMARK SMILES IDX 6 1 18 2 2 3 1 4 3 5 4 6 5 7 17 8 16 9 14 10 15 11 13 12
REMARK SMILES IDX 7 14 9 15 8 16 10 17 11 18 12 19
REMARK H PARENT
REMARK Flexibility Score: 70.00
ROOT
ATOM      1  C   UNL     1      19.949  -3.509   4.926  1.00  0.00     0.216 C 
ATOM      2  C   UNL     1      20.012  -2.356   3.881  1.00  0.00     0.070 C 
ATOM      3  C   UNL     1      18.846  -2.671   2.986  1.00  0.00     0.037 C 
ATOM      4  C   UNL     1      18.514  -2.047   1.856  1.00  0.00     0.021 C 
ATOM      5  C   UNL     1      18.016  -3.622   3.693  1.00  0.00     0.334 C 
ATOM      6  O   UNL     1      16.881  -4.024   3.324  1.00  0.00    -0.247 OA
ATOM      7  O   UNL     1      18.617  -4.010   4.872  1.00  0.00    -0.455 OA
ENDROOT
BRANCH   2   8
ATOM      8  C   UNL     1      21.381  -2.275   3.164  1.00  0.00     0.017 C 
BRANCH   8   9
ATOM      9  C   UNL     1      22.235  -1.064   3.635  1.00  0.00     0.031 C 
BRANCH   9  10
ATOM     10  C   UNL     1      21.525  -0.148   4.627  1.00  0.00    -0.077 C 
ATOM     11  C   UNL     1      20.382   0.691   4.111  1.00  0.00     0.039 C 
ATOM     12  C   UNL     1      21.754  -0.122   5.969  1.00  0.00    -0.028 CG0
ATOM     13  G   UNL     1      22.843  -0.848   6.736  1.00  0.00     0.000 G0
ENDBRANCH   9  10
ENDBRANCH   8   9
ENDBRANCH   2   8
BRANCH   1  14
ATOM     14  C   UNL     1      20.325  -2.997   6.322  1.00  0.00     0.192 C 
ATOM     15  C   UNL     1      21.755  -3.157   6.716  1.00  0.00     0.096 C 
ATOM     16  O   UNL     1      20.733  -3.963   7.266  1.00  0.00    -0.362 OA
ATOM     17  C   UNL     1      22.765  -4.021   5.946  1.00  0.00     0.045 C 
BRANCH  15  18
ATOM     18  C   UNL     1      22.274  -2.012   7.599  1.00  0.00     0.042 C 
BRANCH  18  19
ATOM     19  C   UNL     1      22.835  -0.853   6.748  1.00  0.00     0.030 CG0
ATOM     20  G   UNL     1      21.745  -0.128   5.981  1.00  0.00     0.000 G0
ENDBRANCH  18  19
ENDBRANCH  15  18
ENDBRANCH   1  14
TORSDOF 0
ENDMDL
MODEL 9
REMARK VINA RESULT:    -3.112     16.445     18.165
REMARK INTER + INTRA:          -3.658
REMARK INTER:                  -4.243
REMARK INTRA:                   0.585
REMARK UNBOUND:                 0.545
REMARK SMILES C=C1C(=O)O[C@@H]2[C@H]3O[C@]3(C)CCC=C(C)CC[C@@H]12
REMARK SMILES IDX 6 1 18 2 2 3 1 4 3 5 4 6 5 7 17 8 16 9 14 10 15 11 13 12
REMARK SMILES IDX 7 14 9 15 8 16 10 17 11 18 12 19
REMARK H PARENT
REMARK Flexibility Score: 70.00
ROOT
ATOM      1  C   UNL     1       6.075 -12.740   1.336  1.00  0.00     0.216 C 
ATOM      2  C   UNL     1       6.084 -11.816   2.589  1.00  0.00     0.070 C 
ATOM      3  C   UNL     1       5.744 -10.476   2.001  1.00  0.00     0.037 C 
ATOM      4  C   UNL     1       5.728  -9.305   2.637  1.00  0.00     0.021 C 
ATOM      5  C   UNL     1       5.211 -10.719   0.678  1.00  0.00     0.334 C 
ATOM      6  O   UNL     1       4.692  -9.853  -0.075  1.00  0.00    -0.247 OA
ATOM      7  O   UNL     1       5.305 -12.055   0.353  1.00  0.00    -0.455 OA
ENDROOT
BRANCH   2   8
ATOM      8  C   UNL     1       7.426 -11.870   3.359  1.00  0.00     0.017 C 
BRANCH   8   9
ATOM      9  C   UNL     1       7.349 -12.746   4.641  1.00  0.00     0.031 C 
BRANCH   9  10
ATOM     10  C   UNL     1       8.222 -13.997   4.594  1.00  0.00    -0.077 C 
ATOM     11  C   UNL     1       9.704 -13.824   4.816  1.00  0.00     0.039 C 
ATOM     12  C   UNL     1       7.756 -15.272   4.498  1.00  0.00    -0.028 CG0
ATOM     13  G   UNL     1       6.327 -15.720   4.253  1.00  0.00     0.000 G0
ENDBRANCH   9  10
ENDBRANCH   8   9
ENDBRANCH   2   8
BRANCH   1  14
ATOM     14  C   UNL     1       5.491 -14.116   1.680  1.00  0.00     0.192 C 
ATOM     15  C   UNL     1       6.467 -15.242   1.760  1.00  0.00     0.096 C 
ATOM     16  O   UNL     1       5.567 -15.109   0.679  1.00  0.00    -0.362 OA
ATOM     17  C   UNL     1       7.919 -15.154   1.263  1.00  0.00     0.045 C 
BRANCH  15  18
ATOM     18  C   UNL     1       6.108 -16.285   2.828  1.00  0.00     0.042 C 
BRANCH  18  19
ATOM     19  C   UNL     1       6.312 -15.728   4.253  1.00  0.00     0.030 CG0
ATOM     20  G   UNL     1       7.742 -15.283   4.493  1.00  0.00     0.000 G0
ENDBRANCH  18  19
ENDBRANCH  15  18
ENDBRANCH   1  14
TORSDOF 0
ENDMDL
