MODEL 1
REMARK VINA RESULT:    -2.766      0.000      0.000
REMARK INTER + INTRA:          -2.766
REMARK INTER:                  -2.766
REMARK INTRA:                   0.000
REMARK UNBOUND:                 0.000
REMARK SMILES CC(=O)[O-]
REMARK SMILES IDX 1 1 2 2 3 3 4 4
REMARK H PARENT
REMARK Flexibility Score: inf
ROOT
ATOM      1  C   UNL     1       4.969  18.030  -6.982  1.00  0.00     0.063 C 
ATOM      2  C   UNL     1       6.140  17.756  -6.099  1.00  0.00     0.038 C 
ATOM      3  O   UNL     1       6.130  18.142  -4.900  1.00  0.00    -0.550 OA
ATOM      4  O   UNL     1       7.220  17.028  -6.580  1.00  0.00    -0.550 OA
ENDROOT
TORSDOF 0
ENDMDL
MODEL 2
REMARK VINA RESULT:    -2.739      0.095      1.621
REMARK INTER + INTRA:          -2.739
REMARK INTER:                  -2.739
REMARK INTRA:                   0.000
REMARK UNBOUND:                 0.000
REMARK SMILES CC(=O)[O-]
REMARK SMILES IDX 1 1 2 2 3 3 4 4
REMARK H PARENT
REMARK Flexibility Score: inf
ROOT
ATOM      1  C   UNL     1       5.037  18.043  -7.087  1.00  0.00     0.063 C 
ATOM      2  C   UNL     1       6.168  17.720  -6.170  1.00  0.00     0.038 C 
ATOM      3  O   UNL     1       7.183  17.118  -6.607  1.00  0.00    -0.550 OA
ATOM      4  O   UNL     1       6.128  18.130  -4.844  1.00  0.00    -0.550 OA
ENDROOT
TORSDOF 0
ENDMDL
MODEL 3
REMARK VINA RESULT:    -2.692     12.385     12.879
REMARK INTER + INTRA:          -2.692
REMARK INTER:                  -2.692
REMARK INTRA:                   0.000
REMARK UNBOUND:                 0.000
REMARK SMILES CC(=O)[O-]
REMARK SMILES IDX 1 1 2 2 3 3 4 4
REMARK H PARENT
REMARK Flexibility Score: inf
ROOT
ATOM      1  C   UNL     1      17.819  20.517 -13.360  1.00  0.00     0.063 C 
ATOM      2  C   UNL     1      17.152  19.968 -12.144  1.00  0.00     0.038 C 
ATOM      3  O   UNL     1      15.990  20.345 -11.838  1.00  0.00    -0.550 OA
ATOM      4  O   UNL     1      17.787  19.000 -11.378  1.00  0.00    -0.550 OA
ENDROOT
TORSDOF 0
ENDMDL
MODEL 4
REMARK VINA RESULT:    -2.658     12.361     12.906
REMARK INTER + INTRA:          -2.658
REMARK INTER:                  -2.658
REMARK INTRA:                   0.000
REMARK UNBOUND:                 0.000
REMARK SMILES CC(=O)[O-]
REMARK SMILES IDX 1 1 2 2 3 3 4 4
REMARK H PARENT
REMARK Flexibility Score: inf
ROOT
ATOM      1  C   UNL     1      17.857  20.524 -13.363  1.00  0.00     0.063 C 
ATOM      2  C   UNL     1      17.107  19.980 -12.195  1.00  0.00     0.038 C 
ATOM      3  O   UNL     1      17.619  19.080 -11.479  1.00  0.00    -0.550 OA
ATOM      4  O   UNL     1      15.865  20.505 -11.859  1.00  0.00    -0.550 OA
ENDROOT
TORSDOF 0
ENDMDL
MODEL 5
REMARK VINA RESULT:    -2.568      1.642      1.882
REMARK INTER + INTRA:          -2.568
REMARK INTER:                  -2.568
REMARK INTRA:                   0.000
REMARK UNBOUND:                 0.000
REMARK SMILES CC(=O)[O-]
REMARK SMILES IDX 1 1 2 2 3 3 4 4
REMARK H PARENT
REMARK Flexibility Score: inf
ROOT
ATOM      1  C   UNL     1       5.786  17.890  -5.543  1.00  0.00     0.063 C 
ATOM      2  C   UNL     1       6.455  17.046  -6.575  1.00  0.00     0.038 C 
ATOM      3  O   UNL     1       7.606  17.346  -6.987  1.00  0.00    -0.550 OA
ATOM      4  O   UNL     1       5.833  15.897  -7.045  1.00  0.00    -0.550 OA
ENDROOT
TORSDOF 0
ENDMDL
MODEL 6
REMARK VINA RESULT:    -2.505      2.027      2.582
REMARK INTER + INTRA:          -2.505
REMARK INTER:                  -2.505
REMARK INTRA:                   0.000
REMARK UNBOUND:                 0.000
REMARK SMILES CC(=O)[O-]
REMARK SMILES IDX 1 1 2 2 3 3 4 4
REMARK H PARENT
REMARK Flexibility Score: inf
ROOT
ATOM      1  C   UNL     1       7.741  16.572  -8.235  1.00  0.00     0.063 C 
ATOM      2  C   UNL     1       6.771  16.449  -7.109  1.00  0.00     0.038 C 
ATOM      3  O   UNL     1       5.831  15.613  -7.175  1.00  0.00    -0.550 OA
ATOM      4  O   UNL     1       6.933  17.215  -5.963  1.00  0.00    -0.550 OA
ENDROOT
TORSDOF 0
ENDMDL
MODEL 7
REMARK VINA RESULT:    -2.481     11.152     11.554
REMARK INTER + INTRA:          -2.481
REMARK INTER:                  -2.481
REMARK INTRA:                   0.000
REMARK UNBOUND:                 0.000
REMARK SMILES CC(=O)[O-]
REMARK SMILES IDX 1 1 2 2 3 3 4 4
REMARK H PARENT
REMARK Flexibility Score: inf
ROOT
ATOM      1  C   UNL     1      15.596  22.692 -12.903  1.00  0.00     0.063 C 
ATOM      2  C   UNL     1      15.132  21.570 -12.037  1.00  0.00     0.038 C 
ATOM      3  O   UNL     1      13.937  21.531 -11.641  1.00  0.00    -0.550 OA
ATOM      4  O   UNL     1      16.000  20.537 -11.710  1.00  0.00    -0.550 OA
ENDROOT
TORSDOF 0
ENDMDL
MODEL 8
REMARK VINA RESULT:    -2.453     13.016     13.493
REMARK INTER + INTRA:          -2.453
REMARK INTER:                  -2.453
REMARK INTRA:                   0.000
REMARK UNBOUND:                 0.000
REMARK SMILES CC(=O)[O-]
REMARK SMILES IDX 1 1 2 2 3 3 4 4
REMARK H PARENT
REMARK Flexibility Score: inf
ROOT
ATOM      1  C   UNL     1      18.949  17.983 -12.636  1.00  0.00     0.063 C 
ATOM      2  C   UNL     1      18.312  18.704 -11.497  1.00  0.00     0.038 C 
ATOM      3  O   UNL     1      18.845  18.678 -10.356  1.00  0.00    -0.550 OA
ATOM      4  O   UNL     1      17.161  19.452 -11.703  1.00  0.00    -0.550 OA
ENDROOT
TORSDOF 0
ENDMDL
MODEL 9
REMARK VINA RESULT:    -2.408      2.316      2.646
REMARK INTER + INTRA:          -2.408
REMARK INTER:                  -2.408
REMARK INTRA:                   0.000
REMARK UNBOUND:                 0.000
REMARK SMILES CC(=O)[O-]
REMARK SMILES IDX 1 1 2 2 3 3 4 4
REMARK H PARENT
REMARK Flexibility Score: inf
ROOT
ATOM      1  C   UNL     1       6.117  16.009  -8.069  1.00  0.00     0.063 C 
ATOM      2  C   UNL     1       7.484  16.591  -7.941  1.00  0.00     0.038 C 
ATOM      3  O   UNL     1       7.724  17.454  -7.056  1.00  0.00    -0.550 OA
ATOM      4  O   UNL     1       8.512  16.141  -8.761  1.00  0.00    -0.550 OA
ENDROOT
TORSDOF 0
ENDMDL
