MODEL 1
REMARK VINA RESULT:    -1.371      0.000      0.000
REMARK INTER + INTRA:          -1.224
REMARK INTER:                  -1.612
REMARK INTRA:                   0.388
REMARK UNBOUND:                 0.388
REMARK SMILES O=c1c(O)c(-c2ccc(O)cc2)oc2cc(O)cc(O)c12
REMARK SMILES IDX 5 1 3 2 2 3 1 4 21 5 19 6 18 7 16 8 15 9 14 10 13 11 6 12
REMARK SMILES IDX 7 13 8 14 9 15 12 16 11 17 10 18 4 20 20 22 17 24
REMARK H PARENT 10 19 4 21 20 23 17 25
REMARK Flexibility Score: inf
ROOT
ATOM      1  C   UNL     1      54.296   7.723   6.651  1.00  0.00     0.180 A 
ATOM      2  C   UNL     1      53.084   7.849   7.357  1.00  0.00     0.208 A 
ATOM      3  C   UNL     1      53.096   7.723   8.755  1.00  0.00     0.238 A 
ATOM      4  O   UNL     1      52.015   7.823   9.396  1.00  0.00    -0.285 OA
ATOM      5  C   UNL     1      54.316   7.495   9.423  1.00  0.00     0.111 A 
ATOM      6  C   UNL     1      54.415   7.359  10.829  1.00  0.00     0.134 A 
ATOM      7  C   UNL     1      55.669   7.142  11.420  1.00  0.00     0.093 A 
ATOM      8  C   UNL     1      56.821   7.058  10.636  1.00  0.00     0.123 A 
ATOM      9  C   UNL     1      56.730   7.191   9.247  1.00  0.00     0.094 A 
ATOM     10  C   UNL     1      55.490   7.406   8.639  1.00  0.00     0.146 A 
ATOM     11  O   UNL     1      55.429   7.523   7.317  1.00  0.00    -0.452 OA
ENDROOT
BRANCH   1  12
ATOM     12  C   UNL     1      54.361   7.825   5.175  1.00  0.00     0.021 A 
ATOM     13  C   UNL     1      53.218   7.644   4.377  1.00  0.00     0.016 A 
ATOM     14  C   UNL     1      53.311   7.720   2.984  1.00  0.00     0.047 A 
ATOM     15  C   UNL     1      54.544   7.964   2.371  1.00  0.00     0.115 A 
ATOM     16  C   UNL     1      55.601   8.048   4.553  1.00  0.00     0.016 A 
ATOM     17  C   UNL     1      55.690   8.125   3.159  1.00  0.00     0.047 A 
BRANCH  15  18
ATOM     18  O   UNL     1      54.620   8.039   0.982  1.00  0.00    -0.508 OA
ATOM     19  H   UNL     1      55.420   8.450   0.518  1.00  0.00     0.293 HD
ENDBRANCH  15  18
ENDBRANCH   1  12
BRANCH   2  20
ATOM     20  O   UNL     1      51.896   8.125   6.675  1.00  0.00    -0.502 OA
ATOM     21  H   UNL     1      51.678   7.714   5.776  1.00  0.00     0.293 HD
ENDBRANCH   2  20
BRANCH   6  22
ATOM     22  O   UNL     1      53.283   7.439  11.640  1.00  0.00    -0.507 OA
ATOM     23  H   UNL     1      53.317   7.212  12.627  1.00  0.00     0.293 HD
ENDBRANCH   6  22
BRANCH   8  24
ATOM     24  O   UNL     1      58.054   6.843  11.248  1.00  0.00    -0.508 OA
ATOM     25  H   UNL     1      58.128   6.674  12.245  1.00  0.00     0.293 HD
ENDBRANCH   8  24
TORSDOF 5
ENDMDL
MODEL 2
REMARK VINA RESULT:    -0.010      1.737      7.327
REMARK INTER + INTRA:           0.376
REMARK INTER:                   0.113
REMARK INTRA:                   0.263
REMARK UNBOUND:                 0.388
REMARK SMILES O=c1c(O)c(-c2ccc(O)cc2)oc2cc(O)cc(O)c12
REMARK SMILES IDX 5 1 3 2 2 3 1 4 21 5 19 6 18 7 16 8 15 9 14 10 13 11 6 12
REMARK SMILES IDX 7 13 8 14 9 15 12 16 11 17 10 18 4 20 20 22 17 24
REMARK H PARENT 10 19 4 21 20 23 17 25
REMARK Flexibility Score: inf
ROOT
ATOM      1  C   UNL     1      54.617   7.701   5.971  1.00  0.00     0.180 A 
ATOM      2  C   UNL     1      55.943   7.882   5.533  1.00  0.00     0.208 A 
ATOM      3  C   UNL     1      56.214   7.845   4.156  1.00  0.00     0.238 A 
ATOM      4  O   UNL     1      57.401   7.995   3.753  1.00  0.00    -0.285 OA
ATOM      5  C   UNL     1      55.159   7.649   3.243  1.00  0.00     0.111 A 
ATOM      6  C   UNL     1      55.347   7.602   1.840  1.00  0.00     0.134 A 
ATOM      7  C   UNL     1      54.242   7.412   0.997  1.00  0.00     0.093 A 
ATOM      8  C   UNL     1      52.958   7.268   1.526  1.00  0.00     0.123 A 
ATOM      9  C   UNL     1      52.766   7.314   2.910  1.00  0.00     0.094 A 
ATOM     10  C   UNL     1      53.854   7.500   3.768  1.00  0.00     0.146 A 
ATOM     11  O   UNL     1      53.645   7.534   5.079  1.00  0.00    -0.452 OA
ENDROOT
BRANCH   1  12
ATOM     12  C   UNL     1      54.254   7.709   7.407  1.00  0.00     0.021 A 
ATOM     13  C   UNL     1      55.155   7.266   8.392  1.00  0.00     0.016 A 
ATOM     14  C   UNL     1      54.779   7.260   9.739  1.00  0.00     0.047 A 
ATOM     15  C   UNL     1      53.501   7.680  10.117  1.00  0.00     0.115 A 
ATOM     16  C   UNL     1      52.964   8.111   7.790  1.00  0.00     0.016 A 
ATOM     17  C   UNL     1      52.592   8.104   9.139  1.00  0.00     0.047 A 
BRANCH  15  18
ATOM     18  O   UNL     1      53.142   7.670  11.463  1.00  0.00    -0.508 OA
ATOM     19  H   UNL     1      52.547   8.388  11.858  1.00  0.00     0.293 HD
ENDBRANCH  15  18
ENDBRANCH   1  12
BRANCH   2  20
ATOM     20  O   UNL     1      56.964   8.124   6.456  1.00  0.00    -0.502 OA
ATOM     21  H   UNL     1      56.877   8.813   7.193  1.00  0.00     0.293 HD
ENDBRANCH   2  20
BRANCH   6  22
ATOM     22  O   UNL     1      56.617   7.742   1.281  1.00  0.00    -0.507 OA
ATOM     23  H   UNL     1      57.423   7.990   1.843  1.00  0.00     0.293 HD
ENDBRANCH   6  22
BRANCH   8  24
ATOM     24  O   UNL     1      51.878   7.082   0.665  1.00  0.00    -0.508 OA
ATOM     25  H   UNL     1      51.490   6.162   0.495  1.00  0.00     0.293 HD
ENDBRANCH   8  24
TORSDOF 5
ENDMDL
MODEL 3
REMARK VINA RESULT:     0.243      1.875      7.056
REMARK INTER + INTRA:           0.673
REMARK INTER:                   0.733
REMARK INTRA:                  -0.060
REMARK UNBOUND:                 0.388
REMARK SMILES O=c1c(O)c(-c2ccc(O)cc2)oc2cc(O)cc(O)c12
REMARK SMILES IDX 5 1 3 2 2 3 1 4 21 5 19 6 18 7 16 8 15 9 14 10 13 11 6 12
REMARK SMILES IDX 7 13 8 14 9 15 12 16 11 17 10 18 4 20 20 22 17 24
REMARK H PARENT 10 19 4 21 20 23 17 25
REMARK Flexibility Score: inf
ROOT
ATOM      1  C   UNL     1      54.020   7.475   8.609  1.00  0.00     0.180 A 
ATOM      2  C   UNL     1      55.397   7.625   8.353  1.00  0.00     0.208 A 
ATOM      3  C   UNL     1      55.826   7.790   7.027  1.00  0.00     0.238 A 
ATOM      4  O   UNL     1      57.058   7.914   6.784  1.00  0.00    -0.285 OA
ATOM      5  C   UNL     1      54.876   7.824   5.986  1.00  0.00     0.111 A 
ATOM      6  C   UNL     1      55.226   7.991   4.623  1.00  0.00     0.134 A 
ATOM      7  C   UNL     1      54.219   8.023   3.647  1.00  0.00     0.093 A 
ATOM      8  C   UNL     1      52.876   7.892   4.003  1.00  0.00     0.123 A 
ATOM      9  C   UNL     1      52.524   7.727   5.346  1.00  0.00     0.094 A 
ATOM     10  C   UNL     1      53.512   7.691   6.335  1.00  0.00     0.146 A 
ATOM     11  O   UNL     1      53.152   7.527   7.603  1.00  0.00    -0.452 OA
ENDROOT
BRANCH   1  12
ATOM     12  C   UNL     1      53.491   7.278   9.978  1.00  0.00     0.021 A 
ATOM     13  C   UNL     1      53.948   6.228  10.795  1.00  0.00     0.016 A 
ATOM     14  C   UNL     1      53.415   6.048  12.075  1.00  0.00     0.047 A 
ATOM     15  C   UNL     1      52.414   6.901  12.549  1.00  0.00     0.115 A 
ATOM     16  C   UNL     1      52.471   8.119  10.452  1.00  0.00     0.016 A 
ATOM     17  C   UNL     1      51.941   7.936  11.733  1.00  0.00     0.047 A 
BRANCH  15  18
ATOM     18  O   UNL     1      51.894   6.709  13.828  1.00  0.00    -0.508 OA
ATOM     19  H   UNL     1      50.913   6.500  13.974  1.00  0.00     0.293 HD
ENDBRANCH  15  18
ENDBRANCH   1  12
BRANCH   2  20
ATOM     20  O   UNL     1      56.314   7.638   9.407  1.00  0.00    -0.502 OA
ATOM     21  H   UNL     1      57.099   8.276   9.435  1.00  0.00     0.293 HD
ENDBRANCH   2  20
BRANCH   6  22
ATOM     22  O   UNL     1      56.559   8.124   4.235  1.00  0.00    -0.507 OA
ATOM     23  H   UNL     1      56.911   8.980   3.822  1.00  0.00     0.293 HD
ENDBRANCH   6  22
BRANCH   8  24
ATOM     24  O   UNL     1      51.896   7.928   3.013  1.00  0.00    -0.508 OA
ATOM     25  H   UNL     1      51.543   8.806   2.649  1.00  0.00     0.293 HD
ENDBRANCH   8  24
TORSDOF 5
ENDMDL
MODEL 4
REMARK VINA RESULT:     0.397      3.594      7.230
REMARK INTER + INTRA:           0.855
REMARK INTER:                   1.138
REMARK INTRA:                  -0.283
REMARK UNBOUND:                 0.388
REMARK SMILES O=c1c(O)c(-c2ccc(O)cc2)oc2cc(O)cc(O)c12
REMARK SMILES IDX 5 1 3 2 2 3 1 4 21 5 19 6 18 7 16 8 15 9 14 10 13 11 6 12
REMARK SMILES IDX 7 13 8 14 9 15 12 16 11 17 10 18 4 20 20 22 17 24
REMARK H PARENT 10 19 4 21 20 23 17 25
REMARK Flexibility Score: inf
ROOT
ATOM      1  C   UNL     1      54.243   4.914  11.176  1.00  0.00     0.180 A 
ATOM      2  C   UNL     1      53.558   5.412  10.049  1.00  0.00     0.208 A 
ATOM      3  C   UNL     1      54.223   6.300   9.189  1.00  0.00     0.238 A 
ATOM      4  O   UNL     1      53.615   6.760   8.183  1.00  0.00    -0.285 OA
ATOM      5  C   UNL     1      55.559   6.658   9.454  1.00  0.00     0.111 A 
ATOM      6  C   UNL     1      56.301   7.544   8.635  1.00  0.00     0.134 A 
ATOM      7  C   UNL     1      57.632   7.844   8.963  1.00  0.00     0.093 A 
ATOM      8  C   UNL     1      58.234   7.279  10.088  1.00  0.00     0.123 A 
ATOM      9  C   UNL     1      57.507   6.404  10.901  1.00  0.00     0.094 A 
ATOM     10  C   UNL     1      56.179   6.093  10.593  1.00  0.00     0.146 A 
ATOM     11  O   UNL     1      55.509   5.263  11.385  1.00  0.00    -0.452 OA
ENDROOT
BRANCH   1  12
ATOM     12  C   UNL     1      53.604   3.989  12.139  1.00  0.00     0.021 A 
ATOM     13  C   UNL     1      53.026   4.459  13.332  1.00  0.00     0.016 A 
ATOM     14  C   UNL     1      52.451   3.562  14.238  1.00  0.00     0.047 A 
ATOM     15  C   UNL     1      52.458   2.189  13.973  1.00  0.00     0.115 A 
ATOM     16  C   UNL     1      53.627   2.607  11.888  1.00  0.00     0.016 A 
ATOM     17  C   UNL     1      53.050   1.713  12.796  1.00  0.00     0.047 A 
BRANCH  15  18
ATOM     18  O   UNL     1      51.880   1.309  14.885  1.00  0.00    -0.508 OA
ATOM     19  H   UNL     1      52.355   0.463  15.177  1.00  0.00     0.293 HD
ENDBRANCH  15  18
ENDBRANCH   1  12
BRANCH   2  20
ATOM     20  O   UNL     1      52.250   5.002   9.781  1.00  0.00    -0.502 OA
ATOM     21  H   UNL     1      51.914   4.074  10.010  1.00  0.00     0.293 HD
ENDBRANCH   2  20
BRANCH   6  22
ATOM     22  O   UNL     1      55.729   8.125   7.503  1.00  0.00    -0.507 OA
ATOM     23  H   UNL     1      56.065   7.918   6.570  1.00  0.00     0.293 HD
ENDBRANCH   6  22
BRANCH   8  24
ATOM     24  O   UNL     1      59.557   7.593  10.390  1.00  0.00    -0.508 OA
ATOM     25  H   UNL     1      59.809   8.484  10.802  1.00  0.00     0.293 HD
ENDBRANCH   8  24
TORSDOF 5
ENDMDL
