MODEL 1
REMARK VINA RESULT:    -5.592      0.000      0.000
REMARK INTER + INTRA:          -7.182
REMARK INTER:                  -6.900
REMARK INTRA:                  -0.282
REMARK UNBOUND:                -0.282
REMARK SMILES O=c1c(O)c(-c2cc(O)c(O)c(O)c2)oc2cc(O)cc(O)c12
REMARK SMILES IDX 5 1 3 2 2 3 1 4 23 5 21 6 20 7 18 8 17 9 16 10 15 11 6 12
REMARK SMILES IDX 7 13 8 14 14 15 10 16 12 17 9 18 11 20 13 22 4 24 22 26
REMARK SMILES IDX 19 28
REMARK H PARENT 9 19 11 21 13 23 4 25 22 27 19 29
REMARK Flexibility Score: inf
ROOT
ATOM      1  C   UNL     1     145.553 149.174 137.113  1.00  0.00     0.180 A 
ATOM      2  C   UNL     1     146.018 147.861 137.301  1.00  0.00     0.208 A 
ATOM      3  C   UNL     1     147.399 147.639 137.424  1.00  0.00     0.238 A 
ATOM      4  O   UNL     1     147.813 146.456 137.538  1.00  0.00    -0.285 OA
ATOM      5  C   UNL     1     148.295 148.734 137.375  1.00  0.00     0.111 A 
ATOM      6  C   UNL     1     149.710 148.629 137.529  1.00  0.00     0.134 A 
ATOM      7  C   UNL     1     150.512 149.761 137.331  1.00  0.00     0.093 A 
ATOM      8  C   UNL     1     149.944 151.006 137.050  1.00  0.00     0.123 A 
ATOM      9  C   UNL     1     148.559 151.130 136.957  1.00  0.00     0.094 A 
ATOM     10  C   UNL     1     147.736 150.012 137.113  1.00  0.00     0.146 A 
ATOM     11  O   UNL     1     146.422 150.171 137.004  1.00  0.00    -0.452 OA
ENDROOT
BRANCH   1  12
ATOM     12  C   UNL     1     144.110 149.489 136.999  1.00  0.00     0.029 A 
ATOM     13  C   UNL     1     143.417 150.130 138.037  1.00  0.00     0.062 A 
ATOM     14  C   UNL     1     142.059 150.445 137.910  1.00  0.00     0.162 A 
ATOM     15  C   UNL     1     143.433 149.197 135.807  1.00  0.00     0.062 A 
ATOM     16  C   UNL     1     141.375 150.122 136.715  1.00  0.00     0.200 A 
ATOM     17  C   UNL     1     142.076 149.501 135.664  1.00  0.00     0.162 A 
BRANCH  14  18
ATOM     18  O   UNL     1     141.439 151.081 138.987  1.00  0.00    -0.504 OA
ATOM     19  H   UNL     1     141.097 150.603 139.808  1.00  0.00     0.293 HD
ENDBRANCH  14  18
BRANCH  16  20
ATOM     20  O   UNL     1     140.017 150.400 136.533  1.00  0.00    -0.502 OA
ATOM     21  H   UNL     1     139.665 151.205 136.035  1.00  0.00     0.293 HD
ENDBRANCH  16  20
BRANCH  17  22
ATOM     22  O   UNL     1     141.440 149.177 134.466  1.00  0.00    -0.504 OA
ATOM     23  H   UNL     1     140.828 148.374 134.378  1.00  0.00     0.293 HD
ENDBRANCH  17  22
ENDBRANCH   1  12
BRANCH   2  24
ATOM     24  O   UNL     1     145.117 146.793 137.325  1.00  0.00    -0.502 OA
ATOM     25  H   UNL     1     144.995 146.167 136.538  1.00  0.00     0.293 HD
ENDBRANCH   2  24
BRANCH   6  26
ATOM     26  O   UNL     1     150.371 147.454 137.900  1.00  0.00    -0.507 OA
ATOM     27  H   UNL     1     150.074 146.838 138.641  1.00  0.00     0.293 HD
ENDBRANCH   6  26
BRANCH   8  28
ATOM     28  O   UNL     1     150.747 152.130 136.871  1.00  0.00    -0.508 OA
ATOM     29  H   UNL     1     151.519 152.334 137.495  1.00  0.00     0.293 HD
ENDBRANCH   8  28
TORSDOF 7
ENDMDL
MODEL 2
REMARK VINA RESULT:    -5.539      4.390      7.216
REMARK INTER + INTRA:          -7.117
REMARK INTER:                  -6.816
REMARK INTRA:                  -0.300
REMARK UNBOUND:                -0.282
REMARK SMILES O=c1c(O)c(-c2cc(O)c(O)c(O)c2)oc2cc(O)cc(O)c12
REMARK SMILES IDX 5 1 3 2 2 3 1 4 23 5 21 6 20 7 18 8 17 9 16 10 15 11 6 12
REMARK SMILES IDX 7 13 8 14 14 15 10 16 12 17 9 18 11 20 13 22 4 24 22 26
REMARK SMILES IDX 19 28
REMARK H PARENT 9 19 11 21 13 23 4 25 22 27 19 29
REMARK Flexibility Score: inf
ROOT
ATOM      1  C   UNL     1     149.365 146.906 137.105  1.00  0.00     0.180 A 
ATOM      2  C   UNL     1     148.026 146.507 137.254  1.00  0.00     0.208 A 
ATOM      3  C   UNL     1     147.732 145.138 137.376  1.00  0.00     0.238 A 
ATOM      4  O   UNL     1     146.527 144.784 137.454  1.00  0.00    -0.285 OA
ATOM      5  C   UNL     1     148.783 144.190 137.364  1.00  0.00     0.111 A 
ATOM      6  C   UNL     1     148.604 142.782 137.519  1.00  0.00     0.134 A 
ATOM      7  C   UNL     1     149.701 141.925 137.359  1.00  0.00     0.093 A 
ATOM      8  C   UNL     1     150.980 142.430 137.115  1.00  0.00     0.123 A 
ATOM      9  C   UNL     1     151.174 143.806 137.020  1.00  0.00     0.094 A 
ATOM     10  C   UNL     1     150.094 144.684 137.138  1.00  0.00     0.146 A 
ATOM     11  O   UNL     1     150.321 145.988 137.030  1.00  0.00    -0.452 OA
ENDROOT
BRANCH   1  12
ATOM     12  C   UNL     1     149.753 148.331 136.995  1.00  0.00     0.029 A 
ATOM     13  C   UNL     1     149.546 149.057 135.812  1.00  0.00     0.062 A 
ATOM     14  C   UNL     1     149.894 150.410 135.727  1.00  0.00     0.162 A 
ATOM     15  C   UNL     1     150.283 148.989 138.113  1.00  0.00     0.062 A 
ATOM     16  C   UNL     1     150.455 151.061 136.851  1.00  0.00     0.200 A 
ATOM     17  C   UNL     1     150.640 150.339 138.045  1.00  0.00     0.162 A 
BRANCH  14  18
ATOM     18  O   UNL     1     149.659 151.064 134.515  1.00  0.00    -0.504 OA
ATOM     19  H   UNL     1     149.865 150.669 133.609  1.00  0.00     0.293 HD
ENDBRANCH  14  18
BRANCH  16  20
ATOM     20  O   UNL     1     150.834 152.405 136.822  1.00  0.00    -0.502 OA
ATOM     21  H   UNL     1     151.776 152.732 136.982  1.00  0.00     0.293 HD
ENDBRANCH  16  20
BRANCH  17  22
ATOM     22  O   UNL     1     151.180 150.947 139.178  1.00  0.00    -0.504 OA
ATOM     23  H   UNL     1     150.600 151.379 139.888  1.00  0.00     0.293 HD
ENDBRANCH  17  22
ENDBRANCH   1  12
BRANCH   2  24
ATOM     24  O   UNL     1     147.003 147.459 137.242  1.00  0.00    -0.502 OA
ATOM     25  H   UNL     1     147.181 148.448 137.113  1.00  0.00     0.293 HD
ENDBRANCH   2  24
BRANCH   6  26
ATOM     26  O   UNL     1     147.387 142.182 137.856  1.00  0.00    -0.507 OA
ATOM     27  H   UNL     1     147.289 141.248 138.221  1.00  0.00     0.293 HD
ENDBRANCH   6  26
BRANCH   8  28
ATOM     28  O   UNL     1     152.068 141.572 136.973  1.00  0.00    -0.508 OA
ATOM     29  H   UNL     1     153.021 141.912 137.022  1.00  0.00     0.293 HD
ENDBRANCH   8  28
TORSDOF 7
ENDMDL
MODEL 3
REMARK VINA RESULT:    -5.538      4.237      7.568
REMARK INTER + INTRA:          -7.115
REMARK INTER:                  -6.862
REMARK INTRA:                  -0.253
REMARK UNBOUND:                -0.282
REMARK SMILES O=c1c(O)c(-c2cc(O)c(O)c(O)c2)oc2cc(O)cc(O)c12
REMARK SMILES IDX 5 1 3 2 2 3 1 4 23 5 21 6 20 7 18 8 17 9 16 10 15 11 6 12
REMARK SMILES IDX 7 13 8 14 14 15 10 16 12 17 9 18 11 20 13 22 4 24 22 26
REMARK SMILES IDX 19 28
REMARK H PARENT 9 19 11 21 13 23 4 25 22 27 19 29
REMARK Flexibility Score: inf
ROOT
ATOM      1  C   UNL     1     149.351 145.797 136.994  1.00  0.00     0.180 A 
ATOM      2  C   UNL     1     148.323 146.177 136.115  1.00  0.00     0.208 A 
ATOM      3  C   UNL     1     148.075 147.544 135.907  1.00  0.00     0.238 A 
ATOM      4  O   UNL     1     147.117 147.877 135.162  1.00  0.00    -0.285 OA
ATOM      5  C   UNL     1     148.870 148.511 136.566  1.00  0.00     0.111 A 
ATOM      6  C   UNL     1     148.732 149.922 136.398  1.00  0.00     0.134 A 
ATOM      7  C   UNL     1     149.485 150.789 137.201  1.00  0.00     0.093 A 
ATOM      8  C   UNL     1     150.417 150.296 138.117  1.00  0.00     0.123 A 
ATOM      9  C   UNL     1     150.600 148.921 138.246  1.00  0.00     0.094 A 
ATOM     10  C   UNL     1     149.837 148.031 137.486  1.00  0.00     0.146 A 
ATOM     11  O   UNL     1     150.036 146.728 137.648  1.00  0.00    -0.452 OA
ENDROOT
BRANCH   1  12
ATOM     12  C   UNL     1     149.687 144.376 137.245  1.00  0.00     0.029 A 
ATOM     13  C   UNL     1     150.888 143.816 136.782  1.00  0.00     0.062 A 
ATOM     14  C   UNL     1     151.207 142.479 137.046  1.00  0.00     0.162 A 
ATOM     15  C   UNL     1     148.820 143.588 138.012  1.00  0.00     0.062 A 
ATOM     16  C   UNL     1     150.313 141.681 137.797  1.00  0.00     0.200 A 
ATOM     17  C   UNL     1     149.120 142.250 138.282  1.00  0.00     0.162 A 
BRANCH  14  18
ATOM     18  O   UNL     1     152.419 141.993 136.550  1.00  0.00    -0.504 OA
ATOM     19  H   UNL     1     152.535 141.588 135.633  1.00  0.00     0.293 HD
ENDBRANCH  14  18
BRANCH  16  20
ATOM     20  O   UNL     1     150.570 140.337 138.082  1.00  0.00    -0.502 OA
ATOM     21  H   UNL     1     150.302 139.878 138.940  1.00  0.00     0.293 HD
ENDBRANCH  16  20
BRANCH  17  22
ATOM     22  O   UNL     1     148.218 141.500 139.036  1.00  0.00    -0.504 OA
ATOM     23  H   UNL     1     148.520 140.845 139.747  1.00  0.00     0.293 HD
ENDBRANCH  17  22
ENDBRANCH   1  12
BRANCH   2  24
ATOM     24  O   UNL     1     147.536 145.204 135.491  1.00  0.00    -0.502 OA
ATOM     25  H   UNL     1     146.792 144.715 135.974  1.00  0.00     0.293 HD
ENDBRANCH   2  24
BRANCH   6  26
ATOM     26  O   UNL     1     147.900 150.518 135.446  1.00  0.00    -0.507 OA
ATOM     27  H   UNL     1     147.844 150.242 134.478  1.00  0.00     0.293 HD
ENDBRANCH   6  26
BRANCH   8  28
ATOM     28  O   UNL     1     151.173 151.166 138.900  1.00  0.00    -0.508 OA
ATOM     29  H   UNL     1     150.826 151.521 139.783  1.00  0.00     0.293 HD
ENDBRANCH   8  28
TORSDOF 7
ENDMDL
MODEL 4
REMARK VINA RESULT:    -5.532      5.153      9.571
REMARK INTER + INTRA:          -7.107
REMARK INTER:                  -6.851
REMARK INTRA:                  -0.257
REMARK UNBOUND:                -0.282
REMARK SMILES O=c1c(O)c(-c2cc(O)c(O)c(O)c2)oc2cc(O)cc(O)c12
REMARK SMILES IDX 5 1 3 2 2 3 1 4 23 5 21 6 20 7 18 8 17 9 16 10 15 11 6 12
REMARK SMILES IDX 7 13 8 14 14 15 10 16 12 17 9 18 11 20 13 22 4 24 22 26
REMARK SMILES IDX 19 28
REMARK H PARENT 9 19 11 21 13 23 4 25 22 27 19 29
REMARK Flexibility Score: inf
ROOT
ATOM      1  C   UNL     1     146.864 143.487 137.110  1.00  0.00     0.180 A 
ATOM      2  C   UNL     1     146.394 144.801 137.276  1.00  0.00     0.208 A 
ATOM      3  C   UNL     1     145.012 145.019 137.407  1.00  0.00     0.238 A 
ATOM      4  O   UNL     1     144.594 146.202 137.501  1.00  0.00    -0.285 OA
ATOM      5  C   UNL     1     144.122 143.920 137.386  1.00  0.00     0.111 A 
ATOM      6  C   UNL     1     142.707 144.021 137.550  1.00  0.00     0.134 A 
ATOM      7  C   UNL     1     141.910 142.882 137.381  1.00  0.00     0.093 A 
ATOM      8  C   UNL     1     142.481 141.634 137.119  1.00  0.00     0.123 A 
ATOM      9  C   UNL     1     143.865 141.515 137.016  1.00  0.00     0.094 A 
ATOM     10  C   UNL     1     144.684 142.640 137.144  1.00  0.00     0.146 A 
ATOM     11  O   UNL     1     145.998 142.484 137.028  1.00  0.00    -0.452 OA
ENDROOT
BRANCH   1  12
ATOM     12  C   UNL     1     148.307 143.177 136.990  1.00  0.00     0.029 A 
ATOM     13  C   UNL     1     148.998 142.506 138.010  1.00  0.00     0.062 A 
ATOM     14  C   UNL     1     150.356 142.195 137.877  1.00  0.00     0.162 A 
ATOM     15  C   UNL     1     148.987 143.504 135.809  1.00  0.00     0.062 A 
ATOM     16  C   UNL     1     151.044 142.554 136.693  1.00  0.00     0.200 A 
ATOM     17  C   UNL     1     150.344 143.205 135.660  1.00  0.00     0.162 A 
BRANCH  14  18
ATOM     18  O   UNL     1     150.975 141.528 138.936  1.00  0.00    -0.504 OA
ATOM     19  H   UNL     1     151.882 141.089 138.877  1.00  0.00     0.293 HD
ENDBRANCH  14  18
BRANCH  16  20
ATOM     20  O   UNL     1     152.402 142.283 136.507  1.00  0.00    -0.502 OA
ATOM     21  H   UNL     1     152.964 142.683 135.770  1.00  0.00     0.293 HD
ENDBRANCH  16  20
BRANCH  17  22
ATOM     22  O   UNL     1     150.982 143.566 134.473  1.00  0.00    -0.504 OA
ATOM     23  H   UNL     1     151.875 143.173 134.198  1.00  0.00     0.293 HD
ENDBRANCH  17  22
ENDBRANCH   1  12
BRANCH   2  24
ATOM     24  O   UNL     1     147.290 145.874 137.272  1.00  0.00    -0.502 OA
ATOM     25  H   UNL     1     147.684 146.257 138.123  1.00  0.00     0.293 HD
ENDBRANCH   2  24
BRANCH   6  26
ATOM     26  O   UNL     1     142.045 145.200 137.904  1.00  0.00    -0.507 OA
ATOM     27  H   UNL     1     142.325 145.814 138.652  1.00  0.00     0.293 HD
ENDBRANCH   6  26
BRANCH   8  28
ATOM     28  O   UNL     1     141.682 140.504 136.968  1.00  0.00    -0.508 OA
ATOM     29  H   UNL     1     141.839 139.840 136.219  1.00  0.00     0.293 HD
ENDBRANCH   8  28
TORSDOF 7
ENDMDL
MODEL 5
REMARK VINA RESULT:    -5.524      5.582      7.051
REMARK INTER + INTRA:          -7.098
REMARK INTER:                  -6.845
REMARK INTRA:                  -0.253
REMARK UNBOUND:                -0.282
REMARK SMILES O=c1c(O)c(-c2cc(O)c(O)c(O)c2)oc2cc(O)cc(O)c12
REMARK SMILES IDX 5 1 3 2 2 3 1 4 23 5 21 6 20 7 18 8 17 9 16 10 15 11 6 12
REMARK SMILES IDX 7 13 8 14 14 15 10 16 12 17 9 18 11 20 13 22 4 24 22 26
REMARK SMILES IDX 19 28
REMARK H PARENT 9 19 11 21 13 23 4 25 22 27 19 29
REMARK Flexibility Score: inf
ROOT
ATOM      1  C   UNL     1     145.800 143.299 136.971  1.00  0.00     0.180 A 
ATOM      2  C   UNL     1     146.174 144.336 136.100  1.00  0.00     0.208 A 
ATOM      3  C   UNL     1     147.539 144.588 135.886  1.00  0.00     0.238 A 
ATOM      4  O   UNL     1     147.867 145.552 135.147  1.00  0.00    -0.285 OA
ATOM      5  C   UNL     1     148.512 143.788 136.532  1.00  0.00     0.111 A 
ATOM      6  C   UNL     1     149.921 143.928 136.358  1.00  0.00     0.134 A 
ATOM      7  C   UNL     1     150.794 143.169 137.148  1.00  0.00     0.093 A 
ATOM      8  C   UNL     1     150.307 142.228 138.059  1.00  0.00     0.123 A 
ATOM      9  C   UNL     1     148.933 142.043 138.194  1.00  0.00     0.094 A 
ATOM     10  C   UNL     1     148.038 142.811 137.446  1.00  0.00     0.146 A 
ATOM     11  O   UNL     1     146.735 142.610 137.614  1.00  0.00    -0.452 OA
ENDROOT
BRANCH   1  12
ATOM     12  C   UNL     1     144.381 142.960 137.227  1.00  0.00     0.029 A 
ATOM     13  C   UNL     1     143.820 141.761 136.759  1.00  0.00     0.062 A 
ATOM     14  C   UNL     1     142.485 141.438 137.027  1.00  0.00     0.162 A 
ATOM     15  C   UNL     1     143.595 143.821 138.004  1.00  0.00     0.062 A 
ATOM     16  C   UNL     1     141.689 142.326 137.789  1.00  0.00     0.200 A 
ATOM     17  C   UNL     1     142.259 143.516 138.278  1.00  0.00     0.162 A 
BRANCH  14  18
ATOM     18  O   UNL     1     141.999 140.228 136.526  1.00  0.00    -0.504 OA
ATOM     19  H   UNL     1     141.187 139.751 136.889  1.00  0.00     0.293 HD
ENDBRANCH  14  18
BRANCH  16  20
ATOM     20  O   UNL     1     140.347 142.065 138.078  1.00  0.00    -0.502 OA
ATOM     21  H   UNL     1     139.961 142.053 139.011  1.00  0.00     0.293 HD
ENDBRANCH  16  20
BRANCH  17  22
ATOM     22  O   UNL     1     141.512 144.413 139.042  1.00  0.00    -0.504 OA
ATOM     23  H   UNL     1     140.499 144.419 139.031  1.00  0.00     0.293 HD
ENDBRANCH  17  22
ENDBRANCH   1  12
BRANCH   2  24
ATOM     24  O   UNL     1     145.197 145.128 135.488  1.00  0.00    -0.502 OA
ATOM     25  H   UNL     1     144.758 144.870 134.613  1.00  0.00     0.293 HD
ENDBRANCH   2  24
BRANCH   6  26
ATOM     26  O   UNL     1     150.511 144.770 135.410  1.00  0.00    -0.507 OA
ATOM     27  H   UNL     1     150.002 145.373 134.782  1.00  0.00     0.293 HD
ENDBRANCH   6  26
BRANCH   8  28
ATOM     28  O   UNL     1     151.181 141.466 138.830  1.00  0.00    -0.508 OA
ATOM     29  H   UNL     1     150.968 140.509 139.083  1.00  0.00     0.293 HD
ENDBRANCH   8  28
TORSDOF 7
ENDMDL
MODEL 6
REMARK VINA RESULT:    -5.521      4.175      6.917
REMARK INTER + INTRA:          -7.094
REMARK INTER:                  -6.848
REMARK INTRA:                  -0.246
REMARK UNBOUND:                -0.282
REMARK SMILES O=c1c(O)c(-c2cc(O)c(O)c(O)c2)oc2cc(O)cc(O)c12
REMARK SMILES IDX 5 1 3 2 2 3 1 4 23 5 21 6 20 7 18 8 17 9 16 10 15 11 6 12
REMARK SMILES IDX 7 13 8 14 14 15 10 16 12 17 9 18 11 20 13 22 4 24 22 26
REMARK SMILES IDX 19 28
REMARK H PARENT 9 19 11 21 13 23 4 25 22 27 19 29
REMARK Flexibility Score: inf
ROOT
ATOM      1  C   UNL     1     143.431 145.685 137.084  1.00  0.00     0.180 A 
ATOM      2  C   UNL     1     144.748 146.134 137.281  1.00  0.00     0.208 A 
ATOM      3  C   UNL     1     144.983 147.509 137.439  1.00  0.00     0.238 A 
ATOM      4  O   UNL     1     146.170 147.909 137.561  1.00  0.00    -0.285 OA
ATOM      5  C   UNL     1     143.897 148.416 137.415  1.00  0.00     0.111 A 
ATOM      6  C   UNL     1     144.015 149.826 137.605  1.00  0.00     0.134 A 
ATOM      7  C   UNL     1     142.890 150.643 137.430  1.00  0.00     0.093 A 
ATOM      8  C   UNL     1     141.640 150.093 137.137  1.00  0.00     0.123 A 
ATOM      9  C   UNL     1     141.503 148.713 137.009  1.00  0.00     0.094 A 
ATOM     10  C   UNL     1     142.613 147.876 137.141  1.00  0.00     0.146 A 
ATOM     11  O   UNL     1     142.441 146.567 137.000  1.00  0.00    -0.452 OA
ENDROOT
BRANCH   1  12
ATOM     12  C   UNL     1     143.102 144.249 136.933  1.00  0.00     0.029 A 
ATOM     13  C   UNL     1     143.481 143.528 135.791  1.00  0.00     0.062 A 
ATOM     14  C   UNL     1     143.188 142.165 135.669  1.00  0.00     0.162 A 
ATOM     15  C   UNL     1     142.453 143.577 137.978  1.00  0.00     0.062 A 
ATOM     16  C   UNL     1     142.507 141.499 136.716  1.00  0.00     0.200 A 
ATOM     17  C   UNL     1     142.149 142.217 137.872  1.00  0.00     0.162 A 
BRANCH  14  18
ATOM     18  O   UNL     1     143.596 141.516 134.501  1.00  0.00    -0.504 OA
ATOM     19  H   UNL     1     143.315 140.581 134.245  1.00  0.00     0.293 HD
ENDBRANCH  14  18
BRANCH  16  20
ATOM     20  O   UNL     1     142.175 140.143 136.647  1.00  0.00    -0.502 OA
ATOM     21  H   UNL     1     142.380 139.549 135.857  1.00  0.00     0.293 HD
ENDBRANCH  16  20
BRANCH  17  22
ATOM     22  O   UNL     1     141.487 141.595 138.930  1.00  0.00    -0.504 OA
ATOM     23  H   UNL     1     140.628 141.963 139.323  1.00  0.00     0.293 HD
ENDBRANCH  17  22
ENDBRANCH   1  12
BRANCH   2  24
ATOM     24  O   UNL     1     145.808 145.222 137.280  1.00  0.00    -0.502 OA
ATOM     25  H   UNL     1     145.671 144.229 137.139  1.00  0.00     0.293 HD
ENDBRANCH   2  24
BRANCH   6  26
ATOM     26  O   UNL     1     145.197 150.465 137.991  1.00  0.00    -0.507 OA
ATOM     27  H   UNL     1     145.741 151.074 137.398  1.00  0.00     0.293 HD
ENDBRANCH   6  26
BRANCH   8  28
ATOM     28  O   UNL     1     140.523 150.912 136.981  1.00  0.00    -0.508 OA
ATOM     29  H   UNL     1     140.024 150.964 136.101  1.00  0.00     0.293 HD
ENDBRANCH   8  28
TORSDOF 7
ENDMDL
MODEL 7
REMARK VINA RESULT:    -5.520      1.361      3.039
REMARK INTER + INTRA:          -7.093
REMARK INTER:                  -6.755
REMARK INTRA:                  -0.338
REMARK UNBOUND:                -0.282
REMARK SMILES O=c1c(O)c(-c2cc(O)c(O)c(O)c2)oc2cc(O)cc(O)c12
REMARK SMILES IDX 5 1 3 2 2 3 1 4 23 5 21 6 20 7 18 8 17 9 16 10 15 11 6 12
REMARK SMILES IDX 7 13 8 14 14 15 10 16 12 17 9 18 11 20 13 22 4 24 22 26
REMARK SMILES IDX 19 28
REMARK H PARENT 9 19 11 21 13 23 4 25 22 27 19 29
REMARK Flexibility Score: inf
ROOT
ATOM      1  C   UNL     1     145.544 150.841 136.605  1.00  0.00     0.180 A 
ATOM      2  C   UNL     1     146.077 152.079 136.207  1.00  0.00     0.208 A 
ATOM      3  C   UNL     1     147.466 152.277 136.275  1.00  0.00     0.238 A 
ATOM      4  O   UNL     1     147.931 153.405 135.969  1.00  0.00    -0.285 OA
ATOM      5  C   UNL     1     148.304 151.229 136.724  1.00  0.00     0.111 A 
ATOM      6  C   UNL     1     149.728 151.305 136.795  1.00  0.00     0.134 A 
ATOM      7  C   UNL     1     150.447 150.254 137.379  1.00  0.00     0.093 A 
ATOM      8  C   UNL     1     149.800 149.103 137.833  1.00  0.00     0.123 A 
ATOM      9  C   UNL     1     148.416 148.994 137.713  1.00  0.00     0.094 A 
ATOM     10  C   UNL     1     147.668 150.041 137.170  1.00  0.00     0.146 A 
ATOM     11  O   UNL     1     146.350 149.902 137.084  1.00  0.00    -0.452 OA
ENDROOT
BRANCH   1  12
ATOM     12  C   UNL     1     144.093 150.551 136.538  1.00  0.00     0.029 A 
ATOM     13  C   UNL     1     143.217 150.967 137.552  1.00  0.00     0.062 A 
ATOM     14  C   UNL     1     141.844 150.710 137.468  1.00  0.00     0.162 A 
ATOM     15  C   UNL     1     143.571 149.901 135.412  1.00  0.00     0.062 A 
ATOM     16  C   UNL     1     141.327 150.028 136.341  1.00  0.00     0.200 A 
ATOM     17  C   UNL     1     142.203 149.632 135.313  1.00  0.00     0.162 A 
BRANCH  14  18
ATOM     18  O   UNL     1     141.036 151.154 138.518  1.00  0.00    -0.504 OA
ATOM     19  H   UNL     1     141.389 151.494 139.400  1.00  0.00     0.293 HD
ENDBRANCH  14  18
BRANCH  16  20
ATOM     20  O   UNL     1     139.968 149.731 136.207  1.00  0.00    -0.502 OA
ATOM     21  H   UNL     1     139.477 149.053 136.772  1.00  0.00     0.293 HD
ENDBRANCH  16  20
BRANCH  17  22
ATOM     22  O   UNL     1     141.732 148.967 134.181  1.00  0.00    -0.504 OA
ATOM     23  H   UNL     1     141.152 148.138 134.242  1.00  0.00     0.293 HD
ENDBRANCH  17  22
ENDBRANCH   1  12
BRANCH   2  24
ATOM     24  O   UNL     1     145.228 153.108 135.787  1.00  0.00    -0.502 OA
ATOM     25  H   UNL     1     145.417 153.667 134.964  1.00  0.00     0.293 HD
ENDBRANCH   2  24
BRANCH   6  26
ATOM     26  O   UNL     1     150.479 152.369 136.286  1.00  0.00    -0.507 OA
ATOM     27  H   UNL     1     151.118 152.931 136.826  1.00  0.00     0.293 HD
ENDBRANCH   6  26
BRANCH   8  28
ATOM     28  O   UNL     1     150.524 148.056 138.398  1.00  0.00    -0.508 OA
ATOM     29  H   UNL     1     151.468 147.843 138.098  1.00  0.00     0.293 HD
ENDBRANCH   8  28
TORSDOF 7
ENDMDL
MODEL 8
REMARK VINA RESULT:    -5.506      4.526      7.504
REMARK INTER + INTRA:          -7.076
REMARK INTER:                  -6.742
REMARK INTRA:                  -0.335
REMARK UNBOUND:                -0.282
REMARK SMILES O=c1c(O)c(-c2cc(O)c(O)c(O)c2)oc2cc(O)cc(O)c12
REMARK SMILES IDX 5 1 3 2 2 3 1 4 23 5 21 6 20 7 18 8 17 9 16 10 15 11 6 12
REMARK SMILES IDX 7 13 8 14 14 15 10 16 12 17 9 18 11 20 13 22 4 24 22 26
REMARK SMILES IDX 19 28
REMARK H PARENT 9 19 11 21 13 23 4 25 22 27 19 29
REMARK Flexibility Score: inf
ROOT
ATOM      1  C   UNL     1     141.850 145.583 136.599  1.00  0.00     0.180 A 
ATOM      2  C   UNL     1     140.610 146.116 136.208  1.00  0.00     0.208 A 
ATOM      3  C   UNL     1     140.407 147.503 136.294  1.00  0.00     0.238 A 
ATOM      4  O   UNL     1     139.276 147.967 135.994  1.00  0.00    -0.285 OA
ATOM      5  C   UNL     1     141.452 148.340 136.751  1.00  0.00     0.111 A 
ATOM      6  C   UNL     1     141.369 149.763 136.840  1.00  0.00     0.134 A 
ATOM      7  C   UNL     1     142.418 150.479 137.430  1.00  0.00     0.093 A 
ATOM      8  C   UNL     1     143.573 149.831 137.875  1.00  0.00     0.123 A 
ATOM      9  C   UNL     1     143.687 148.450 137.739  1.00  0.00     0.094 A 
ATOM     10  C   UNL     1     142.642 147.704 137.188  1.00  0.00     0.146 A 
ATOM     11  O   UNL     1     142.787 146.387 137.086  1.00  0.00    -0.452 OA
ENDROOT
BRANCH   1  12
ATOM     12  C   UNL     1     142.146 144.135 136.514  1.00  0.00     0.029 A 
ATOM     13  C   UNL     1     141.721 143.242 137.510  1.00  0.00     0.062 A 
ATOM     14  C   UNL     1     141.984 141.871 137.409  1.00  0.00     0.162 A 
ATOM     15  C   UNL     1     142.812 143.631 135.388  1.00  0.00     0.062 A 
ATOM     16  C   UNL     1     142.682 141.373 136.283  1.00  0.00     0.200 A 
ATOM     17  C   UNL     1     143.087 142.266 135.272  1.00  0.00     0.162 A 
BRANCH  14  18
ATOM     18  O   UNL     1     141.530 141.046 138.441  1.00  0.00    -0.504 OA
ATOM     19  H   UNL     1     141.138 141.386 139.306  1.00  0.00     0.293 HD
ENDBRANCH  14  18
BRANCH  16  20
ATOM     20  O   UNL     1     142.985 140.018 136.132  1.00  0.00    -0.502 OA
ATOM     21  H   UNL     1     143.394 139.444 136.855  1.00  0.00     0.293 HD
ENDBRANCH  16  20
BRANCH  17  22
ATOM     22  O   UNL     1     143.767 141.814 134.142  1.00  0.00    -0.504 OA
ATOM     23  H   UNL     1     144.778 141.796 134.089  1.00  0.00     0.293 HD
ENDBRANCH  17  22
ENDBRANCH   1  12
BRANCH   2  24
ATOM     24  O   UNL     1     139.584 145.268 135.780  1.00  0.00    -0.502 OA
ATOM     25  H   UNL     1     139.624 144.263 135.899  1.00  0.00     0.293 HD
ENDBRANCH   2  24
BRANCH   6  26
ATOM     26  O   UNL     1     140.302 150.515 136.341  1.00  0.00    -0.507 OA
ATOM     27  H   UNL     1     139.343 150.205 136.314  1.00  0.00     0.293 HD
ENDBRANCH   6  26
BRANCH   8  28
ATOM     28  O   UNL     1     144.618 150.553 138.447  1.00  0.00    -0.508 OA
ATOM     29  H   UNL     1     144.510 151.527 138.705  1.00  0.00     0.293 HD
ENDBRANCH   8  28
TORSDOF 7
ENDMDL
MODEL 9
REMARK VINA RESULT:    -5.497      5.305      7.364
REMARK INTER + INTRA:          -7.065
REMARK INTER:                  -6.751
REMARK INTRA:                  -0.314
REMARK UNBOUND:                -0.282
REMARK SMILES O=c1c(O)c(-c2cc(O)c(O)c(O)c2)oc2cc(O)cc(O)c12
REMARK SMILES IDX 5 1 3 2 2 3 1 4 23 5 21 6 20 7 18 8 17 9 16 10 15 11 6 12
REMARK SMILES IDX 7 13 8 14 14 15 10 16 12 17 9 18 11 20 13 22 4 24 22 26
REMARK SMILES IDX 19 28
REMARK H PARENT 9 19 11 21 13 23 4 25 22 27 19 29
REMARK Flexibility Score: inf
ROOT
ATOM      1  C   UNL     1     150.842 147.173 136.596  1.00  0.00     0.180 A 
ATOM      2  C   UNL     1     152.091 146.640 136.232  1.00  0.00     0.208 A 
ATOM      3  C   UNL     1     152.282 145.250 136.294  1.00  0.00     0.238 A 
ATOM      4  O   UNL     1     153.419 144.784 136.020  1.00  0.00    -0.285 OA
ATOM      5  C   UNL     1     151.218 144.411 136.702  1.00  0.00     0.111 A 
ATOM      6  C   UNL     1     151.289 142.986 136.763  1.00  0.00     0.134 A 
ATOM      7  C   UNL     1     150.218 142.265 137.306  1.00  0.00     0.093 A 
ATOM      8  C   UNL     1     149.054 142.911 137.729  1.00  0.00     0.123 A 
ATOM      9  C   UNL     1     148.953 144.296 137.618  1.00  0.00     0.094 A 
ATOM     10  C   UNL     1     150.019 145.046 137.115  1.00  0.00     0.146 A 
ATOM     11  O   UNL     1     149.885 146.365 137.037  1.00  0.00    -0.452 OA
ENDROOT
BRANCH   1  12
ATOM     12  C   UNL     1     150.558 148.625 136.533  1.00  0.00     0.029 A 
ATOM     13  C   UNL     1     151.027 149.506 137.520  1.00  0.00     0.062 A 
ATOM     14  C   UNL     1     150.775 150.880 137.438  1.00  0.00     0.162 A 
ATOM     15  C   UNL     1     149.858 149.144 135.436  1.00  0.00     0.062 A 
ATOM     16  C   UNL     1     150.042 151.393 136.342  1.00  0.00     0.200 A 
ATOM     17  C   UNL     1     149.592 150.513 135.340  1.00  0.00     0.162 A 
BRANCH  14  18
ATOM     18  O   UNL     1     151.273 151.691 138.460  1.00  0.00    -0.504 OA
ATOM     19  H   UNL     1     152.244 151.727 138.732  1.00  0.00     0.293 HD
ENDBRANCH  14  18
BRANCH  16  20
ATOM     20  O   UNL     1     149.747 152.753 136.212  1.00  0.00    -0.502 OA
ATOM     21  H   UNL     1     148.876 153.112 135.850  1.00  0.00     0.293 HD
ENDBRANCH  16  20
BRANCH  17  22
ATOM     22  O   UNL     1     148.877 150.981 134.238  1.00  0.00    -0.504 OA
ATOM     23  H   UNL     1     149.034 150.628 133.301  1.00  0.00     0.293 HD
ENDBRANCH  17  22
ENDBRANCH   1  12
BRANCH   2  24
ATOM     24  O   UNL     1     153.134 147.490 135.854  1.00  0.00    -0.502 OA
ATOM     25  H   UNL     1     153.126 148.483 136.052  1.00  0.00     0.293 HD
ENDBRANCH   2  24
BRANCH   6  26
ATOM     26  O   UNL     1     152.366 142.237 136.281  1.00  0.00    -0.507 OA
ATOM     27  H   UNL     1     152.659 141.346 136.653  1.00  0.00     0.293 HD
ENDBRANCH   6  26
BRANCH   8  28
ATOM     28  O   UNL     1     147.988 142.185 138.253  1.00  0.00    -0.508 OA
ATOM     29  H   UNL     1     147.249 141.826 137.659  1.00  0.00     0.293 HD
ENDBRANCH   8  28
TORSDOF 7
ENDMDL
