MODEL 1
REMARK VINA RESULT:    -3.384      0.000      0.000
REMARK INTER + INTRA:          -3.939
REMARK INTER:                  -3.977
REMARK INTRA:                   0.037
REMARK UNBOUND:                 0.037
REMARK SMILES CCCCC(=O)[O-]
REMARK SMILES IDX 4 1 5 2 6 3 7 4 3 5 2 6 1 7
REMARK H PARENT
REMARK Flexibility Score: inf
ROOT
ATOM      1  C   UNL     1      17.658  12.454  25.349  1.00  0.00     0.053 C 
ENDROOT
BRANCH   1   2
ATOM      2  C   UNL     1      18.006  11.430  26.385  1.00  0.00     0.041 C 
ATOM      3  O   UNL     1      19.100  11.501  27.005  1.00  0.00    -0.550 OA
ATOM      4  O   UNL     1      17.107  10.416  26.690  1.00  0.00    -0.550 OA
ENDBRANCH   1   2
BRANCH   1   5
ATOM      5  C   UNL     1      17.509  13.854  25.960  1.00  0.00     0.006 C 
BRANCH   5   6
ATOM      6  C   UNL     1      16.054  14.343  25.943  1.00  0.00    -0.003 C 
ATOM      7  C   UNL     1      15.080  13.170  25.900  1.00  0.00     0.004 C 
ENDBRANCH   5   6
ENDBRANCH   1   5
TORSDOF 3
ENDMDL
MODEL 2
REMARK VINA RESULT:    -3.380      0.912      2.006
REMARK INTER + INTRA:          -3.935
REMARK INTER:                  -3.927
REMARK INTRA:                  -0.008
REMARK UNBOUND:                 0.037
REMARK SMILES CCCCC(=O)[O-]
REMARK SMILES IDX 4 1 5 2 6 3 7 4 3 5 2 6 1 7
REMARK H PARENT
REMARK Flexibility Score: inf
ROOT
ATOM      1  C   UNL     1      16.562  12.204  27.355  1.00  0.00     0.053 C 
ENDROOT
BRANCH   1   2
ATOM      2  C   UNL     1      17.589  11.218  26.889  1.00  0.00     0.041 C 
ATOM      3  O   UNL     1      17.236  10.084  26.469  1.00  0.00    -0.550 OA
ATOM      4  O   UNL     1      18.935  11.563  26.889  1.00  0.00    -0.550 OA
ENDBRANCH   1   2
BRANCH   1   5
ATOM      5  C   UNL     1      15.713  12.733  26.191  1.00  0.00     0.006 C 
BRANCH   5   6
ATOM      6  C   UNL     1      15.961  14.225  25.923  1.00  0.00    -0.003 C 
ATOM      7  C   UNL     1      17.435  14.493  25.634  1.00  0.00     0.004 C 
ENDBRANCH   5   6
ENDBRANCH   1   5
TORSDOF 3
ENDMDL
MODEL 3
REMARK VINA RESULT:    -3.309      2.389      3.481
REMARK INTER + INTRA:          -3.851
REMARK INTER:                  -3.803
REMARK INTRA:                  -0.048
REMARK UNBOUND:                 0.037
REMARK SMILES CCCCC(=O)[O-]
REMARK SMILES IDX 4 1 5 2 6 3 7 4 3 5 2 6 1 7
REMARK H PARENT
REMARK Flexibility Score: inf
ROOT
ATOM      1  C   UNL     1      16.806  12.635  25.143  1.00  0.00     0.053 C 
ENDROOT
BRANCH   1   2
ATOM      2  C   UNL     1      15.914  13.683  25.735  1.00  0.00     0.041 C 
ATOM      3  O   UNL     1      14.788  13.367  26.204  1.00  0.00    -0.550 OA
ATOM      4  O   UNL     1      16.339  15.004  25.798  1.00  0.00    -0.550 OA
ENDBRANCH   1   2
BRANCH   1   5
ATOM      5  C   UNL     1      18.198  12.642  25.791  1.00  0.00     0.006 C 
BRANCH   5   6
ATOM      6  C   UNL     1      18.403  11.450  26.738  1.00  0.00    -0.003 C 
ATOM      7  C   UNL     1      17.237  10.471  26.649  1.00  0.00     0.004 C 
ENDBRANCH   5   6
ENDBRANCH   1   5
TORSDOF 3
ENDMDL
MODEL 4
REMARK VINA RESULT:    -3.063     12.185     12.973
REMARK INTER + INTRA:          -3.563
REMARK INTER:                  -3.481
REMARK INTRA:                  -0.082
REMARK UNBOUND:                 0.037
REMARK SMILES CCCCC(=O)[O-]
REMARK SMILES IDX 4 1 5 2 6 3 7 4 3 5 2 6 1 7
REMARK H PARENT
REMARK Flexibility Score: inf
ROOT
ATOM      1  C   UNL     1       9.036  22.263  30.296  1.00  0.00     0.053 C 
ENDROOT
BRANCH   1   2
ATOM      2  C   UNL     1      10.326  21.559  30.585  1.00  0.00     0.041 C 
ATOM      3  O   UNL     1      10.327  20.466  31.211  1.00  0.00    -0.550 OA
ATOM      4  O   UNL     1      11.526  22.094  30.134  1.00  0.00    -0.550 OA
ENDBRANCH   1   2
BRANCH   1   5
ATOM      5  C   UNL     1       8.465  21.866  28.928  1.00  0.00     0.006 C 
BRANCH   5   6
ATOM      6  C   UNL     1       6.978  21.492  29.006  1.00  0.00    -0.003 C 
ATOM      7  C   UNL     1       6.623  20.930  30.379  1.00  0.00     0.004 C 
ENDBRANCH   5   6
ENDBRANCH   1   5
TORSDOF 3
ENDMDL
MODEL 5
REMARK VINA RESULT:    -2.906     12.664     13.575
REMARK INTER + INTRA:          -3.379
REMARK INTER:                  -3.282
REMARK INTRA:                  -0.096
REMARK UNBOUND:                 0.037
REMARK SMILES CCCCC(=O)[O-]
REMARK SMILES IDX 4 1 5 2 6 3 7 4 3 5 2 6 1 7
REMARK H PARENT
REMARK Flexibility Score: inf
ROOT
ATOM      1  C   UNL     1       8.559  21.670  28.894  1.00  0.00     0.053 C 
ENDROOT
BRANCH   1   2
ATOM      2  C   UNL     1       7.070  21.639  29.060  1.00  0.00     0.041 C 
ATOM      3  O   UNL     1       6.328  22.257  28.251  1.00  0.00    -0.550 OA
ATOM      4  O   UNL     1       6.500  20.902  30.090  1.00  0.00    -0.550 OA
ENDBRANCH   1   2
BRANCH   1   5
ATOM      5  C   UNL     1       9.247  22.368  30.074  1.00  0.00     0.006 C 
BRANCH   5   6
ATOM      6  C   UNL     1      10.418  21.546  30.632  1.00  0.00    -0.003 C 
ATOM      7  C   UNL     1       9.968  20.142  31.022  1.00  0.00     0.004 C 
ENDBRANCH   5   6
ENDBRANCH   1   5
TORSDOF 3
ENDMDL
MODEL 6
REMARK VINA RESULT:    -2.899     11.088     11.948
REMARK INTER + INTRA:          -3.369
REMARK INTER:                  -3.267
REMARK INTRA:                  -0.103
REMARK UNBOUND:                 0.037
REMARK SMILES CCCCC(=O)[O-]
REMARK SMILES IDX 4 1 5 2 6 3 7 4 3 5 2 6 1 7
REMARK H PARENT
REMARK Flexibility Score: inf
ROOT
ATOM      1  C   UNL     1      10.446   4.227  23.304  1.00  0.00     0.053 C 
ENDROOT
BRANCH   1   2
ATOM      2  C   UNL     1      11.380   3.683  22.267  1.00  0.00     0.041 C 
ATOM      3  O   UNL     1      12.519   3.260  22.599  1.00  0.00    -0.550 OA
ATOM      4  O   UNL     1      10.980   3.614  20.939  1.00  0.00    -0.550 OA
ENDBRANCH   1   2
BRANCH   1   5
ATOM      5  C   UNL     1       9.139   3.424  23.369  1.00  0.00     0.006 C 
BRANCH   5   6
ATOM      6  C   UNL     1       7.901   4.315  23.185  1.00  0.00    -0.003 C 
ATOM      7  C   UNL     1       7.632   4.583  21.707  1.00  0.00     0.004 C 
ENDBRANCH   5   6
ENDBRANCH   1   5
TORSDOF 3
ENDMDL
MODEL 7
REMARK VINA RESULT:    -2.884     11.771     12.681
REMARK INTER + INTRA:          -3.353
REMARK INTER:                  -3.369
REMARK INTRA:                   0.016
REMARK UNBOUND:                 0.037
REMARK SMILES CCCCC(=O)[O-]
REMARK SMILES IDX 4 1 5 2 6 3 7 4 3 5 2 6 1 7
REMARK H PARENT
REMARK Flexibility Score: inf
ROOT
ATOM      1  C   UNL     1      10.261  21.459  30.543  1.00  0.00     0.053 C 
ENDROOT
BRANCH   1   2
ATOM      2  C   UNL     1      11.165  21.916  29.439  1.00  0.00     0.041 C 
ATOM      3  O   UNL     1      10.879  21.665  28.239  1.00  0.00    -0.550 OA
ATOM      4  O   UNL     1      12.309  22.648  29.735  1.00  0.00    -0.550 OA
ENDBRANCH   1   2
BRANCH   1   5
ATOM      5  C   UNL     1       8.868  22.094  30.435  1.00  0.00     0.006 C 
BRANCH   5   6
ATOM      6  C   UNL     1       7.886  21.209  29.655  1.00  0.00    -0.003 C 
ATOM      7  C   UNL     1       6.638  20.911  30.481  1.00  0.00     0.004 C 
ENDBRANCH   5   6
ENDBRANCH   1   5
TORSDOF 3
ENDMDL
MODEL 8
REMARK VINA RESULT:    -2.881     10.535     11.503
REMARK INTER + INTRA:          -3.349
REMARK INTER:                  -3.333
REMARK INTRA:                  -0.016
REMARK UNBOUND:                 0.037
REMARK SMILES CCCCC(=O)[O-]
REMARK SMILES IDX 4 1 5 2 6 3 7 4 3 5 2 6 1 7
REMARK H PARENT
REMARK Flexibility Score: inf
ROOT
ATOM      1  C   UNL     1      16.344  21.607  30.517  1.00  0.00     0.053 C 
ENDROOT
BRANCH   1   2
ATOM      2  C   UNL     1      15.501  22.353  29.529  1.00  0.00     0.041 C 
ATOM      3  O   UNL     1      14.330  22.704  29.832  1.00  0.00    -0.550 OA
ATOM      4  O   UNL     1      16.020  22.687  28.285  1.00  0.00    -0.550 OA
ENDBRANCH   1   2
BRANCH   1   5
ATOM      5  C   UNL     1      16.996  22.552  31.536  1.00  0.00     0.006 C 
BRANCH   5   6
ATOM      6  C   UNL     1      18.220  21.919  32.214  1.00  0.00    -0.003 C 
ATOM      7  C   UNL     1      18.543  22.621  33.530  1.00  0.00     0.004 C 
ENDBRANCH   5   6
ENDBRANCH   1   5
TORSDOF 3
ENDMDL
MODEL 9
REMARK VINA RESULT:    -2.853     12.717     13.591
REMARK INTER + INTRA:          -3.316
REMARK INTER:                  -3.283
REMARK INTRA:                  -0.033
REMARK UNBOUND:                 0.037
REMARK SMILES CCCCC(=O)[O-]
REMARK SMILES IDX 4 1 5 2 6 3 7 4 3 5 2 6 1 7
REMARK H PARENT
REMARK Flexibility Score: inf
ROOT
ATOM      1  C   UNL     1      10.773  20.466  17.471  1.00  0.00     0.053 C 
ENDROOT
BRANCH   1   2
ATOM      2  C   UNL     1      10.080  19.155  17.684  1.00  0.00     0.041 C 
ATOM      3  O   UNL     1      10.464  18.375  18.595  1.00  0.00    -0.550 OA
ATOM      4  O   UNL     1       8.989  18.809  16.896  1.00  0.00    -0.550 OA
ENDBRANCH   1   2
BRANCH   1   5
ATOM      5  C   UNL     1      11.464  20.527  16.101  1.00  0.00     0.006 C 
BRANCH   5   6
ATOM      6  C   UNL     1      12.772  21.331  16.147  1.00  0.00    -0.003 C 
ATOM      7  C   UNL     1      12.774  22.311  17.316  1.00  0.00     0.004 C 
ENDBRANCH   5   6
ENDBRANCH   1   5
TORSDOF 3
ENDMDL
