MODEL 1
REMARK VINA RESULT:    -4.700      0.000      0.000
REMARK INTER + INTRA:          -5.435
REMARK INTER:                  -5.386
REMARK INTRA:                  -0.049
REMARK UNBOUND:                -0.049
REMARK SMILES O=C([O-])c1cc(O)c(O)c(O)c1
REMARK SMILES IDX 4 1 5 2 12 3 6 4 10 5 8 6 2 7 1 8 3 9 7 10 11 12 9 14
REMARK H PARENT 7 11 11 13 9 15
REMARK Flexibility Score: inf
ROOT
ATOM      1  C   UNL     1      -0.700 -13.983  -5.833  1.00  0.00     0.005 A 
ATOM      2  C   UNL     1       0.513 -14.667  -5.664  1.00  0.00     0.060 A 
ATOM      3  C   UNL     1      -1.528 -14.321  -6.915  1.00  0.00     0.060 A 
ATOM      4  C   UNL     1       0.893 -15.675  -6.561  1.00  0.00     0.162 A 
ATOM      5  C   UNL     1      -1.161 -15.325  -7.819  1.00  0.00     0.162 A 
ATOM      6  C   UNL     1       0.064 -16.011  -7.640  1.00  0.00     0.200 A 
ENDROOT
BRANCH   1   7
ATOM      7  C   UNL     1      -1.095 -12.919  -4.883  1.00  0.00     0.072 C 
ATOM      8  O   UNL     1      -2.279 -12.849  -4.457  1.00  0.00    -0.545 OA
ATOM      9  O   UNL     1      -0.166 -11.983  -4.445  1.00  0.00    -0.545 OA
ENDBRANCH   1   7
BRANCH   4  10
ATOM     10  O   UNL     1       2.100 -16.350  -6.385  1.00  0.00    -0.504 OA
ATOM     11  H   UNL     1       2.986 -15.858  -6.372  1.00  0.00     0.293 HD
ENDBRANCH   4  10
BRANCH   5  12
ATOM     12  O   UNL     1      -2.036 -15.606  -8.870  1.00  0.00    -0.504 OA
ATOM     13  H   UNL     1      -2.810 -15.014  -9.136  1.00  0.00     0.293 HD
ENDBRANCH   5  12
BRANCH   6  14
ATOM     14  O   UNL     1       0.491 -17.023  -8.504  1.00  0.00    -0.502 OA
ATOM     15  H   UNL     1       0.653 -16.893  -9.493  1.00  0.00     0.293 HD
ENDBRANCH   6  14
TORSDOF 4
ENDMDL
MODEL 2
REMARK VINA RESULT:    -4.663      0.290      2.449
REMARK INTER + INTRA:          -5.393
REMARK INTER:                  -5.344
REMARK INTRA:                  -0.049
REMARK UNBOUND:                -0.049
REMARK SMILES O=C([O-])c1cc(O)c(O)c(O)c1
REMARK SMILES IDX 4 1 5 2 12 3 6 4 10 5 8 6 2 7 1 8 3 9 7 10 11 12 9 14
REMARK H PARENT 7 11 11 13 9 15
REMARK Flexibility Score: inf
ROOT
ATOM      1  C   UNL     1      -0.678 -13.967  -5.837  1.00  0.00     0.005 A 
ATOM      2  C   UNL     1      -1.614 -14.231  -6.848  1.00  0.00     0.060 A 
ATOM      3  C   UNL     1       0.484 -14.753  -5.763  1.00  0.00     0.060 A 
ATOM      4  C   UNL     1      -1.395 -15.262  -7.770  1.00  0.00     0.162 A 
ATOM      5  C   UNL     1       0.715 -15.788  -6.677  1.00  0.00     0.162 A 
ATOM      6  C   UNL     1      -0.235 -16.046  -7.694  1.00  0.00     0.200 A 
ENDROOT
BRANCH   1   7
ATOM      7  C   UNL     1      -0.914 -12.876  -4.866  1.00  0.00     0.072 C 
ATOM      8  O   UNL     1      -2.073 -12.649  -4.428  1.00  0.00    -0.545 OA
ATOM      9  O   UNL     1       0.140 -12.085  -4.423  1.00  0.00    -0.545 OA
ENDBRANCH   1   7
BRANCH   4  10
ATOM     10  O   UNL     1      -2.332 -15.517  -8.771  1.00  0.00    -0.504 OA
ATOM     11  H   UNL     1      -2.226 -16.295  -9.412  1.00  0.00     0.293 HD
ENDBRANCH   4  10
BRANCH   5  12
ATOM     12  O   UNL     1       1.891 -16.527  -6.540  1.00  0.00    -0.504 OA
ATOM     13  H   UNL     1       1.920 -17.530  -6.423  1.00  0.00     0.293 HD
ENDBRANCH   5  12
BRANCH   6  14
ATOM     14  O   UNL     1      -0.067 -17.062  -8.638  1.00  0.00    -0.502 OA
ATOM     15  H   UNL     1       0.442 -17.917  -8.466  1.00  0.00     0.293 HD
ENDBRANCH   6  14
TORSDOF 4
ENDMDL
MODEL 3
REMARK VINA RESULT:    -4.648      1.233      3.943
REMARK INTER + INTRA:          -5.376
REMARK INTER:                  -5.329
REMARK INTRA:                  -0.047
REMARK UNBOUND:                -0.049
REMARK SMILES O=C([O-])c1cc(O)c(O)c(O)c1
REMARK SMILES IDX 4 1 5 2 12 3 6 4 10 5 8 6 2 7 1 8 3 9 7 10 11 12 9 14
REMARK H PARENT 7 11 11 13 9 15
REMARK Flexibility Score: inf
ROOT
ATOM      1  C   UNL     1       0.848 -15.943  -6.260  1.00  0.00     0.005 A 
ATOM      2  C   UNL     1       0.157 -16.493  -7.350  1.00  0.00     0.060 A 
ATOM      3  C   UNL     1       0.386 -14.742  -5.697  1.00  0.00     0.060 A 
ATOM      4  C   UNL     1      -0.977 -15.856  -7.869  1.00  0.00     0.162 A 
ATOM      5  C   UNL     1      -0.744 -14.094  -6.206  1.00  0.00     0.162 A 
ATOM      6  C   UNL     1      -1.436 -14.657  -7.306  1.00  0.00     0.200 A 
ENDROOT
BRANCH   1   7
ATOM      7  C   UNL     1       2.045 -16.622  -5.716  1.00  0.00     0.072 C 
ATOM      8  O   UNL     1       1.973 -17.805  -5.290  1.00  0.00    -0.545 OA
ATOM      9  O   UNL     1       3.268 -15.962  -5.666  1.00  0.00    -0.545 OA
ENDBRANCH   1   7
BRANCH   4  10
ATOM     10  O   UNL     1      -1.657 -16.410  -8.953  1.00  0.00    -0.504 OA
ATOM     11  H   UNL     1      -2.007 -15.835  -9.711  1.00  0.00     0.293 HD
ENDBRANCH   4  10
BRANCH   5  12
ATOM     12  O   UNL     1      -1.143 -12.904  -5.595  1.00  0.00    -0.504 OA
ATOM     13  H   UNL     1      -1.055 -11.991  -6.020  1.00  0.00     0.293 HD
ENDBRANCH   5  12
BRANCH   6  14
ATOM     14  O   UNL     1      -2.571 -14.063  -7.863  1.00  0.00    -0.502 OA
ATOM     15  H   UNL     1      -3.286 -13.594  -7.325  1.00  0.00     0.293 HD
ENDBRANCH   6  14
TORSDOF 4
ENDMDL
MODEL 4
REMARK VINA RESULT:    -4.620      1.274      3.681
REMARK INTER + INTRA:          -5.344
REMARK INTER:                  -5.298
REMARK INTRA:                  -0.046
REMARK UNBOUND:                -0.049
REMARK SMILES O=C([O-])c1cc(O)c(O)c(O)c1
REMARK SMILES IDX 4 1 5 2 12 3 6 4 10 5 8 6 2 7 1 8 3 9 7 10 11 12 9 14
REMARK H PARENT 7 11 11 13 9 15
REMARK Flexibility Score: inf
ROOT
ATOM      1  C   UNL     1       0.852 -15.942  -6.259  1.00  0.00     0.005 A 
ATOM      2  C   UNL     1       0.368 -14.735  -5.731  1.00  0.00     0.060 A 
ATOM      3  C   UNL     1       0.174 -16.533  -7.338  1.00  0.00     0.060 A 
ATOM      4  C   UNL     1      -0.772 -14.128  -6.271  1.00  0.00     0.162 A 
ATOM      5  C   UNL     1      -0.967 -15.938  -7.887  1.00  0.00     0.162 A 
ATOM      6  C   UNL     1      -1.447 -14.720  -7.348  1.00  0.00     0.200 A 
ENDROOT
BRANCH   1   7
ATOM      7  C   UNL     1       2.058 -16.579  -5.684  1.00  0.00     0.072 C 
ATOM      8  O   UNL     1       1.998 -17.738  -5.194  1.00  0.00    -0.545 OA
ATOM      9  O   UNL     1       3.275 -15.907  -5.678  1.00  0.00    -0.545 OA
ENDBRANCH   1   7
BRANCH   4  10
ATOM     10  O   UNL     1      -1.245 -12.929  -5.740  1.00  0.00    -0.504 OA
ATOM     11  H   UNL     1      -2.109 -12.886  -5.212  1.00  0.00     0.293 HD
ENDBRANCH   4  10
BRANCH   5  12
ATOM     12  O   UNL     1      -1.587 -16.585  -8.958  1.00  0.00    -0.504 OA
ATOM     13  H   UNL     1      -1.199 -17.384  -9.438  1.00  0.00     0.293 HD
ENDBRANCH   5  12
BRANCH   6  14
ATOM     14  O   UNL     1      -2.580 -14.072  -7.848  1.00  0.00    -0.502 OA
ATOM     15  H   UNL     1      -3.035 -13.295  -7.392  1.00  0.00     0.293 HD
ENDBRANCH   6  14
TORSDOF 4
ENDMDL
MODEL 5
REMARK VINA RESULT:    -4.568     18.007     19.213
REMARK INTER + INTRA:          -5.285
REMARK INTER:                  -5.232
REMARK INTRA:                  -0.053
REMARK UNBOUND:                -0.049
REMARK SMILES O=C([O-])c1cc(O)c(O)c(O)c1
REMARK SMILES IDX 4 1 5 2 12 3 6 4 10 5 8 6 2 7 1 8 3 9 7 10 11 12 9 14
REMARK H PARENT 7 11 11 13 9 15
REMARK Flexibility Score: inf
ROOT
ATOM      1  C   UNL     1      13.108 -11.898 -19.357  1.00  0.00     0.005 A 
ATOM      2  C   UNL     1      13.557 -10.570 -19.333  1.00  0.00     0.060 A 
ATOM      3  C   UNL     1      13.338 -12.716 -18.239  1.00  0.00     0.060 A 
ATOM      4  C   UNL     1      14.225 -10.064 -18.210  1.00  0.00     0.162 A 
ATOM      5  C   UNL     1      14.004 -12.224 -17.111  1.00  0.00     0.162 A 
ATOM      6  C   UNL     1      14.453 -10.882 -17.095  1.00  0.00     0.200 A 
ENDROOT
BRANCH   1   7
ATOM      7  C   UNL     1      12.403 -12.427 -20.547  1.00  0.00     0.072 C 
ATOM      8  O   UNL     1      12.384 -11.772 -21.623  1.00  0.00    -0.545 OA
ATOM      9  O   UNL     1      11.751 -13.654 -20.493  1.00  0.00    -0.545 OA
ENDBRANCH   1   7
BRANCH   4  10
ATOM     10  O   UNL     1      14.667  -8.743 -18.195  1.00  0.00    -0.504 OA
ATOM     11  H   UNL     1      14.025  -7.966 -18.299  1.00  0.00     0.293 HD
ENDBRANCH   4  10
BRANCH   5  12
ATOM     12  O   UNL     1      14.197 -13.096 -16.037  1.00  0.00    -0.504 OA
ATOM     13  H   UNL     1      13.542 -13.818 -15.769  1.00  0.00     0.293 HD
ENDBRANCH   5  12
BRANCH   6  14
ATOM     14  O   UNL     1      15.124 -10.328 -16.002  1.00  0.00    -0.502 OA
ATOM     15  H   UNL     1      15.121 -10.726 -15.074  1.00  0.00     0.293 HD
ENDBRANCH   6  14
TORSDOF 4
ENDMDL
MODEL 6
REMARK VINA RESULT:    -4.436      2.077      5.131
REMARK INTER + INTRA:          -5.134
REMARK INTER:                  -5.081
REMARK INTRA:                  -0.052
REMARK UNBOUND:                -0.049
REMARK SMILES O=C([O-])c1cc(O)c(O)c(O)c1
REMARK SMILES IDX 4 1 5 2 12 3 6 4 10 5 8 6 2 7 1 8 3 9 7 10 11 12 9 14
REMARK H PARENT 7 11 11 13 9 15
REMARK Flexibility Score: inf
ROOT
ATOM      1  C   UNL     1      -0.021 -17.427  -7.928  1.00  0.00     0.005 A 
ATOM      2  C   UNL     1      -1.245 -17.423  -8.614  1.00  0.00     0.060 A 
ATOM      3  C   UNL     1       0.332 -16.306  -7.159  1.00  0.00     0.060 A 
ATOM      4  C   UNL     1      -2.102 -16.319  -8.535  1.00  0.00     0.162 A 
ATOM      5  C   UNL     1      -0.514 -15.195  -7.072  1.00  0.00     0.162 A 
ATOM      6  C   UNL     1      -1.747 -15.200  -7.767  1.00  0.00     0.200 A 
ENDROOT
BRANCH   1   7
ATOM      7  C   UNL     1       0.881 -18.598  -8.016  1.00  0.00     0.072 C 
ATOM      8  O   UNL     1       2.080 -18.512  -7.641  1.00  0.00    -0.545 OA
ATOM      9  O   UNL     1       0.416 -19.810  -8.513  1.00  0.00    -0.545 OA
ENDBRANCH   1   7
BRANCH   4  10
ATOM     10  O   UNL     1      -3.316 -16.324  -9.220  1.00  0.00    -0.504 OA
ATOM     11  H   UNL     1      -4.164 -15.958  -8.802  1.00  0.00     0.293 HD
ENDBRANCH   4  10
BRANCH   5  12
ATOM     12  O   UNL     1      -0.094 -14.118  -6.289  1.00  0.00    -0.504 OA
ATOM     13  H   UNL     1      -0.635 -13.277  -6.146  1.00  0.00     0.293 HD
ENDBRANCH   5  12
BRANCH   6  14
ATOM     14  O   UNL     1      -2.638 -14.126  -7.722  1.00  0.00    -0.502 OA
ATOM     15  H   UNL     1      -2.753 -13.518  -6.924  1.00  0.00     0.293 HD
ENDBRANCH   6  14
TORSDOF 4
ENDMDL
MODEL 7
REMARK VINA RESULT:    -4.334     18.216     18.969
REMARK INTER + INTRA:          -5.016
REMARK INTER:                  -4.963
REMARK INTRA:                  -0.052
REMARK UNBOUND:                -0.049
REMARK SMILES O=C([O-])c1cc(O)c(O)c(O)c1
REMARK SMILES IDX 4 1 5 2 12 3 6 4 10 5 8 6 2 7 1 8 3 9 7 10 11 12 9 14
REMARK H PARENT 7 11 11 13 9 15
REMARK Flexibility Score: inf
ROOT
ATOM      1  C   UNL     1      13.965 -12.675 -17.795  1.00  0.00     0.005 A 
ATOM      2  C   UNL     1      14.350 -11.350 -17.542  1.00  0.00     0.060 A 
ATOM      3  C   UNL     1      13.147 -12.948 -18.903  1.00  0.00     0.060 A 
ATOM      4  C   UNL     1      13.927 -10.313 -18.383  1.00  0.00     0.162 A 
ATOM      5  C   UNL     1      12.716 -11.921 -19.751  1.00  0.00     0.162 A 
ATOM      6  C   UNL     1      13.110 -10.587 -19.490  1.00  0.00     0.200 A 
ENDROOT
BRANCH   1   7
ATOM      7  C   UNL     1      14.416 -13.767 -16.903  1.00  0.00     0.072 C 
ATOM      8  O   UNL     1      14.916 -13.508 -15.776  1.00  0.00    -0.545 OA
ATOM      9  O   UNL     1      14.294 -15.095 -17.296  1.00  0.00    -0.545 OA
ENDBRANCH   1   7
BRANCH   4  10
ATOM     10  O   UNL     1      14.315  -9.000 -18.125  1.00  0.00    -0.504 OA
ATOM     11  H   UNL     1      14.479  -8.670 -17.180  1.00  0.00     0.293 HD
ENDBRANCH   4  10
BRANCH   5  12
ATOM     12  O   UNL     1      11.904 -12.269 -20.833  1.00  0.00    -0.504 OA
ATOM     13  H   UNL     1      11.425 -13.154 -20.921  1.00  0.00     0.293 HD
ENDBRANCH   5  12
BRANCH   6  14
ATOM     14  O   UNL     1      12.716  -9.516 -20.295  1.00  0.00    -0.502 OA
ATOM     15  H   UNL     1      13.190  -9.241 -21.144  1.00  0.00     0.293 HD
ENDBRANCH   6  14
TORSDOF 4
ENDMDL
MODEL 8
REMARK VINA RESULT:    -4.216      2.036      4.568
REMARK INTER + INTRA:          -4.881
REMARK INTER:                  -4.834
REMARK INTRA:                  -0.047
REMARK UNBOUND:                -0.049
REMARK SMILES O=C([O-])c1cc(O)c(O)c(O)c1
REMARK SMILES IDX 4 1 5 2 12 3 6 4 10 5 8 6 2 7 1 8 3 9 7 10 11 12 9 14
REMARK H PARENT 7 11 11 13 9 15
REMARK Flexibility Score: inf
ROOT
ATOM      1  C   UNL     1      -0.109 -17.441  -7.671  1.00  0.00     0.005 A 
ATOM      2  C   UNL     1       0.190 -16.277  -6.948  1.00  0.00     0.060 A 
ATOM      3  C   UNL     1      -1.273 -17.475  -8.456  1.00  0.00     0.060 A 
ATOM      4  C   UNL     1      -0.658 -15.164  -7.007  1.00  0.00     0.162 A 
ATOM      5  C   UNL     1      -2.130 -16.371  -8.524  1.00  0.00     0.162 A 
ATOM      6  C   UNL     1      -1.820 -15.200  -7.791  1.00  0.00     0.200 A 
ENDROOT
BRANCH   1   7
ATOM      7  C   UNL     1       0.792 -18.614  -7.605  1.00  0.00     0.072 C 
ATOM      8  O   UNL     1       2.005 -18.508  -7.925  1.00  0.00    -0.545 OA
ATOM      9  O   UNL     1       0.311 -19.850  -7.187  1.00  0.00    -0.545 OA
ENDBRANCH   1   7
BRANCH   4  10
ATOM     10  O   UNL     1      -0.353 -14.012  -6.285  1.00  0.00    -0.504 OA
ATOM     11  H   UNL     1      -0.657 -13.890  -5.325  1.00  0.00     0.293 HD
ENDBRANCH   4  10
BRANCH   5  12
ATOM     12  O   UNL     1      -3.269 -16.479  -9.324  1.00  0.00    -0.504 OA
ATOM     13  H   UNL     1      -3.695 -17.357  -9.587  1.00  0.00     0.293 HD
ENDBRANCH   5  12
BRANCH   6  14
ATOM     14  O   UNL     1      -2.631 -14.063  -7.814  1.00  0.00    -0.502 OA
ATOM     15  H   UNL     1      -2.694 -13.428  -8.597  1.00  0.00     0.293 HD
ENDBRANCH   6  14
TORSDOF 4
ENDMDL
MODEL 9
REMARK VINA RESULT:    -3.839     18.023     19.216
REMARK INTER + INTRA:          -4.449
REMARK INTER:                  -4.397
REMARK INTRA:                  -0.052
REMARK UNBOUND:                -0.049
REMARK SMILES O=C([O-])c1cc(O)c(O)c(O)c1
REMARK SMILES IDX 4 1 5 2 12 3 6 4 10 5 8 6 2 7 1 8 3 9 7 10 11 12 9 14
REMARK H PARENT 7 11 11 13 9 15
REMARK Flexibility Score: inf
ROOT
ATOM      1  C   UNL     1      13.164 -11.857 -19.374  1.00  0.00     0.005 A 
ATOM      2  C   UNL     1      13.365 -12.669 -18.247  1.00  0.00     0.060 A 
ATOM      3  C   UNL     1      13.627 -10.531 -19.349  1.00  0.00     0.060 A 
ATOM      4  C   UNL     1      14.019 -12.166 -17.115  1.00  0.00     0.162 A 
ATOM      5  C   UNL     1      14.281 -10.016 -18.224  1.00  0.00     0.162 A 
ATOM      6  C   UNL     1      14.480 -10.842 -17.093  1.00  0.00     0.200 A 
ENDROOT
BRANCH   1   7
ATOM      7  C   UNL     1      12.473 -12.394 -20.567  1.00  0.00     0.072 C 
ATOM      8  O   UNL     1      12.528 -11.783 -21.668  1.00  0.00    -0.545 OA
ATOM      9  O   UNL     1      11.754 -13.581 -20.491  1.00  0.00    -0.545 OA
ENDBRANCH   1   7
BRANCH   4  10
ATOM     10  O   UNL     1      14.214 -12.980 -16.001  1.00  0.00    -0.504 OA
ATOM     11  H   UNL     1      14.907 -12.758 -15.295  1.00  0.00     0.293 HD
ENDBRANCH   4  10
BRANCH   5  12
ATOM     12  O   UNL     1      14.713  -8.689 -18.274  1.00  0.00    -0.504 OA
ATOM     13  H   UNL     1      14.114  -7.906 -18.499  1.00  0.00     0.293 HD
ENDBRANCH   5  12
BRANCH   6  14
ATOM     14  O   UNL     1      15.125 -10.392 -15.938  1.00  0.00    -0.502 OA
ATOM     15  H   UNL     1      16.112 -10.510 -15.758  1.00  0.00     0.293 HD
ENDBRANCH   6  14
TORSDOF 4
ENDMDL
