MODEL 1
REMARK VINA RESULT:    -6.754      0.000      0.000
REMARK INTER + INTRA:         -10.339
REMARK INTER:                  -9.123
REMARK INTRA:                  -1.216
REMARK UNBOUND:                -1.216
REMARK SMILES CC[C@H](CC[C@H](C)[C@@H]1CC[C@H]2[C@@H]3CC(=O)C4=CC(=O)CC[C@]4(C)[C@H]3CC[C@]21C)C(C)C
REMARK SMILES IDX 4 1 3 2 2 3 1 4 29 5 30 6 31 7 5 8 6 9 7 10 8 11 9 12 27 13
REMARK SMILES IDX 10 14 11 15 26 16 28 17 12 18 25 19 24 20 13 21 22 22 14 23
REMARK SMILES IDX 16 24 21 25 23 26 15 27 17 28 20 29 18 30 19 31
REMARK H PARENT
REMARK Flexibility Score: inf
ROOT
ATOM      1  C   UNL     1      88.271  33.999  23.514  1.00  0.00     0.004 C 
ENDROOT
BRANCH   1   2
ATOM      2  C   UNL     1      86.958  34.846  23.521  1.00  0.00    -0.009 C 
BRANCH   2   3
ATOM      3  C   UNL     1      85.828  34.015  24.195  1.00  0.00     0.000 C 
ATOM      4  C   UNL     1      84.437  34.303  23.620  1.00  0.00     0.004 C 
ENDBRANCH   2   3
BRANCH   2   5
ATOM      5  C   UNL     1      87.078  36.263  24.201  1.00  0.00    -0.014 C 
ATOM      6  C   UNL     1      86.745  36.283  25.702  1.00  0.00     0.007 C 
ATOM      7  C   UNL     1      88.427  36.948  23.949  1.00  0.00     0.007 C 
ENDBRANCH   2   5
ENDBRANCH   1   2
BRANCH   1   8
ATOM      8  C   UNL     1      88.188  32.536  24.000  1.00  0.00     0.004 C 
BRANCH   8   9
ATOM      9  C   UNL     1      89.374  31.843  24.761  1.00  0.00    -0.011 C 
ATOM     10  C   UNL     1      89.617  30.408  24.254  1.00  0.00     0.008 C 
BRANCH   9  11
ATOM     11  C   UNL     1      89.522  31.905  26.328  1.00  0.00    -0.002 C 
ATOM     12  C   UNL     1      90.701  31.196  26.975  1.00  0.00     0.005 C 
ATOM     13  C   UNL     1      88.294  31.624  27.247  1.00  0.00    -0.026 C 
ATOM     14  C   UNL     1      90.461  31.372  28.464  1.00  0.00     0.005 C 
ATOM     15  C   UNL     1      88.929  31.455  28.671  1.00  0.00    -0.001 C 
ATOM     16  C   UNL     1      87.292  32.814  27.192  1.00  0.00     0.007 C 
ATOM     17  C   UNL     1      87.549  30.320  26.870  1.00  0.00     0.012 C 
ATOM     18  C   UNL     1      88.535  32.583  29.673  1.00  0.00     0.004 C 
ATOM     19  C   UNL     1      86.300  32.790  28.358  1.00  0.00     0.005 C 
ATOM     20  C   UNL     1      86.984  32.746  29.762  1.00  0.00     0.003 C 
ATOM     21  C   UNL     1      89.114  32.283  31.071  1.00  0.00     0.085 C 
ATOM     22  C   UNL     1      86.551  33.929  30.716  1.00  0.00    -0.000 C 
ATOM     23  C   UNL     1      88.672  33.291  32.083  1.00  0.00     0.159 C 
ATOM     24  C   UNL     1      87.288  33.814  32.058  1.00  0.00     0.005 C 
ATOM     25  C   UNL     1      85.012  33.840  30.975  1.00  0.00     0.020 C 
ATOM     26  C   UNL     1      86.907  35.313  30.107  1.00  0.00     0.017 C 
ATOM     27  O   UNL     1      89.472  33.637  32.996  1.00  0.00    -0.295 OA
ATOM     28  C   UNL     1      86.743  34.284  33.197  1.00  0.00     0.055 C 
ATOM     29  C   UNL     1      84.516  34.846  32.019  1.00  0.00     0.081 C 
ATOM     30  C   UNL     1      85.376  34.821  33.243  1.00  0.00     0.156 C 
ATOM     31  O   UNL     1      84.936  35.308  34.319  1.00  0.00    -0.295 OA
ENDBRANCH   9  11
ENDBRANCH   8   9
ENDBRANCH   1   8
TORSDOF 6
ENDMDL
MODEL 2
REMARK VINA RESULT:    -6.614      2.448      4.194
REMARK INTER + INTRA:         -10.151
REMARK INTER:                  -9.395
REMARK INTRA:                  -0.755
REMARK UNBOUND:                -1.216
REMARK SMILES CC[C@H](CC[C@H](C)[C@@H]1CC[C@H]2[C@@H]3CC(=O)C4=CC(=O)CC[C@]4(C)[C@H]3CC[C@]21C)C(C)C
REMARK SMILES IDX 4 1 3 2 2 3 1 4 29 5 30 6 31 7 5 8 6 9 7 10 8 11 9 12 27 13
REMARK SMILES IDX 10 14 11 15 26 16 28 17 12 18 25 19 24 20 13 21 22 22 14 23
REMARK SMILES IDX 16 24 21 25 23 26 15 27 17 28 20 29 18 30 19 31
REMARK H PARENT
REMARK Flexibility Score: inf
ROOT
ATOM      1  C   UNL     1      88.591  38.240  25.097  1.00  0.00     0.004 C 
ENDROOT
BRANCH   1   2
ATOM      2  C   UNL     1      88.570  39.003  26.460  1.00  0.00    -0.009 C 
BRANCH   2   3
ATOM      3  C   UNL     1      88.228  37.995  27.596  1.00  0.00     0.000 C 
ATOM      4  C   UNL     1      87.811  38.673  28.905  1.00  0.00     0.004 C 
ENDBRANCH   2   3
BRANCH   2   5
ATOM      5  C   UNL     1      89.890  39.792  26.807  1.00  0.00    -0.014 C 
ATOM      6  C   UNL     1      91.155  38.920  26.891  1.00  0.00     0.007 C 
ATOM      7  C   UNL     1      90.139  40.997  25.891  1.00  0.00     0.007 C 
ENDBRANCH   2   5
ENDBRANCH   1   2
BRANCH   1   8
ATOM      8  C   UNL     1      87.304  37.505  24.663  1.00  0.00     0.004 C 
BRANCH   8   9
ATOM      9  C   UNL     1      87.340  36.066  24.036  1.00  0.00    -0.011 C 
ATOM     10  C   UNL     1      86.359  35.933  22.855  1.00  0.00     0.008 C 
BRANCH   9  11
ATOM     11  C   UNL     1      87.318  34.760  24.916  1.00  0.00    -0.002 C 
ATOM     12  C   UNL     1      87.599  33.425  24.244  1.00  0.00     0.005 C 
ATOM     13  C   UNL     1      86.149  34.502  25.914  1.00  0.00    -0.026 C 
ATOM     14  C   UNL     1      87.388  32.407  25.351  1.00  0.00     0.005 C 
ATOM     15  C   UNL     1      86.331  32.997  26.315  1.00  0.00    -0.001 C 
ATOM     16  C   UNL     1      86.262  35.451  27.142  1.00  0.00     0.007 C 
ATOM     17  C   UNL     1      84.755  34.684  25.263  1.00  0.00     0.012 C 
ATOM     18  C   UNL     1      86.721  32.787  27.810  1.00  0.00     0.004 C 
ATOM     19  C   UNL     1      85.412  34.976  28.323  1.00  0.00     0.005 C 
ATOM     20  C   UNL     1      85.717  33.509  28.765  1.00  0.00     0.003 C 
ATOM     21  C   UNL     1      86.776  31.282  28.143  1.00  0.00     0.085 C 
ATOM     22  C   UNL     1      86.124  33.376  30.287  1.00  0.00    -0.000 C 
ATOM     23  C   UNL     1      87.048  31.044  29.594  1.00  0.00     0.159 C 
ATOM     24  C   UNL     1      86.425  31.909  30.621  1.00  0.00     0.005 C 
ATOM     25  C   UNL     1      84.936  33.865  31.177  1.00  0.00     0.020 C 
ATOM     26  C   UNL     1      87.401  34.198  30.610  1.00  0.00     0.017 C 
ATOM     27  O   UNL     1      87.759  30.058  29.932  1.00  0.00    -0.295 OA
ATOM     28  C   UNL     1      86.237  31.422  31.863  1.00  0.00     0.055 C 
ATOM     29  C   UNL     1      85.166  33.626  32.674  1.00  0.00     0.081 C 
ATOM     30  C   UNL     1      85.629  32.227  32.932  1.00  0.00     0.156 C 
ATOM     31  O   UNL     1      85.535  31.748  34.094  1.00  0.00    -0.295 OA
ENDBRANCH   9  11
ENDBRANCH   8   9
ENDBRANCH   1   8
TORSDOF 6
ENDMDL
MODEL 3
REMARK VINA RESULT:    -6.595      6.456     11.101
REMARK INTER + INTRA:         -10.125
REMARK INTER:                  -9.207
REMARK INTRA:                  -0.918
REMARK UNBOUND:                -1.216
REMARK SMILES CC[C@H](CC[C@H](C)[C@@H]1CC[C@H]2[C@@H]3CC(=O)C4=CC(=O)CC[C@]4(C)[C@H]3CC[C@]21C)C(C)C
REMARK SMILES IDX 4 1 3 2 2 3 1 4 29 5 30 6 31 7 5 8 6 9 7 10 8 11 9 12 27 13
REMARK SMILES IDX 10 14 11 15 26 16 28 17 12 18 25 19 24 20 13 21 22 22 14 23
REMARK SMILES IDX 16 24 21 25 23 26 15 27 17 28 20 29 18 30 19 31
REMARK H PARENT
REMARK Flexibility Score: inf
ROOT
ATOM      1  C   UNL     1      84.242  39.719  29.987  1.00  0.00     0.004 C 
ENDROOT
BRANCH   1   2
ATOM      2  C   UNL     1      84.715  38.231  29.934  1.00  0.00    -0.009 C 
BRANCH   2   3
ATOM      3  C   UNL     1      83.623  37.381  29.222  1.00  0.00     0.000 C 
ATOM      4  C   UNL     1      83.196  36.147  30.024  1.00  0.00     0.004 C 
ENDBRANCH   2   3
BRANCH   2   5
ATOM      5  C   UNL     1      86.120  37.999  29.257  1.00  0.00    -0.014 C 
ATOM      6  C   UNL     1      87.149  39.112  29.517  1.00  0.00     0.007 C 
ATOM      7  C   UNL     1      86.732  36.629  29.578  1.00  0.00     0.007 C 
ENDBRANCH   2   5
ENDBRANCH   1   2
BRANCH   1   8
ATOM      8  C   UNL     1      82.826  40.043  29.463  1.00  0.00     0.004 C 
BRANCH   8   9
ATOM      9  C   UNL     1      82.516  41.360  28.665  1.00  0.00    -0.011 C 
ATOM     10  C   UNL     1      81.260  42.072  29.203  1.00  0.00     0.008 C 
BRANCH   9  11
ATOM     11  C   UNL     1      82.550  41.422  27.091  1.00  0.00    -0.002 C 
ATOM     12  C   UNL     1      82.259  42.750  26.410  1.00  0.00     0.005 C 
ATOM     13  C   UNL     1      81.822  40.335  26.244  1.00  0.00    -0.026 C 
ATOM     14  C   UNL     1      82.271  42.411  24.929  1.00  0.00     0.005 C 
ATOM     15  C   UNL     1      81.814  40.938  24.797  1.00  0.00    -0.001 C 
ATOM     16  C   UNL     1      82.597  38.987  26.310  1.00  0.00     0.007 C 
ATOM     17  C   UNL     1      80.361  40.099  26.700  1.00  0.00     0.012 C 
ATOM     18  C   UNL     1      82.689  40.144  23.779  1.00  0.00     0.004 C 
ATOM     19  C   UNL     1      82.178  38.023  25.196  1.00  0.00     0.005 C 
ATOM     20  C   UNL     1      82.305  38.630  23.763  1.00  0.00     0.003 C 
ATOM     21  C   UNL     1      82.540  40.741  22.365  1.00  0.00     0.085 C 
ATOM     22  C   UNL     1      83.221  37.782  22.793  1.00  0.00    -0.000 C 
ATOM     23  C   UNL     1      83.286  39.942  21.344  1.00  0.00     0.159 C 
ATOM     24  C   UNL     1      83.303  38.465  21.421  1.00  0.00     0.005 C 
ATOM     25  C   UNL     1      82.597  36.360  22.614  1.00  0.00     0.020 C 
ATOM     26  C   UNL     1      84.670  37.660  23.338  1.00  0.00     0.017 C 
ATOM     27  O   UNL     1      83.841  40.541  20.381  1.00  0.00    -0.295 OA
ATOM     28  C   UNL     1      83.502  37.751  20.295  1.00  0.00     0.055 C 
ATOM     29  C   UNL     1      83.322  35.511  21.563  1.00  0.00     0.081 C 
ATOM     30  C   UNL     1      83.535  36.282  20.300  1.00  0.00     0.156 C 
ATOM     31  O   UNL     1      83.790  35.663  19.232  1.00  0.00    -0.295 OA
ENDBRANCH   9  11
ENDBRANCH   8   9
ENDBRANCH   1   8
TORSDOF 6
ENDMDL
MODEL 4
REMARK VINA RESULT:    -6.493      3.388      5.285
REMARK INTER + INTRA:          -9.987
REMARK INTER:                  -8.946
REMARK INTRA:                  -1.041
REMARK UNBOUND:                -1.216
REMARK SMILES CC[C@H](CC[C@H](C)[C@@H]1CC[C@H]2[C@@H]3CC(=O)C4=CC(=O)CC[C@]4(C)[C@H]3CC[C@]21C)C(C)C
REMARK SMILES IDX 4 1 3 2 2 3 1 4 29 5 30 6 31 7 5 8 6 9 7 10 8 11 9 12 27 13
REMARK SMILES IDX 10 14 11 15 26 16 28 17 12 18 25 19 24 20 13 21 22 22 14 23
REMARK SMILES IDX 16 24 21 25 23 26 15 27 17 28 20 29 18 30 19 31
REMARK H PARENT
REMARK Flexibility Score: inf
ROOT
ATOM      1  C   UNL     1      88.583  37.970  25.122  1.00  0.00     0.004 C 
ENDROOT
BRANCH   1   2
ATOM      2  C   UNL     1      88.898  38.968  26.282  1.00  0.00    -0.009 C 
BRANCH   2   3
ATOM      3  C   UNL     1      88.801  38.210  27.637  1.00  0.00     0.000 C 
ATOM      4  C   UNL     1      87.909  38.916  28.665  1.00  0.00     0.004 C 
ENDBRANCH   2   3
BRANCH   2   5
ATOM      5  C   UNL     1      90.282  39.714  26.167  1.00  0.00    -0.014 C 
ATOM      6  C   UNL     1      90.197  41.245  26.288  1.00  0.00     0.007 C 
ATOM      7  C   UNL     1      91.349  39.167  27.124  1.00  0.00     0.007 C 
ENDBRANCH   2   5
ENDBRANCH   1   2
BRANCH   1   8
ATOM      8  C   UNL     1      87.127  37.476  24.972  1.00  0.00     0.004 C 
BRANCH   8   9
ATOM      9  C   UNL     1      86.776  35.951  24.846  1.00  0.00    -0.011 C 
ATOM     10  C   UNL     1      86.680  35.506  23.374  1.00  0.00     0.008 C 
BRANCH   9  11
ATOM     11  C   UNL     1      85.638  35.273  25.699  1.00  0.00    -0.002 C 
ATOM     12  C   UNL     1      84.351  34.863  25.001  1.00  0.00     0.005 C 
ATOM     13  C   UNL     1      85.210  35.884  27.068  1.00  0.00    -0.026 C 
ATOM     14  C   UNL     1      83.468  34.359  26.129  1.00  0.00     0.005 C 
ATOM     15  C   UNL     1      83.874  35.135  27.405  1.00  0.00    -0.001 C 
ATOM     16  C   UNL     1      86.307  35.633  28.142  1.00  0.00     0.007 C 
ATOM     17  C   UNL     1      84.926  37.404  26.982  1.00  0.00     0.012 C 
ATOM     18  C   UNL     1      83.974  34.200  28.649  1.00  0.00     0.004 C 
ATOM     19  C   UNL     1      85.780  35.832  29.566  1.00  0.00     0.005 C 
ATOM     20  C   UNL     1      84.520  34.970  29.894  1.00  0.00     0.003 C 
ATOM     21  C   UNL     1      82.595  33.588  28.971  1.00  0.00     0.085 C 
ATOM     22  C   UNL     1      84.701  34.035  31.155  1.00  0.00    -0.000 C 
ATOM     23  C   UNL     1      82.631  32.766  30.219  1.00  0.00     0.159 C 
ATOM     24  C   UNL     1      83.424  33.214  31.385  1.00  0.00     0.005 C 
ATOM     25  C   UNL     1      84.966  34.922  32.415  1.00  0.00     0.020 C 
ATOM     26  C   UNL     1      85.869  33.031  30.958  1.00  0.00     0.017 C 
ATOM     27  O   UNL     1      81.923  31.722  30.288  1.00  0.00    -0.295 OA
ATOM     28  C   UNL     1      83.072  32.800  32.618  1.00  0.00     0.055 C 
ATOM     29  C   UNL     1      84.995  34.120  33.722  1.00  0.00     0.081 C 
ATOM     30  C   UNL     1      83.817  33.203  33.818  1.00  0.00     0.156 C 
ATOM     31  O   UNL     1      83.487  32.735  34.941  1.00  0.00    -0.295 OA
ENDBRANCH   9  11
ENDBRANCH   8   9
ENDBRANCH   1   8
TORSDOF 6
ENDMDL
MODEL 5
REMARK VINA RESULT:    -6.431      4.291      8.907
REMARK INTER + INTRA:          -9.903
REMARK INTER:                  -8.245
REMARK INTRA:                  -1.658
REMARK UNBOUND:                -1.216
REMARK SMILES CC[C@H](CC[C@H](C)[C@@H]1CC[C@H]2[C@@H]3CC(=O)C4=CC(=O)CC[C@]4(C)[C@H]3CC[C@]21C)C(C)C
REMARK SMILES IDX 4 1 3 2 2 3 1 4 29 5 30 6 31 7 5 8 6 9 7 10 8 11 9 12 27 13
REMARK SMILES IDX 10 14 11 15 26 16 28 17 12 18 25 19 24 20 13 21 22 22 14 23
REMARK SMILES IDX 16 24 21 25 23 26 15 27 17 28 20 29 18 30 19 31
REMARK H PARENT
REMARK Flexibility Score: inf
ROOT
ATOM      1  C   UNL     1      85.499  34.489  33.528  1.00  0.00     0.004 C 
ENDROOT
BRANCH   1   2
ATOM      2  C   UNL     1      86.551  33.346  33.369  1.00  0.00    -0.009 C 
BRANCH   2   3
ATOM      3  C   UNL     1      85.804  31.983  33.278  1.00  0.00     0.000 C 
ATOM      4  C   UNL     1      84.464  31.975  34.022  1.00  0.00     0.004 C 
ENDBRANCH   2   3
BRANCH   2   5
ATOM      5  C   UNL     1      87.542  33.510  32.153  1.00  0.00    -0.014 C 
ATOM      6  C   UNL     1      89.008  33.752  32.550  1.00  0.00     0.007 C 
ATOM      7  C   UNL     1      87.452  32.367  31.135  1.00  0.00     0.007 C 
ENDBRANCH   2   5
ENDBRANCH   1   2
BRANCH   1   8
ATOM      8  C   UNL     1      85.539  35.651  32.512  1.00  0.00     0.004 C 
BRANCH   8   9
ATOM      9  C   UNL     1      84.695  35.628  31.188  1.00  0.00    -0.011 C 
ATOM     10  C   UNL     1      83.759  34.405  31.129  1.00  0.00     0.008 C 
BRANCH   9  11
ATOM     11  C   UNL     1      85.333  35.899  29.774  1.00  0.00    -0.002 C 
ATOM     12  C   UNL     1      86.834  35.722  29.608  1.00  0.00     0.005 C 
ATOM     13  C   UNL     1      84.961  37.185  28.975  1.00  0.00    -0.026 C 
ATOM     14  C   UNL     1      87.099  36.167  28.180  1.00  0.00     0.005 C 
ATOM     15  C   UNL     1      86.032  37.233  27.831  1.00  0.00    -0.001 C 
ATOM     16  C   UNL     1      83.513  37.076  28.414  1.00  0.00     0.007 C 
ATOM     17  C   UNL     1      85.076  38.473  29.827  1.00  0.00     0.012 C 
ATOM     18  C   UNL     1      85.440  37.021  26.405  1.00  0.00     0.004 C 
ATOM     19  C   UNL     1      83.245  38.092  27.301  1.00  0.00     0.005 C 
ATOM     20  C   UNL     1      84.269  38.017  26.124  1.00  0.00     0.003 C 
ATOM     21  C   UNL     1      86.541  37.188  25.337  1.00  0.00     0.085 C 
ATOM     22  C   UNL     1      83.597  37.782  24.712  1.00  0.00    -0.000 C 
ATOM     23  C   UNL     1      85.988  37.092  23.951  1.00  0.00     0.159 C 
ATOM     24  C   UNL     1      84.679  37.701  23.626  1.00  0.00     0.005 C 
ATOM     25  C   UNL     1      82.648  38.982  24.393  1.00  0.00     0.020 C 
ATOM     26  C   UNL     1      82.799  36.451  24.674  1.00  0.00     0.017 C 
ATOM     27  O   UNL     1      86.683  36.546  23.049  1.00  0.00    -0.295 OA
ATOM     28  C   UNL     1      84.423  38.070  22.356  1.00  0.00     0.055 C 
ATOM     29  C   UNL     1      82.071  38.933  22.973  1.00  0.00     0.081 C 
ATOM     30  C   UNL     1      83.143  38.676  21.963  1.00  0.00     0.156 C 
ATOM     31  O   UNL     1      82.929  38.943  20.750  1.00  0.00    -0.295 OA
ENDBRANCH   9  11
ENDBRANCH   8   9
ENDBRANCH   1   8
TORSDOF 6
ENDMDL
MODEL 6
REMARK VINA RESULT:    -6.397      2.992      5.422
REMARK INTER + INTRA:          -9.857
REMARK INTER:                  -8.164
REMARK INTRA:                  -1.693
REMARK UNBOUND:                -1.216
REMARK SMILES CC[C@H](CC[C@H](C)[C@@H]1CC[C@H]2[C@@H]3CC(=O)C4=CC(=O)CC[C@]4(C)[C@H]3CC[C@]21C)C(C)C
REMARK SMILES IDX 4 1 3 2 2 3 1 4 29 5 30 6 31 7 5 8 6 9 7 10 8 11 9 12 27 13
REMARK SMILES IDX 10 14 11 15 26 16 28 17 12 18 25 19 24 20 13 21 22 22 14 23
REMARK SMILES IDX 16 24 21 25 23 26 15 27 17 28 20 29 18 30 19 31
REMARK H PARENT
REMARK Flexibility Score: inf
ROOT
ATOM      1  C   UNL     1      83.325  36.418  20.165  1.00  0.00     0.004 C 
ENDROOT
BRANCH   1   2
ATOM      2  C   UNL     1      82.628  37.810  20.293  1.00  0.00    -0.009 C 
BRANCH   2   3
ATOM      3  C   UNL     1      81.093  37.593  20.426  1.00  0.00     0.000 C 
ATOM      4  C   UNL     1      80.633  36.206  19.965  1.00  0.00     0.004 C 
ENDBRANCH   2   3
BRANCH   2   5
ATOM      5  C   UNL     1      83.158  38.720  21.467  1.00  0.00    -0.014 C 
ATOM      6  C   UNL     1      83.729  40.076  21.019  1.00  0.00     0.007 C 
ATOM      7  C   UNL     1      82.134  38.923  22.591  1.00  0.00     0.007 C 
ENDBRANCH   2   5
ENDBRANCH   1   2
BRANCH   1   8
ATOM      8  C   UNL     1      84.534  36.130  21.082  1.00  0.00     0.004 C 
BRANCH   8   9
ATOM      9  C   UNL     1      84.372  35.413  22.470  1.00  0.00    -0.011 C 
ATOM     10  C   UNL     1      82.928  34.928  22.697  1.00  0.00     0.008 C 
BRANCH   9  11
ATOM     11  C   UNL     1      84.967  36.008  23.802  1.00  0.00    -0.002 C 
ATOM     12  C   UNL     1      85.355  37.478  23.832  1.00  0.00     0.005 C 
ATOM     13  C   UNL     1      86.093  35.250  24.569  1.00  0.00    -0.026 C 
ATOM     14  C   UNL     1      85.978  37.663  25.205  1.00  0.00     0.005 C 
ATOM     15  C   UNL     1      86.614  36.309  25.601  1.00  0.00    -0.001 C 
ATOM     16  C   UNL     1      85.517  33.986  25.269  1.00  0.00     0.007 C 
ATOM     17  C   UNL     1      87.264  34.826  23.648  1.00  0.00     0.012 C 
ATOM     18  C   UNL     1      86.319  35.937  27.087  1.00  0.00     0.004 C 
ATOM     19  C   UNL     1      86.454  33.445  26.352  1.00  0.00     0.005 C 
ATOM     20  C   UNL     1      86.847  34.507  27.429  1.00  0.00     0.003 C 
ATOM     21  C   UNL     1      86.955  36.975  28.035  1.00  0.00     0.085 C 
ATOM     22  C   UNL     1      86.501  34.070  28.908  1.00  0.00    -0.000 C 
ATOM     23  C   UNL     1      86.779  36.595  29.470  1.00  0.00     0.159 C 
ATOM     24  C   UNL     1      86.901  35.181  29.888  1.00  0.00     0.005 C 
ATOM     25  C   UNL     1      87.302  32.773  29.257  1.00  0.00     0.020 C 
ATOM     26  C   UNL     1      84.979  33.817  29.087  1.00  0.00     0.017 C 
ATOM     27  O   UNL     1      86.594  37.503  30.327  1.00  0.00    -0.295 OA
ATOM     28  C   UNL     1      87.254  34.899  31.158  1.00  0.00     0.055 C 
ATOM     29  C   UNL     1      87.163  32.357  30.726  1.00  0.00     0.081 C 
ATOM     30  C   UNL     1      87.390  33.518  31.641  1.00  0.00     0.156 C 
ATOM     31  O   UNL     1      87.658  33.308  32.854  1.00  0.00    -0.295 OA
ENDBRANCH   9  11
ENDBRANCH   8   9
ENDBRANCH   1   8
TORSDOF 6
ENDMDL
MODEL 7
REMARK VINA RESULT:    -6.218      7.472     10.778
REMARK INTER + INTRA:          -9.615
REMARK INTER:                  -8.173
REMARK INTRA:                  -1.442
REMARK UNBOUND:                -1.216
REMARK SMILES CC[C@H](CC[C@H](C)[C@@H]1CC[C@H]2[C@@H]3CC(=O)C4=CC(=O)CC[C@]4(C)[C@H]3CC[C@]21C)C(C)C
REMARK SMILES IDX 4 1 3 2 2 3 1 4 29 5 30 6 31 7 5 8 6 9 7 10 8 11 9 12 27 13
REMARK SMILES IDX 10 14 11 15 26 16 28 17 12 18 25 19 24 20 13 21 22 22 14 23
REMARK SMILES IDX 16 24 21 25 23 26 15 27 17 28 20 29 18 30 19 31
REMARK H PARENT
REMARK Flexibility Score: inf
ROOT
ATOM      1  C   UNL     1      85.772  35.276  28.204  1.00  0.00     0.004 C 
ENDROOT
BRANCH   1   2
ATOM      2  C   UNL     1      86.791  35.604  29.341  1.00  0.00    -0.009 C 
BRANCH   2   3
ATOM      3  C   UNL     1      86.908  37.150  29.482  1.00  0.00     0.000 C 
ATOM      4  C   UNL     1      87.633  37.813  28.305  1.00  0.00     0.004 C 
ENDBRANCH   2   3
BRANCH   2   5
ATOM      5  C   UNL     1      86.470  34.949  30.739  1.00  0.00    -0.014 C 
ATOM      6  C   UNL     1      87.706  34.480  31.525  1.00  0.00     0.007 C 
ATOM      7  C   UNL     1      85.577  35.821  31.630  1.00  0.00     0.007 C 
ENDBRANCH   2   5
ENDBRANCH   1   2
BRANCH   1   8
ATOM      8  C   UNL     1      84.374  35.929  28.280  1.00  0.00     0.004 C 
BRANCH   8   9
ATOM      9  C   UNL     1      83.908  37.017  27.249  1.00  0.00    -0.011 C 
ATOM     10  C   UNL     1      84.795  37.029  25.989  1.00  0.00     0.008 C 
BRANCH   9  11
ATOM     11  C   UNL     1      83.548  38.489  27.680  1.00  0.00    -0.002 C 
ATOM     12  C   UNL     1      83.810  38.911  29.117  1.00  0.00     0.005 C 
ATOM     13  C   UNL     1      82.171  39.109  27.294  1.00  0.00    -0.026 C 
ATOM     14  C   UNL     1      83.251  40.321  29.192  1.00  0.00     0.005 C 
ATOM     15  C   UNL     1      82.087  40.403  28.175  1.00  0.00    -0.001 C 
ATOM     16  C   UNL     1      82.128  39.434  25.773  1.00  0.00     0.007 C 
ATOM     17  C   UNL     1      80.979  38.184  27.645  1.00  0.00     0.012 C 
ATOM     18  C   UNL     1      82.123  41.727  27.352  1.00  0.00     0.004 C 
ATOM     19  C   UNL     1      80.995  40.401  25.419  1.00  0.00     0.005 C 
ATOM     20  C   UNL     1      81.028  41.731  26.237  1.00  0.00     0.003 C 
ATOM     21  C   UNL     1      81.931  42.942  28.284  1.00  0.00     0.085 C 
ATOM     22  C   UNL     1      81.082  43.030  25.338  1.00  0.00    -0.000 C 
ATOM     23  C   UNL     1      81.857  44.223  27.516  1.00  0.00     0.159 C 
ATOM     24  C   UNL     1      81.134  44.280  26.227  1.00  0.00     0.005 C 
ATOM     25  C   UNL     1      79.796  43.091  24.452  1.00  0.00     0.020 C 
ATOM     26  C   UNL     1      82.347  43.048  24.437  1.00  0.00     0.017 C 
ATOM     27  O   UNL     1      82.361  45.268  28.015  1.00  0.00    -0.295 OA
ATOM     28  C   UNL     1      80.630  45.457  25.807  1.00  0.00     0.055 C 
ATOM     29  C   UNL     1      79.671  44.397  23.659  1.00  0.00     0.081 C 
ATOM     30  C   UNL     1      79.904  45.586  24.536  1.00  0.00     0.156 C 
ATOM     31  O   UNL     1      79.510  46.722  24.158  1.00  0.00    -0.295 OA
ENDBRANCH   9  11
ENDBRANCH   8   9
ENDBRANCH   1   8
TORSDOF 6
ENDMDL
MODEL 8
REMARK VINA RESULT:    -6.217      4.662      7.556
REMARK INTER + INTRA:          -9.615
REMARK INTER:                  -8.114
REMARK INTRA:                  -1.501
REMARK UNBOUND:                -1.216
REMARK SMILES CC[C@H](CC[C@H](C)[C@@H]1CC[C@H]2[C@@H]3CC(=O)C4=CC(=O)CC[C@]4(C)[C@H]3CC[C@]21C)C(C)C
REMARK SMILES IDX 4 1 3 2 2 3 1 4 29 5 30 6 31 7 5 8 6 9 7 10 8 11 9 12 27 13
REMARK SMILES IDX 10 14 11 15 26 16 28 17 12 18 25 19 24 20 13 21 22 22 14 23
REMARK SMILES IDX 16 24 21 25 23 26 15 27 17 28 20 29 18 30 19 31
REMARK H PARENT
REMARK Flexibility Score: inf
ROOT
ATOM      1  C   UNL     1      81.306  40.733  22.581  1.00  0.00     0.004 C 
ENDROOT
BRANCH   1   2
ATOM      2  C   UNL     1      82.258  41.367  23.645  1.00  0.00    -0.009 C 
BRANCH   2   3
ATOM      3  C   UNL     1      82.352  42.899  23.387  1.00  0.00     0.000 C 
ATOM      4  C   UNL     1      83.089  43.252  22.090  1.00  0.00     0.004 C 
ENDBRANCH   2   3
BRANCH   2   5
ATOM      5  C   UNL     1      81.868  41.086  25.147  1.00  0.00    -0.014 C 
ATOM      6  C   UNL     1      82.251  42.206  26.128  1.00  0.00     0.007 C 
ATOM      7  C   UNL     1      80.394  40.703  25.332  1.00  0.00     0.007 C 
ENDBRANCH   2   5
ENDBRANCH   1   2
BRANCH   1   8
ATOM      8  C   UNL     1      81.832  39.528  21.771  1.00  0.00     0.004 C 
BRANCH   8   9
ATOM      9  C   UNL     1      83.356  39.151  21.736  1.00  0.00    -0.011 C 
ATOM     10  C   UNL     1      83.966  39.366  20.338  1.00  0.00     0.008 C 
BRANCH   9  11
ATOM     11  C   UNL     1      83.913  37.825  22.380  1.00  0.00    -0.002 C 
ATOM     12  C   UNL     1      83.914  36.555  21.544  1.00  0.00     0.005 C 
ATOM     13  C   UNL     1      83.469  37.398  23.812  1.00  0.00    -0.026 C 
ATOM     14  C   UNL     1      84.405  35.486  22.505  1.00  0.00     0.005 C 
ATOM     15  C   UNL     1      83.964  35.915  23.925  1.00  0.00    -0.001 C 
ATOM     16  C   UNL     1      84.128  38.316  24.882  1.00  0.00     0.007 C 
ATOM     17  C   UNL     1      81.932  37.432  23.997  1.00  0.00     0.012 C 
ATOM     18  C   UNL     1      85.098  35.708  24.976  1.00  0.00     0.004 C 
ATOM     19  C   UNL     1      84.069  37.707  26.285  1.00  0.00     0.005 C 
ATOM     20  C   UNL     1      84.687  36.275  26.372  1.00  0.00     0.003 C 
ATOM     21  C   UNL     1      85.449  34.211  25.097  1.00  0.00     0.085 C 
ATOM     22  C   UNL     1      85.842  36.146  27.444  1.00  0.00    -0.000 C 
ATOM     23  C   UNL     1      86.462  33.964  26.169  1.00  0.00     0.159 C 
ATOM     24  C   UNL     1      86.399  34.716  27.442  1.00  0.00     0.005 C 
ATOM     25  C   UNL     1      85.261  36.461  28.861  1.00  0.00     0.020 C 
ATOM     26  C   UNL     1      87.022  37.105  27.130  1.00  0.00     0.017 C 
ATOM     27  O   UNL     1      87.327  33.060  26.000  1.00  0.00    -0.295 OA
ATOM     28  C   UNL     1      86.935  34.173  28.553  1.00  0.00     0.055 C 
ATOM     29  C   UNL     1      86.262  36.205  29.993  1.00  0.00     0.081 C 
ATOM     30  C   UNL     1      86.911  34.865  29.848  1.00  0.00     0.156 C 
ATOM     31  O   UNL     1      87.483  34.344  30.843  1.00  0.00    -0.295 OA
ENDBRANCH   9  11
ENDBRANCH   8   9
ENDBRANCH   1   8
TORSDOF 6
ENDMDL
MODEL 9
REMARK VINA RESULT:    -6.048      7.126      9.754
REMARK INTER + INTRA:          -9.386
REMARK INTER:                  -8.643
REMARK INTRA:                  -0.742
REMARK UNBOUND:                -1.216
REMARK SMILES CC[C@H](CC[C@H](C)[C@@H]1CC[C@H]2[C@@H]3CC(=O)C4=CC(=O)CC[C@]4(C)[C@H]3CC[C@]21C)C(C)C
REMARK SMILES IDX 4 1 3 2 2 3 1 4 29 5 30 6 31 7 5 8 6 9 7 10 8 11 9 12 27 13
REMARK SMILES IDX 10 14 11 15 26 16 28 17 12 18 25 19 24 20 13 21 22 22 14 23
REMARK SMILES IDX 16 24 21 25 23 26 15 27 17 28 20 29 18 30 19 31
REMARK H PARENT
REMARK Flexibility Score: inf
ROOT
ATOM      1  C   UNL     1      80.109  44.339  26.619  1.00  0.00     0.004 C 
ENDROOT
BRANCH   1   2
ATOM      2  C   UNL     1      80.918  45.675  26.623  1.00  0.00    -0.009 C 
BRANCH   2   3
ATOM      3  C   UNL     1      80.233  46.680  25.653  1.00  0.00     0.000 C 
ATOM      4  C   UNL     1      80.785  46.618  24.224  1.00  0.00     0.004 C 
ENDBRANCH   2   3
BRANCH   2   5
ATOM      5  C   UNL     1      81.121  46.332  28.042  1.00  0.00    -0.014 C 
ATOM      6  C   UNL     1      82.587  46.442  28.494  1.00  0.00     0.007 C 
ATOM      7  C   UNL     1      80.419  47.688  28.191  1.00  0.00     0.007 C 
ENDBRANCH   2   5
ENDBRANCH   1   2
BRANCH   1   8
ATOM      8  C   UNL     1      80.840  43.055  26.169  1.00  0.00     0.004 C 
BRANCH   8   9
ATOM      9  C   UNL     1      81.464  42.048  27.200  1.00  0.00    -0.011 C 
ATOM     10  C   UNL     1      82.253  42.777  28.305  1.00  0.00     0.008 C 
BRANCH   9  11
ATOM     11  C   UNL     1      82.224  40.743  26.752  1.00  0.00    -0.002 C 
ATOM     12  C   UNL     1      82.091  40.283  25.309  1.00  0.00     0.005 C 
ATOM     13  C   UNL     1      82.154  39.453  27.623  1.00  0.00    -0.026 C 
ATOM     14  C   UNL     1      82.849  38.967  25.274  1.00  0.00     0.005 C 
ATOM     15  C   UNL     1      82.736  38.340  26.684  1.00  0.00    -0.001 C 
ATOM     16  C   UNL     1      82.999  39.625  28.918  1.00  0.00     0.007 C 
ATOM     17  C   UNL     1      80.704  39.073  28.015  1.00  0.00     0.012 C 
ATOM     18  C   UNL     1      84.095  37.752  27.172  1.00  0.00     0.004 C 
ATOM     19  C   UNL     1      83.305  38.285  29.593  1.00  0.00     0.005 C 
ATOM     20  C   UNL     1      83.998  37.251  28.649  1.00  0.00     0.003 C 
ATOM     21  C   UNL     1      84.541  36.598  26.252  1.00  0.00     0.085 C 
ATOM     22  C   UNL     1      85.379  36.714  29.200  1.00  0.00    -0.000 C 
ATOM     23  C   UNL     1      85.790  35.942  26.749  1.00  0.00     0.159 C 
ATOM     24  C   UNL     1      85.992  35.726  28.199  1.00  0.00     0.005 C 
ATOM     25  C   UNL     1      85.135  35.976  30.556  1.00  0.00     0.020 C 
ATOM     26  C   UNL     1      86.401  37.866  29.401  1.00  0.00     0.017 C 
ATOM     27  O   UNL     1      86.635  35.518  25.913  1.00  0.00    -0.295 OA
ATOM     28  C   UNL     1      86.802  34.729  28.607  1.00  0.00     0.055 C 
ATOM     29  C   UNL     1      86.387  35.275  31.095  1.00  0.00     0.081 C 
ATOM     30  C   UNL     1      87.051  34.460  30.030  1.00  0.00     0.156 C 
ATOM     31  O   UNL     1      87.868  33.559  30.359  1.00  0.00    -0.295 OA
ENDBRANCH   9  11
ENDBRANCH   8   9
ENDBRANCH   1   8
TORSDOF 6
ENDMDL
