MODEL 1
REMARK VINA RESULT:    -7.128      0.000      0.000
REMARK INTER + INTRA:          -7.128
REMARK INTER:                  -7.128
REMARK INTRA:                   0.000
REMARK UNBOUND:                 0.000
REMARK SMILES C[NH+]1CCN(C2=[NH+]c3ccccc3Oc3ccc(Cl)cc32)CC1
REMARK SMILES IDX 7 1 6 2 21 3 5 4 8 5 9 6 13 7 10 8 12 9 14 10 11 11 15 12
REMARK SMILES IDX 16 13 17 14 18 15 20 16 19 17 4 18 22 19 3 20 23 21 2 22
REMARK SMILES IDX 1 23
REMARK H PARENT 7 24 2 25
REMARK Flexibility Score: inf
ROOT
ATOM      1  N   UNL     1      26.583  39.123   4.859  1.00  0.00    -0.237 N 
ATOM      2  C   UNL     1      26.915  40.379   4.716  1.00  0.00     0.286 C 
ATOM      3  C   UNL     1      26.842  41.106   3.419  1.00  0.00     0.108 A 
ATOM      4  N   UNL     1      27.346  41.107   5.881  1.00  0.00    -0.250 N 
ATOM      5  C   UNL     1      26.116  38.218   3.844  1.00  0.00     0.168 A 
ATOM      6  C   UNL     1      25.215  37.207   4.220  1.00  0.00     0.056 A 
ATOM      7  C   UNL     1      26.673  38.187   2.549  1.00  0.00     0.173 A 
ATOM      8  C   UNL     1      24.864  36.192   3.327  1.00  0.00     0.005 A 
ATOM      9  C   UNL     1      26.343  37.146   1.672  1.00  0.00     0.052 A 
ATOM     10  O   UNL     1      27.549  39.168   2.093  1.00  0.00    -0.452 OA
ATOM     11  C   UNL     1      25.435  36.157   2.055  1.00  0.00     0.004 A 
ATOM     12  C   UNL     1      27.261  40.525   2.206  1.00  0.00     0.143 A 
ATOM     13  C   UNL     1      27.383  41.316   1.057  1.00  0.00     0.049 A 
ATOM     14  C   UNL     1      27.034  42.667   1.085  1.00  0.00     0.024 A 
ATOM     15  C   UNL     1      26.569  43.240   2.267  1.00  0.00     0.042 A 
ATOM     16  C   UNL     1      26.479  42.467   3.429  1.00  0.00     0.041 A 
ATOM     17  Cl  UNL     1      26.121  44.936   2.305  1.00  0.00    -0.084 Cl
ATOM     18  C   UNL     1      26.429  41.312   7.005  1.00  0.00     0.298 C 
ATOM     19  C   UNL     1      28.590  41.880   5.855  1.00  0.00     0.298 C 
ATOM     20  C   UNL     1      27.201  41.216   8.325  1.00  0.00     0.308 C 
ATOM     21  C   UNL     1      29.296  41.767   7.210  1.00  0.00     0.308 C 
ATOM     22  N   UNL     1      28.378  42.114   8.317  1.00  0.00    -0.331 N 
ATOM     23  C   UNL     1      29.085  42.030   9.605  1.00  0.00     0.332 C 
ATOM     24  H   UNL     1      26.631  38.725   5.825  1.00  0.00     0.312 HD
ATOM     25  H   UNL     1      28.052  43.102   8.195  1.00  0.00     0.348 HD
ENDROOT
TORSDOF 0
ENDMDL
MODEL 2
REMARK VINA RESULT:    -6.943      2.581      5.875
REMARK INTER + INTRA:          -6.943
REMARK INTER:                  -6.943
REMARK INTRA:                   0.000
REMARK UNBOUND:                 0.000
REMARK SMILES C[NH+]1CCN(C2=[NH+]c3ccccc3Oc3ccc(Cl)cc32)CC1
REMARK SMILES IDX 7 1 6 2 21 3 5 4 8 5 9 6 13 7 10 8 12 9 14 10 11 11 15 12
REMARK SMILES IDX 16 13 17 14 18 15 20 16 19 17 4 18 22 19 3 20 23 21 2 22
REMARK SMILES IDX 1 23
REMARK H PARENT 7 24 2 25
REMARK Flexibility Score: inf
ROOT
ATOM      1  N   UNL     1      26.556  39.216   5.115  1.00  0.00    -0.237 N 
ATOM      2  C   UNL     1      26.927  38.637   4.004  1.00  0.00     0.286 C 
ATOM      3  C   UNL     1      27.721  39.319   2.947  1.00  0.00     0.108 A 
ATOM      4  N   UNL     1      26.574  37.254   3.806  1.00  0.00    -0.250 N 
ATOM      5  C   UNL     1      26.808  40.570   5.525  1.00  0.00     0.168 A 
ATOM      6  C   UNL     1      26.956  40.832   6.898  1.00  0.00     0.056 A 
ATOM      7  C   UNL     1      26.718  41.656   4.630  1.00  0.00     0.173 A 
ATOM      8  C   UNL     1      27.023  42.144   7.374  1.00  0.00     0.005 A 
ATOM      9  C   UNL     1      26.752  42.969   5.120  1.00  0.00     0.052 A 
ATOM     10  O   UNL     1      26.601  41.478   3.255  1.00  0.00    -0.452 OA
ATOM     11  C   UNL     1      26.912  43.213   6.485  1.00  0.00     0.004 A 
ATOM     12  C   UNL     1      27.457  40.643   2.543  1.00  0.00     0.143 A 
ATOM     13  C   UNL     1      28.078  41.163   1.401  1.00  0.00     0.049 A 
ATOM     14  C   UNL     1      29.005  40.402   0.689  1.00  0.00     0.024 A 
ATOM     15  C   UNL     1      29.313  39.109   1.109  1.00  0.00     0.042 A 
ATOM     16  C   UNL     1      28.671  38.568   2.227  1.00  0.00     0.041 A 
ATOM     17  Cl  UNL     1      30.486  38.152   0.221  1.00  0.00    -0.084 Cl
ATOM     18  C   UNL     1      27.096  36.222   4.705  1.00  0.00     0.298 C 
ATOM     19  C   UNL     1      25.926  36.825   2.564  1.00  0.00     0.298 C 
ATOM     20  C   UNL     1      26.020  35.158   4.949  1.00  0.00     0.308 C 
ATOM     21  C   UNL     1      24.886  35.742   2.872  1.00  0.00     0.308 C 
ATOM     22  N   UNL     1      25.483  34.647   3.668  1.00  0.00    -0.331 N 
ATOM     23  C   UNL     1      24.476  33.604   3.925  1.00  0.00     0.332 C 
ATOM     24  H   UNL     1      26.038  38.628   5.809  1.00  0.00     0.312 HD
ATOM     25  H   UNL     1      26.262  34.210   3.120  1.00  0.00     0.348 HD
ENDROOT
TORSDOF 0
ENDMDL
MODEL 3
REMARK VINA RESULT:    -6.832      3.034      5.767
REMARK INTER + INTRA:          -6.832
REMARK INTER:                  -6.832
REMARK INTRA:                   0.000
REMARK UNBOUND:                 0.000
REMARK SMILES C[NH+]1CCN(C2=[NH+]c3ccccc3Oc3ccc(Cl)cc32)CC1
REMARK SMILES IDX 7 1 6 2 21 3 5 4 8 5 9 6 13 7 10 8 12 9 14 10 11 11 15 12
REMARK SMILES IDX 16 13 17 14 18 15 20 16 19 17 4 18 22 19 3 20 23 21 2 22
REMARK SMILES IDX 1 23
REMARK H PARENT 7 24 2 25
REMARK Flexibility Score: inf
ROOT
ATOM      1  N   UNL     1      28.538  37.927   1.696  1.00  0.00    -0.237 N 
ATOM      2  C   UNL     1      27.615  38.288   2.547  1.00  0.00     0.286 C 
ATOM      3  C   UNL     1      27.506  39.661   3.109  1.00  0.00     0.108 A 
ATOM      4  N   UNL     1      26.631  37.311   2.939  1.00  0.00    -0.250 N 
ATOM      5  C   UNL     1      29.601  38.733   1.161  1.00  0.00     0.168 A 
ATOM      6  C   UNL     1      30.050  38.461  -0.143  1.00  0.00     0.056 A 
ATOM      7  C   UNL     1      30.330  39.641   1.956  1.00  0.00     0.173 A 
ATOM      8  C   UNL     1      31.192  39.083  -0.652  1.00  0.00     0.005 A 
ATOM      9  C   UNL     1      31.494  40.235   1.449  1.00  0.00     0.052 A 
ATOM     10  O   UNL     1      29.933  39.985   3.245  1.00  0.00    -0.452 OA
ATOM     11  C   UNL     1      31.919  39.964   0.147  1.00  0.00     0.004 A 
ATOM     12  C   UNL     1      28.634  40.392   3.534  1.00  0.00     0.143 A 
ATOM     13  C   UNL     1      28.466  41.580   4.256  1.00  0.00     0.049 A 
ATOM     14  C   UNL     1      27.190  42.082   4.510  1.00  0.00     0.024 A 
ATOM     15  C   UNL     1      26.068  41.394   4.050  1.00  0.00     0.042 A 
ATOM     16  C   UNL     1      26.224  40.188   3.359  1.00  0.00     0.041 A 
ATOM     17  Cl  UNL     1      24.461  42.026   4.359  1.00  0.00    -0.084 Cl
ATOM     18  C   UNL     1      25.717  36.743   1.945  1.00  0.00     0.298 C 
ATOM     19  C   UNL     1      26.342  37.076   4.356  1.00  0.00     0.298 C 
ATOM     20  C   UNL     1      25.479  35.261   2.251  1.00  0.00     0.308 C 
ATOM     21  C   UNL     1      26.084  35.584   4.589  1.00  0.00     0.308 C 
ATOM     22  N   UNL     1      25.055  35.073   3.657  1.00  0.00    -0.331 N 
ATOM     23  C   UNL     1      24.800  33.647   3.920  1.00  0.00     0.332 C 
ATOM     24  H   UNL     1      28.493  36.947   1.331  1.00  0.00     0.312 HD
ATOM     25  H   UNL     1      24.159  35.592   3.816  1.00  0.00     0.348 HD
ENDROOT
TORSDOF 0
ENDMDL
MODEL 4
REMARK VINA RESULT:    -6.759      2.620      4.988
REMARK INTER + INTRA:          -6.759
REMARK INTER:                  -6.759
REMARK INTRA:                   0.000
REMARK UNBOUND:                 0.000
REMARK SMILES C[NH+]1CCN(C2=[NH+]c3ccccc3Oc3ccc(Cl)cc32)CC1
REMARK SMILES IDX 7 1 6 2 21 3 5 4 8 5 9 6 13 7 10 8 12 9 14 10 11 11 15 12
REMARK SMILES IDX 16 13 17 14 18 15 20 16 19 17 4 18 22 19 3 20 23 21 2 22
REMARK SMILES IDX 1 23
REMARK H PARENT 7 24 2 25
REMARK Flexibility Score: inf
ROOT
ATOM      1  N   UNL     1      26.842  40.636   2.393  1.00  0.00    -0.237 N 
ATOM      2  C   UNL     1      27.366  41.548   3.169  1.00  0.00     0.286 C 
ATOM      3  C   UNL     1      27.710  41.312   4.597  1.00  0.00     0.108 A 
ATOM      4  N   UNL     1      27.654  42.841   2.603  1.00  0.00    -0.250 N 
ATOM      5  C   UNL     1      26.490  39.287   2.740  1.00  0.00     0.168 A 
ATOM      6  C   UNL     1      26.586  38.299   1.744  1.00  0.00     0.056 A 
ATOM      7  C   UNL     1      25.874  38.961   3.965  1.00  0.00     0.173 A 
ATOM      8  C   UNL     1      26.091  37.011   1.962  1.00  0.00     0.005 A 
ATOM      9  C   UNL     1      25.349  37.677   4.163  1.00  0.00     0.052 A 
ATOM     10  O   UNL     1      25.767  39.875   5.009  1.00  0.00    -0.452 OA
ATOM     11  C   UNL     1      25.464  36.703   3.170  1.00  0.00     0.004 A 
ATOM     12  C   UNL     1      26.862  40.602   5.469  1.00  0.00     0.143 A 
ATOM     13  C   UNL     1      27.118  40.597   6.846  1.00  0.00     0.049 A 
ATOM     14  C   UNL     1      28.243  41.241   7.360  1.00  0.00     0.024 A 
ATOM     15  C   UNL     1      29.118  41.904   6.501  1.00  0.00     0.042 A 
ATOM     16  C   UNL     1      28.851  41.945   5.129  1.00  0.00     0.041 A 
ATOM     17  Cl  UNL     1      30.539  42.708   7.143  1.00  0.00    -0.084 Cl
ATOM     18  C   UNL     1      28.632  42.973   1.520  1.00  0.00     0.298 C 
ATOM     19  C   UNL     1      27.192  44.062   3.269  1.00  0.00     0.298 C 
ATOM     20  C   UNL     1      28.158  44.035   0.523  1.00  0.00     0.308 C 
ATOM     21  C   UNL     1      26.763  45.091   2.219  1.00  0.00     0.308 C 
ATOM     22  N   UNL     1      27.830  45.301   1.216  1.00  0.00    -0.331 N 
ATOM     23  C   UNL     1      27.409  46.317   0.236  1.00  0.00     0.332 C 
ATOM     24  H   UNL     1      26.682  40.898   1.392  1.00  0.00     0.312 HD
ATOM     25  H   UNL     1      28.688  45.659   1.698  1.00  0.00     0.348 HD
ENDROOT
TORSDOF 0
ENDMDL
MODEL 5
REMARK VINA RESULT:    -6.611      2.966      6.594
REMARK INTER + INTRA:          -6.611
REMARK INTER:                  -6.611
REMARK INTRA:                   0.000
REMARK UNBOUND:                 0.000
REMARK SMILES C[NH+]1CCN(C2=[NH+]c3ccccc3Oc3ccc(Cl)cc32)CC1
REMARK SMILES IDX 7 1 6 2 21 3 5 4 8 5 9 6 13 7 10 8 12 9 14 10 11 11 15 12
REMARK SMILES IDX 16 13 17 14 18 15 20 16 19 17 4 18 22 19 3 20 23 21 2 22
REMARK SMILES IDX 1 23
REMARK H PARENT 7 24 2 25
REMARK Flexibility Score: inf
ROOT
ATOM      1  N   UNL     1      27.820  39.710   7.941  1.00  0.00    -0.237 N 
ATOM      2  C   UNL     1      27.402  40.716   7.219  1.00  0.00     0.286 C 
ATOM      3  C   UNL     1      27.157  42.076   7.769  1.00  0.00     0.108 A 
ATOM      4  N   UNL     1      27.196  40.503   5.809  1.00  0.00    -0.250 N 
ATOM      5  C   UNL     1      28.102  39.700   9.351  1.00  0.00     0.168 A 
ATOM      6  C   UNL     1      29.113  38.843   9.820  1.00  0.00     0.056 A 
ATOM      7  C   UNL     1      27.280  40.361  10.287  1.00  0.00     0.173 A 
ATOM      8  C   UNL     1      29.313  38.653  11.189  1.00  0.00     0.005 A 
ATOM      9  C   UNL     1      27.466  40.137  11.658  1.00  0.00     0.052 A 
ATOM     10  O   UNL     1      26.278  41.246   9.902  1.00  0.00    -0.452 OA
ATOM     11  C   UNL     1      28.483  39.295  12.109  1.00  0.00     0.004 A 
ATOM     12  C   UNL     1      26.515  42.284   9.006  1.00  0.00     0.143 A 
ATOM     13  C   UNL     1      26.109  43.573   9.375  1.00  0.00     0.049 A 
ATOM     14  C   UNL     1      26.387  44.667   8.556  1.00  0.00     0.024 A 
ATOM     15  C   UNL     1      27.067  44.480   7.353  1.00  0.00     0.042 A 
ATOM     16  C   UNL     1      27.444  43.192   6.959  1.00  0.00     0.041 A 
ATOM     17  Cl  UNL     1      27.426  45.854   6.324  1.00  0.00    -0.084 Cl
ATOM     18  C   UNL     1      28.323  40.143   4.945  1.00  0.00     0.298 C 
ATOM     19  C   UNL     1      25.939  40.904   5.174  1.00  0.00     0.298 C 
ATOM     20  C   UNL     1      27.860  39.137   3.886  1.00  0.00     0.308 C 
ATOM     21  C   UNL     1      25.549  39.875   4.108  1.00  0.00     0.308 C 
ATOM     22  N   UNL     1      26.666  39.636   3.168  1.00  0.00    -0.331 N 
ATOM     23  C   UNL     1      26.259  38.670   2.135  1.00  0.00     0.332 C 
ATOM     24  H   UNL     1      28.002  38.808   7.442  1.00  0.00     0.312 HD
ATOM     25  H   UNL     1      26.908  40.536   2.687  1.00  0.00     0.348 HD
ENDROOT
TORSDOF 0
ENDMDL
MODEL 6
REMARK VINA RESULT:    -6.511      2.156      5.678
REMARK INTER + INTRA:          -6.511
REMARK INTER:                  -6.511
REMARK INTRA:                   0.000
REMARK UNBOUND:                 0.000
REMARK SMILES C[NH+]1CCN(C2=[NH+]c3ccccc3Oc3ccc(Cl)cc32)CC1
REMARK SMILES IDX 7 1 6 2 21 3 5 4 8 5 9 6 13 7 10 8 12 9 14 10 11 11 15 12
REMARK SMILES IDX 16 13 17 14 18 15 20 16 19 17 4 18 22 19 3 20 23 21 2 22
REMARK SMILES IDX 1 23
REMARK H PARENT 7 24 2 25
REMARK Flexibility Score: inf
ROOT
ATOM      1  N   UNL     1      26.959  39.849   5.952  1.00  0.00    -0.237 N 
ATOM      2  C   UNL     1      27.075  39.596   4.676  1.00  0.00     0.286 C 
ATOM      3  C   UNL     1      27.479  40.616   3.670  1.00  0.00     0.108 A 
ATOM      4  N   UNL     1      26.829  38.252   4.221  1.00  0.00    -0.250 N 
ATOM      5  C   UNL     1      27.169  41.104   6.621  1.00  0.00     0.168 A 
ATOM      6  C   UNL     1      27.653  41.080   7.941  1.00  0.00     0.056 A 
ATOM      7  C   UNL     1      26.728  42.328   6.079  1.00  0.00     0.173 A 
ATOM      8  C   UNL     1      27.708  42.248   8.705  1.00  0.00     0.005 A 
ATOM      9  C   UNL     1      26.754  43.489   6.865  1.00  0.00     0.052 A 
ATOM     10  O   UNL     1      26.263  42.438   4.772  1.00  0.00    -0.452 OA
ATOM     11  C   UNL     1      27.250  43.451   8.169  1.00  0.00     0.004 A 
ATOM     12  C   UNL     1      26.978  41.933   3.690  1.00  0.00     0.143 A 
ATOM     13  C   UNL     1      27.209  42.786   2.604  1.00  0.00     0.049 A 
ATOM     14  C   UNL     1      27.985  42.366   1.524  1.00  0.00     0.024 A 
ATOM     15  C   UNL     1      28.529  41.082   1.516  1.00  0.00     0.042 A 
ATOM     16  C   UNL     1      28.273  40.210   2.579  1.00  0.00     0.041 A 
ATOM     17  Cl  UNL     1      29.512  40.552   0.163  1.00  0.00    -0.084 Cl
ATOM     18  C   UNL     1      27.679  37.150   4.679  1.00  0.00     0.298 C 
ATOM     19  C   UNL     1      25.919  38.002   3.101  1.00  0.00     0.298 C 
ATOM     20  C   UNL     1      26.828  35.894   4.892  1.00  0.00     0.308 C 
ATOM     21  C   UNL     1      25.121  36.720   3.361  1.00  0.00     0.308 C 
ATOM     22  N   UNL     1      26.021  35.593   3.688  1.00  0.00    -0.331 N 
ATOM     23  C   UNL     1      25.236  34.365   3.902  1.00  0.00     0.332 C 
ATOM     24  H   UNL     1      26.713  39.045   6.576  1.00  0.00     0.312 HD
ATOM     25  H   UNL     1      26.665  35.423   2.879  1.00  0.00     0.348 HD
ENDROOT
TORSDOF 0
ENDMDL
MODEL 7
REMARK VINA RESULT:    -6.491      3.537      4.843
REMARK INTER + INTRA:          -6.491
REMARK INTER:                  -6.491
REMARK INTRA:                   0.000
REMARK UNBOUND:                 0.000
REMARK SMILES C[NH+]1CCN(C2=[NH+]c3ccccc3Oc3ccc(Cl)cc32)CC1
REMARK SMILES IDX 7 1 6 2 21 3 5 4 8 5 9 6 13 7 10 8 12 9 14 10 11 11 15 12
REMARK SMILES IDX 16 13 17 14 18 15 20 16 19 17 4 18 22 19 3 20 23 21 2 22
REMARK SMILES IDX 1 23
REMARK H PARENT 7 24 2 25
REMARK Flexibility Score: inf
ROOT
ATOM      1  N   UNL     1      27.015  40.661   2.847  1.00  0.00    -0.237 N 
ATOM      2  C   UNL     1      27.923  41.180   2.064  1.00  0.00     0.286 C 
ATOM      3  C   UNL     1      29.031  40.394   1.457  1.00  0.00     0.108 A 
ATOM      4  N   UNL     1      27.830  42.582   1.749  1.00  0.00    -0.250 N 
ATOM      5  C   UNL     1      26.907  39.294   3.279  1.00  0.00     0.168 A 
ATOM      6  C   UNL     1      25.623  38.772   3.516  1.00  0.00     0.056 A 
ATOM      7  C   UNL     1      28.031  38.532   3.656  1.00  0.00     0.173 A 
ATOM      8  C   UNL     1      25.457  37.517   4.106  1.00  0.00     0.005 A 
ATOM      9  C   UNL     1      27.856  37.289   4.279  1.00  0.00     0.052 A 
ATOM     10  O   UNL     1      29.333  38.967   3.428  1.00  0.00    -0.452 OA
ATOM     11  C   UNL     1      26.575  36.779   4.495  1.00  0.00     0.004 A 
ATOM     12  C   UNL     1      29.752  39.424   2.181  1.00  0.00     0.143 A 
ATOM     13  C   UNL     1      30.921  38.873   1.642  1.00  0.00     0.049 A 
ATOM     14  C   UNL     1      31.349  39.231   0.364  1.00  0.00     0.024 A 
ATOM     15  C   UNL     1      30.616  40.152  -0.383  1.00  0.00     0.042 A 
ATOM     16  C   UNL     1      29.468  40.734   0.161  1.00  0.00     0.041 A 
ATOM     17  Cl  UNL     1      31.147  40.598  -1.995  1.00  0.00    -0.084 Cl
ATOM     18  C   UNL     1      26.673  43.099   1.014  1.00  0.00     0.298 C 
ATOM     19  C   UNL     1      28.994  43.457   1.908  1.00  0.00     0.298 C 
ATOM     20  C   UNL     1      26.291  44.480   1.556  1.00  0.00     0.308 C 
ATOM     21  C   UNL     1      28.542  44.828   2.422  1.00  0.00     0.308 C 
ATOM     22  N   UNL     1      27.464  45.383   1.574  1.00  0.00    -0.331 N 
ATOM     23  C   UNL     1      27.068  46.713   2.067  1.00  0.00     0.332 C 
ATOM     24  H   UNL     1      26.255  41.297   3.183  1.00  0.00     0.312 HD
ATOM     25  H   UNL     1      27.822  45.498   0.596  1.00  0.00     0.348 HD
ENDROOT
TORSDOF 0
ENDMDL
MODEL 8
REMARK VINA RESULT:    -6.417      7.974     11.142
REMARK INTER + INTRA:          -6.417
REMARK INTER:                  -6.417
REMARK INTRA:                   0.000
REMARK UNBOUND:                 0.000
REMARK SMILES C[NH+]1CCN(C2=[NH+]c3ccccc3Oc3ccc(Cl)cc32)CC1
REMARK SMILES IDX 7 1 6 2 21 3 5 4 8 5 9 6 13 7 10 8 12 9 14 10 11 11 15 12
REMARK SMILES IDX 16 13 17 14 18 15 20 16 19 17 4 18 22 19 3 20 23 21 2 22
REMARK SMILES IDX 1 23
REMARK H PARENT 7 24 2 25
REMARK Flexibility Score: inf
ROOT
ATOM      1  N   UNL     1      23.233  45.878  12.622  1.00  0.00    -0.237 N 
ATOM      2  C   UNL     1      23.567  45.209  11.551  1.00  0.00     0.286 C 
ATOM      3  C   UNL     1      24.816  44.409  11.438  1.00  0.00     0.108 A 
ATOM      4  N   UNL     1      22.664  45.223  10.429  1.00  0.00    -0.250 N 
ATOM      5  C   UNL     1      23.969  45.991  13.851  1.00  0.00     0.168 A 
ATOM      6  C   UNL     1      23.246  46.139  15.048  1.00  0.00     0.056 A 
ATOM      7  C   UNL     1      25.370  46.155  13.877  1.00  0.00     0.173 A 
ATOM      8  C   UNL     1      23.898  46.433  16.247  1.00  0.00     0.005 A 
ATOM      9  C   UNL     1      26.012  46.483  15.079  1.00  0.00     0.052 A 
ATOM     10  O   UNL     1      26.157  45.995  12.741  1.00  0.00    -0.452 OA
ATOM     11  C   UNL     1      25.281  46.613  16.261  1.00  0.00     0.004 A 
ATOM     12  C   UNL     1      26.055  44.874  11.923  1.00  0.00     0.143 A 
ATOM     13  C   UNL     1      27.234  44.191  11.599  1.00  0.00     0.049 A 
ATOM     14  C   UNL     1      27.190  43.017  10.848  1.00  0.00     0.024 A 
ATOM     15  C   UNL     1      25.965  42.519  10.406  1.00  0.00     0.042 A 
ATOM     16  C   UNL     1      24.786  43.213  10.694  1.00  0.00     0.041 A 
ATOM     17  Cl  UNL     1      25.905  41.037   9.469  1.00  0.00    -0.084 Cl
ATOM     18  C   UNL     1      21.319  44.657  10.556  1.00  0.00     0.298 C 
ATOM     19  C   UNL     1      23.153  45.545   9.086  1.00  0.00     0.298 C 
ATOM     20  C   UNL     1      20.322  45.509   9.764  1.00  0.00     0.308 C 
ATOM     21  C   UNL     1      22.100  46.369   8.337  1.00  0.00     0.308 C 
ATOM     22  N   UNL     1      20.782  45.700   8.370  1.00  0.00    -0.331 N 
ATOM     23  C   UNL     1      19.795  46.492   7.618  1.00  0.00     0.332 C 
ATOM     24  H   UNL     1      22.309  46.370  12.607  1.00  0.00     0.312 HD
ATOM     25  H   UNL     1      20.861  44.764   7.905  1.00  0.00     0.348 HD
ENDROOT
TORSDOF 0
ENDMDL
MODEL 9
REMARK VINA RESULT:    -6.402      3.836      6.850
REMARK INTER + INTRA:          -6.402
REMARK INTER:                  -6.402
REMARK INTRA:                   0.000
REMARK UNBOUND:                 0.000
REMARK SMILES C[NH+]1CCN(C2=[NH+]c3ccccc3Oc3ccc(Cl)cc32)CC1
REMARK SMILES IDX 7 1 6 2 21 3 5 4 8 5 9 6 13 7 10 8 12 9 14 10 11 11 15 12
REMARK SMILES IDX 16 13 17 14 18 15 20 16 19 17 4 18 22 19 3 20 23 21 2 22
REMARK SMILES IDX 1 23
REMARK H PARENT 7 24 2 25
REMARK Flexibility Score: inf
ROOT
ATOM      1  N   UNL     1      28.976  42.319   1.082  1.00  0.00    -0.237 N 
ATOM      2  C   UNL     1      28.863  41.050   1.374  1.00  0.00     0.286 C 
ATOM      3  C   UNL     1      27.689  40.471   2.082  1.00  0.00     0.108 A 
ATOM      4  N   UNL     1      29.917  40.160   0.961  1.00  0.00    -0.250 N 
ATOM      5  C   UNL     1      28.047  43.374   1.382  1.00  0.00     0.168 A 
ATOM      6  C   UNL     1      27.959  44.455   0.488  1.00  0.00     0.056 A 
ATOM      7  C   UNL     1      27.376  43.457   2.620  1.00  0.00     0.173 A 
ATOM      8  C   UNL     1      27.213  45.592   0.810  1.00  0.00     0.005 A 
ATOM      9  C   UNL     1      26.659  44.615   2.948  1.00  0.00     0.052 A 
ATOM     10  O   UNL     1      27.391  42.417   3.544  1.00  0.00    -0.452 OA
ATOM     11  C   UNL     1      26.570  45.675   2.045  1.00  0.00     0.004 A 
ATOM     12  C   UNL     1      27.087  41.107   3.186  1.00  0.00     0.143 A 
ATOM     13  C   UNL     1      26.136  40.424   3.954  1.00  0.00     0.049 A 
ATOM     14  C   UNL     1      25.730  39.137   3.600  1.00  0.00     0.024 A 
ATOM     15  C   UNL     1      26.282  38.517   2.479  1.00  0.00     0.042 A 
ATOM     16  C   UNL     1      27.259  39.177   1.728  1.00  0.00     0.041 A 
ATOM     17  Cl  UNL     1      25.769  36.902   2.026  1.00  0.00    -0.084 Cl
ATOM     18  C   UNL     1      30.209  39.970  -0.462  1.00  0.00     0.298 C 
ATOM     19  C   UNL     1      30.522  39.232   1.920  1.00  0.00     0.298 C 
ATOM     20  C   UNL     1      31.721  39.831  -0.665  1.00  0.00     0.308 C 
ATOM     21  C   UNL     1      32.025  39.115   1.644  1.00  0.00     0.308 C 
ATOM     22  N   UNL     1      32.280  38.788   0.224  1.00  0.00    -0.331 N 
ATOM     23  C   UNL     1      33.726  38.648  -0.010  1.00  0.00     0.332 C 
ATOM     24  H   UNL     1      29.824  42.610   0.542  1.00  0.00     0.312 HD
ATOM     25  H   UNL     1      31.829  37.869  -0.002  1.00  0.00     0.348 HD
ENDROOT
TORSDOF 0
ENDMDL
