MODEL 1
REMARK VINA RESULT:    -4.250      0.000      0.000
REMARK INTER + INTRA:          -7.667
REMARK INTER:                  -6.486
REMARK INTRA:                  -1.182
REMARK UNBOUND:                -1.182
REMARK SMILES CCCCCCCCCCC(=O)[O-]
REMARK SMILES IDX 7 1 8 2 9 3 10 4 11 5 12 6 13 7 6 8 5 9 4 10 3 11 2 12 1 13
REMARK H PARENT
REMARK Flexibility Score: inf
ROOT
ATOM      1  C   UNL     1     -21.875 -60.941  -0.494  1.00  0.00     0.000 C 
ENDROOT
BRANCH   1   2
ATOM      2  C   UNL     1     -22.229 -59.592   0.149  1.00  0.00     0.000 C 
BRANCH   2   3
ATOM      3  C   UNL     1     -23.342 -58.885  -0.637  1.00  0.00     0.006 C 
BRANCH   3   4
ATOM      4  C   UNL     1     -24.234 -59.898  -1.358  1.00  0.00     0.053 C 
BRANCH   4   5
ATOM      5  C   UNL     1     -25.401 -59.209  -1.993  1.00  0.00     0.041 C 
ATOM      6  O   UNL     1     -26.106 -58.410  -1.322  1.00  0.00    -0.550 OA
ATOM      7  O   UNL     1     -25.740 -59.488  -3.311  1.00  0.00    -0.550 OA
ENDBRANCH   4   5
ENDBRANCH   3   4
ENDBRANCH   2   3
ENDBRANCH   1   2
BRANCH   1   8
ATOM      8  C   UNL     1     -21.875 -62.099   0.518  1.00  0.00     0.000 C 
BRANCH   8   9
ATOM      9  C   UNL     1     -22.604 -61.742   1.826  1.00  0.00    -0.000 C 
BRANCH   9  10
ATOM     10  C   UNL     1     -23.768 -62.697   2.132  1.00  0.00    -0.000 C 
BRANCH  10  11
ATOM     11  C   UNL     1     -24.932 -62.003   2.856  1.00  0.00    -0.000 C 
BRANCH  11  12
ATOM     12  C   UNL     1     -24.847 -60.481   2.697  1.00  0.00    -0.003 C 
ATOM     13  C   UNL     1     -26.036 -59.941   1.907  1.00  0.00     0.004 C 
ENDBRANCH  11  12
ENDBRANCH  10  11
ENDBRANCH   9  10
ENDBRANCH   8   9
ENDBRANCH   1   8
TORSDOF 9
ENDMDL
MODEL 2
REMARK VINA RESULT:    -4.234      1.128      1.827
REMARK INTER + INTRA:          -7.643
REMARK INTER:                  -6.905
REMARK INTRA:                  -0.738
REMARK UNBOUND:                -1.182
REMARK SMILES CCCCCCCCCCC(=O)[O-]
REMARK SMILES IDX 7 1 8 2 9 3 10 4 11 5 12 6 13 7 6 8 5 9 4 10 3 11 2 12 1 13
REMARK H PARENT
REMARK Flexibility Score: inf
ROOT
ATOM      1  C   UNL     1     -21.881 -61.916   0.250  1.00  0.00     0.000 C 
ENDROOT
BRANCH   1   2
ATOM      2  C   UNL     1     -21.916 -60.413  -0.065  1.00  0.00     0.000 C 
BRANCH   2   3
ATOM      3  C   UNL     1     -22.803 -60.129  -1.284  1.00  0.00     0.006 C 
BRANCH   3   4
ATOM      4  C   UNL     1     -23.832 -59.039  -0.973  1.00  0.00     0.053 C 
BRANCH   4   5
ATOM      5  C   UNL     1     -25.180 -59.427  -1.495  1.00  0.00     0.041 C 
ATOM      6  O   UNL     1     -26.126 -59.657  -0.697  1.00  0.00    -0.550 OA
ATOM      7  O   UNL     1     -25.378 -59.583  -2.861  1.00  0.00    -0.550 OA
ENDBRANCH   4   5
ENDBRANCH   3   4
ENDBRANCH   2   3
ENDBRANCH   1   2
BRANCH   1   8
ATOM      8  C   UNL     1     -22.540 -62.257   1.597  1.00  0.00     0.000 C 
BRANCH   8   9
ATOM      9  C   UNL     1     -23.308 -61.065   2.197  1.00  0.00    -0.000 C 
BRANCH   9  10
ATOM     10  C   UNL     1     -24.823 -61.314   2.262  1.00  0.00    -0.000 C 
BRANCH  10  11
ATOM     11  C   UNL     1     -25.340 -61.458   3.702  1.00  0.00    -0.000 C 
BRANCH  11  12
ATOM     12  C   UNL     1     -26.048 -62.803   3.898  1.00  0.00    -0.003 C 
ATOM     13  C   UNL     1     -25.111 -63.968   3.592  1.00  0.00     0.004 C 
ENDBRANCH  11  12
ENDBRANCH  10  11
ENDBRANCH   9  10
ENDBRANCH   8   9
ENDBRANCH   1   8
TORSDOF 9
ENDMDL
MODEL 3
REMARK VINA RESULT:    -4.221      1.202      1.695
REMARK INTER + INTRA:          -7.623
REMARK INTER:                  -6.895
REMARK INTRA:                  -0.728
REMARK UNBOUND:                -1.182
REMARK SMILES CCCCCCCCCCC(=O)[O-]
REMARK SMILES IDX 7 1 8 2 9 3 10 4 11 5 12 6 13 7 6 8 5 9 4 10 3 11 2 12 1 13
REMARK H PARENT
REMARK Flexibility Score: inf
ROOT
ATOM      1  C   UNL     1     -22.014 -60.646  -0.824  1.00  0.00     0.000 C 
ENDROOT
BRANCH   1   2
ATOM      2  C   UNL     1     -22.999 -59.490  -1.052  1.00  0.00     0.000 C 
BRANCH   2   3
ATOM      3  C   UNL     1     -24.361 -59.796  -0.415  1.00  0.00     0.006 C 
BRANCH   3   4
ATOM      4  C   UNL     1     -25.383 -58.707  -0.751  1.00  0.00     0.053 C 
BRANCH   4   5
ATOM      5  C   UNL     1     -25.473 -58.514  -2.233  1.00  0.00     0.041 C 
ATOM      6  O   UNL     1     -25.977 -59.411  -2.959  1.00  0.00    -0.550 OA
ATOM      7  O   UNL     1     -24.957 -57.364  -2.816  1.00  0.00    -0.550 OA
ENDBRANCH   4   5
ENDBRANCH   3   4
ENDBRANCH   2   3
ENDBRANCH   1   2
BRANCH   1   8
ATOM      8  C   UNL     1     -21.988 -61.127   0.636  1.00  0.00     0.000 C 
BRANCH   8   9
ATOM      9  C   UNL     1     -22.028 -62.661   0.753  1.00  0.00    -0.000 C 
BRANCH   9  10
ATOM     10  C   UNL     1     -23.049 -63.147   1.793  1.00  0.00    -0.000 C 
BRANCH  10  11
ATOM     11  C   UNL     1     -23.455 -62.047   2.787  1.00  0.00    -0.000 C 
BRANCH  11  12
ATOM     12  C   UNL     1     -24.976 -61.860   2.805  1.00  0.00    -0.003 C 
ATOM     13  C   UNL     1     -25.661 -62.983   3.579  1.00  0.00     0.004 C 
ENDBRANCH  11  12
ENDBRANCH  10  11
ENDBRANCH   9  10
ENDBRANCH   8   9
ENDBRANCH   1   8
TORSDOF 9
ENDMDL
MODEL 4
REMARK VINA RESULT:    -4.146      2.326      3.297
REMARK INTER + INTRA:          -7.510
REMARK INTER:                  -6.615
REMARK INTRA:                  -0.895
REMARK UNBOUND:                -1.182
REMARK SMILES CCCCCCCCCCC(=O)[O-]
REMARK SMILES IDX 7 1 8 2 9 3 10 4 11 5 12 6 13 7 6 8 5 9 4 10 3 11 2 12 1 13
REMARK H PARENT
REMARK Flexibility Score: inf
ROOT
ATOM      1  C   UNL     1     -24.177 -61.287   2.104  1.00  0.00     0.000 C 
ENDROOT
BRANCH   1   2
ATOM      2  C   UNL     1     -22.882 -61.722   1.401  1.00  0.00     0.000 C 
BRANCH   2   3
ATOM      3  C   UNL     1     -22.106 -60.505   0.879  1.00  0.00     0.006 C 
BRANCH   3   4
ATOM      4  C   UNL     1     -22.015 -60.527  -0.649  1.00  0.00     0.053 C 
BRANCH   4   5
ATOM      5  C   UNL     1     -22.963 -59.533  -1.244  1.00  0.00     0.041 C 
ATOM      6  O   UNL     1     -24.048 -59.920  -1.753  1.00  0.00    -0.550 OA
ATOM      7  O   UNL     1     -22.626 -58.186  -1.281  1.00  0.00    -0.550 OA
ENDBRANCH   4   5
ENDBRANCH   3   4
ENDBRANCH   2   3
ENDBRANCH   1   2
BRANCH   1   8
ATOM      8  C   UNL     1     -24.849 -62.435   2.876  1.00  0.00     0.000 C 
BRANCH   8   9
ATOM      9  C   UNL     1     -23.848 -63.523   3.306  1.00  0.00    -0.000 C 
BRANCH   9  10
ATOM     10  C   UNL     1     -23.575 -63.509   4.818  1.00  0.00    -0.000 C 
BRANCH  10  11
ATOM     11  C   UNL     1     -22.266 -62.790   5.179  1.00  0.00    -0.000 C 
BRANCH  11  12
ATOM     12  C   UNL     1     -22.524 -61.315   5.506  1.00  0.00    -0.003 C 
ATOM     13  C   UNL     1     -23.845 -61.137   6.249  1.00  0.00     0.004 C 
ENDBRANCH  11  12
ENDBRANCH  10  11
ENDBRANCH   9  10
ENDBRANCH   8   9
ENDBRANCH   1   8
TORSDOF 9
ENDMDL
MODEL 5
REMARK VINA RESULT:    -4.132      1.409      1.869
REMARK INTER + INTRA:          -7.487
REMARK INTER:                  -6.408
REMARK INTRA:                  -1.079
REMARK UNBOUND:                -1.182
REMARK SMILES CCCCCCCCCCC(=O)[O-]
REMARK SMILES IDX 7 1 8 2 9 3 10 4 11 5 12 6 13 7 6 8 5 9 4 10 3 11 2 12 1 13
REMARK H PARENT
REMARK Flexibility Score: inf
ROOT
ATOM      1  C   UNL     1     -21.930 -61.832   0.286  1.00  0.00     0.000 C 
ENDROOT
BRANCH   1   2
ATOM      2  C   UNL     1     -21.876 -60.326  -0.015  1.00  0.00     0.000 C 
BRANCH   2   3
ATOM      3  C   UNL     1     -22.706 -59.985  -1.259  1.00  0.00     0.006 C 
BRANCH   3   4
ATOM      4  C   UNL     1     -24.188 -59.833  -0.907  1.00  0.00     0.053 C 
BRANCH   4   5
ATOM      5  C   UNL     1     -24.877 -58.958  -1.907  1.00  0.00     0.041 C 
ATOM      6  O   UNL     1     -25.805 -59.420  -2.620  1.00  0.00    -0.550 OA
ATOM      7  O   UNL     1     -24.459 -57.645  -2.085  1.00  0.00    -0.550 OA
ENDBRANCH   4   5
ENDBRANCH   3   4
ENDBRANCH   2   3
ENDBRANCH   1   2
BRANCH   1   8
ATOM      8  C   UNL     1     -22.228 -62.133   1.763  1.00  0.00     0.000 C 
BRANCH   8   9
ATOM      9  C   UNL     1     -23.715 -62.444   2.014  1.00  0.00    -0.000 C 
BRANCH   9  10
ATOM     10  C   UNL     1     -24.500 -61.217   2.502  1.00  0.00    -0.000 C 
BRANCH  10  11
ATOM     11  C   UNL     1     -23.605 -60.170   3.182  1.00  0.00    -0.000 C 
BRANCH  11  12
ATOM     12  C   UNL     1     -23.947 -58.758   2.696  1.00  0.00    -0.003 C 
ATOM     13  C   UNL     1     -22.964 -57.730   3.250  1.00  0.00     0.004 C 
ENDBRANCH  11  12
ENDBRANCH  10  11
ENDBRANCH   9  10
ENDBRANCH   8   9
ENDBRANCH   1   8
TORSDOF 9
ENDMDL
MODEL 6
REMARK VINA RESULT:    -4.050      1.591      2.272
REMARK INTER + INTRA:          -7.363
REMARK INTER:                  -6.573
REMARK INTRA:                  -0.789
REMARK UNBOUND:                -1.182
REMARK SMILES CCCCCCCCCCC(=O)[O-]
REMARK SMILES IDX 7 1 8 2 9 3 10 4 11 5 12 6 13 7 6 8 5 9 4 10 3 11 2 12 1 13
REMARK H PARENT
REMARK Flexibility Score: inf
ROOT
ATOM      1  C   UNL     1     -21.998 -60.525   0.361  1.00  0.00     0.000 C 
ENDROOT
BRANCH   1   2
ATOM      2  C   UNL     1     -22.246 -60.092  -1.091  1.00  0.00     0.000 C 
BRANCH   2   3
ATOM      3  C   UNL     1     -23.731 -59.786  -1.326  1.00  0.00     0.006 C 
BRANCH   3   4
ATOM      4  C   UNL     1     -24.369 -59.167  -0.080  1.00  0.00     0.053 C 
BRANCH   4   5
ATOM      5  C   UNL     1     -24.216 -57.678  -0.097  1.00  0.00     0.041 C 
ATOM      6  O   UNL     1     -23.596 -57.095   0.830  1.00  0.00    -0.550 OA
ATOM      7  O   UNL     1     -24.801 -56.932  -1.112  1.00  0.00    -0.550 OA
ENDBRANCH   4   5
ENDBRANCH   3   4
ENDBRANCH   2   3
ENDBRANCH   1   2
BRANCH   1   8
ATOM      8  C   UNL     1     -21.875 -62.050   0.514  1.00  0.00     0.000 C 
BRANCH   8   9
ATOM      9  C   UNL     1     -22.730 -62.598   1.671  1.00  0.00    -0.000 C 
BRANCH   9  10
ATOM     10  C   UNL     1     -23.414 -61.484   2.479  1.00  0.00    -0.000 C 
BRANCH  10  11
ATOM     11  C   UNL     1     -24.877 -61.808   2.819  1.00  0.00    -0.000 C 
BRANCH  11  12
ATOM     12  C   UNL     1     -25.030 -63.275   3.236  1.00  0.00    -0.003 C 
ATOM     13  C   UNL     1     -26.140 -63.442   4.270  1.00  0.00     0.004 C 
ENDBRANCH  11  12
ENDBRANCH  10  11
ENDBRANCH   9  10
ENDBRANCH   8   9
ENDBRANCH   1   8
TORSDOF 9
ENDMDL
MODEL 7
REMARK VINA RESULT:    -4.023      1.315      2.617
REMARK INTER + INTRA:          -7.321
REMARK INTER:                  -6.023
REMARK INTRA:                  -1.298
REMARK UNBOUND:                -1.182
REMARK SMILES CCCCCCCCCCC(=O)[O-]
REMARK SMILES IDX 7 1 8 2 9 3 10 4 11 5 12 6 13 7 6 8 5 9 4 10 3 11 2 12 1 13
REMARK H PARENT
REMARK Flexibility Score: inf
ROOT
ATOM      1  C   UNL     1     -22.671 -58.223   0.463  1.00  0.00     0.000 C 
ENDROOT
BRANCH   1   2
ATOM      2  C   UNL     1     -22.116 -59.416  -0.329  1.00  0.00     0.000 C 
BRANCH   2   3
ATOM      3  C   UNL     1     -23.212 -60.062  -1.187  1.00  0.00     0.006 C 
BRANCH   3   4
ATOM      4  C   UNL     1     -24.570 -59.405  -0.930  1.00  0.00     0.053 C 
BRANCH   4   5
ATOM      5  C   UNL     1     -25.102 -58.790  -2.186  1.00  0.00     0.041 C 
ATOM      6  O   UNL     1     -25.632 -59.513  -3.070  1.00  0.00    -0.550 OA
ATOM      7  O   UNL     1     -24.966 -57.425  -2.403  1.00  0.00    -0.550 OA
ENDBRANCH   4   5
ENDBRANCH   3   4
ENDBRANCH   2   3
ENDBRANCH   1   2
BRANCH   1   8
ATOM      8  C   UNL     1     -22.596 -58.433   1.984  1.00  0.00     0.000 C 
BRANCH   8   9
ATOM      9  C   UNL     1     -23.983 -58.410   2.653  1.00  0.00    -0.000 C 
BRANCH   9  10
ATOM     10  C   UNL     1     -24.450 -59.807   3.089  1.00  0.00    -0.000 C 
BRANCH  10  11
ATOM     11  C   UNL     1     -23.339 -60.864   2.988  1.00  0.00    -0.000 C 
BRANCH  11  12
ATOM     12  C   UNL     1     -23.759 -62.013   2.064  1.00  0.00    -0.003 C 
ATOM     13  C   UNL     1     -22.547 -62.647   1.386  1.00  0.00     0.004 C 
ENDBRANCH  11  12
ENDBRANCH  10  11
ENDBRANCH   9  10
ENDBRANCH   8   9
ENDBRANCH   1   8
TORSDOF 9
ENDMDL
MODEL 8
REMARK VINA RESULT:    -3.983      3.105      4.639
REMARK INTER + INTRA:          -7.261
REMARK INTER:                  -6.136
REMARK INTRA:                  -1.125
REMARK UNBOUND:                -1.182
REMARK SMILES CCCCCCCCCCC(=O)[O-]
REMARK SMILES IDX 7 1 8 2 9 3 10 4 11 5 12 6 13 7 6 8 5 9 4 10 3 11 2 12 1 13
REMARK H PARENT
REMARK Flexibility Score: inf
ROOT
ATOM      1  C   UNL     1     -21.875 -60.537   0.302  1.00  0.00     0.000 C 
ENDROOT
BRANCH   1   2
ATOM      2  C   UNL     1     -22.650 -59.914   1.473  1.00  0.00     0.000 C 
BRANCH   2   3
ATOM      3  C   UNL     1     -22.953 -60.964   2.551  1.00  0.00     0.006 C 
BRANCH   3   4
ATOM      4  C   UNL     1     -23.870 -62.062   2.007  1.00  0.00     0.053 C 
BRANCH   4   5
ATOM      5  C   UNL     1     -23.197 -63.396   2.091  1.00  0.00     0.041 C 
ATOM      6  O   UNL     1     -22.450 -63.789   1.156  1.00  0.00    -0.550 OA
ATOM      7  O   UNL     1     -23.434 -64.227   3.179  1.00  0.00    -0.550 OA
ENDBRANCH   4   5
ENDBRANCH   3   4
ENDBRANCH   2   3
ENDBRANCH   1   2
BRANCH   1   8
ATOM      8  C   UNL     1     -22.263 -59.931  -1.056  1.00  0.00     0.000 C 
BRANCH   8   9
ATOM      9  C   UNL     1     -23.785 -59.913  -1.282  1.00  0.00    -0.000 C 
BRANCH   9  10
ATOM     10  C   UNL     1     -24.344 -58.488  -1.421  1.00  0.00    -0.000 C 
BRANCH  10  11
ATOM     11  C   UNL     1     -25.660 -58.288  -0.653  1.00  0.00    -0.000 C 
BRANCH  11  12
ATOM     12  C   UNL     1     -26.051 -59.562   0.104  1.00  0.00    -0.003 C 
ATOM     13  C   UNL     1     -26.394 -59.257   1.559  1.00  0.00     0.004 C 
ENDBRANCH  11  12
ENDBRANCH  10  11
ENDBRANCH   9  10
ENDBRANCH   8   9
ENDBRANCH   1   8
TORSDOF 9
ENDMDL
MODEL 9
REMARK VINA RESULT:    -3.908      3.283      5.242
REMARK INTER + INTRA:          -7.145
REMARK INTER:                  -6.155
REMARK INTRA:                  -0.990
REMARK UNBOUND:                -1.182
REMARK SMILES CCCCCCCCCCC(=O)[O-]
REMARK SMILES IDX 7 1 8 2 9 3 10 4 11 5 12 6 13 7 6 8 5 9 4 10 3 11 2 12 1 13
REMARK H PARENT
REMARK Flexibility Score: inf
ROOT
ATOM      1  C   UNL     1     -24.327 -58.993   2.876  1.00  0.00     0.000 C 
ENDROOT
BRANCH   1   2
ATOM      2  C   UNL     1     -24.253 -60.423   3.433  1.00  0.00     0.000 C 
BRANCH   2   3
ATOM      3  C   UNL     1     -24.653 -61.449   2.364  1.00  0.00     0.006 C 
BRANCH   3   4
ATOM      4  C   UNL     1     -24.801 -62.846   2.972  1.00  0.00     0.053 C 
BRANCH   4   5
ATOM      5  C   UNL     1     -23.542 -63.634   2.785  1.00  0.00     0.041 C 
ATOM      6  O   UNL     1     -23.262 -64.576   3.573  1.00  0.00    -0.550 OA
ATOM      7  O   UNL     1     -22.655 -63.297   1.771  1.00  0.00    -0.550 OA
ENDBRANCH   4   5
ENDBRANCH   3   4
ENDBRANCH   2   3
ENDBRANCH   1   2
BRANCH   1   8
ATOM      8  C   UNL     1     -23.027 -58.202   3.096  1.00  0.00     0.000 C 
BRANCH   8   9
ATOM      9  C   UNL     1     -22.369 -57.767   1.774  1.00  0.00    -0.000 C 
BRANCH   9  10
ATOM     10  C   UNL     1     -21.895 -58.960   0.931  1.00  0.00    -0.000 C 
BRANCH  10  11
ATOM     11  C   UNL     1     -22.381 -58.890  -0.525  1.00  0.00    -0.000 C 
BRANCH  11  12
ATOM     12  C   UNL     1     -23.359 -60.029  -0.832  1.00  0.00    -0.003 C 
ATOM     13  C   UNL     1     -24.802 -59.533  -0.836  1.00  0.00     0.004 C 
ENDBRANCH  11  12
ENDBRANCH  10  11
ENDBRANCH   9  10
ENDBRANCH   8   9
ENDBRANCH   1   8
TORSDOF 9
ENDMDL
