MODEL 1
REMARK VINA RESULT:    -4.544      0.000      0.000
REMARK INTER + INTRA:          -4.833
REMARK INTER:                  -4.810
REMARK INTRA:                  -0.023
REMARK UNBOUND:                -0.023
REMARK SMILES O=C([O-])c1cccnc1
REMARK SMILES IDX 4 1 5 2 9 3 6 4 8 5 7 6 2 7 1 8 3 9
REMARK H PARENT
REMARK Flexibility Score: inf
ROOT
ATOM      1  C   UNL     1      11.945   6.342 -10.735  1.00  0.00     0.016 A 
ATOM      2  C   UNL     1      10.666   6.010 -10.257  1.00  0.00     0.013 A 
ATOM      3  C   UNL     1      12.088   6.660 -12.097  1.00  0.00     0.120 A 
ATOM      4  C   UNL     1       9.574   6.000 -11.127  1.00  0.00     0.021 A 
ATOM      5  N   UNL     1      11.007   6.642 -12.923  1.00  0.00    -0.264 NA
ATOM      6  C   UNL     1       9.766   6.322 -12.470  1.00  0.00     0.111 A 
ENDROOT
BRANCH   1   7
ATOM      7  C   UNL     1      13.115   6.359  -9.831  1.00  0.00     0.073 C 
ATOM      8  O   UNL     1      13.094   5.722  -8.744  1.00  0.00    -0.545 OA
ATOM      9  O   UNL     1      14.256   7.079 -10.168  1.00  0.00    -0.545 OA
ENDBRANCH   1   7
TORSDOF 1
ENDMDL
MODEL 2
REMARK VINA RESULT:    -4.537      5.881      7.146
REMARK INTER + INTRA:          -4.825
REMARK INTER:                  -4.802
REMARK INTRA:                  -0.023
REMARK UNBOUND:                -0.023
REMARK SMILES O=C([O-])c1cccnc1
REMARK SMILES IDX 4 1 5 2 9 3 6 4 8 5 7 6 2 7 1 8 3 9
REMARK H PARENT
REMARK Flexibility Score: inf
ROOT
ATOM      1  C   UNL     1      10.661   8.289 -16.662  1.00  0.00     0.016 A 
ATOM      2  C   UNL     1      11.946   8.628 -17.117  1.00  0.00     0.013 A 
ATOM      3  C   UNL     1      10.545   7.599 -15.442  1.00  0.00     0.120 A 
ATOM      4  C   UNL     1      13.070   8.281 -16.365  1.00  0.00     0.021 A 
ATOM      5  N   UNL     1      11.656   7.273 -14.729  1.00  0.00    -0.264 NA
ATOM      6  C   UNL     1      12.904   7.597 -15.161  1.00  0.00     0.111 A 
ENDROOT
BRANCH   1   7
ATOM      7  C   UNL     1       9.457   8.646 -17.442  1.00  0.00     0.073 C 
ATOM      8  O   UNL     1       9.543   8.900 -18.673  1.00  0.00    -0.545 OA
ATOM      9  O   UNL     1       8.211   8.708 -16.828  1.00  0.00    -0.545 OA
ENDBRANCH   1   7
TORSDOF 1
ENDMDL
MODEL 3
REMARK VINA RESULT:    -4.517      0.123      1.081
REMARK INTER + INTRA:          -4.804
REMARK INTER:                  -4.781
REMARK INTRA:                  -0.022
REMARK UNBOUND:                -0.023
REMARK SMILES O=C([O-])c1cccnc1
REMARK SMILES IDX 4 1 5 2 9 3 6 4 8 5 7 6 2 7 1 8 3 9
REMARK H PARENT
REMARK Flexibility Score: inf
ROOT
ATOM      1  C   UNL     1      11.904   6.382 -10.751  1.00  0.00     0.016 A 
ATOM      2  C   UNL     1      10.658   6.018 -10.212  1.00  0.00     0.013 A 
ATOM      3  C   UNL     1      11.969   6.720 -12.114  1.00  0.00     0.120 A 
ATOM      4  C   UNL     1       9.523   5.998 -11.023  1.00  0.00     0.021 A 
ATOM      5  N   UNL     1      10.847   6.692 -12.882  1.00  0.00    -0.264 NA
ATOM      6  C   UNL     1       9.637   6.341 -12.370  1.00  0.00     0.111 A 
ENDROOT
BRANCH   1   7
ATOM      7  C   UNL     1      13.119   6.410  -9.909  1.00  0.00     0.073 C 
ATOM      8  O   UNL     1      14.120   7.094 -10.251  1.00  0.00    -0.545 OA
ATOM      9  O   UNL     1      13.174   5.680  -8.727  1.00  0.00    -0.545 OA
ENDBRANCH   1   7
TORSDOF 1
ENDMDL
MODEL 4
REMARK VINA RESULT:    -4.314      2.733      3.715
REMARK INTER + INTRA:          -4.589
REMARK INTER:                  -4.567
REMARK INTRA:                  -0.022
REMARK UNBOUND:                -0.023
REMARK SMILES O=C([O-])c1cccnc1
REMARK SMILES IDX 4 1 5 2 9 3 6 4 8 5 7 6 2 7 1 8 3 9
REMARK H PARENT
REMARK Flexibility Score: inf
ROOT
ATOM      1  C   UNL     1      11.115   6.344 -11.123  1.00  0.00     0.016 A 
ATOM      2  C   UNL     1      11.132   6.064  -9.746  1.00  0.00     0.013 A 
ATOM      3  C   UNL     1      12.341   6.572 -11.773  1.00  0.00     0.120 A 
ATOM      4  C   UNL     1      12.344   6.018  -9.055  1.00  0.00     0.021 A 
ATOM      5  N   UNL     1      13.507   6.521 -11.076  1.00  0.00    -0.264 NA
ATOM      6  C   UNL     1      13.534   6.251  -9.744  1.00  0.00     0.111 A 
ENDROOT
BRANCH   1   7
ATOM      7  C   UNL     1       9.843   6.398 -11.874  1.00  0.00     0.073 C 
ATOM      8  O   UNL     1       9.755   7.066 -12.938  1.00  0.00    -0.545 OA
ATOM      9  O   UNL     1       8.725   5.710 -11.415  1.00  0.00    -0.545 OA
ENDBRANCH   1   7
TORSDOF 1
ENDMDL
MODEL 5
REMARK VINA RESULT:    -4.302      6.217      7.256
REMARK INTER + INTRA:          -4.577
REMARK INTER:                  -4.558
REMARK INTRA:                  -0.019
REMARK UNBOUND:                -0.023
REMARK SMILES O=C([O-])c1cccnc1
REMARK SMILES IDX 4 1 5 2 9 3 6 4 8 5 7 6 2 7 1 8 3 9
REMARK H PARENT
REMARK Flexibility Score: inf
ROOT
ATOM      1  C   UNL     1      10.069   8.214 -16.924  1.00  0.00     0.016 A 
ATOM      2  C   UNL     1      10.302   7.152 -16.034  1.00  0.00     0.013 A 
ATOM      3  C   UNL     1      11.172   8.955 -17.384  1.00  0.00     0.120 A 
ATOM      4  C   UNL     1      11.604   6.853 -15.626  1.00  0.00     0.021 A 
ATOM      5  N   UNL     1      12.429   8.642 -16.970  1.00  0.00    -0.264 NA
ATOM      6  C   UNL     1      12.665   7.617 -16.110  1.00  0.00     0.111 A 
ENDROOT
BRANCH   1   7
ATOM      7  C   UNL     1       8.698   8.548 -17.368  1.00  0.00     0.073 C 
ATOM      8  O   UNL     1       7.776   8.720 -16.528  1.00  0.00    -0.545 OA
ATOM      9  O   UNL     1       8.409   8.676 -18.722  1.00  0.00    -0.545 OA
ENDBRANCH   1   7
TORSDOF 1
ENDMDL
MODEL 6
REMARK VINA RESULT:    -4.297      4.967      6.073
REMARK INTER + INTRA:          -4.571
REMARK INTER:                  -4.549
REMARK INTRA:                  -0.022
REMARK UNBOUND:                -0.023
REMARK SMILES O=C([O-])c1cccnc1
REMARK SMILES IDX 4 1 5 2 9 3 6 4 8 5 7 6 2 7 1 8 3 9
REMARK H PARENT
REMARK Flexibility Score: inf
ROOT
ATOM      1  C   UNL     1      11.507   8.272 -16.226  1.00  0.00     0.016 A 
ATOM      2  C   UNL     1      11.327   8.965 -17.435  1.00  0.00     0.013 A 
ATOM      3  C   UNL     1      10.397   7.625 -15.656  1.00  0.00     0.120 A 
ATOM      4  C   UNL     1      10.071   9.000 -18.042  1.00  0.00     0.021 A 
ATOM      5  N   UNL     1       9.184   7.675 -16.268  1.00  0.00    -0.264 NA
ATOM      6  C   UNL     1       9.000   8.343 -17.438  1.00  0.00     0.111 A 
ENDROOT
BRANCH   1   7
ATOM      7  C   UNL     1      12.830   8.223 -15.566  1.00  0.00     0.073 C 
ATOM      8  O   UNL     1      13.888   8.232 -16.250  1.00  0.00    -0.545 OA
ATOM      9  O   UNL     1      12.924   8.165 -14.180  1.00  0.00    -0.545 OA
ENDBRANCH   1   7
TORSDOF 1
ENDMDL
MODEL 7
REMARK VINA RESULT:    -4.239      3.069      3.705
REMARK INTER + INTRA:          -4.510
REMARK INTER:                  -4.493
REMARK INTRA:                  -0.016
REMARK UNBOUND:                -0.023
REMARK SMILES O=C([O-])c1cccnc1
REMARK SMILES IDX 4 1 5 2 9 3 6 4 8 5 7 6 2 7 1 8 3 9
REMARK H PARENT
REMARK Flexibility Score: inf
ROOT
ATOM      1  C   UNL     1      11.237   5.685 -12.142  1.00  0.00     0.016 A 
ATOM      2  C   UNL     1      10.248   5.843 -11.155  1.00  0.00     0.013 A 
ATOM      3  C   UNL     1      12.582   5.862 -11.773  1.00  0.00     0.120 A 
ATOM      4  C   UNL     1      10.610   6.168  -9.847  1.00  0.00     0.021 A 
ATOM      5  N   UNL     1      12.907   6.179 -10.492  1.00  0.00    -0.264 NA
ATOM      6  C   UNL     1      11.958   6.333  -9.530  1.00  0.00     0.111 A 
ENDROOT
BRANCH   1   7
ATOM      7  C   UNL     1      10.875   5.341 -13.534  1.00  0.00     0.073 C 
ATOM      8  O   UNL     1      10.477   6.232 -14.331  1.00  0.00    -0.545 OA
ATOM      9  O   UNL     1      10.969   4.028 -13.982  1.00  0.00    -0.545 OA
ENDBRANCH   1   7
TORSDOF 1
ENDMDL
MODEL 8
REMARK VINA RESULT:    -4.138      2.938      3.817
REMARK INTER + INTRA:          -4.403
REMARK INTER:                  -4.384
REMARK INTRA:                  -0.019
REMARK UNBOUND:                -0.023
REMARK SMILES O=C([O-])c1cccnc1
REMARK SMILES IDX 4 1 5 2 9 3 6 4 8 5 7 6 2 7 1 8 3 9
REMARK H PARENT
REMARK Flexibility Score: inf
ROOT
ATOM      1  C   UNL     1      11.533   5.636 -12.247  1.00  0.00     0.016 A 
ATOM      2  C   UNL     1      12.721   5.863 -11.533  1.00  0.00     0.013 A 
ATOM      3  C   UNL     1      10.309   5.760 -11.565  1.00  0.00     0.120 A 
ATOM      4  C   UNL     1      12.671   6.201 -10.179  1.00  0.00     0.021 A 
ATOM      5  N   UNL     1      10.290   6.090 -10.246  1.00  0.00    -0.264 NA
ATOM      6  C   UNL     1      11.434   6.312  -9.546  1.00  0.00     0.111 A 
ENDROOT
BRANCH   1   7
ATOM      7  C   UNL     1      11.563   5.277 -13.681  1.00  0.00     0.073 C 
ATOM      8  O   UNL     1      12.195   5.988 -14.507  1.00  0.00    -0.545 OA
ATOM      9  O   UNL     1      10.892   4.148 -14.139  1.00  0.00    -0.545 OA
ENDBRANCH   1   7
TORSDOF 1
ENDMDL
MODEL 9
REMARK VINA RESULT:    -4.104      2.702      3.418
REMARK INTER + INTRA:          -4.367
REMARK INTER:                  -4.351
REMARK INTRA:                  -0.017
REMARK UNBOUND:                -0.023
REMARK SMILES O=C([O-])c1cccnc1
REMARK SMILES IDX 4 1 5 2 9 3 6 4 8 5 7 6 2 7 1 8 3 9
REMARK H PARENT
REMARK Flexibility Score: inf
ROOT
ATOM      1  C   UNL     1      10.712   5.811 -12.662  1.00  0.00     0.016 A 
ATOM      2  C   UNL     1      10.972   4.609 -13.340  1.00  0.00     0.013 A 
ATOM      3  C   UNL     1      11.164   7.013 -13.235  1.00  0.00     0.120 A 
ATOM      4  C   UNL     1      11.663   4.624 -14.553  1.00  0.00     0.021 A 
ATOM      5  N   UNL     1      11.834   7.000 -14.418  1.00  0.00    -0.264 NA
ATOM      6  C   UNL     1      12.090   5.842 -15.083  1.00  0.00     0.111 A 
ENDROOT
BRANCH   1   7
ATOM      7  C   UNL     1       9.982   5.818 -11.375  1.00  0.00     0.073 C 
ATOM      8  O   UNL     1       8.736   5.635 -11.345  1.00  0.00    -0.545 OA
ATOM      9  O   UNL     1      10.662   6.026 -10.181  1.00  0.00    -0.545 OA
ENDBRANCH   1   7
TORSDOF 1
ENDMDL
