MODEL 1
REMARK VINA RESULT:    -3.366      0.000      0.000
REMARK INTER + INTRA:          -3.767
REMARK INTER:                  -3.760
REMARK INTRA:                  -0.008
REMARK UNBOUND:                -0.008
REMARK SMILES CCCC(=O)[O-]
REMARK SMILES IDX 3 1 4 2 5 3 6 4 2 5 1 6
REMARK H PARENT
REMARK Flexibility Score: inf
ROOT
ATOM      1  C   UNL     1      13.625 -10.223  36.535  1.00  0.00     0.052 C 
ENDROOT
BRANCH   1   2
ATOM      2  C   UNL     1      13.454 -10.867  35.193  1.00  0.00     0.041 C 
ATOM      3  O   UNL     1      14.457 -11.088  34.463  1.00  0.00    -0.550 OA
ATOM      4  O   UNL     1      12.192 -11.254  34.762  1.00  0.00    -0.550 OA
ENDBRANCH   1   2
BRANCH   1   5
ATOM      5  C   UNL     1      13.168 -11.147  37.669  1.00  0.00     0.003 C 
ATOM      6  C   UNL     1      12.877 -10.383  38.961  1.00  0.00     0.004 C 
ENDBRANCH   1   5
TORSDOF 2
ENDMDL
MODEL 2
REMARK VINA RESULT:    -3.347      6.060      6.960
REMARK INTER + INTRA:          -3.747
REMARK INTER:                  -3.736
REMARK INTRA:                  -0.010
REMARK UNBOUND:                -0.008
REMARK SMILES CCCC(=O)[O-]
REMARK SMILES IDX 3 1 4 2 5 3 6 4 2 5 1 6
REMARK H PARENT
REMARK Flexibility Score: inf
ROOT
ATOM      1  C   UNL     1       7.266 -13.494  36.607  1.00  0.00     0.052 C 
ENDROOT
BRANCH   1   2
ATOM      2  C   UNL     1       7.859 -13.534  37.983  1.00  0.00     0.041 C 
ATOM      3  O   UNL     1       7.444 -14.369  38.829  1.00  0.00    -0.550 OA
ATOM      4  O   UNL     1       8.893 -12.669  38.319  1.00  0.00    -0.550 OA
ENDBRANCH   1   2
BRANCH   1   5
ATOM      5  C   UNL     1       8.328 -13.724  35.525  1.00  0.00     0.003 C 
ATOM      6  C   UNL     1       7.958 -13.062  34.198  1.00  0.00     0.004 C 
ENDBRANCH   1   5
TORSDOF 2
ENDMDL
MODEL 3
REMARK VINA RESULT:    -3.316      2.299      3.404
REMARK INTER + INTRA:          -3.712
REMARK INTER:                  -3.675
REMARK INTRA:                  -0.037
REMARK UNBOUND:                -0.008
REMARK SMILES CCCC(=O)[O-]
REMARK SMILES IDX 3 1 4 2 5 3 6 4 2 5 1 6
REMARK H PARENT
REMARK Flexibility Score: inf
ROOT
ATOM      1  C   UNL     1      13.560 -10.119  36.566  1.00  0.00     0.052 C 
ENDROOT
BRANCH   1   2
ATOM      2  C   UNL     1      13.089 -10.816  37.807  1.00  0.00     0.041 C 
ATOM      3  O   UNL     1      13.041 -12.073  37.848  1.00  0.00    -0.550 OA
ATOM      4  O   UNL     1      12.737 -10.077  38.929  1.00  0.00    -0.550 OA
ENDBRANCH   1   2
BRANCH   1   5
ATOM      5  C   UNL     1      13.120 -10.861  35.298  1.00  0.00     0.003 C 
ATOM      6  C   UNL     1      14.306 -11.290  34.435  1.00  0.00     0.004 C 
ENDBRANCH   1   5
TORSDOF 2
ENDMDL
MODEL 4
REMARK VINA RESULT:    -3.307      2.040      2.481
REMARK INTER + INTRA:          -3.701
REMARK INTER:                  -3.638
REMARK INTRA:                  -0.064
REMARK UNBOUND:                -0.008
REMARK SMILES CCCC(=O)[O-]
REMARK SMILES IDX 3 1 4 2 5 3 6 4 2 5 1 6
REMARK H PARENT
REMARK Flexibility Score: inf
ROOT
ATOM      1  C   UNL     1      13.155  -9.908  36.694  1.00  0.00     0.052 C 
ENDROOT
BRANCH   1   2
ATOM      2  C   UNL     1      11.795  -9.373  36.365  1.00  0.00     0.041 C 
ATOM      3  O   UNL     1      10.853 -10.161  36.088  1.00  0.00    -0.550 OA
ATOM      4  O   UNL     1      11.559  -8.004  36.396  1.00  0.00    -0.550 OA
ENDBRANCH   1   2
BRANCH   1   5
ATOM      5  C   UNL     1      13.097 -10.948  37.820  1.00  0.00     0.003 C 
ATOM      6  C   UNL     1      12.857 -10.310  39.188  1.00  0.00     0.004 C 
ENDBRANCH   1   5
TORSDOF 2
ENDMDL
MODEL 5
REMARK VINA RESULT:    -3.287      5.943      6.342
REMARK INTER + INTRA:          -3.679
REMARK INTER:                  -3.672
REMARK INTRA:                  -0.007
REMARK UNBOUND:                -0.008
REMARK SMILES CCCC(=O)[O-]
REMARK SMILES IDX 3 1 4 2 5 3 6 4 2 5 1 6
REMARK H PARENT
REMARK Flexibility Score: inf
ROOT
ATOM      1  C   UNL     1       7.235 -13.477  36.463  1.00  0.00     0.052 C 
ENDROOT
BRANCH   1   2
ATOM      2  C   UNL     1       7.304 -12.255  35.599  1.00  0.00     0.041 C 
ATOM      3  O   UNL     1       7.799 -12.323  34.443  1.00  0.00    -0.550 OA
ATOM      4  O   UNL     1       6.791 -11.049  36.058  1.00  0.00    -0.550 OA
ENDBRANCH   1   2
BRANCH   1   5
ATOM      5  C   UNL     1       8.080 -13.322  37.733  1.00  0.00     0.003 C 
ATOM      6  C   UNL     1       7.656 -14.292  38.836  1.00  0.00     0.004 C 
ENDBRANCH   1   5
TORSDOF 2
ENDMDL
MODEL 6
REMARK VINA RESULT:    -3.280      5.767      6.647
REMARK INTER + INTRA:          -3.671
REMARK INTER:                  -3.604
REMARK INTRA:                  -0.068
REMARK UNBOUND:                -0.008
REMARK SMILES CCCC(=O)[O-]
REMARK SMILES IDX 3 1 4 2 5 3 6 4 2 5 1 6
REMARK H PARENT
REMARK Flexibility Score: inf
ROOT
ATOM      1  C   UNL     1       7.248 -13.099  36.232  1.00  0.00     0.052 C 
ENDROOT
BRANCH   1   2
ATOM      2  C   UNL     1       7.527 -11.630  36.324  1.00  0.00     0.041 C 
ATOM      3  O   UNL     1       6.588 -10.798  36.213  1.00  0.00    -0.550 OA
ATOM      4  O   UNL     1       8.819 -11.181  36.566  1.00  0.00    -0.550 OA
ENDBRANCH   1   2
BRANCH   1   5
ATOM      5  C   UNL     1       8.162 -13.787  35.210  1.00  0.00     0.003 C 
ATOM      6  C   UNL     1       7.837 -13.379  33.773  1.00  0.00     0.004 C 
ENDBRANCH   1   5
TORSDOF 2
ENDMDL
MODEL 7
REMARK VINA RESULT:    -3.266      2.678      3.549
REMARK INTER + INTRA:          -3.656
REMARK INTER:                  -3.612
REMARK INTRA:                  -0.044
REMARK UNBOUND:                -0.008
REMARK SMILES CCCC(=O)[O-]
REMARK SMILES IDX 3 1 4 2 5 3 6 4 2 5 1 6
REMARK H PARENT
REMARK Flexibility Score: inf
ROOT
ATOM      1  C   UNL     1      12.533 -12.725  35.545  1.00  0.00     0.052 C 
ENDROOT
BRANCH   1   2
ATOM      2  C   UNL     1      12.945 -12.947  36.968  1.00  0.00     0.041 C 
ATOM      3  O   UNL     1      13.172 -14.112  37.389  1.00  0.00    -0.550 OA
ATOM      4  O   UNL     1      13.109 -11.863  37.821  1.00  0.00    -0.550 OA
ENDBRANCH   1   2
BRANCH   1   5
ATOM      5  C   UNL     1      12.887 -11.312  35.066  1.00  0.00     0.003 C 
ATOM      6  C   UNL     1      14.306 -11.226  34.506  1.00  0.00     0.004 C 
ENDBRANCH   1   5
TORSDOF 2
ENDMDL
MODEL 8
REMARK VINA RESULT:    -3.261      2.289      3.180
REMARK INTER + INTRA:          -3.650
REMARK INTER:                  -3.613
REMARK INTRA:                  -0.037
REMARK UNBOUND:                -0.008
REMARK SMILES CCCC(=O)[O-]
REMARK SMILES IDX 3 1 4 2 5 3 6 4 2 5 1 6
REMARK H PARENT
REMARK Flexibility Score: inf
ROOT
ATOM      1  C   UNL     1      13.203  -9.777  36.551  1.00  0.00     0.052 C 
ENDROOT
BRANCH   1   2
ATOM      2  C   UNL     1      11.786  -9.346  36.326  1.00  0.00     0.041 C 
ATOM      3  O   UNL     1      10.882 -10.205  36.150  1.00  0.00    -0.550 OA
ATOM      4  O   UNL     1      11.459  -7.996  36.345  1.00  0.00    -0.550 OA
ENDBRANCH   1   2
BRANCH   1   5
ATOM      5  C   UNL     1      13.463 -11.182  35.993  1.00  0.00     0.003 C 
ATOM      6  C   UNL     1      14.167 -11.148  34.637  1.00  0.00     0.004 C 
ENDBRANCH   1   5
TORSDOF 2
ENDMDL
MODEL 9
REMARK VINA RESULT:    -3.198      2.019      2.902
REMARK INTER + INTRA:          -3.580
REMARK INTER:                  -3.525
REMARK INTRA:                  -0.055
REMARK UNBOUND:                -0.008
REMARK SMILES CCCC(=O)[O-]
REMARK SMILES IDX 3 1 4 2 5 3 6 4 2 5 1 6
REMARK H PARENT
REMARK Flexibility Score: inf
ROOT
ATOM      1  C   UNL     1      12.985 -11.670  36.647  1.00  0.00     0.052 C 
ENDROOT
BRANCH   1   2
ATOM      2  C   UNL     1      12.086 -12.566  35.851  1.00  0.00     0.041 C 
ATOM      3  O   UNL     1      12.246 -13.815  35.882  1.00  0.00    -0.550 OA
ATOM      4  O   UNL     1      11.050 -12.024  35.101  1.00  0.00    -0.550 OA
ENDBRANCH   1   2
BRANCH   1   5
ATOM      5  C   UNL     1      13.659 -10.614  35.763  1.00  0.00     0.003 C 
ATOM      6  C   UNL     1      14.381 -11.233  34.566  1.00  0.00     0.004 C 
ENDBRANCH   1   5
TORSDOF 2
ENDMDL
