MODEL 1
REMARK VINA RESULT:    -3.784      0.000      0.000
REMARK INTER + INTRA:          -4.616
REMARK INTER:                  -4.337
REMARK INTRA:                  -0.278
REMARK UNBOUND:                -0.278
REMARK SMILES COC(=O)c1ccccc1O
REMARK SMILES IDX 5 1 6 2 7 3 8 4 9 5 10 6 3 7 4 8 2 9 1 10 11 11
REMARK H PARENT 11 12
REMARK Flexibility Score: inf
ROOT
ATOM      1  C   UNL     1     138.495 140.079 130.269  1.00  0.00     0.101 A 
ATOM      2  C   UNL     1     137.778 139.587 131.376  1.00  0.00     0.019 A 
ATOM      3  C   UNL     1     138.407 139.410 132.611  1.00  0.00     0.001 A 
ATOM      4  C   UNL     1     139.758 139.719 132.758  1.00  0.00     0.004 A 
ATOM      5  C   UNL     1     140.490 140.188 131.667  1.00  0.00     0.047 A 
ATOM      6  C   UNL     1     139.881 140.352 130.416  1.00  0.00     0.130 A 
ENDROOT
BRANCH   1   7
ATOM      7  C   UNL     1     137.761 140.318 129.009  1.00  0.00     0.341 C 
ATOM      8  O   UNL     1     138.227 139.912 127.909  1.00  0.00    -0.246 OA
BRANCH   7   9
ATOM      9  O   UNL     1     136.571 141.055 129.035  1.00  0.00    -0.465 OA
ATOM     10  C   UNL     1     135.762 141.248 127.881  1.00  0.00     0.282 C 
ENDBRANCH   7   9
ENDBRANCH   1   7
BRANCH   6  11
ATOM     11  O   UNL     1     140.688 140.750 129.348  1.00  0.00    -0.507 OA
ATOM     12  H   UNL     1     141.086 141.675 129.264  1.00  0.00     0.293 HD
ENDBRANCH   6  11
TORSDOF 3
ENDMDL
MODEL 2
REMARK VINA RESULT:    -3.746      3.957      4.569
REMARK INTER + INTRA:          -4.572
REMARK INTER:                  -4.292
REMARK INTRA:                  -0.280
REMARK UNBOUND:                -0.278
REMARK SMILES COC(=O)c1ccccc1O
REMARK SMILES IDX 5 1 6 2 7 3 8 4 9 5 10 6 3 7 4 8 2 9 1 10 11 11
REMARK H PARENT 11 12
REMARK Flexibility Score: inf
ROOT
ATOM      1  C   UNL     1     140.014 136.659 130.236  1.00  0.00     0.101 A 
ATOM      2  C   UNL     1     139.536 137.364 131.356  1.00  0.00     0.019 A 
ATOM      3  C   UNL     1     139.347 136.715 132.579  1.00  0.00     0.001 A 
ATOM      4  C   UNL     1     139.630 135.356 132.700  1.00  0.00     0.004 A 
ATOM      5  C   UNL     1     140.085 134.636 131.594  1.00  0.00     0.047 A 
ATOM      6  C   UNL     1     140.261 135.267 130.356  1.00  0.00     0.130 A 
ENDROOT
BRANCH   1   7
ATOM      7  C   UNL     1     140.267 137.414 128.989  1.00  0.00     0.341 C 
ATOM      8  O   UNL     1     139.899 136.951 127.875  1.00  0.00    -0.246 OA
BRANCH   7   9
ATOM      9  O   UNL     1     140.976 138.619 129.047  1.00  0.00    -0.465 OA
ATOM     10  C   UNL     1     141.161 139.455 127.911  1.00  0.00     0.282 C 
ENDBRANCH   7   9
ENDBRANCH   1   7
BRANCH   6  11
ATOM     11  O   UNL     1     140.644 134.473 129.272  1.00  0.00    -0.507 OA
ATOM     12  H   UNL     1     140.248 134.563 128.347  1.00  0.00     0.293 HD
ENDBRANCH   6  11
TORSDOF 3
ENDMDL
MODEL 3
REMARK VINA RESULT:    -3.730      1.695      3.738
REMARK INTER + INTRA:          -4.554
REMARK INTER:                  -4.291
REMARK INTRA:                  -0.263
REMARK UNBOUND:                -0.278
REMARK SMILES COC(=O)c1ccccc1O
REMARK SMILES IDX 5 1 6 2 7 3 8 4 9 5 10 6 3 7 4 8 2 9 1 10 11 11
REMARK H PARENT 11 12
REMARK Flexibility Score: inf
ROOT
ATOM      1  C   UNL     1     137.744 140.109 129.809  1.00  0.00     0.101 A 
ATOM      2  C   UNL     1     137.257 139.388 130.914  1.00  0.00     0.019 A 
ATOM      3  C   UNL     1     135.883 139.260 131.132  1.00  0.00     0.001 A 
ATOM      4  C   UNL     1     134.978 139.852 130.253  1.00  0.00     0.004 A 
ATOM      5  C   UNL     1     135.443 140.588 129.163  1.00  0.00     0.047 A 
ATOM      6  C   UNL     1     136.818 140.743 128.941  1.00  0.00     0.130 A 
ENDROOT
BRANCH   1   7
ATOM      7  C   UNL     1     139.206 140.146 129.586  1.00  0.00     0.341 C 
ATOM      8  O   UNL     1     139.983 140.534 130.500  1.00  0.00    -0.246 OA
BRANCH   7   9
ATOM      9  O   UNL     1     139.718 139.807 128.328  1.00  0.00    -0.465 OA
ATOM     10  C   UNL     1     141.074 139.427 128.130  1.00  0.00     0.282 C 
ENDBRANCH   7   9
ENDBRANCH   1   7
BRANCH   6  11
ATOM     11  O   UNL     1     137.216 141.557 127.878  1.00  0.00    -0.507 OA
ATOM     12  H   UNL     1     137.764 141.225 127.096  1.00  0.00     0.293 HD
ENDBRANCH   6  11
TORSDOF 3
ENDMDL
MODEL 4
REMARK VINA RESULT:    -3.729      3.692      4.405
REMARK INTER + INTRA:          -4.552
REMARK INTER:                  -4.276
REMARK INTRA:                  -0.276
REMARK UNBOUND:                -0.278
REMARK SMILES COC(=O)c1ccccc1O
REMARK SMILES IDX 5 1 6 2 7 3 8 4 9 5 10 6 3 7 4 8 2 9 1 10 11 11
REMARK H PARENT 11 12
REMARK Flexibility Score: inf
ROOT
ATOM      1  C   UNL     1     140.097 137.466 129.834  1.00  0.00     0.101 A 
ATOM      2  C   UNL     1     139.370 137.978 130.924  1.00  0.00     0.019 A 
ATOM      3  C   UNL     1     139.219 139.356 131.096  1.00  0.00     0.001 A 
ATOM      4  C   UNL     1     139.793 140.242 130.185  1.00  0.00     0.004 A 
ATOM      5  C   UNL     1     140.536 139.753 129.110  1.00  0.00     0.047 A 
ATOM      6  C   UNL     1     140.714 138.375 128.933  1.00  0.00     0.130 A 
ENDROOT
BRANCH   1   7
ATOM      7  C   UNL     1     140.159 135.999 129.659  1.00  0.00     0.341 C 
ATOM      8  O   UNL     1     140.475 135.252 130.625  1.00  0.00    -0.246 OA
BRANCH   7   9
ATOM      9  O   UNL     1     139.924 135.447 128.394  1.00  0.00    -0.465 OA
ATOM     10  C   UNL     1     139.292 134.186 128.214  1.00  0.00     0.282 C 
ENDBRANCH   7   9
ENDBRANCH   1   7
BRANCH   6  11
ATOM     11  O   UNL     1     141.532 137.955 127.882  1.00  0.00    -0.507 OA
ATOM     12  H   UNL     1     141.341 137.139 127.317  1.00  0.00     0.293 HD
ENDBRANCH   6  11
TORSDOF 3
ENDMDL
MODEL 5
REMARK VINA RESULT:    -3.721      5.343      5.722
REMARK INTER + INTRA:          -4.543
REMARK INTER:                  -4.279
REMARK INTRA:                  -0.264
REMARK UNBOUND:                -0.278
REMARK SMILES COC(=O)c1ccccc1O
REMARK SMILES IDX 5 1 6 2 7 3 8 4 9 5 10 6 3 7 4 8 2 9 1 10 11 11
REMARK H PARENT 11 12
REMARK Flexibility Score: inf
ROOT
ATOM      1  C   UNL     1     137.510 135.072 129.829  1.00  0.00     0.101 A 
ATOM      2  C   UNL     1     138.016 135.786 130.930  1.00  0.00     0.019 A 
ATOM      3  C   UNL     1     139.394 135.918 131.122  1.00  0.00     0.001 A 
ATOM      4  C   UNL     1     140.284 135.339 130.219  1.00  0.00     0.004 A 
ATOM      5  C   UNL     1     139.800 134.609 129.133  1.00  0.00     0.047 A 
ATOM      6  C   UNL     1     138.422 134.449 128.937  1.00  0.00     0.130 A 
ENDROOT
BRANCH   1   7
ATOM      7  C   UNL     1     136.044 135.030 129.635  1.00  0.00     0.341 C 
ATOM      8  O   UNL     1     135.286 134.642 130.565  1.00  0.00    -0.246 OA
BRANCH   7   9
ATOM      9  O   UNL     1     135.506 135.365 128.387  1.00  0.00    -0.465 OA
ATOM     10  C   UNL     1     134.169 135.822 128.226  1.00  0.00     0.282 C 
ENDBRANCH   7   9
ENDBRANCH   1   7
BRANCH   6  11
ATOM     11  O   UNL     1     138.006 133.643 127.875  1.00  0.00    -0.507 OA
ATOM     12  H   UNL     1     138.583 132.924 127.461  1.00  0.00     0.293 HD
ENDBRANCH   6  11
TORSDOF 3
ENDMDL
MODEL 6
REMARK VINA RESULT:    -3.715      5.289      6.392
REMARK INTER + INTRA:          -4.536
REMARK INTER:                  -4.258
REMARK INTRA:                  -0.278
REMARK UNBOUND:                -0.278
REMARK SMILES COC(=O)c1ccccc1O
REMARK SMILES IDX 5 1 6 2 7 3 8 4 9 5 10 6 3 7 4 8 2 9 1 10 11 11
REMARK H PARENT 11 12
REMARK Flexibility Score: inf
ROOT
ATOM      1  C   UNL     1     136.708 135.203 130.221  1.00  0.00     0.101 A 
ATOM      2  C   UNL     1     137.381 135.627 131.382  1.00  0.00     0.019 A 
ATOM      3  C   UNL     1     136.699 135.757 132.594  1.00  0.00     0.001 A 
ATOM      4  C   UNL     1     135.337 135.467 132.665  1.00  0.00     0.004 A 
ATOM      5  C   UNL     1     134.649 135.066 131.520  1.00  0.00     0.047 A 
ATOM      6  C   UNL     1     135.312 134.950 130.292  1.00  0.00     0.130 A 
ENDROOT
BRANCH   1   7
ATOM      7  C   UNL     1     137.495 135.010 128.985  1.00  0.00     0.341 C 
ATOM      8  O   UNL     1     137.062 135.432 127.878  1.00  0.00    -0.246 OA
BRANCH   7   9
ATOM      9  O   UNL     1     138.700 134.299 129.041  1.00  0.00    -0.465 OA
ATOM     10  C   UNL     1     139.418 133.915 127.875  1.00  0.00     0.282 C 
ENDBRANCH   7   9
ENDBRANCH   1   7
BRANCH   6  11
ATOM     11  O   UNL     1     134.549 134.620 129.170  1.00  0.00    -0.507 OA
ATOM     12  H   UNL     1     133.710 134.057 129.211  1.00  0.00     0.293 HD
ENDBRANCH   6  11
TORSDOF 3
ENDMDL
MODEL 7
REMARK VINA RESULT:    -3.702      3.859      5.208
REMARK INTER + INTRA:          -4.522
REMARK INTER:                  -4.268
REMARK INTRA:                  -0.253
REMARK UNBOUND:                -0.278
REMARK SMILES COC(=O)c1ccccc1O
REMARK SMILES IDX 5 1 6 2 7 3 8 4 9 5 10 6 3 7 4 8 2 9 1 10 11 11
REMARK H PARENT 11 12
REMARK Flexibility Score: inf
ROOT
ATOM      1  C   UNL     1     135.129 137.766 129.730  1.00  0.00     0.101 A 
ATOM      2  C   UNL     1     135.913 137.273 130.789  1.00  0.00     0.019 A 
ATOM      3  C   UNL     1     136.063 135.898 130.986  1.00  0.00     0.001 A 
ATOM      4  C   UNL     1     135.431 134.997 130.130  1.00  0.00     0.004 A 
ATOM      5  C   UNL     1     134.633 135.467 129.087  1.00  0.00     0.047 A 
ATOM      6  C   UNL     1     134.455 136.843 128.888  1.00  0.00     0.130 A 
ENDROOT
BRANCH   1   7
ATOM      7  C   UNL     1     135.068 139.229 129.524  1.00  0.00     0.341 C 
ATOM      8  O   UNL     1     134.681 139.990 130.452  1.00  0.00    -0.246 OA
BRANCH   7   9
ATOM      9  O   UNL     1     135.385 139.761 128.269  1.00  0.00    -0.465 OA
ATOM     10  C   UNL     1     135.840 141.096 128.094  1.00  0.00     0.282 C 
ENDBRANCH   7   9
ENDBRANCH   1   7
BRANCH   6  11
ATOM     11  O   UNL     1     133.582 137.245 127.875  1.00  0.00    -0.507 OA
ATOM     12  H   UNL     1     133.840 137.887 127.139  1.00  0.00     0.293 HD
ENDBRANCH   6  11
TORSDOF 3
ENDMDL
MODEL 8
REMARK VINA RESULT:    -3.683      3.830      4.486
REMARK INTER + INTRA:          -4.500
REMARK INTER:                  -4.232
REMARK INTRA:                  -0.268
REMARK UNBOUND:                -0.278
REMARK SMILES COC(=O)c1ccccc1O
REMARK SMILES IDX 5 1 6 2 7 3 8 4 9 5 10 6 3 7 4 8 2 9 1 10 11 11
REMARK H PARENT 11 12
REMARK Flexibility Score: inf
ROOT
ATOM      1  C   UNL     1     135.236 138.499 130.214  1.00  0.00     0.101 A 
ATOM      2  C   UNL     1     135.666 137.854 131.389  1.00  0.00     0.019 A 
ATOM      3  C   UNL     1     135.775 138.558 132.590  1.00  0.00     0.001 A 
ATOM      4  C   UNL     1     135.458 139.915 132.636  1.00  0.00     0.004 A 
ATOM      5  C   UNL     1     135.050 140.576 131.477  1.00  0.00     0.047 A 
ATOM      6  C   UNL     1     134.955 139.890 130.259  1.00  0.00     0.130 A 
ENDROOT
BRANCH   1   7
ATOM      7  C   UNL     1     135.067 137.687 128.990  1.00  0.00     0.341 C 
ATOM      8  O   UNL     1     135.632 138.024 127.915  1.00  0.00    -0.246 OA
BRANCH   7   9
ATOM      9  O   UNL     1     134.221 136.571 129.017  1.00  0.00    -0.465 OA
ATOM     10  C   UNL     1     133.993 135.754 127.875  1.00  0.00     0.282 C 
ENDBRANCH   7   9
ENDBRANCH   1   7
BRANCH   6  11
ATOM     11  O   UNL     1     134.617 140.627 129.123  1.00  0.00    -0.507 OA
ATOM     12  H   UNL     1     134.061 141.471 129.150  1.00  0.00     0.293 HD
ENDBRANCH   6  11
TORSDOF 3
ENDMDL
MODEL 9
REMARK VINA RESULT:    -3.641      3.999      4.885
REMARK INTER + INTRA:          -4.451
REMARK INTER:                  -4.171
REMARK INTRA:                  -0.280
REMARK UNBOUND:                -0.278
REMARK SMILES COC(=O)c1ccccc1O
REMARK SMILES IDX 5 1 6 2 7 3 8 4 9 5 10 6 3 7 4 8 2 9 1 10 11 11
REMARK H PARENT 11 12
REMARK Flexibility Score: inf
ROOT
ATOM      1  C   UNL     1     140.162 137.320 129.307  1.00  0.00     0.101 A 
ATOM      2  C   UNL     1     140.426 138.091 128.160  1.00  0.00     0.019 A 
ATOM      3  C   UNL     1     140.531 139.482 128.244  1.00  0.00     0.001 A 
ATOM      4  C   UNL     1     140.373 140.121 129.473  1.00  0.00     0.004 A 
ATOM      5  C   UNL     1     140.090 139.374 130.617  1.00  0.00     0.047 A 
ATOM      6  C   UNL     1     139.961 137.981 130.547  1.00  0.00     0.130 A 
ENDROOT
BRANCH   1   7
ATOM      7  C   UNL     1     140.138 135.848 129.171  1.00  0.00     0.341 C 
ATOM      8  O   UNL     1     140.687 135.116 130.039  1.00  0.00    -0.246 OA
BRANCH   7   9
ATOM      9  O   UNL     1     139.553 135.271 128.037  1.00  0.00    -0.465 OA
ATOM     10  C   UNL     1     139.417 133.865 127.875  1.00  0.00     0.282 C 
ENDBRANCH   7   9
ENDBRANCH   1   7
BRANCH   6  11
ATOM     11  O   UNL     1     139.601 137.303 131.713  1.00  0.00    -0.507 OA
ATOM     12  H   UNL     1     140.248 136.750 132.260  1.00  0.00     0.293 HD
ENDBRANCH   6  11
TORSDOF 3
ENDMDL
