MODEL 1
REMARK VINA RESULT:    -7.248      0.000      0.000
REMARK INTER + INTRA:         -12.550
REMARK INTER:                 -10.002
REMARK INTRA:                  -2.548
REMARK UNBOUND:                -2.548
REMARK SMILES CC[C@H](CC[C@@H](C)[C@@H]1CC[C@H]2[C@H]3CC=C4C[C@H](O)CC[C@@]4(C)[C@H]3CC[C@]21C)C(C)C
REMARK SMILES IDX 5 1 4 2 3 3 2 4 1 5 28 6 29 7 30 8 6 9 7 10 8 11 9 12 26 13
REMARK SMILES IDX 10 14 11 15 25 16 27 17 12 18 24 19 23 20 13 21 21 22 14 23
REMARK SMILES IDX 15 24 20 25 22 26 16 27 19 28 17 29 18 30
REMARK H PARENT 18 31
REMARK Flexibility Score: inf
ROOT
ATOM      1  C   UNL     1      26.408 -22.174  25.568  1.00  0.00     0.004 C 
ENDROOT
BRANCH   1   2
ATOM      2  C   UNL     1      27.772 -22.878  25.649  1.00  0.00     0.004 C 
BRANCH   2   3
ATOM      3  C   UNL     1      27.955 -23.826  26.869  1.00  0.00    -0.009 C 
BRANCH   3   4
ATOM      4  C   UNL     1      26.972 -23.552  28.042  1.00  0.00     0.000 C 
ATOM      5  C   UNL     1      27.641 -22.912  29.259  1.00  0.00     0.004 C 
ENDBRANCH   3   4
BRANCH   3   6
ATOM      6  C   UNL     1      28.029 -25.339  26.455  1.00  0.00    -0.014 C 
ATOM      7  C   UNL     1      28.656 -26.261  27.519  1.00  0.00     0.007 C 
ATOM      8  C   UNL     1      28.782 -25.512  25.127  1.00  0.00     0.007 C 
ENDBRANCH   3   6
ENDBRANCH   2   3
ENDBRANCH   1   2
BRANCH   1   9
ATOM      9  C   UNL     1      25.312 -22.900  24.735  1.00  0.00    -0.011 C 
ATOM     10  C   UNL     1      25.718 -23.091  23.266  1.00  0.00     0.008 C 
BRANCH   9  11
ATOM     11  C   UNL     1      24.530 -24.118  25.377  1.00  0.00    -0.002 C 
ATOM     12  C   UNL     1      24.066 -25.194  24.388  1.00  0.00     0.005 C 
ATOM     13  C   UNL     1      23.344 -23.943  26.380  1.00  0.00    -0.026 C 
ATOM     14  C   UNL     1      23.052 -26.067  25.134  1.00  0.00     0.005 C 
ATOM     15  C   UNL     1      22.785 -25.396  26.494  1.00  0.00    -0.001 C 
ATOM     16  C   UNL     1      23.782 -23.396  27.775  1.00  0.00     0.007 C 
ATOM     17  C   UNL     1      22.215 -23.044  25.811  1.00  0.00     0.012 C 
ATOM     18  C   UNL     1      23.298 -26.216  27.728  1.00  0.00     0.000 C 
ATOM     19  C   UNL     1      22.886 -23.936  28.902  1.00  0.00     0.005 C 
ATOM     20  C   UNL     1      23.018 -25.476  29.081  1.00  0.00     0.003 C 
ATOM     21  C   UNL     1      24.755 -26.690  27.664  1.00  0.00     0.031 C 
ATOM     22  C   UNL     1      23.910 -25.951  30.331  1.00  0.00    -0.008 C 
ATOM     23  C   UNL     1      25.011 -27.611  28.811  1.00  0.00    -0.027 C 
ATOM     24  C   UNL     1      24.620 -27.285  30.059  1.00  0.00    -0.065 C 
ATOM     25  C   UNL     1      25.059 -24.961  30.728  1.00  0.00     0.014 C 
ATOM     26  C   UNL     1      22.936 -26.100  31.535  1.00  0.00     0.016 C 
ATOM     27  C   UNL     1      25.392 -27.901  31.200  1.00  0.00     0.063 C 
ATOM     28  C   UNL     1      25.989 -25.497  31.850  1.00  0.00     0.033 C 
ATOM     29  C   UNL     1      26.521 -26.924  31.577  1.00  0.00     0.118 C 
BRANCH  29  30
ATOM     30  O   UNL     1      27.245 -27.403  32.682  1.00  0.00    -0.393 OA
ATOM     31  H   UNL     1      28.120 -26.934  32.693  1.00  0.00     0.210 HD
ENDBRANCH  29  30
ENDBRANCH   9  11
ENDBRANCH   1   9
TORSDOF 7
ENDMDL
MODEL 2
REMARK VINA RESULT:    -7.162      3.386      6.505
REMARK INTER + INTRA:         -12.432
REMARK INTER:                  -9.670
REMARK INTRA:                  -2.762
REMARK UNBOUND:                -2.548
REMARK SMILES CC[C@H](CC[C@@H](C)[C@@H]1CC[C@H]2[C@H]3CC=C4C[C@H](O)CC[C@@]4(C)[C@H]3CC[C@]21C)C(C)C
REMARK SMILES IDX 5 1 4 2 3 3 2 4 1 5 28 6 29 7 30 8 6 9 7 10 8 11 9 12 26 13
REMARK SMILES IDX 10 14 11 15 25 16 27 17 12 18 24 19 23 20 13 21 21 22 14 23
REMARK SMILES IDX 15 24 20 25 22 26 16 27 19 28 17 29 18 30
REMARK H PARENT 18 31
REMARK Flexibility Score: inf
ROOT
ATOM      1  C   UNL     1      23.301 -26.337  27.889  1.00  0.00     0.004 C 
ENDROOT
BRANCH   1   2
ATOM      2  C   UNL     1      22.850 -25.015  27.247  1.00  0.00     0.004 C 
BRANCH   2   3
ATOM      3  C   UNL     1      22.883 -24.990  25.692  1.00  0.00    -0.009 C 
BRANCH   3   4
ATOM      4  C   UNL     1      22.505 -23.618  25.068  1.00  0.00     0.000 C 
ATOM      5  C   UNL     1      22.380 -22.496  26.098  1.00  0.00     0.004 C 
ENDBRANCH   3   4
BRANCH   3   6
ATOM      6  C   UNL     1      24.205 -25.601  25.105  1.00  0.00    -0.014 C 
ATOM      7  C   UNL     1      25.247 -24.556  24.659  1.00  0.00     0.007 C 
ATOM      8  C   UNL     1      23.904 -26.547  23.931  1.00  0.00     0.007 C 
ENDBRANCH   3   6
ENDBRANCH   2   3
ENDBRANCH   1   2
BRANCH   1   9
ATOM      9  C   UNL     1      24.690 -26.319  28.590  1.00  0.00    -0.011 C 
ATOM     10  C   UNL     1      25.444 -27.649  28.438  1.00  0.00     0.008 C 
BRANCH   9  11
ATOM     11  C   UNL     1      25.593 -25.023  28.488  1.00  0.00    -0.002 C 
ATOM     12  C   UNL     1      26.983 -25.238  27.876  1.00  0.00     0.005 C 
ATOM     13  C   UNL     1      25.819 -24.038  29.681  1.00  0.00    -0.026 C 
ATOM     14  C   UNL     1      27.800 -23.982  28.192  1.00  0.00     0.005 C 
ATOM     15  C   UNL     1      26.955 -23.114  29.142  1.00  0.00    -0.001 C 
ATOM     16  C   UNL     1      24.548 -23.211  30.055  1.00  0.00     0.007 C 
ATOM     17  C   UNL     1      26.351 -24.756  30.948  1.00  0.00     0.012 C 
ATOM     18  C   UNL     1      26.476 -21.757  28.519  1.00  0.00     0.000 C 
ATOM     19  C   UNL     1      24.917 -21.820  30.596  1.00  0.00     0.005 C 
ATOM     20  C   UNL     1      25.604 -20.927  29.522  1.00  0.00     0.003 C 
ATOM     21  C   UNL     1      25.785 -21.849  27.153  1.00  0.00     0.031 C 
ATOM     22  C   UNL     1      24.667 -19.799  28.863  1.00  0.00    -0.008 C 
ATOM     23  C   UNL     1      25.578 -20.467  26.626  1.00  0.00    -0.027 C 
ATOM     24  C   UNL     1      25.064 -19.498  27.410  1.00  0.00    -0.065 C 
ATOM     25  C   UNL     1      23.146 -20.171  28.793  1.00  0.00     0.014 C 
ATOM     26  C   UNL     1      24.833 -18.522  29.736  1.00  0.00     0.016 C 
ATOM     27  C   UNL     1      24.340 -18.371  26.716  1.00  0.00     0.063 C 
ATOM     28  C   UNL     1      22.279 -19.129  28.035  1.00  0.00     0.033 C 
ATOM     29  C   UNL     1      22.849 -18.749  26.647  1.00  0.00     0.118 C 
BRANCH  29  30
ATOM     30  O   UNL     1      22.098 -17.711  26.071  1.00  0.00    -0.393 OA
ATOM     31  H   UNL     1      21.433 -17.411  26.745  1.00  0.00     0.210 HD
ENDBRANCH  29  30
ENDBRANCH   9  11
ENDBRANCH   1   9
TORSDOF 7
ENDMDL
MODEL 3
REMARK VINA RESULT:    -7.031      1.814      3.580
REMARK INTER + INTRA:         -12.250
REMARK INTER:                  -9.519
REMARK INTRA:                  -2.732
REMARK UNBOUND:                -2.548
REMARK SMILES CC[C@H](CC[C@@H](C)[C@@H]1CC[C@H]2[C@H]3CC=C4C[C@H](O)CC[C@@]4(C)[C@H]3CC[C@]21C)C(C)C
REMARK SMILES IDX 5 1 4 2 3 3 2 4 1 5 28 6 29 7 30 8 6 9 7 10 8 11 9 12 26 13
REMARK SMILES IDX 10 14 11 15 25 16 27 17 12 18 24 19 23 20 13 21 21 22 14 23
REMARK SMILES IDX 15 24 20 25 22 26 16 27 19 28 17 29 18 30
REMARK H PARENT 18 31
REMARK Flexibility Score: inf
ROOT
ATOM      1  C   UNL     1      26.717 -21.768  25.126  1.00  0.00     0.004 C 
ENDROOT
BRANCH   1   2
ATOM      2  C   UNL     1      26.049 -22.799  24.201  1.00  0.00     0.004 C 
BRANCH   2   3
ATOM      3  C   UNL     1      25.817 -24.201  24.834  1.00  0.00    -0.009 C 
BRANCH   3   4
ATOM      4  C   UNL     1      26.658 -24.471  26.113  1.00  0.00     0.000 C 
ATOM      5  C   UNL     1      28.067 -24.985  25.817  1.00  0.00     0.004 C 
ENDBRANCH   3   4
BRANCH   3   6
ATOM      6  C   UNL     1      24.294 -24.544  25.004  1.00  0.00    -0.014 C 
ATOM      7  C   UNL     1      23.913 -25.979  24.588  1.00  0.00     0.007 C 
ATOM      8  C   UNL     1      23.414 -23.545  24.237  1.00  0.00     0.007 C 
ENDBRANCH   3   6
ENDBRANCH   2   3
ENDBRANCH   1   2
BRANCH   1   9
ATOM      9  C   UNL     1      25.756 -20.872  25.959  1.00  0.00    -0.011 C 
ATOM     10  C   UNL     1      24.992 -19.861  25.091  1.00  0.00     0.008 C 
BRANCH   9  11
ATOM     11  C   UNL     1      24.912 -21.520  27.130  1.00  0.00    -0.002 C 
ATOM     12  C   UNL     1      23.413 -21.197  27.116  1.00  0.00     0.005 C 
ATOM     13  C   UNL     1      25.333 -21.446  28.634  1.00  0.00    -0.026 C 
ATOM     14  C   UNL     1      22.863 -21.605  28.485  1.00  0.00     0.005 C 
ATOM     15  C   UNL     1      24.066 -21.994  29.364  1.00  0.00    -0.001 C 
ATOM     16  C   UNL     1      26.594 -22.302  28.973  1.00  0.00     0.007 C 
ATOM     17  C   UNL     1      25.563 -19.989  29.113  1.00  0.00     0.012 C 
ATOM     18  C   UNL     1      24.120 -23.514  29.747  1.00  0.00     0.000 C 
ATOM     19  C   UNL     1      26.541 -22.845  30.409  1.00  0.00     0.005 C 
ATOM     20  C   UNL     1      25.374 -23.854  30.622  1.00  0.00     0.003 C 
ATOM     21  C   UNL     1      23.987 -24.507  28.587  1.00  0.00     0.031 C 
ATOM     22  C   UNL     1      25.801 -25.403  30.655  1.00  0.00    -0.008 C 
ATOM     23  C   UNL     1      23.859 -25.885  29.147  1.00  0.00    -0.027 C 
ATOM     24  C   UNL     1      24.692 -26.318  30.114  1.00  0.00    -0.065 C 
ATOM     25  C   UNL     1      27.062 -25.753  29.792  1.00  0.00     0.014 C 
ATOM     26  C   UNL     1      26.097 -25.748  32.142  1.00  0.00     0.016 C 
ATOM     27  C   UNL     1      24.919 -27.807  30.204  1.00  0.00     0.063 C 
ATOM     28  C   UNL     1      27.379 -27.272  29.731  1.00  0.00     0.033 C 
ATOM     29  C   UNL     1      26.156 -28.140  29.349  1.00  0.00     0.118 C 
BRANCH  29  30
ATOM     30  O   UNL     1      26.470 -29.506  29.439  1.00  0.00    -0.393 OA
ATOM     31  H   UNL     1      26.159 -29.827  30.326  1.00  0.00     0.210 HD
ENDBRANCH  29  30
ENDBRANCH   9  11
ENDBRANCH   1   9
TORSDOF 7
ENDMDL
MODEL 4
REMARK VINA RESULT:    -7.009      3.654      5.859
REMARK INTER + INTRA:         -12.221
REMARK INTER:                  -9.781
REMARK INTRA:                  -2.439
REMARK UNBOUND:                -2.548
REMARK SMILES CC[C@H](CC[C@@H](C)[C@@H]1CC[C@H]2[C@H]3CC=C4C[C@H](O)CC[C@@]4(C)[C@H]3CC[C@]21C)C(C)C
REMARK SMILES IDX 5 1 4 2 3 3 2 4 1 5 28 6 29 7 30 8 6 9 7 10 8 11 9 12 26 13
REMARK SMILES IDX 10 14 11 15 25 16 27 17 12 18 24 19 23 20 13 21 21 22 14 23
REMARK SMILES IDX 15 24 20 25 22 26 16 27 19 28 17 29 18 30
REMARK H PARENT 18 31
REMARK Flexibility Score: inf
ROOT
ATOM      1  C   UNL     1      24.981 -25.385  28.508  1.00  0.00     0.004 C 
ENDROOT
BRANCH   1   2
ATOM      2  C   UNL     1      26.430 -25.294  29.013  1.00  0.00     0.004 C 
BRANCH   2   3
ATOM      3  C   UNL     1      27.248 -24.093  28.457  1.00  0.00    -0.009 C 
BRANCH   3   4
ATOM      4  C   UNL     1      27.690 -23.068  29.538  1.00  0.00     0.000 C 
ATOM      5  C   UNL     1      26.520 -22.329  30.189  1.00  0.00     0.004 C 
ENDBRANCH   3   4
BRANCH   3   6
ATOM      6  C   UNL     1      28.416 -24.544  27.509  1.00  0.00    -0.014 C 
ATOM      7  C   UNL     1      28.254 -24.100  26.042  1.00  0.00     0.007 C 
ATOM      8  C   UNL     1      28.612 -26.068  27.558  1.00  0.00     0.007 C 
ENDBRANCH   3   6
ENDBRANCH   2   3
ENDBRANCH   1   2
BRANCH   1   9
ATOM      9  C   UNL     1      24.737 -24.927  27.041  1.00  0.00    -0.011 C 
ATOM     10  C   UNL     1      24.396 -26.098  26.107  1.00  0.00     0.008 C 
BRANCH   9  11
ATOM     11  C   UNL     1      23.923 -23.597  26.770  1.00  0.00    -0.002 C 
ATOM     12  C   UNL     1      22.480 -23.796  26.291  1.00  0.00     0.005 C 
ATOM     13  C   UNL     1      24.478 -22.410  25.916  1.00  0.00    -0.026 C 
ATOM     14  C   UNL     1      22.004 -22.442  25.757  1.00  0.00     0.005 C 
ATOM     15  C   UNL     1      23.221 -21.499  25.752  1.00  0.00    -0.001 C 
ATOM     16  C   UNL     1      25.648 -21.640  26.606  1.00  0.00     0.007 C 
ATOM     17  C   UNL     1      24.927 -22.859  24.501  1.00  0.00     0.012 C 
ATOM     18  C   UNL     1      23.119 -20.310  26.769  1.00  0.00     0.000 C 
ATOM     19  C   UNL     1      25.652 -20.153  26.218  1.00  0.00     0.005 C 
ATOM     20  C   UNL     1      24.393 -19.398  26.735  1.00  0.00     0.003 C 
ATOM     21  C   UNL     1      22.764 -20.686  28.213  1.00  0.00     0.031 C 
ATOM     22  C   UNL     1      24.625 -18.478  28.032  1.00  0.00    -0.008 C 
ATOM     23  C   UNL     1      22.515 -19.434  28.988  1.00  0.00    -0.027 C 
ATOM     24  C   UNL     1      23.368 -18.394  28.912  1.00  0.00    -0.065 C 
ATOM     25  C   UNL     1      25.754 -18.980  28.997  1.00  0.00     0.014 C 
ATOM     26  C   UNL     1      25.004 -17.064  27.507  1.00  0.00     0.016 C 
ATOM     27  C   UNL     1      23.417 -17.462  30.097  1.00  0.00     0.063 C 
ATOM     28  C   UNL     1      25.874 -18.155  30.307  1.00  0.00     0.033 C 
ATOM     29  C   UNL     1      24.524 -17.968  31.040  1.00  0.00     0.118 C 
BRANCH  29  30
ATOM     30  O   UNL     1      24.674 -17.107  32.140  1.00  0.00    -0.393 OA
ATOM     31  H   UNL     1      25.406 -17.466  32.706  1.00  0.00     0.210 HD
ENDBRANCH  29  30
ENDBRANCH   9  11
ENDBRANCH   1   9
TORSDOF 7
ENDMDL
MODEL 5
REMARK VINA RESULT:    -7.006      4.257      6.432
REMARK INTER + INTRA:         -12.216
REMARK INTER:                 -10.072
REMARK INTRA:                  -2.144
REMARK UNBOUND:                -2.548
REMARK SMILES CC[C@H](CC[C@@H](C)[C@@H]1CC[C@H]2[C@H]3CC=C4C[C@H](O)CC[C@@]4(C)[C@H]3CC[C@]21C)C(C)C
REMARK SMILES IDX 5 1 4 2 3 3 2 4 1 5 28 6 29 7 30 8 6 9 7 10 8 11 9 12 26 13
REMARK SMILES IDX 10 14 11 15 25 16 27 17 12 18 24 19 23 20 13 21 21 22 14 23
REMARK SMILES IDX 15 24 20 25 22 26 16 27 19 28 17 29 18 30
REMARK H PARENT 18 31
REMARK Flexibility Score: inf
ROOT
ATOM      1  C   UNL     1      27.361 -17.443  30.110  1.00  0.00     0.004 C 
ENDROOT
BRANCH   1   2
ATOM      2  C   UNL     1      27.254 -17.239  31.629  1.00  0.00     0.004 C 
BRANCH   2   3
ATOM      3  C   UNL     1      27.520 -18.510  32.486  1.00  0.00    -0.009 C 
BRANCH   3   4
ATOM      4  C   UNL     1      26.240 -19.148  33.095  1.00  0.00     0.000 C 
ATOM      5  C   UNL     1      25.044 -18.196  33.129  1.00  0.00     0.004 C 
ENDBRANCH   3   4
BRANCH   3   6
ATOM      6  C   UNL     1      28.449 -19.547  31.759  1.00  0.00    -0.014 C 
ATOM      7  C   UNL     1      28.067 -21.021  31.997  1.00  0.00     0.007 C 
ATOM      8  C   UNL     1      29.922 -19.337  32.146  1.00  0.00     0.007 C 
ENDBRANCH   3   6
ENDBRANCH   2   3
ENDBRANCH   1   2
BRANCH   1   9
ATOM      9  C   UNL     1      26.122 -17.010  29.273  1.00  0.00    -0.011 C 
ATOM     10  C   UNL     1      26.308 -15.636  28.611  1.00  0.00     0.008 C 
BRANCH   9  11
ATOM     11  C   UNL     1      25.373 -18.084  28.384  1.00  0.00    -0.002 C 
ATOM     12  C   UNL     1      24.557 -17.517  27.216  1.00  0.00     0.005 C 
ATOM     13  C   UNL     1      24.492 -19.229  28.981  1.00  0.00    -0.026 C 
ATOM     14  C   UNL     1      23.652 -18.649  26.722  1.00  0.00     0.005 C 
ATOM     15  C   UNL     1      23.803 -19.819  27.712  1.00  0.00    -0.001 C 
ATOM     16  C   UNL     1      25.315 -20.321  29.735  1.00  0.00     0.007 C 
ATOM     17  C   UNL     1      23.380 -18.692  29.919  1.00  0.00     0.012 C 
ATOM     18  C   UNL     1      24.492 -21.091  27.105  1.00  0.00     0.000 C 
ATOM     19  C   UNL     1      24.657 -21.705  29.623  1.00  0.00     0.005 C 
ATOM     20  C   UNL     1      24.637 -22.239  28.161  1.00  0.00     0.003 C 
ATOM     21  C   UNL     1      25.822 -20.855  26.379  1.00  0.00     0.031 C 
ATOM     22  C   UNL     1      25.738 -23.361  27.823  1.00  0.00    -0.008 C 
ATOM     23  C   UNL     1      26.231 -22.122  25.702  1.00  0.00    -0.027 C 
ATOM     24  C   UNL     1      26.192 -23.299  26.357  1.00  0.00    -0.065 C 
ATOM     25  C   UNL     1      27.061 -23.252  28.656  1.00  0.00     0.014 C 
ATOM     26  C   UNL     1      25.070 -24.735  28.116  1.00  0.00     0.016 C 
ATOM     27  C   UNL     1      27.134 -24.377  25.880  1.00  0.00     0.063 C 
ATOM     28  C   UNL     1      28.160 -24.260  28.224  1.00  0.00     0.033 C 
ATOM     29  C   UNL     1      28.432 -24.257  26.700  1.00  0.00     0.118 C 
BRANCH  29  30
ATOM     30  O   UNL     1      29.334 -25.276  26.356  1.00  0.00    -0.393 OA
ATOM     31  H   UNL     1      29.175 -26.039  26.972  1.00  0.00     0.210 HD
ENDBRANCH  29  30
ENDBRANCH   9  11
ENDBRANCH   1   9
TORSDOF 7
ENDMDL
MODEL 6
REMARK VINA RESULT:    -6.973      3.826      6.070
REMARK INTER + INTRA:         -12.171
REMARK INTER:                  -9.364
REMARK INTRA:                  -2.807
REMARK UNBOUND:                -2.548
REMARK SMILES CC[C@H](CC[C@@H](C)[C@@H]1CC[C@H]2[C@H]3CC=C4C[C@H](O)CC[C@@]4(C)[C@H]3CC[C@]21C)C(C)C
REMARK SMILES IDX 5 1 4 2 3 3 2 4 1 5 28 6 29 7 30 8 6 9 7 10 8 11 9 12 26 13
REMARK SMILES IDX 10 14 11 15 25 16 27 17 12 18 24 19 23 20 13 21 21 22 14 23
REMARK SMILES IDX 15 24 20 25 22 26 16 27 19 28 17 29 18 30
REMARK H PARENT 18 31
REMARK Flexibility Score: inf
ROOT
ATOM      1  C   UNL     1      27.453 -23.450  27.236  1.00  0.00     0.004 C 
ENDROOT
BRANCH   1   2
ATOM      2  C   UNL     1      27.827 -23.831  28.678  1.00  0.00     0.004 C 
BRANCH   2   3
ATOM      3  C   UNL     1      27.078 -23.037  29.787  1.00  0.00    -0.009 C 
BRANCH   3   4
ATOM      4  C   UNL     1      26.371 -21.748  29.281  1.00  0.00     0.000 C 
ATOM      5  C   UNL     1      26.649 -20.522  30.151  1.00  0.00     0.004 C 
ENDBRANCH   3   4
BRANCH   3   6
ATOM      6  C   UNL     1      26.154 -23.952  30.667  1.00  0.00    -0.014 C 
ATOM      7  C   UNL     1      26.559 -25.439  30.683  1.00  0.00     0.007 C 
ATOM      8  C   UNL     1      24.684 -23.833  30.234  1.00  0.00     0.007 C 
ENDBRANCH   3   6
ENDBRANCH   2   3
ENDBRANCH   1   2
BRANCH   1   9
ATOM      9  C   UNL     1      26.233 -24.199  26.625  1.00  0.00    -0.011 C 
ATOM     10  C   UNL     1      26.210 -25.689  26.997  1.00  0.00     0.008 C 
BRANCH   9  11
ATOM     11  C   UNL     1      24.817 -23.492  26.610  1.00  0.00    -0.002 C 
ATOM     12  C   UNL     1      23.611 -24.438  26.614  1.00  0.00     0.005 C 
ATOM     13  C   UNL     1      24.439 -22.349  25.613  1.00  0.00    -0.026 C 
ATOM     14  C   UNL     1      22.389 -23.593  26.243  1.00  0.00     0.005 C 
ATOM     15  C   UNL     1      22.903 -22.197  25.844  1.00  0.00    -0.001 C 
ATOM     16  C   UNL     1      25.187 -21.007  25.889  1.00  0.00     0.007 C 
ATOM     17  C   UNL     1      24.658 -22.759  24.133  1.00  0.00     0.012 C 
ATOM     18  C   UNL     1      22.484 -21.051  26.828  1.00  0.00     0.000 C 
ATOM     19  C   UNL     1      24.329 -19.791  25.504  1.00  0.00     0.005 C 
ATOM     20  C   UNL     1      23.052 -19.660  26.384  1.00  0.00     0.003 C 
ATOM     21  C   UNL     1      22.770 -21.300  28.314  1.00  0.00     0.031 C 
ATOM     22  C   UNL     1      23.119 -18.536  27.532  1.00  0.00    -0.008 C 
ATOM     23  C   UNL     1      22.135 -20.211  29.115  1.00  0.00    -0.027 C 
ATOM     24  C   UNL     1      22.282 -18.919  28.762  1.00  0.00    -0.065 C 
ATOM     25  C   UNL     1      24.556 -18.262  28.096  1.00  0.00     0.014 C 
ATOM     26  C   UNL     1      22.568 -17.226  26.899  1.00  0.00     0.016 C 
ATOM     27  C   UNL     1      22.163 -17.892  29.862  1.00  0.00     0.063 C 
ATOM     28  C   UNL     1      24.582 -17.272  29.292  1.00  0.00     0.033 C 
ATOM     29  C   UNL     1      23.578 -17.635  30.412  1.00  0.00     0.118 C 
BRANCH  29  30
ATOM     30  O   UNL     1      23.554 -16.636  31.399  1.00  0.00    -0.393 OA
ATOM     31  H   UNL     1      24.270 -16.845  32.056  1.00  0.00     0.210 HD
ENDBRANCH  29  30
ENDBRANCH   9  11
ENDBRANCH   1   9
TORSDOF 7
ENDMDL
MODEL 7
REMARK VINA RESULT:    -6.971      3.417      6.340
REMARK INTER + INTRA:         -12.169
REMARK INTER:                  -9.537
REMARK INTRA:                  -2.631
REMARK UNBOUND:                -2.548
REMARK SMILES CC[C@H](CC[C@@H](C)[C@@H]1CC[C@H]2[C@H]3CC=C4C[C@H](O)CC[C@@]4(C)[C@H]3CC[C@]21C)C(C)C
REMARK SMILES IDX 5 1 4 2 3 3 2 4 1 5 28 6 29 7 30 8 6 9 7 10 8 11 9 12 26 13
REMARK SMILES IDX 10 14 11 15 25 16 27 17 12 18 24 19 23 20 13 21 21 22 14 23
REMARK SMILES IDX 15 24 20 25 22 26 16 27 19 28 17 29 18 30
REMARK H PARENT 18 31
REMARK Flexibility Score: inf
ROOT
ATOM      1  C   UNL     1      27.986 -24.183  25.723  1.00  0.00     0.004 C 
ENDROOT
BRANCH   1   2
ATOM      2  C   UNL     1      26.679 -24.268  24.918  1.00  0.00     0.004 C 
BRANCH   2   3
ATOM      3  C   UNL     1      25.700 -23.076  25.121  1.00  0.00    -0.009 C 
BRANCH   3   4
ATOM      4  C   UNL     1      26.399 -21.704  25.330  1.00  0.00     0.000 C 
ATOM      5  C   UNL     1      25.480 -20.509  25.077  1.00  0.00     0.004 C 
ENDBRANCH   3   4
BRANCH   3   6
ATOM      6  C   UNL     1      24.560 -23.039  24.041  1.00  0.00    -0.014 C 
ATOM      7  C   UNL     1      23.141 -23.255  24.603  1.00  0.00     0.007 C 
ATOM      8  C   UNL     1      24.823 -24.062  22.924  1.00  0.00     0.007 C 
ENDBRANCH   3   6
ENDBRANCH   2   3
ENDBRANCH   1   2
BRANCH   1   9
ATOM      9  C   UNL     1      27.907 -24.647  27.206  1.00  0.00    -0.011 C 
ATOM     10  C   UNL     1      29.105 -25.517  27.616  1.00  0.00     0.008 C 
BRANCH   9  11
ATOM     11  C   UNL     1      27.411 -23.629  28.312  1.00  0.00    -0.002 C 
ATOM     12  C   UNL     1      28.486 -23.153  29.296  1.00  0.00     0.005 C 
ATOM     13  C   UNL     1      26.132 -23.862  29.181  1.00  0.00    -0.026 C 
ATOM     14  C   UNL     1      27.749 -22.485  30.461  1.00  0.00     0.005 C 
ATOM     15  C   UNL     1      26.244 -22.730  30.250  1.00  0.00    -0.001 C 
ATOM     16  C   UNL     1      24.800 -23.747  28.375  1.00  0.00     0.007 C 
ATOM     17  C   UNL     1      26.163 -25.222  29.925  1.00  0.00     0.012 C 
ATOM     18  C   UNL     1      25.417 -21.434  29.941  1.00  0.00     0.000 C 
ATOM     19  C   UNL     1      23.655 -23.211  29.247  1.00  0.00     0.005 C 
ATOM     20  C   UNL     1      23.898 -21.747  29.716  1.00  0.00     0.003 C 
ATOM     21  C   UNL     1      25.957 -20.542  28.816  1.00  0.00     0.031 C 
ATOM     22  C   UNL     1      23.066 -20.622  28.924  1.00  0.00    -0.008 C 
ATOM     23  C   UNL     1      25.172 -19.271  28.793  1.00  0.00    -0.027 C 
ATOM     24  C   UNL     1      23.826 -19.290  28.848  1.00  0.00    -0.065 C 
ATOM     25  C   UNL     1      22.737 -20.980  27.433  1.00  0.00     0.014 C 
ATOM     26  C   UNL     1      21.732 -20.432  29.701  1.00  0.00     0.016 C 
ATOM     27  C   UNL     1      23.101 -18.116  28.236  1.00  0.00     0.063 C 
ATOM     28  C   UNL     1      22.050 -19.830  26.649  1.00  0.00     0.033 C 
ATOM     29  C   UNL     1      22.789 -18.475  26.771  1.00  0.00     0.118 C 
BRANCH  29  30
ATOM     30  O   UNL     1      22.053 -17.451  26.154  1.00  0.00    -0.393 OA
ATOM     31  H   UNL     1      21.220 -17.856  25.794  1.00  0.00     0.210 HD
ENDBRANCH  29  30
ENDBRANCH   9  11
ENDBRANCH   1   9
TORSDOF 7
ENDMDL
MODEL 8
REMARK VINA RESULT:    -6.810      3.228      5.551
REMARK INTER + INTRA:         -11.946
REMARK INTER:                  -9.505
REMARK INTRA:                  -2.440
REMARK UNBOUND:                -2.548
REMARK SMILES CC[C@H](CC[C@@H](C)[C@@H]1CC[C@H]2[C@H]3CC=C4C[C@H](O)CC[C@@]4(C)[C@H]3CC[C@]21C)C(C)C
REMARK SMILES IDX 5 1 4 2 3 3 2 4 1 5 28 6 29 7 30 8 6 9 7 10 8 11 9 12 26 13
REMARK SMILES IDX 10 14 11 15 25 16 27 17 12 18 24 19 23 20 13 21 21 22 14 23
REMARK SMILES IDX 15 24 20 25 22 26 16 27 19 28 17 29 18 30
REMARK H PARENT 18 31
REMARK Flexibility Score: inf
ROOT
ATOM      1  C   UNL     1      24.331 -19.591  31.076  1.00  0.00     0.004 C 
ENDROOT
BRANCH   1   2
ATOM      2  C   UNL     1      25.237 -20.801  30.796  1.00  0.00     0.004 C 
BRANCH   2   3
ATOM      3  C   UNL     1      26.759 -20.486  30.732  1.00  0.00    -0.009 C 
BRANCH   3   4
ATOM      4  C   UNL     1      27.192 -19.255  31.577  1.00  0.00     0.000 C 
ATOM      5  C   UNL     1      27.616 -18.055  30.731  1.00  0.00     0.004 C 
ENDBRANCH   3   4
BRANCH   3   6
ATOM      6  C   UNL     1      27.651 -21.756  30.976  1.00  0.00    -0.014 C 
ATOM      7  C   UNL     1      29.165 -21.471  31.032  1.00  0.00     0.007 C 
ATOM      8  C   UNL     1      27.378 -22.834  29.915  1.00  0.00     0.007 C 
ENDBRANCH   3   6
ENDBRANCH   2   3
ENDBRANCH   1   2
BRANCH   1   9
ATOM      9  C   UNL     1      23.859 -18.787  29.830  1.00  0.00    -0.011 C 
ATOM     10  C   UNL     1      23.982 -17.268  30.027  1.00  0.00     0.008 C 
BRANCH   9  11
ATOM     11  C   UNL     1      24.238 -19.305  28.384  1.00  0.00    -0.002 C 
ATOM     12  C   UNL     1      24.818 -18.248  27.437  1.00  0.00     0.005 C 
ATOM     13  C   UNL     1      23.273 -20.162  27.499  1.00  0.00    -0.026 C 
ATOM     14  C   UNL     1      24.778 -18.849  26.030  1.00  0.00     0.005 C 
ATOM     15  C   UNL     1      24.008 -20.180  26.122  1.00  0.00    -0.001 C 
ATOM     16  C   UNL     1      23.052 -21.610  28.039  1.00  0.00     0.007 C 
ATOM     17  C   UNL     1      21.897 -19.478  27.293  1.00  0.00     0.012 C 
ATOM     18  C   UNL     1      24.885 -21.451  25.848  1.00  0.00     0.000 C 
ATOM     19  C   UNL     1      22.811 -22.609  26.898  1.00  0.00     0.005 C 
ATOM     20  C   UNL     1      24.055 -22.774  25.977  1.00  0.00     0.003 C 
ATOM     21  C   UNL     1      26.191 -21.554  26.644  1.00  0.00     0.031 C 
ATOM     22  C   UNL     1      24.913 -24.113  26.210  1.00  0.00    -0.008 C 
ATOM     23  C   UNL     1      26.984 -22.706  26.119  1.00  0.00    -0.027 C 
ATOM     24  C   UNL     1      26.403 -23.903  25.906  1.00  0.00    -0.065 C 
ATOM     25  C   UNL     1      24.879 -24.665  27.677  1.00  0.00     0.014 C 
ATOM     26  C   UNL     1      24.320 -25.188  25.255  1.00  0.00     0.016 C 
ATOM     27  C   UNL     1      27.298 -25.117  25.968  1.00  0.00     0.063 C 
ATOM     28  C   UNL     1      25.816 -25.880  27.913  1.00  0.00     0.033 C 
ATOM     29  C   UNL     1      27.262 -25.646  27.414  1.00  0.00     0.118 C 
BRANCH  29  30
ATOM     30  O   UNL     1      28.024 -26.821  27.533  1.00  0.00    -0.393 OA
ATOM     31  H   UNL     1      28.635 -26.862  26.751  1.00  0.00     0.210 HD
ENDBRANCH  29  30
ENDBRANCH   9  11
ENDBRANCH   1   9
TORSDOF 7
ENDMDL
MODEL 9
REMARK VINA RESULT:    -6.788      2.974      6.030
REMARK INTER + INTRA:         -11.915
REMARK INTER:                  -9.259
REMARK INTRA:                  -2.656
REMARK UNBOUND:                -2.548
REMARK SMILES CC[C@H](CC[C@@H](C)[C@@H]1CC[C@H]2[C@H]3CC=C4C[C@H](O)CC[C@@]4(C)[C@H]3CC[C@]21C)C(C)C
REMARK SMILES IDX 5 1 4 2 3 3 2 4 1 5 28 6 29 7 30 8 6 9 7 10 8 11 9 12 26 13
REMARK SMILES IDX 10 14 11 15 25 16 27 17 12 18 24 19 23 20 13 21 21 22 14 23
REMARK SMILES IDX 15 24 20 25 22 26 16 27 19 28 17 29 18 30
REMARK H PARENT 18 31
REMARK Flexibility Score: inf
ROOT
ATOM      1  C   UNL     1      27.732 -22.249  30.874  1.00  0.00     0.004 C 
ENDROOT
BRANCH   1   2
ATOM      2  C   UNL     1      27.860 -22.838  29.461  1.00  0.00     0.004 C 
BRANCH   2   3
ATOM      3  C   UNL     1      27.664 -24.379  29.367  1.00  0.00    -0.009 C 
BRANCH   3   4
ATOM      4  C   UNL     1      26.540 -24.935  30.285  1.00  0.00     0.000 C 
ATOM      5  C   UNL     1      25.398 -25.597  29.514  1.00  0.00     0.004 C 
ENDBRANCH   3   4
BRANCH   3   6
ATOM      6  C   UNL     1      27.569 -24.888  27.885  1.00  0.00    -0.014 C 
ATOM      7  C   UNL     1      28.510 -26.064  27.553  1.00  0.00     0.007 C 
ATOM      8  C   UNL     1      27.821 -23.743  26.890  1.00  0.00     0.007 C 
ENDBRANCH   3   6
ENDBRANCH   2   3
ENDBRANCH   1   2
BRANCH   1   9
ATOM      9  C   UNL     1      26.967 -20.898  30.986  1.00  0.00    -0.011 C 
ATOM     10  C   UNL     1      27.794 -19.808  31.685  1.00  0.00     0.008 C 
BRANCH   9  11
ATOM     11  C   UNL     1      26.098 -20.396  29.763  1.00  0.00    -0.002 C 
ATOM     12  C   UNL     1      26.235 -18.906  29.427  1.00  0.00     0.005 C 
ATOM     13  C   UNL     1      24.575 -20.713  29.604  1.00  0.00    -0.026 C 
ATOM     14  C   UNL     1      25.081 -18.561  28.482  1.00  0.00     0.005 C 
ATOM     15  C   UNL     1      24.164 -19.797  28.410  1.00  0.00    -0.001 C 
ATOM     16  C   UNL     1      24.279 -22.214  29.291  1.00  0.00     0.007 C 
ATOM     17  C   UNL     1      23.748 -20.278  30.842  1.00  0.00     0.012 C 
ATOM     18  C   UNL     1      24.137 -20.497  27.006  1.00  0.00     0.000 C 
ATOM     19  C   UNL     1      23.026 -22.374  28.417  1.00  0.00     0.005 C 
ATOM     20  C   UNL     1      23.206 -21.757  26.999  1.00  0.00     0.003 C 
ATOM     21  C   UNL     1      25.502 -20.831  26.393  1.00  0.00     0.031 C 
ATOM     22  C   UNL     1      23.475 -22.814  25.817  1.00  0.00    -0.008 C 
ATOM     23  C   UNL     1      25.296 -21.303  24.992  1.00  0.00    -0.027 C 
ATOM     24  C   UNL     1      24.353 -22.222  24.704  1.00  0.00    -0.065 C 
ATOM     25  C   UNL     1      24.221 -24.119  26.262  1.00  0.00     0.014 C 
ATOM     26  C   UNL     1      22.080 -23.201  25.247  1.00  0.00     0.016 C 
ATOM     27  C   UNL     1      24.578 -23.072  23.478  1.00  0.00     0.063 C 
ATOM     28  C   UNL     1      24.587 -25.064  25.087  1.00  0.00     0.033 C 
ATOM     29  C   UNL     1      25.316 -24.347  23.926  1.00  0.00     0.118 C 
BRANCH  29  30
ATOM     30  O   UNL     1      25.502 -25.221  22.842  1.00  0.00    -0.393 OA
ATOM     31  H   UNL     1      26.331 -25.741  23.015  1.00  0.00     0.210 HD
ENDBRANCH  29  30
ENDBRANCH   9  11
ENDBRANCH   1   9
TORSDOF 7
ENDMDL
