MODEL 1
REMARK VINA RESULT:    -5.517      0.000      0.000
REMARK INTER + INTRA:          -7.491
REMARK INTER:                  -6.807
REMARK INTRA:                  -0.685
REMARK UNBOUND:                -0.685
REMARK SMILES CC(C)=CCC[C@@H](C)c1ccc(C)cc1
REMARK SMILES IDX 6 1 7 2 8 3 9 4 13 5 12 6 11 7 14 8 10 9 15 10 5 11 4 12
REMARK SMILES IDX 2 13 1 14 3 15
REMARK H PARENT
REMARK Flexibility Score: inf
ROOT
ATOM      1  C   UNL     1      53.992  -9.125  74.634  1.00  0.00     0.012 C 
ENDROOT
BRANCH   1   2
ATOM      2  C   UNL     1      54.626  -8.146  73.615  1.00  0.00     0.016 C 
ATOM      3  C   UNL     1      56.085  -8.493  73.283  1.00  0.00     0.013 C 
BRANCH   2   4
ATOM      4  C   UNL     1      53.796  -8.097  72.345  1.00  0.00    -0.045 A 
ATOM      5  C   UNL     1      51.415  -7.929  68.745  1.00  0.00     0.044 C 
ATOM      6  C   UNL     1      52.228  -8.014  70.002  1.00  0.00    -0.051 A 
ATOM      7  C   UNL     1      51.765  -7.421  71.185  1.00  0.00     0.004 A 
ATOM      8  C   UNL     1      53.488  -8.628  69.988  1.00  0.00     0.004 A 
ATOM      9  C   UNL     1      52.538  -7.468  72.348  1.00  0.00     0.004 A 
ATOM     10  C   UNL     1      54.263  -8.676  71.151  1.00  0.00     0.004 A 
ENDBRANCH   2   4
ENDBRANCH   1   2
BRANCH   1  11
ATOM     11  C   UNL     1      53.668  -8.482  75.996  1.00  0.00     0.028 C 
BRANCH  11  12
ATOM     12  C   UNL     1      52.279  -8.822  76.485  1.00  0.00    -0.028 C 
ATOM     13  C   UNL     1      51.348  -7.886  76.766  1.00  0.00    -0.080 C 
ATOM     14  C   UNL     1      51.634  -6.413  76.607  1.00  0.00     0.039 C 
ATOM     15  C   UNL     1      49.980  -8.299  77.245  1.00  0.00     0.039 C 
ENDBRANCH  11  12
ENDBRANCH   1  11
TORSDOF 4
ENDMDL
MODEL 2
REMARK VINA RESULT:    -5.430      8.736      9.951
REMARK INTER + INTRA:          -7.384
REMARK INTER:                  -6.617
REMARK INTRA:                  -0.767
REMARK UNBOUND:                -0.685
REMARK SMILES CC(C)=CCC[C@@H](C)c1ccc(C)cc1
REMARK SMILES IDX 6 1 7 2 8 3 9 4 13 5 12 6 11 7 14 8 10 9 15 10 5 11 4 12
REMARK SMILES IDX 2 13 1 14 3 15
REMARK H PARENT
REMARK Flexibility Score: inf
ROOT
ATOM      1  C   UNL     1      49.732   2.228  73.257  1.00  0.00     0.012 C 
ENDROOT
BRANCH   1   2
ATOM      2  C   UNL     1      49.431   0.715  73.119  1.00  0.00     0.016 C 
ATOM      3  C   UNL     1      48.151   0.293  73.855  1.00  0.00     0.013 C 
BRANCH   2   4
ATOM      4  C   UNL     1      49.346   0.327  71.654  1.00  0.00    -0.045 A 
ATOM      5  C   UNL     1      49.075  -0.756  67.481  1.00  0.00     0.044 C 
ATOM      6  C   UNL     1      49.164  -0.410  68.937  1.00  0.00    -0.051 A 
ATOM      7  C   UNL     1      48.019  -0.009  69.640  1.00  0.00     0.004 A 
ATOM      8  C   UNL     1      50.405  -0.418  69.590  1.00  0.00     0.004 A 
ATOM      9  C   UNL     1      48.108   0.350  70.988  1.00  0.00     0.004 A 
ATOM     10  C   UNL     1      50.495  -0.059  70.939  1.00  0.00     0.004 A 
ENDBRANCH   2   4
ENDBRANCH   1   2
BRANCH   1  11
ATOM     11  C   UNL     1      51.222   2.583  73.095  1.00  0.00     0.028 C 
BRANCH  11  12
ATOM     12  C   UNL     1      51.928   2.752  74.421  1.00  0.00    -0.028 C 
ATOM     13  C   UNL     1      52.784   1.836  74.921  1.00  0.00    -0.080 C 
ATOM     14  C   UNL     1      53.101   0.561  74.180  1.00  0.00     0.039 C 
ATOM     15  C   UNL     1      53.457   2.075  76.248  1.00  0.00     0.039 C 
ENDBRANCH  11  12
ENDBRANCH   1  11
TORSDOF 4
ENDMDL
MODEL 3
REMARK VINA RESULT:    -5.395      9.230     10.152
REMARK INTER + INTRA:          -7.341
REMARK INTER:                  -6.610
REMARK INTRA:                  -0.731
REMARK UNBOUND:                -0.685
REMARK SMILES CC(C)=CCC[C@@H](C)c1ccc(C)cc1
REMARK SMILES IDX 6 1 7 2 8 3 9 4 13 5 12 6 11 7 14 8 10 9 15 10 5 11 4 12
REMARK SMILES IDX 2 13 1 14 3 15
REMARK H PARENT
REMARK Flexibility Score: inf
ROOT
ATOM      1  C   UNL     1      51.636   1.131  73.611  1.00  0.00     0.012 C 
ENDROOT
BRANCH   1   2
ATOM      2  C   UNL     1      50.088   1.106  73.558  1.00  0.00     0.016 C 
ATOM      3  C   UNL     1      49.458   2.461  73.914  1.00  0.00     0.013 C 
BRANCH   2   4
ATOM      4  C   UNL     1      49.616   0.651  72.189  1.00  0.00    -0.045 A 
ATOM      5  C   UNL     1      48.302  -0.666  68.290  1.00  0.00     0.044 C 
ATOM      6  C   UNL     1      48.762  -0.180  69.632  1.00  0.00    -0.051 A 
ATOM      7  C   UNL     1      50.118  -0.247  69.982  1.00  0.00     0.004 A 
ATOM      8  C   UNL     1      47.830   0.282  70.573  1.00  0.00     0.004 A 
ATOM      9  C   UNL     1      50.543   0.171  71.246  1.00  0.00     0.004 A 
ATOM     10  C   UNL     1      48.254   0.700  71.838  1.00  0.00     0.004 A 
ENDBRANCH   2   4
ENDBRANCH   1   2
BRANCH   1  11
ATOM     11  C   UNL     1      52.220   2.475  74.084  1.00  0.00     0.028 C 
BRANCH  11  12
ATOM     12  C   UNL     1      53.305   2.306  75.123  1.00  0.00    -0.028 C 
ATOM     13  C   UNL     1      53.088   2.463  76.446  1.00  0.00    -0.080 C 
ATOM     14  C   UNL     1      51.727   2.824  76.987  1.00  0.00     0.039 C 
ATOM     15  C   UNL     1      54.217   2.272  77.426  1.00  0.00     0.039 C 
ENDBRANCH  11  12
ENDBRANCH   1  11
TORSDOF 4
ENDMDL
MODEL 4
REMARK VINA RESULT:    -5.377      8.564     11.156
REMARK INTER + INTRA:          -7.319
REMARK INTER:                  -6.776
REMARK INTRA:                  -0.542
REMARK UNBOUND:                -0.685
REMARK SMILES CC(C)=CCC[C@@H](C)c1ccc(C)cc1
REMARK SMILES IDX 6 1 7 2 8 3 9 4 13 5 12 6 11 7 14 8 10 9 15 10 5 11 4 12
REMARK SMILES IDX 2 13 1 14 3 15
REMARK H PARENT
REMARK Flexibility Score: inf
ROOT
ATOM      1  C   UNL     1      50.656   0.256  71.360  1.00  0.00     0.012 C 
ENDROOT
BRANCH   1   2
ATOM      2  C   UNL     1      49.979   1.129  72.446  1.00  0.00     0.016 C 
ATOM      3  C   UNL     1      48.706   0.489  73.018  1.00  0.00     0.013 C 
BRANCH   2   4
ATOM      4  C   UNL     1      50.962   1.434  73.563  1.00  0.00    -0.045 A 
ATOM      5  C   UNL     1      53.784   2.290  76.719  1.00  0.00     0.044 C 
ATOM      6  C   UNL     1      52.791   1.971  75.641  1.00  0.00    -0.051 A 
ATOM      7  C   UNL     1      53.102   1.029  74.650  1.00  0.00     0.004 A 
ATOM      8  C   UNL     1      51.572   2.661  75.577  1.00  0.00     0.004 A 
ATOM      9  C   UNL     1      52.193   0.758  73.624  1.00  0.00     0.004 A 
ATOM     10  C   UNL     1      50.662   2.391  74.551  1.00  0.00     0.004 A 
ENDBRANCH   2   4
ENDBRANCH   1   2
BRANCH   1  11
ATOM     11  C   UNL     1      49.683  -0.687  70.627  1.00  0.00     0.028 C 
BRANCH  11  12
ATOM     12  C   UNL     1      49.323  -0.192  69.245  1.00  0.00    -0.028 C 
ATOM     13  C   UNL     1      49.968  -0.592  68.128  1.00  0.00    -0.080 C 
ATOM     14  C   UNL     1      51.110  -1.576  68.184  1.00  0.00     0.039 C 
ATOM     15  C   UNL     1      49.550  -0.061  66.782  1.00  0.00     0.039 C 
ENDBRANCH  11  12
ENDBRANCH   1  11
TORSDOF 4
ENDMDL
MODEL 5
REMARK VINA RESULT:    -5.352      5.168      7.839
REMARK INTER + INTRA:          -7.288
REMARK INTER:                  -6.665
REMARK INTRA:                  -0.622
REMARK UNBOUND:                -0.685
REMARK SMILES CC(C)=CCC[C@@H](C)c1ccc(C)cc1
REMARK SMILES IDX 6 1 7 2 8 3 9 4 13 5 12 6 11 7 14 8 10 9 15 10 5 11 4 12
REMARK SMILES IDX 2 13 1 14 3 15
REMARK H PARENT
REMARK Flexibility Score: inf
ROOT
ATOM      1  C   UNL     1      54.299  -5.289  66.265  1.00  0.00     0.012 C 
ENDROOT
BRANCH   1   2
ATOM      2  C   UNL     1      54.041  -6.722  66.791  1.00  0.00     0.016 C 
ATOM      3  C   UNL     1      55.209  -7.271  67.624  1.00  0.00     0.013 C 
BRANCH   2   4
ATOM      4  C   UNL     1      52.755  -6.763  67.598  1.00  0.00    -0.045 A 
ATOM      5  C   UNL     1      49.079  -6.868  69.864  1.00  0.00     0.044 C 
ATOM      6  C   UNL     1      50.366  -6.808  69.095  1.00  0.00    -0.051 A 
ATOM      7  C   UNL     1      50.475  -5.992  67.961  1.00  0.00     0.004 A 
ATOM      8  C   UNL     1      51.448  -7.620  69.465  1.00  0.00     0.004 A 
ATOM      9  C   UNL     1      51.661  -5.964  67.222  1.00  0.00     0.004 A 
ATOM     10  C   UNL     1      52.635  -7.593  68.727  1.00  0.00     0.004 A 
ENDBRANCH   2   4
ENDBRANCH   1   2
BRANCH   1  11
ATOM     11  C   UNL     1      55.055  -4.388  67.261  1.00  0.00     0.028 C 
BRANCH  11  12
ATOM     12  C   UNL     1      54.747  -2.921  67.069  1.00  0.00    -0.028 C 
ATOM     13  C   UNL     1      55.498  -1.935  67.605  1.00  0.00    -0.080 C 
ATOM     14  C   UNL     1      56.716  -2.235  68.443  1.00  0.00     0.039 C 
ATOM     15  C   UNL     1      55.135  -0.492  67.366  1.00  0.00     0.039 C 
ENDBRANCH  11  12
ENDBRANCH   1  11
TORSDOF 4
ENDMDL
MODEL 6
REMARK VINA RESULT:    -5.319      1.423      6.210
REMARK INTER + INTRA:          -7.248
REMARK INTER:                  -6.718
REMARK INTRA:                  -0.530
REMARK UNBOUND:                -0.685
REMARK SMILES CC(C)=CCC[C@@H](C)c1ccc(C)cc1
REMARK SMILES IDX 6 1 7 2 8 3 9 4 13 5 12 6 11 7 14 8 10 9 15 10 5 11 4 12
REMARK SMILES IDX 2 13 1 14 3 15
REMARK H PARENT
REMARK Flexibility Score: inf
ROOT
ATOM      1  C   UNL     1      53.061  -7.775  72.350  1.00  0.00     0.012 C 
ENDROOT
BRANCH   1   2
ATOM      2  C   UNL     1      53.408  -8.656  73.576  1.00  0.00     0.016 C 
ATOM      3  C   UNL     1      54.822  -8.396  74.116  1.00  0.00     0.013 C 
BRANCH   2   4
ATOM      4  C   UNL     1      52.381  -8.455  74.676  1.00  0.00    -0.045 A 
ATOM      5  C   UNL     1      49.433  -7.901  77.784  1.00  0.00     0.044 C 
ATOM      6  C   UNL     1      50.456  -8.063  76.700  1.00  0.00    -0.051 A 
ATOM      7  C   UNL     1      50.054  -8.318  75.381  1.00  0.00     0.004 A 
ATOM      8  C   UNL     1      51.823  -8.028  77.008  1.00  0.00     0.004 A 
ATOM      9  C   UNL     1      51.007  -8.505  74.377  1.00  0.00     0.004 A 
ATOM     10  C   UNL     1      52.778  -8.215  76.004  1.00  0.00     0.004 A 
ENDBRANCH   2   4
ENDBRANCH   1   2
BRANCH   1  11
ATOM     11  C   UNL     1      52.869  -8.573  71.047  1.00  0.00     0.028 C 
BRANCH  11  12
ATOM     12  C   UNL     1      53.834  -8.156  69.961  1.00  0.00    -0.028 C 
ATOM     13  C   UNL     1      53.435  -7.646  68.777  1.00  0.00    -0.080 C 
ATOM     14  C   UNL     1      51.975  -7.452  68.451  1.00  0.00     0.039 C 
ATOM     15  C   UNL     1      54.455  -7.247  67.742  1.00  0.00     0.039 C 
ENDBRANCH  11  12
ENDBRANCH   1  11
TORSDOF 4
ENDMDL
MODEL 7
REMARK VINA RESULT:    -5.238      4.196      7.793
REMARK INTER + INTRA:          -7.148
REMARK INTER:                  -6.531
REMARK INTRA:                  -0.617
REMARK UNBOUND:                -0.685
REMARK SMILES CC(C)=CCC[C@@H](C)c1ccc(C)cc1
REMARK SMILES IDX 6 1 7 2 8 3 9 4 13 5 12 6 11 7 14 8 10 9 15 10 5 11 4 12
REMARK SMILES IDX 2 13 1 14 3 15
REMARK H PARENT
REMARK Flexibility Score: inf
ROOT
ATOM      1  C   UNL     1      54.550  -6.239  66.597  1.00  0.00     0.012 C 
ENDROOT
BRANCH   1   2
ATOM      2  C   UNL     1      53.153  -6.869  66.816  1.00  0.00     0.016 C 
ATOM      3  C   UNL     1      52.889  -8.070  65.895  1.00  0.00     0.013 C 
BRANCH   2   4
ATOM      4  C   UNL     1      52.980  -7.273  68.269  1.00  0.00    -0.045 A 
ATOM      5  C   UNL     1      52.453  -8.430  72.398  1.00  0.00     0.044 C 
ATOM      6  C   UNL     1      52.643  -8.000  70.974  1.00  0.00    -0.051 A 
ATOM      7  C   UNL     1      51.549  -7.551  70.219  1.00  0.00     0.004 A 
ATOM      8  C   UNL     1      53.901  -8.107  70.365  1.00  0.00     0.004 A 
ATOM      9  C   UNL     1      51.717  -7.185  68.881  1.00  0.00     0.004 A 
ATOM     10  C   UNL     1      54.071  -7.740  69.026  1.00  0.00     0.004 A 
ENDBRANCH   2   4
ENDBRANCH   1   2
BRANCH   1  11
ATOM     11  C   UNL     1      54.523  -4.708  66.429  1.00  0.00     0.028 C 
BRANCH  11  12
ATOM     12  C   UNL     1      55.280  -3.988  67.521  1.00  0.00    -0.028 C 
ATOM     13  C   UNL     1      56.066  -2.916  67.287  1.00  0.00    -0.080 C 
ATOM     14  C   UNL     1      56.244  -2.353  65.898  1.00  0.00     0.039 C 
ATOM     15  C   UNL     1      56.788  -2.244  68.426  1.00  0.00     0.039 C 
ENDBRANCH  11  12
ENDBRANCH   1  11
TORSDOF 4
ENDMDL
MODEL 8
REMARK VINA RESULT:    -5.142      7.006      8.223
REMARK INTER + INTRA:          -7.029
REMARK INTER:                  -6.499
REMARK INTRA:                  -0.529
REMARK UNBOUND:                -0.685
REMARK SMILES CC(C)=CCC[C@@H](C)c1ccc(C)cc1
REMARK SMILES IDX 6 1 7 2 8 3 9 4 13 5 12 6 11 7 14 8 10 9 15 10 5 11 4 12
REMARK SMILES IDX 2 13 1 14 3 15
REMARK H PARENT
REMARK Flexibility Score: inf
ROOT
ATOM      1  C   UNL     1      54.142  -4.862  67.235  1.00  0.00     0.012 C 
ENDROOT
BRANCH   1   2
ATOM      2  C   UNL     1      54.415  -6.274  66.663  1.00  0.00     0.016 C 
ATOM      3  C   UNL     1      55.226  -7.159  67.622  1.00  0.00     0.013 C 
BRANCH   2   4
ATOM      4  C   UNL     1      53.110  -6.956  66.296  1.00  0.00    -0.045 A 
ATOM      5  C   UNL     1      49.380  -8.863  65.242  1.00  0.00     0.044 C 
ATOM      6  C   UNL     1      50.669  -8.208  65.638  1.00  0.00    -0.051 A 
ATOM      7  C   UNL     1      50.706  -6.836  65.926  1.00  0.00     0.004 A 
ATOM      8  C   UNL     1      51.861  -8.947  65.657  1.00  0.00     0.004 A 
ATOM      9  C   UNL     1      51.914  -6.217  66.259  1.00  0.00     0.004 A 
ATOM     10  C   UNL     1      53.069  -8.329  65.990  1.00  0.00     0.004 A 
ENDBRANCH   2   4
ENDBRANCH   1   2
BRANCH   1  11
ATOM     11  C   UNL     1      55.047  -3.765  66.642  1.00  0.00     0.028 C 
BRANCH  11  12
ATOM     12  C   UNL     1      55.927  -3.111  67.682  1.00  0.00    -0.028 C 
ATOM     13  C   UNL     1      55.849  -1.800  67.993  1.00  0.00    -0.080 C 
ATOM     14  C   UNL     1      54.862  -0.883  67.315  1.00  0.00     0.039 C 
ATOM     15  C   UNL     1      56.755  -1.217  69.047  1.00  0.00     0.039 C 
ENDBRANCH  11  12
ENDBRANCH   1  11
TORSDOF 4
ENDMDL
MODEL 9
REMARK VINA RESULT:    -5.132      1.553      4.209
REMARK INTER + INTRA:          -7.016
REMARK INTER:                  -6.682
REMARK INTRA:                  -0.335
REMARK UNBOUND:                -0.685
REMARK SMILES CC(C)=CCC[C@@H](C)c1ccc(C)cc1
REMARK SMILES IDX 6 1 7 2 8 3 9 4 13 5 12 6 11 7 14 8 10 9 15 10 5 11 4 12
REMARK SMILES IDX 2 13 1 14 3 15
REMARK H PARENT
REMARK Flexibility Score: inf
ROOT
ATOM      1  C   UNL     1      52.436  -7.899  74.249  1.00  0.00     0.012 C 
ENDROOT
BRANCH   1   2
ATOM      2  C   UNL     1      53.142  -8.783  73.192  1.00  0.00     0.016 C 
ATOM      3  C   UNL     1      52.920  -8.286  71.755  1.00  0.00     0.013 C 
BRANCH   2   4
ATOM      4  C   UNL     1      54.628  -8.875  73.492  1.00  0.00    -0.045 A 
ATOM      5  C   UNL     1      58.861  -9.125  74.312  1.00  0.00     0.044 C 
ATOM      6  C   UNL     1      57.390  -9.069  74.027  1.00  0.00    -0.051 A 
ATOM      7  C   UNL     1      56.927  -9.013  72.704  1.00  0.00     0.004 A 
ATOM      8  C   UNL     1      56.468  -9.005  75.082  1.00  0.00     0.004 A 
ATOM      9  C   UNL     1      55.559  -8.923  72.439  1.00  0.00     0.004 A 
ATOM     10  C   UNL     1      55.098  -8.916  74.817  1.00  0.00     0.004 A 
ENDBRANCH   2   4
ENDBRANCH   1   2
BRANCH   1  11
ATOM     11  C   UNL     1      51.924  -8.682  75.473  1.00  0.00     0.028 C 
BRANCH  11  12
ATOM     12  C   UNL     1      51.426  -7.778  76.577  1.00  0.00    -0.028 C 
ATOM     13  C   UNL     1      50.122  -7.468  76.742  1.00  0.00    -0.080 C 
ATOM     14  C   UNL     1      49.057  -8.012  75.822  1.00  0.00     0.039 C 
ATOM     15  C   UNL     1      49.697  -6.564  77.870  1.00  0.00     0.039 C 
ENDBRANCH  11  12
ENDBRANCH   1  11
TORSDOF 4
ENDMDL
