MODEL 1
REMARK VINA RESULT:    -5.752      0.000      0.000
REMARK INTER + INTRA:          -6.256
REMARK INTER:                  -6.256
REMARK INTRA:                   0.000
REMARK UNBOUND:                 0.000
REMARK SMILES Cc1cc(O)c2c(c1)C(=O)c1cc(O)cc(O)c1C2=O
REMARK SMILES IDX 1 1 2 2 8 3 7 4 6 5 4 6 3 7 19 8 20 9 18 10 11 11 9 12 10 13
REMARK SMILES IDX 12 14 13 15 15 16 16 17 5 18 17 20 14 22
REMARK H PARENT 5 19 17 21 14 23
REMARK Flexibility Score: inf
ROOT
ATOM      1  C   UNL     1     136.975 155.852 123.531  1.00  0.00     0.044 C 
ATOM      2  C   UNL     1     138.074 155.160 122.776  1.00  0.00    -0.047 A 
ATOM      3  C   UNL     1     137.850 153.904 122.203  1.00  0.00     0.016 A 
ATOM      4  C   UNL     1     138.858 153.269 121.457  1.00  0.00     0.038 A 
ATOM      5  C   UNL     1     140.100 153.913 121.259  1.00  0.00     0.076 A 
ATOM      6  C   UNL     1     140.336 155.166 121.881  1.00  0.00     0.127 A 
ATOM      7  C   UNL     1     139.311 155.787 122.603  1.00  0.00     0.050 A 
ATOM      8  C   UNL     1     141.084 153.276 120.344  1.00  0.00     0.201 C 
ATOM      9  O   UNL     1     141.889 153.993 119.693  1.00  0.00    -0.288 OA
ATOM     10  C   UNL     1     140.989 151.822 120.057  1.00  0.00     0.076 A 
ATOM     11  C   UNL     1     139.746 151.181 120.256  1.00  0.00     0.041 A 
ATOM     12  C   UNL     1     138.624 151.923 120.879  1.00  0.00     0.194 C 
ATOM     13  O   UNL     1     137.478 151.400 120.942  1.00  0.00    -0.289 OA
ATOM     14  C   UNL     1     139.579 149.842 119.866  1.00  0.00     0.059 A 
ATOM     15  C   UNL     1     140.639 149.132 119.296  1.00  0.00     0.120 A 
ATOM     16  C   UNL     1     141.880 149.748 119.135  1.00  0.00     0.093 A 
ATOM     17  C   UNL     1     142.076 151.074 119.534  1.00  0.00     0.131 A 
ENDROOT
BRANCH   6  18
ATOM     18  O   UNL     1     141.575 155.810 121.838  1.00  0.00    -0.507 OA
ATOM     19  H   UNL     1     141.974 156.306 122.623  1.00  0.00     0.293 HD
ENDBRANCH   6  18
BRANCH  17  20
ATOM     20  O   UNL     1     143.368 151.594 119.426  1.00  0.00    -0.507 OA
ATOM     21  H   UNL     1     143.730 152.321 120.027  1.00  0.00     0.293 HD
ENDBRANCH  17  20
BRANCH  15  22
ATOM     22  O   UNL     1     140.474 147.807 118.896  1.00  0.00    -0.508 OA
ATOM     23  H   UNL     1     140.796 147.036 119.470  1.00  0.00     0.293 HD
ENDBRANCH  15  22
TORSDOF 3
ENDMDL
MODEL 2
REMARK VINA RESULT:    -5.573      1.590      5.254
REMARK INTER + INTRA:          -6.062
REMARK INTER:                  -6.062
REMARK INTRA:                   0.000
REMARK UNBOUND:                 0.000
REMARK SMILES Cc1cc(O)c2c(c1)C(=O)c1cc(O)cc(O)c1C2=O
REMARK SMILES IDX 1 1 2 2 8 3 7 4 6 5 4 6 3 7 19 8 20 9 18 10 11 11 9 12 10 13
REMARK SMILES IDX 12 14 13 15 15 16 16 17 5 18 17 20 14 22
REMARK H PARENT 5 19 17 21 14 23
REMARK Flexibility Score: inf
ROOT
ATOM      1  C   UNL     1     137.035 147.691 120.331  1.00  0.00     0.044 C 
ATOM      2  C   UNL     1     138.185 148.650 120.213  1.00  0.00    -0.047 A 
ATOM      3  C   UNL     1     138.070 149.951 120.712  1.00  0.00     0.016 A 
ATOM      4  C   UNL     1     139.156 150.841 120.646  1.00  0.00     0.038 A 
ATOM      5  C   UNL     1     140.385 150.413 120.096  1.00  0.00     0.076 A 
ATOM      6  C   UNL     1     140.481 149.107 119.550  1.00  0.00     0.127 A 
ATOM      7  C   UNL     1     139.393 148.233 119.645  1.00  0.00     0.050 A 
ATOM      8  C   UNL     1     141.550 151.333 120.178  1.00  0.00     0.201 C 
ATOM      9  O   UNL     1     142.716 150.863 120.256  1.00  0.00    -0.288 OA
ATOM     10  C   UNL     1     141.327 152.791 120.359  1.00  0.00     0.076 A 
ATOM     11  C   UNL     1     140.096 153.215 120.910  1.00  0.00     0.041 A 
ATOM     12  C   UNL     1     139.016 152.229 121.149  1.00  0.00     0.194 C 
ATOM     13  O   UNL     1     137.966 152.577 121.757  1.00  0.00    -0.289 OA
ATOM     14  C   UNL     1     139.901 154.570 121.224  1.00  0.00     0.059 A 
ATOM     15  C   UNL     1     140.910 155.507 120.981  1.00  0.00     0.120 A 
ATOM     16  C   UNL     1     142.110 155.099 120.400  1.00  0.00     0.093 A 
ATOM     17  C   UNL     1     142.321 153.759 120.060  1.00  0.00     0.131 A 
ENDROOT
BRANCH   6  18
ATOM     18  O   UNL     1     141.617 148.650 118.879  1.00  0.00    -0.507 OA
ATOM     19  H   UNL     1     141.628 148.410 117.897  1.00  0.00     0.293 HD
ENDBRANCH   6  18
BRANCH  17  20
ATOM     20  O   UNL     1     143.509 153.442 119.399  1.00  0.00    -0.507 OA
ATOM     21  H   UNL     1     143.955 152.536 119.454  1.00  0.00     0.293 HD
ENDBRANCH  17  20
BRANCH  15  22
ATOM     22  O   UNL     1     140.724 156.850 121.303  1.00  0.00    -0.508 OA
ATOM     23  H   UNL     1     140.776 157.576 120.598  1.00  0.00     0.293 HD
ENDBRANCH  15  22
TORSDOF 3
ENDMDL
MODEL 3
REMARK VINA RESULT:    -5.389      1.638      2.467
REMARK INTER + INTRA:          -5.862
REMARK INTER:                  -5.862
REMARK INTRA:                   0.000
REMARK UNBOUND:                 0.000
REMARK SMILES Cc1cc(O)c2c(c1)C(=O)c1cc(O)cc(O)c1C2=O
REMARK SMILES IDX 1 1 2 2 8 3 7 4 6 5 4 6 3 7 19 8 20 9 18 10 11 11 9 12 10 13
REMARK SMILES IDX 12 14 13 15 15 16 16 17 5 18 17 20 14 22
REMARK H PARENT 5 19 17 21 14 23
REMARK Flexibility Score: inf
ROOT
ATOM      1  C   UNL     1     139.839 156.577 121.821  1.00  0.00     0.044 C 
ATOM      2  C   UNL     1     140.201 155.190 121.376  1.00  0.00    -0.047 A 
ATOM      3  C   UNL     1     139.210 154.318 120.913  1.00  0.00     0.016 A 
ATOM      4  C   UNL     1     139.545 153.033 120.452  1.00  0.00     0.038 A 
ATOM      5  C   UNL     1     140.897 152.624 120.429  1.00  0.00     0.076 A 
ATOM      6  C   UNL     1     141.892 153.495 120.943  1.00  0.00     0.127 A 
ATOM      7  C   UNL     1     141.537 154.776 121.378  1.00  0.00     0.050 A 
ATOM      8  C   UNL     1     141.226 151.318 119.799  1.00  0.00     0.201 C 
ATOM      9  O   UNL     1     142.343 151.154 119.242  1.00  0.00    -0.288 OA
ATOM     10  C   UNL     1     140.172 150.280 119.662  1.00  0.00     0.076 A 
ATOM     11  C   UNL     1     138.821 150.693 119.685  1.00  0.00     0.041 A 
ATOM     12  C   UNL     1     138.485 152.104 119.993  1.00  0.00     0.194 C 
ATOM     13  O   UNL     1     137.294 152.507 119.889  1.00  0.00    -0.289 OA
ATOM     14  C   UNL     1     137.801 149.764 119.421  1.00  0.00     0.059 A 
ATOM     15  C   UNL     1     138.111 148.428 119.150  1.00  0.00     0.120 A 
ATOM     16  C   UNL     1     139.440 148.008 119.167  1.00  0.00     0.093 A 
ATOM     17  C   UNL     1     140.472 148.910 119.447  1.00  0.00     0.131 A 
ENDROOT
BRANCH   6  18
ATOM     18  O   UNL     1     143.232 153.121 121.070  1.00  0.00    -0.507 OA
ATOM     19  H   UNL     1     143.827 152.899 120.284  1.00  0.00     0.293 HD
ENDBRANCH   6  18
BRANCH  17  20
ATOM     20  O   UNL     1     141.768 148.398 119.535  1.00  0.00    -0.507 OA
ATOM     21  H   UNL     1     142.341 148.469 120.364  1.00  0.00     0.293 HD
ENDBRANCH  17  20
BRANCH  15  22
ATOM     22  O   UNL     1     137.103 147.506 118.875  1.00  0.00    -0.508 OA
ATOM     23  H   UNL     1     137.243 146.748 118.218  1.00  0.00     0.293 HD
ENDBRANCH  15  22
TORSDOF 3
ENDMDL
MODEL 4
REMARK VINA RESULT:    -5.361      2.142      5.289
REMARK INTER + INTRA:          -5.831
REMARK INTER:                  -5.831
REMARK INTRA:                   0.000
REMARK UNBOUND:                 0.000
REMARK SMILES Cc1cc(O)c2c(c1)C(=O)c1cc(O)cc(O)c1C2=O
REMARK SMILES IDX 1 1 2 2 8 3 7 4 6 5 4 6 3 7 19 8 20 9 18 10 11 11 9 12 10 13
REMARK SMILES IDX 12 14 13 15 15 16 16 17 5 18 17 20 14 22
REMARK H PARENT 5 19 17 21 14 23
REMARK Flexibility Score: inf
ROOT
ATOM      1  C   UNL     1     137.880 146.694 120.119  1.00  0.00     0.044 C 
ATOM      2  C   UNL     1     138.287 148.115 120.376  1.00  0.00    -0.047 A 
ATOM      3  C   UNL     1     139.507 148.596 119.889  1.00  0.00     0.016 A 
ATOM      4  C   UNL     1     139.877 149.938 120.087  1.00  0.00     0.038 A 
ATOM      5  C   UNL     1     139.001 150.819 120.758  1.00  0.00     0.076 A 
ATOM      6  C   UNL     1     137.786 150.314 121.289  1.00  0.00     0.127 A 
ATOM      7  C   UNL     1     137.430 148.980 121.063  1.00  0.00     0.050 A 
ATOM      8  C   UNL     1     139.361 152.260 120.817  1.00  0.00     0.201 C 
ATOM      9  O   UNL     1     138.454 153.132 120.857  1.00  0.00    -0.288 OA
ATOM     10  C   UNL     1     140.777 152.673 120.638  1.00  0.00     0.076 A 
ATOM     11  C   UNL     1     141.651 151.790 119.966  1.00  0.00     0.041 A 
ATOM     12  C   UNL     1     141.186 150.432 119.595  1.00  0.00     0.194 C 
ATOM     13  O   UNL     1     141.915 149.687 118.884  1.00  0.00    -0.289 OA
ATOM     14  C   UNL     1     142.958 152.201 119.655  1.00  0.00     0.059 A 
ATOM     15  C   UNL     1     143.407 153.473 120.020  1.00  0.00     0.120 A 
ATOM     16  C   UNL     1     142.561 154.332 120.720  1.00  0.00     0.093 A 
ATOM     17  C   UNL     1     141.262 153.939 121.059  1.00  0.00     0.131 A 
ENDROOT
BRANCH   6  18
ATOM     18  O   UNL     1     136.923 151.086 122.071  1.00  0.00    -0.507 OA
ATOM     19  H   UNL     1     137.183 151.975 122.477  1.00  0.00     0.293 HD
ENDBRANCH   6  18
BRANCH  17  20
ATOM     20  O   UNL     1     140.506 154.817 121.838  1.00  0.00    -0.507 OA
ATOM     21  H   UNL     1     140.816 155.745 122.094  1.00  0.00     0.293 HD
ENDBRANCH  17  20
BRANCH  15  22
ATOM     22  O   UNL     1     144.699 153.888 119.704  1.00  0.00    -0.508 OA
ATOM     23  H   UNL     1     145.423 153.225 119.454  1.00  0.00     0.293 HD
ENDBRANCH  15  22
TORSDOF 3
ENDMDL
MODEL 5
REMARK VINA RESULT:    -5.302      1.274      5.470
REMARK INTER + INTRA:          -5.767
REMARK INTER:                  -5.767
REMARK INTRA:                   0.000
REMARK UNBOUND:                 0.000
REMARK SMILES Cc1cc(O)c2c(c1)C(=O)c1cc(O)cc(O)c1C2=O
REMARK SMILES IDX 1 1 2 2 8 3 7 4 6 5 4 6 3 7 19 8 20 9 18 10 11 11 9 12 10 13
REMARK SMILES IDX 12 14 13 15 15 16 16 17 5 18 17 20 14 22
REMARK H PARENT 5 19 17 21 14 23
REMARK Flexibility Score: inf
ROOT
ATOM      1  C   UNL     1     139.499 147.519 119.257  1.00  0.00     0.044 C 
ATOM      2  C   UNL     1     139.937 148.923 119.557  1.00  0.00    -0.047 A 
ATOM      3  C   UNL     1     139.106 149.777 120.290  1.00  0.00     0.016 A 
ATOM      4  C   UNL     1     139.526 151.079 120.614  1.00  0.00     0.038 A 
ATOM      5  C   UNL     1     140.809 151.524 120.222  1.00  0.00     0.076 A 
ATOM      6  C   UNL     1     141.627 150.669 119.440  1.00  0.00     0.127 A 
ATOM      7  C   UNL     1     141.196 149.371 119.146  1.00  0.00     0.050 A 
ATOM      8  C   UNL     1     141.272 152.849 120.710  1.00  0.00     0.201 C 
ATOM      9  O   UNL     1     142.501 153.052 120.900  1.00  0.00    -0.288 OA
ATOM     10  C   UNL     1     140.278 153.862 121.149  1.00  0.00     0.076 A 
ATOM     11  C   UNL     1     138.997 153.413 121.541  1.00  0.00     0.041 A 
ATOM     12  C   UNL     1     138.627 151.989 121.364  1.00  0.00     0.194 C 
ATOM     13  O   UNL     1     137.536 151.557 121.828  1.00  0.00    -0.289 OA
ATOM     14  C   UNL     1     138.077 154.321 122.093  1.00  0.00     0.059 A 
ATOM     15  C   UNL     1     138.414 155.669 122.243  1.00  0.00     0.120 A 
ATOM     16  C   UNL     1     139.663 156.123 121.820  1.00  0.00     0.093 A 
ATOM     17  C   UNL     1     140.588 155.243 121.249  1.00  0.00     0.131 A 
ENDROOT
BRANCH   6  18
ATOM     18  O   UNL     1     142.854 151.075 118.909  1.00  0.00    -0.507 OA
ATOM     19  H   UNL     1     143.683 150.497 118.913  1.00  0.00     0.293 HD
ENDBRANCH   6  18
BRANCH  17  20
ATOM     20  O   UNL     1     141.781 155.787 120.767  1.00  0.00    -0.507 OA
ATOM     21  H   UNL     1     142.582 155.982 121.351  1.00  0.00     0.293 HD
ENDBRANCH  17  20
BRANCH  15  22
ATOM     22  O   UNL     1     137.509 156.570 122.801  1.00  0.00    -0.508 OA
ATOM     23  H   UNL     1     136.534 156.328 122.935  1.00  0.00     0.293 HD
ENDBRANCH  15  22
TORSDOF 3
ENDMDL
MODEL 6
REMARK VINA RESULT:    -5.229      1.786      3.487
REMARK INTER + INTRA:          -5.687
REMARK INTER:                  -5.687
REMARK INTRA:                   0.000
REMARK UNBOUND:                 0.000
REMARK SMILES Cc1cc(O)c2c(c1)C(=O)c1cc(O)cc(O)c1C2=O
REMARK SMILES IDX 1 1 2 2 8 3 7 4 6 5 4 6 3 7 19 8 20 9 18 10 11 11 9 12 10 13
REMARK SMILES IDX 12 14 13 15 15 16 16 17 5 18 17 20 14 22
REMARK H PARENT 5 19 17 21 14 23
REMARK Flexibility Score: inf
ROOT
ATOM      1  C   UNL     1     141.662 158.618 121.228  1.00  0.00     0.044 C 
ATOM      2  C   UNL     1     140.999 157.274 121.129  1.00  0.00    -0.047 A 
ATOM      3  C   UNL     1     141.764 156.128 120.893  1.00  0.00     0.016 A 
ATOM      4  C   UNL     1     141.157 154.860 120.843  1.00  0.00     0.038 A 
ATOM      5  C   UNL     1     139.767 154.736 121.059  1.00  0.00     0.076 A 
ATOM      6  C   UNL     1     138.990 155.908 121.253  1.00  0.00     0.127 A 
ATOM      7  C   UNL     1     139.618 157.156 121.318  1.00  0.00     0.050 A 
ATOM      8  C   UNL     1     139.188 153.370 121.145  1.00  0.00     0.201 C 
ATOM      9  O   UNL     1     138.174 153.162 121.863  1.00  0.00    -0.288 OA
ATOM     10  C   UNL     1     139.914 152.223 120.540  1.00  0.00     0.076 A 
ATOM     11  C   UNL     1     141.304 152.351 120.326  1.00  0.00     0.041 A 
ATOM     12  C   UNL     1     141.971 153.654 120.561  1.00  0.00     0.194 C 
ATOM     13  O   UNL     1     143.228 153.741 120.495  1.00  0.00    -0.289 OA
ATOM     14  C   UNL     1     142.049 151.243 119.885  1.00  0.00     0.059 A 
ATOM     15  C   UNL     1     141.421 150.018 119.643  1.00  0.00     0.120 A 
ATOM     16  C   UNL     1     140.042 149.900 119.814  1.00  0.00     0.093 A 
ATOM     17  C   UNL     1     139.276 150.993 120.232  1.00  0.00     0.131 A 
ENDROOT
BRANCH   6  18
ATOM     18  O   UNL     1     137.597 155.883 121.351  1.00  0.00    -0.507 OA
ATOM     19  H   UNL     1     136.986 155.675 120.573  1.00  0.00     0.293 HD
ENDBRANCH   6  18
BRANCH  17  20
ATOM     20  O   UNL     1     137.892 150.823 120.294  1.00  0.00    -0.507 OA
ATOM     21  H   UNL     1     137.302 151.286 120.971  1.00  0.00     0.293 HD
ENDBRANCH  17  20
BRANCH  15  22
ATOM     22  O   UNL     1     142.158 148.914 119.218  1.00  0.00    -0.508 OA
ATOM     23  H   UNL     1     141.756 147.985 119.198  1.00  0.00     0.293 HD
ENDBRANCH  15  22
TORSDOF 3
ENDMDL
MODEL 7
REMARK VINA RESULT:    -4.981      1.929      6.139
REMARK INTER + INTRA:          -5.417
REMARK INTER:                  -5.417
REMARK INTRA:                   0.000
REMARK UNBOUND:                 0.000
REMARK SMILES Cc1cc(O)c2c(c1)C(=O)c1cc(O)cc(O)c1C2=O
REMARK SMILES IDX 1 1 2 2 8 3 7 4 6 5 4 6 3 7 19 8 20 9 18 10 11 11 9 12 10 13
REMARK SMILES IDX 12 14 13 15 15 16 16 17 5 18 17 20 14 22
REMARK H PARENT 5 19 17 21 14 23
REMARK Flexibility Score: inf
ROOT
ATOM      1  C   UNL     1     144.834 153.500 119.118  1.00  0.00     0.044 C 
ATOM      2  C   UNL     1     143.458 153.298 119.684  1.00  0.00    -0.047 A 
ATOM      3  C   UNL     1     142.734 154.388 120.177  1.00  0.00     0.016 A 
ATOM      4  C   UNL     1     141.428 154.216 120.667  1.00  0.00     0.038 A 
ATOM      5  C   UNL     1     140.828 152.937 120.639  1.00  0.00     0.076 A 
ATOM      6  C   UNL     1     141.584 151.828 120.180  1.00  0.00     0.127 A 
ATOM      7  C   UNL     1     142.875 152.027 119.679  1.00  0.00     0.050 A 
ATOM      8  C   UNL     1     139.398 152.823 121.028  1.00  0.00     0.201 C 
ATOM      9  O   UNL     1     138.676 151.929 120.512  1.00  0.00    -0.288 OA
ATOM     10  C   UNL     1     138.778 153.875 121.875  1.00  0.00     0.076 A 
ATOM     11  C   UNL     1     139.381 155.153 121.900  1.00  0.00     0.041 A 
ATOM     12  C   UNL     1     140.678 155.370 121.217  1.00  0.00     0.194 C 
ATOM     13  O   UNL     1     141.157 156.535 121.127  1.00  0.00    -0.289 OA
ATOM     14  C   UNL     1     138.750 156.210 122.577  1.00  0.00     0.059 A 
ATOM     15  C   UNL     1     137.537 156.005 123.240  1.00  0.00     0.120 A 
ATOM     16  C   UNL     1     136.959 154.735 123.252  1.00  0.00     0.093 A 
ATOM     17  C   UNL     1     137.578 153.662 122.602  1.00  0.00     0.131 A 
ENDROOT
BRANCH   6  18
ATOM     18  O   UNL     1     141.111 150.515 120.235  1.00  0.00    -0.507 OA
ATOM     19  H   UNL     1     141.630 149.719 119.890  1.00  0.00     0.293 HD
ENDBRANCH   6  18
BRANCH  17  20
ATOM     20  O   UNL     1     136.988 152.403 122.734  1.00  0.00    -0.507 OA
ATOM     21  H   UNL     1     135.988 152.256 122.763  1.00  0.00     0.293 HD
ENDBRANCH  17  20
BRANCH  15  22
ATOM     22  O   UNL     1     136.902 157.054 123.902  1.00  0.00    -0.508 OA
ATOM     23  H   UNL     1     136.919 157.998 123.536  1.00  0.00     0.293 HD
ENDBRANCH  15  22
TORSDOF 3
ENDMDL
MODEL 8
REMARK VINA RESULT:    -4.835      1.978      5.758
REMARK INTER + INTRA:          -5.259
REMARK INTER:                  -5.259
REMARK INTRA:                   0.000
REMARK UNBOUND:                 0.000
REMARK SMILES Cc1cc(O)c2c(c1)C(=O)c1cc(O)cc(O)c1C2=O
REMARK SMILES IDX 1 1 2 2 8 3 7 4 6 5 4 6 3 7 19 8 20 9 18 10 11 11 9 12 10 13
REMARK SMILES IDX 12 14 13 15 15 16 16 17 5 18 17 20 14 22
REMARK H PARENT 5 19 17 21 14 23
REMARK Flexibility Score: inf
ROOT
ATOM      1  C   UNL     1     140.814 149.397 119.275  1.00  0.00     0.044 C 
ATOM      2  C   UNL     1     140.982 150.812 119.748  1.00  0.00    -0.047 A 
ATOM      3  C   UNL     1     139.860 151.589 120.055  1.00  0.00     0.016 A 
ATOM      4  C   UNL     1     140.009 152.900 120.541  1.00  0.00     0.038 A 
ATOM      5  C   UNL     1     141.301 153.432 120.746  1.00  0.00     0.076 A 
ATOM      6  C   UNL     1     142.434 152.656 120.389  1.00  0.00     0.127 A 
ATOM      7  C   UNL     1     142.261 151.347 119.927  1.00  0.00     0.050 A 
ATOM      8  C   UNL     1     141.417 154.764 121.398  1.00  0.00     0.201 C 
ATOM      9  O   UNL     1     142.426 155.030 122.104  1.00  0.00    -0.288 OA
ATOM     10  C   UNL     1     140.264 155.700 121.372  1.00  0.00     0.076 A 
ATOM     11  C   UNL     1     138.973 155.164 121.166  1.00  0.00     0.041 A 
ATOM     12  C   UNL     1     138.815 153.728 120.834  1.00  0.00     0.194 C 
ATOM     13  O   UNL     1     137.662 153.217 120.776  1.00  0.00    -0.289 OA
ATOM     14  C   UNL     1     137.846 155.995 121.273  1.00  0.00     0.059 A 
ATOM     15  C   UNL     1     137.992 157.354 121.565  1.00  0.00     0.120 A 
ATOM     16  C   UNL     1     139.267 157.895 121.729  1.00  0.00     0.093 A 
ATOM     17  C   UNL     1     140.405 157.092 121.608  1.00  0.00     0.131 A 
ENDROOT
BRANCH   6  18
ATOM     18  O   UNL     1     143.738 153.152 120.445  1.00  0.00    -0.507 OA
ATOM     19  H   UNL     1     144.001 154.072 120.119  1.00  0.00     0.293 HD
ENDBRANCH   6  18
BRANCH  17  20
ATOM     20  O   UNL     1     141.649 157.722 121.695  1.00  0.00    -0.507 OA
ATOM     21  H   UNL     1     142.526 157.254 121.511  1.00  0.00     0.293 HD
ENDBRANCH  17  20
BRANCH  15  22
ATOM     22  O   UNL     1     136.875 158.179 121.684  1.00  0.00    -0.508 OA
ATOM     23  H   UNL     1     136.965 159.186 121.754  1.00  0.00     0.293 HD
ENDBRANCH  15  22
TORSDOF 3
ENDMDL
