MODEL 1
REMARK VINA RESULT:    -5.393      0.000      0.000
REMARK INTER + INTRA:          -6.463
REMARK INTER:                  -6.339
REMARK INTRA:                  -0.124
REMARK UNBOUND:                -0.124
REMARK SMILES O=C([O-])C=Cc1ccc(O)c(O)c1
REMARK SMILES IDX 6 1 13 2 7 3 11 4 8 5 9 6 5 7 4 8 2 9 1 10 3 11 12 12 10 14
REMARK H PARENT 12 13 10 15
REMARK Flexibility Score: inf
ROOT
ATOM      1  C   UNL     1       8.770  15.528 -21.778  1.00  0.00    -0.022 A 
ATOM      2  C   UNL     1       9.400  16.563 -21.058  1.00  0.00     0.058 A 
ATOM      3  C   UNL     1       8.008  14.581 -21.077  1.00  0.00     0.012 A 
ATOM      4  C   UNL     1       9.289  16.628 -19.660  1.00  0.00     0.157 A 
ATOM      5  C   UNL     1       7.898  14.645 -19.686  1.00  0.00     0.051 A 
ATOM      6  C   UNL     1       8.538  15.662 -18.972  1.00  0.00     0.157 A 
ENDROOT
BRANCH   1   7
ATOM      7  C   UNL     1       8.848  15.423 -23.256  1.00  0.00     0.010 C 
ATOM      8  C   UNL     1       9.844  15.939 -23.989  1.00  0.00     0.025 C 
BRANCH   8   9
ATOM      9  C   UNL     1       9.887  15.800 -25.452  1.00  0.00     0.064 C 
ATOM     10  O   UNL     1       8.840  15.992 -26.125  1.00  0.00    -0.545 OA
ATOM     11  O   UNL     1      11.065  15.459 -26.107  1.00  0.00    -0.545 OA
ENDBRANCH   8   9
ENDBRANCH   1   7
BRANCH   4  12
ATOM     12  O   UNL     1       9.919  17.652 -18.955  1.00  0.00    -0.504 OA
ATOM     13  H   UNL     1       9.446  18.524 -18.746  1.00  0.00     0.293 HD
ENDBRANCH   4  12
BRANCH   6  14
ATOM     14  O   UNL     1       8.413  15.699 -17.584  1.00  0.00    -0.504 OA
ATOM     15  H   UNL     1       7.579  16.049 -17.128  1.00  0.00     0.293 HD
ENDBRANCH   6  14
TORSDOF 4
ENDMDL
MODEL 2
REMARK VINA RESULT:    -5.187      0.872      1.803
REMARK INTER + INTRA:          -6.220
REMARK INTER:                  -6.082
REMARK INTRA:                  -0.138
REMARK UNBOUND:                -0.124
REMARK SMILES O=C([O-])C=Cc1ccc(O)c(O)c1
REMARK SMILES IDX 6 1 13 2 7 3 11 4 8 5 9 6 5 7 4 8 2 9 1 10 3 11 12 12 10 14
REMARK H PARENT 12 13 10 15
REMARK Flexibility Score: inf
ROOT
ATOM      1  C   UNL     1       8.786  15.474 -21.802  1.00  0.00    -0.022 A 
ATOM      2  C   UNL     1       8.764  14.314 -21.002  1.00  0.00     0.058 A 
ATOM      3  C   UNL     1       8.743  16.730 -21.176  1.00  0.00     0.012 A 
ATOM      4  C   UNL     1       8.675  14.414 -19.605  1.00  0.00     0.157 A 
ATOM      5  C   UNL     1       8.652  16.829 -19.786  1.00  0.00     0.051 A 
ATOM      6  C   UNL     1       8.615  15.678 -18.995  1.00  0.00     0.157 A 
ENDROOT
BRANCH   1   7
ATOM      7  C   UNL     1       8.891  15.422 -23.281  1.00  0.00     0.010 C 
ATOM      8  C   UNL     1       9.933  15.906 -23.972  1.00  0.00     0.025 C 
BRANCH   8   9
ATOM      9  C   UNL     1      10.001  15.821 -25.438  1.00  0.00     0.064 C 
ATOM     10  O   UNL     1       8.983  16.101 -26.125  1.00  0.00    -0.545 OA
ATOM     11  O   UNL     1      11.171  15.435 -26.081  1.00  0.00    -0.545 OA
ENDBRANCH   8   9
ENDBRANCH   1   7
BRANCH   4  12
ATOM     12  O   UNL     1       8.651  13.261 -18.821  1.00  0.00    -0.504 OA
ATOM     13  H   UNL     1       9.503  12.838 -18.472  1.00  0.00     0.293 HD
ENDBRANCH   4  12
BRANCH   6  14
ATOM     14  O   UNL     1       8.522  15.808 -17.611  1.00  0.00    -0.504 OA
ATOM     15  H   UNL     1       9.236  16.275 -17.065  1.00  0.00     0.293 HD
ENDBRANCH   6  14
TORSDOF 4
ENDMDL
MODEL 3
REMARK VINA RESULT:    -4.971      2.745      3.541
REMARK INTER + INTRA:          -5.967
REMARK INTER:                  -5.825
REMARK INTRA:                  -0.142
REMARK UNBOUND:                -0.124
REMARK SMILES O=C([O-])C=Cc1ccc(O)c(O)c1
REMARK SMILES IDX 6 1 13 2 7 3 11 4 8 5 9 6 5 7 4 8 2 9 1 10 3 11 12 12 10 14
REMARK H PARENT 12 13 10 15
REMARK Flexibility Score: inf
ROOT
ATOM      1  C   UNL     1       8.937  13.847 -20.648  1.00  0.00    -0.022 A 
ATOM      2  C   UNL     1       9.154  12.454 -20.616  1.00  0.00     0.058 A 
ATOM      3  C   UNL     1       9.139  14.592 -19.475  1.00  0.00     0.012 A 
ATOM      4  C   UNL     1       9.539  11.821 -19.424  1.00  0.00     0.157 A 
ATOM      5  C   UNL     1       9.521  13.961 -18.289  1.00  0.00     0.051 A 
ATOM      6  C   UNL     1       9.719  12.578 -18.255  1.00  0.00     0.157 A 
ENDROOT
BRANCH   1   7
ATOM      7  C   UNL     1       8.541  14.565 -21.885  1.00  0.00     0.010 C 
ATOM      8  C   UNL     1       9.076  15.730 -22.273  1.00  0.00     0.025 C 
BRANCH   8   9
ATOM      9  C   UNL     1       8.661  16.401 -23.515  1.00  0.00     0.064 C 
ATOM     10  O   UNL     1       8.179  17.563 -23.463  1.00  0.00    -0.545 OA
ATOM     11  O   UNL     1       8.790  15.772 -24.748  1.00  0.00    -0.545 OA
ENDBRANCH   8   9
ENDBRANCH   1   7
BRANCH   4  12
ATOM     12  O   UNL     1       9.747  10.442 -19.400  1.00  0.00    -0.504 OA
ATOM     13  H   UNL     1       8.973   9.789 -19.355  1.00  0.00     0.293 HD
ENDBRANCH   4  12
BRANCH   6  14
ATOM     14  O   UNL     1      10.098  11.975 -17.057  1.00  0.00    -0.504 OA
ATOM     15  H   UNL     1      10.167  12.496 -16.190  1.00  0.00     0.293 HD
ENDBRANCH   6  14
TORSDOF 4
ENDMDL
MODEL 4
REMARK VINA RESULT:    -4.787      1.932      2.355
REMARK INTER + INTRA:          -5.750
REMARK INTER:                  -5.617
REMARK INTRA:                  -0.133
REMARK UNBOUND:                -0.124
REMARK SMILES O=C([O-])C=Cc1ccc(O)c(O)c1
REMARK SMILES IDX 6 1 13 2 7 3 11 4 8 5 9 6 5 7 4 8 2 9 1 10 3 11 12 12 10 14
REMARK H PARENT 12 13 10 15
REMARK Flexibility Score: inf
ROOT
ATOM      1  C   UNL     1       9.003  14.591 -21.020  1.00  0.00    -0.022 A 
ATOM      2  C   UNL     1       9.308  15.103 -19.742  1.00  0.00     0.058 A 
ATOM      3  C   UNL     1       8.911  13.200 -21.188  1.00  0.00     0.012 A 
ATOM      4  C   UNL     1       9.542  14.235 -18.664  1.00  0.00     0.157 A 
ATOM      5  C   UNL     1       9.146  12.337 -20.116  1.00  0.00     0.051 A 
ATOM      6  C   UNL     1       9.465  12.846 -18.854  1.00  0.00     0.157 A 
ENDROOT
BRANCH   1   7
ATOM      7  C   UNL     1       8.735  15.466 -22.187  1.00  0.00     0.010 C 
ATOM      8  C   UNL     1       9.522  15.525 -23.271  1.00  0.00     0.025 C 
BRANCH   8   9
ATOM      9  C   UNL     1       9.210  16.399 -24.412  1.00  0.00     0.064 C 
ATOM     10  O   UNL     1       9.128  17.643 -24.236  1.00  0.00    -0.545 OA
ATOM     11  O   UNL     1       9.004  15.875 -25.682  1.00  0.00    -0.545 OA
ENDBRANCH   8   9
ENDBRANCH   1   7
BRANCH   4  12
ATOM     12  O   UNL     1       9.847  14.750 -17.405  1.00  0.00    -0.504 OA
ATOM     13  H   UNL     1       9.187  14.703 -16.638  1.00  0.00     0.293 HD
ENDBRANCH   4  12
BRANCH   6  14
ATOM     14  O   UNL     1       9.696  11.960 -17.803  1.00  0.00    -0.504 OA
ATOM     15  H   UNL     1       8.982  11.738 -17.119  1.00  0.00     0.293 HD
ENDBRANCH   6  14
TORSDOF 4
ENDMDL
MODEL 5
REMARK VINA RESULT:    -4.676      2.967      5.498
REMARK INTER + INTRA:          -5.620
REMARK INTER:                  -5.468
REMARK INTRA:                  -0.152
REMARK UNBOUND:                -0.124
REMARK SMILES O=C([O-])C=Cc1ccc(O)c(O)c1
REMARK SMILES IDX 6 1 13 2 7 3 11 4 8 5 9 6 5 7 4 8 2 9 1 10 3 11 12 12 10 14
REMARK H PARENT 12 13 10 15
REMARK Flexibility Score: inf
ROOT
ATOM      1  C   UNL     1       9.042  14.448 -19.957  1.00  0.00    -0.022 A 
ATOM      2  C   UNL     1       8.752  15.771 -19.565  1.00  0.00     0.058 A 
ATOM      3  C   UNL     1       9.043  14.132 -21.325  1.00  0.00     0.012 A 
ATOM      4  C   UNL     1       8.444  16.747 -20.525  1.00  0.00     0.157 A 
ATOM      5  C   UNL     1       8.735  15.103 -22.279  1.00  0.00     0.051 A 
ATOM      6  C   UNL     1       8.431  16.409 -21.888  1.00  0.00     0.157 A 
ENDROOT
BRANCH   1   7
ATOM      7  C   UNL     1       9.386  13.384 -18.982  1.00  0.00     0.010 C 
ATOM      8  C   UNL     1       9.483  12.086 -19.299  1.00  0.00     0.025 C 
BRANCH   8   9
ATOM      9  C   UNL     1       9.839  11.066 -18.301  1.00  0.00     0.064 C 
ATOM     10  O   UNL     1      10.279   9.950 -18.683  1.00  0.00    -0.545 OA
ATOM     11  O   UNL     1       9.698  11.313 -16.940  1.00  0.00    -0.545 OA
ENDBRANCH   8   9
ENDBRANCH   1   7
BRANCH   4  12
ATOM     12  O   UNL     1       8.154  18.052 -20.128  1.00  0.00    -0.504 OA
ATOM     13  H   UNL     1       7.277  18.499 -20.371  1.00  0.00     0.293 HD
ENDBRANCH   4  12
BRANCH   6  14
ATOM     14  O   UNL     1       8.125  17.357 -22.864  1.00  0.00    -0.504 OA
ATOM     15  H   UNL     1       7.835  18.298 -22.628  1.00  0.00     0.293 HD
ENDBRANCH   6  14
TORSDOF 4
ENDMDL
MODEL 6
REMARK VINA RESULT:    -4.671      1.678      2.460
REMARK INTER + INTRA:          -5.614
REMARK INTER:                  -5.488
REMARK INTRA:                  -0.126
REMARK UNBOUND:                -0.124
REMARK SMILES O=C([O-])C=Cc1ccc(O)c(O)c1
REMARK SMILES IDX 6 1 13 2 7 3 11 4 8 5 9 6 5 7 4 8 2 9 1 10 3 11 12 12 10 14
REMARK H PARENT 12 13 10 15
REMARK Flexibility Score: inf
ROOT
ATOM      1  C   UNL     1       9.077  15.666 -20.759  1.00  0.00    -0.022 A 
ATOM      2  C   UNL     1       9.101  14.270 -20.567  1.00  0.00     0.058 A 
ATOM      3  C   UNL     1       9.242  16.506 -19.647  1.00  0.00     0.012 A 
ATOM      4  C   UNL     1       9.262  13.730 -19.282  1.00  0.00     0.157 A 
ATOM      5  C   UNL     1       9.400  15.969 -18.367  1.00  0.00     0.051 A 
ATOM      6  C   UNL     1       9.407  14.585 -18.177  1.00  0.00     0.157 A 
ENDROOT
BRANCH   1   7
ATOM      7  C   UNL     1       8.922  16.285 -22.099  1.00  0.00     0.010 C 
ATOM      8  C   UNL     1       9.494  15.805 -23.212  1.00  0.00     0.025 C 
BRANCH   8   9
ATOM      9  C   UNL     1       9.302  16.445 -24.522  1.00  0.00     0.064 C 
ATOM     10  O   UNL     1       9.488  17.684 -24.641  1.00  0.00    -0.545 OA
ATOM     11  O   UNL     1       8.918  15.703 -25.634  1.00  0.00    -0.545 OA
ENDBRANCH   8   9
ENDBRANCH   1   7
BRANCH   4  12
ATOM     12  O   UNL     1       9.280  12.348 -19.101  1.00  0.00    -0.504 OA
ATOM     13  H   UNL     1       8.607  11.743 -19.556  1.00  0.00     0.293 HD
ENDBRANCH   4  12
BRANCH   6  14
ATOM     14  O   UNL     1       9.565  14.078 -16.888  1.00  0.00    -0.504 OA
ATOM     15  H   UNL     1       9.965  14.628 -16.138  1.00  0.00     0.293 HD
ENDBRANCH   6  14
TORSDOF 4
ENDMDL
MODEL 7
REMARK VINA RESULT:    -4.555      8.947     10.636
REMARK INTER + INTRA:          -5.477
REMARK INTER:                  -5.345
REMARK INTRA:                  -0.132
REMARK UNBOUND:                -0.124
REMARK SMILES O=C([O-])C=Cc1ccc(O)c(O)c1
REMARK SMILES IDX 6 1 13 2 7 3 11 4 8 5 9 6 5 7 4 8 2 9 1 10 3 11 12 12 10 14
REMARK H PARENT 12 13 10 15
REMARK Flexibility Score: inf
ROOT
ATOM      1  C   UNL     1       7.594   9.118 -14.605  1.00  0.00    -0.022 A 
ATOM      2  C   UNL     1       8.433  10.142 -15.091  1.00  0.00     0.058 A 
ATOM      3  C   UNL     1       6.973   9.286 -13.357  1.00  0.00     0.012 A 
ATOM      4  C   UNL     1       8.663  11.297 -14.327  1.00  0.00     0.157 A 
ATOM      5  C   UNL     1       7.204  10.434 -12.596  1.00  0.00     0.051 A 
ATOM      6  C   UNL     1       8.049  11.440 -13.072  1.00  0.00     0.157 A 
ENDROOT
BRANCH   1   7
ATOM      7  C   UNL     1       7.310   7.885 -15.380  1.00  0.00     0.010 C 
ATOM      8  C   UNL     1       7.714   6.662 -15.009  1.00  0.00     0.025 C 
BRANCH   8   9
ATOM      9  C   UNL     1       7.398   5.465 -15.802  1.00  0.00     0.064 C 
ATOM     10  O   UNL     1       7.253   4.356 -15.223  1.00  0.00    -0.545 OA
ATOM     11  O   UNL     1       7.258   5.535 -17.184  1.00  0.00    -0.545 OA
ENDBRANCH   8   9
ENDBRANCH   1   7
BRANCH   4  12
ATOM     12  O   UNL     1       9.498  12.302 -14.813  1.00  0.00    -0.504 OA
ATOM     13  H   UNL     1       9.772  13.090 -14.236  1.00  0.00     0.293 HD
ENDBRANCH   4  12
BRANCH   6  14
ATOM     14  O   UNL     1       8.262  12.574 -12.290  1.00  0.00    -0.504 OA
ATOM     15  H   UNL     1       8.667  12.520 -11.362  1.00  0.00     0.293 HD
ENDBRANCH   6  14
TORSDOF 4
ENDMDL
MODEL 8
REMARK VINA RESULT:    -4.492      3.203      6.362
REMARK INTER + INTRA:          -5.403
REMARK INTER:                  -5.280
REMARK INTRA:                  -0.123
REMARK UNBOUND:                -0.124
REMARK SMILES O=C([O-])C=Cc1ccc(O)c(O)c1
REMARK SMILES IDX 6 1 13 2 7 3 11 4 8 5 9 6 5 7 4 8 2 9 1 10 3 11 12 12 10 14
REMARK H PARENT 12 13 10 15
REMARK Flexibility Score: inf
ROOT
ATOM      1  C   UNL     1       9.520  14.742 -18.922  1.00  0.00    -0.022 A 
ATOM      2  C   UNL     1       8.793  14.156 -19.978  1.00  0.00     0.058 A 
ATOM      3  C   UNL     1       9.766  16.124 -18.953  1.00  0.00     0.012 A 
ATOM      4  C   UNL     1       8.346  14.938 -21.054  1.00  0.00     0.157 A 
ATOM      5  C   UNL     1       9.323  16.901 -20.025  1.00  0.00     0.051 A 
ATOM      6  C   UNL     1       8.616  16.316 -21.079  1.00  0.00     0.157 A 
ENDROOT
BRANCH   1   7
ATOM      7  C   UNL     1      10.003  13.962 -17.756  1.00  0.00     0.010 C 
ATOM      8  C   UNL     1       9.910  12.628 -17.662  1.00  0.00     0.025 C 
BRANCH   8   9
ATOM      9  C   UNL     1      10.414  11.894 -16.491  1.00  0.00     0.064 C 
ATOM     10  O   UNL     1      11.648  11.663 -16.388  1.00  0.00    -0.545 OA
ATOM     11  O   UNL     1       9.551  11.449 -15.497  1.00  0.00    -0.545 OA
ENDBRANCH   8   9
ENDBRANCH   1   7
BRANCH   4  12
ATOM     12  O   UNL     1       7.631  14.349 -22.096  1.00  0.00    -0.504 OA
ATOM     13  H   UNL     1       7.025  13.551 -21.941  1.00  0.00     0.293 HD
ENDBRANCH   4  12
BRANCH   6  14
ATOM     14  O   UNL     1       8.188  17.116 -22.137  1.00  0.00    -0.504 OA
ATOM     15  H   UNL     1       8.543  18.054 -22.281  1.00  0.00     0.293 HD
ENDBRANCH   6  14
TORSDOF 4
ENDMDL
