MODEL 1
REMARK VINA RESULT:    -2.573      0.000      0.000
REMARK INTER + INTRA:          -2.882
REMARK INTER:                  -2.874
REMARK INTRA:                  -0.008
REMARK UNBOUND:                -0.008
REMARK SMILES CCCC(=O)[O-]
REMARK SMILES IDX 3 1 4 2 5 3 6 4 2 5 1 6
REMARK H PARENT
REMARK Flexibility Score: inf
ROOT
ATOM      1  C   UNL     1      86.295  17.706 120.469  1.00  0.00     0.052 C 
ENDROOT
BRANCH   1   2
ATOM      2  C   UNL     1      87.437  18.560 120.925  1.00  0.00     0.041 C 
ATOM      3  O   UNL     1      88.577  18.054 121.098  1.00  0.00    -0.550 OA
ATOM      4  O   UNL     1      87.252  19.922 121.125  1.00  0.00    -0.550 OA
ENDBRANCH   1   2
BRANCH   1   5
ATOM      5  C   UNL     1      84.969  18.141 121.107  1.00  0.00     0.003 C 
ATOM      6  C   UNL     1      83.775  17.367 120.550  1.00  0.00     0.004 C 
ENDBRANCH   1   5
TORSDOF 2
ENDMDL
MODEL 2
REMARK VINA RESULT:    -2.321      6.834      8.194
REMARK INTER + INTRA:          -2.601
REMARK INTER:                  -2.572
REMARK INTRA:                  -0.028
REMARK UNBOUND:                -0.008
REMARK SMILES CCCC(=O)[O-]
REMARK SMILES IDX 3 1 4 2 5 3 6 4 2 5 1 6
REMARK H PARENT
REMARK Flexibility Score: inf
ROOT
ATOM      1  C   UNL     1      93.375  16.334 120.884  1.00  0.00     0.052 C 
ENDROOT
BRANCH   1   2
ATOM      2  C   UNL     1      92.941  16.676 119.493  1.00  0.00     0.041 C 
ATOM      3  O   UNL     1      93.591  16.248 118.503  1.00  0.00    -0.550 OA
ATOM      4  O   UNL     1      91.798  17.439 119.287  1.00  0.00    -0.550 OA
ENDBRANCH   1   2
BRANCH   1   5
ATOM      5  C   UNL     1      94.639  15.464 120.889  1.00  0.00     0.003 C 
ATOM      6  C   UNL     1      95.907  16.283 121.125  1.00  0.00     0.004 C 
ENDBRANCH   1   5
TORSDOF 2
ENDMDL
MODEL 3
REMARK VINA RESULT:    -2.311     12.911     13.396
REMARK INTER + INTRA:          -2.589
REMARK INTER:                  -2.650
REMARK INTRA:                   0.060
REMARK UNBOUND:                -0.008
REMARK SMILES CCCC(=O)[O-]
REMARK SMILES IDX 3 1 4 2 5 3 6 4 2 5 1 6
REMARK H PARENT
REMARK Flexibility Score: inf
ROOT
ATOM      1  C   UNL     1      83.502  13.211 108.092  1.00  0.00     0.052 C 
ENDROOT
BRANCH   1   2
ATOM      2  C   UNL     1      83.623  13.687 109.506  1.00  0.00     0.041 C 
ATOM      3  O   UNL     1      82.590  13.882 110.200  1.00  0.00    -0.550 OA
ATOM      4  O   UNL     1      84.877  13.883 110.071  1.00  0.00    -0.550 OA
ENDBRANCH   1   2
BRANCH   1   5
ATOM      5  C   UNL     1      83.292  14.375 107.115  1.00  0.00     0.003 C 
ATOM      6  C   UNL     1      84.272  15.522 107.358  1.00  0.00     0.004 C 
ENDBRANCH   1   5
TORSDOF 2
ENDMDL
MODEL 4
REMARK VINA RESULT:    -2.294     10.055     10.461
REMARK INTER + INTRA:          -2.569
REMARK INTER:                  -2.531
REMARK INTRA:                  -0.038
REMARK UNBOUND:                -0.008
REMARK SMILES CCCC(=O)[O-]
REMARK SMILES IDX 3 1 4 2 5 3 6 4 2 5 1 6
REMARK H PARENT
REMARK Flexibility Score: inf
ROOT
ATOM      1  C   UNL     1      82.313  25.573 114.322  1.00  0.00     0.052 C 
ENDROOT
BRANCH   1   2
ATOM      2  C   UNL     1      83.418  26.532 114.003  1.00  0.00     0.041 C 
ATOM      3  O   UNL     1      84.307  26.780 114.859  1.00  0.00    -0.550 OA
ATOM      4  O   UNL     1      83.486  27.125 112.749  1.00  0.00    -0.550 OA
ENDBRANCH   1   2
BRANCH   1   5
ATOM      5  C   UNL     1      82.545  24.860 115.660  1.00  0.00     0.003 C 
ATOM      6  C   UNL     1      83.123  23.457 115.479  1.00  0.00     0.004 C 
ENDBRANCH   1   5
TORSDOF 2
ENDMDL
MODEL 5
REMARK VINA RESULT:    -2.277      6.897      7.762
REMARK INTER + INTRA:          -2.551
REMARK INTER:                  -2.546
REMARK INTRA:                  -0.005
REMARK UNBOUND:                -0.008
REMARK SMILES CCCC(=O)[O-]
REMARK SMILES IDX 3 1 4 2 5 3 6 4 2 5 1 6
REMARK H PARENT
REMARK Flexibility Score: inf
ROOT
ATOM      1  C   UNL     1      93.464  16.217 119.798  1.00  0.00     0.052 C 
ENDROOT
BRANCH   1   2
ATOM      2  C   UNL     1      94.458  15.592 120.726  1.00  0.00     0.041 C 
ATOM      3  O   UNL     1      94.297  14.409 121.124  1.00  0.00    -0.550 OA
ATOM      4  O   UNL     1      95.583  16.305 121.125  1.00  0.00    -0.550 OA
ENDBRANCH   1   2
BRANCH   1   5
ATOM      5  C   UNL     1      92.461  17.102 120.549  1.00  0.00     0.003 C 
ATOM      6  C   UNL     1      91.647  17.988 119.607  1.00  0.00     0.004 C 
ENDBRANCH   1   5
TORSDOF 2
ENDMDL
MODEL 6
REMARK VINA RESULT:    -2.016     13.186     13.596
REMARK INTER + INTRA:          -2.260
REMARK INTER:                  -2.232
REMARK INTRA:                  -0.027
REMARK UNBOUND:                -0.008
REMARK SMILES CCCC(=O)[O-]
REMARK SMILES IDX 3 1 4 2 5 3 6 4 2 5 1 6
REMARK H PARENT
REMARK Flexibility Score: inf
ROOT
ATOM      1  C   UNL     1      83.585  13.202 108.471  1.00  0.00     0.052 C 
ENDROOT
BRANCH   1   2
ATOM      2  C   UNL     1      83.627  14.341 107.500  1.00  0.00     0.041 C 
ATOM      3  O   UNL     1      82.900  14.324 106.471  1.00  0.00    -0.550 OA
ATOM      4  O   UNL     1      84.441  15.439 107.748  1.00  0.00    -0.550 OA
ENDBRANCH   1   2
BRANCH   1   5
ATOM      5  C   UNL     1      83.825  13.673 109.911  1.00  0.00     0.003 C 
ATOM      6  C   UNL     1      82.543  13.673 110.744  1.00  0.00     0.004 C 
ENDBRANCH   1   5
TORSDOF 2
ENDMDL
MODEL 7
REMARK VINA RESULT:    -1.939      7.809      9.370
REMARK INTER + INTRA:          -2.174
REMARK INTER:                  -2.169
REMARK INTRA:                  -0.005
REMARK UNBOUND:                -0.008
REMARK SMILES CCCC(=O)[O-]
REMARK SMILES IDX 3 1 4 2 5 3 6 4 2 5 1 6
REMARK H PARENT
REMARK Flexibility Score: inf
ROOT
ATOM      1  C   UNL     1      95.114  16.048 120.002  1.00  0.00     0.052 C 
ENDROOT
BRANCH   1   2
ATOM      2  C   UNL     1      93.876  15.689 120.764  1.00  0.00     0.041 C 
ATOM      3  O   UNL     1      93.676  14.498 121.123  1.00  0.00    -0.550 OA
ATOM      4  O   UNL     1      92.958  16.673 121.107  1.00  0.00    -0.550 OA
ENDBRANCH   1   2
BRANCH   1   5
ATOM      5  C   UNL     1      96.222  16.565 120.929  1.00  0.00     0.003 C 
ATOM      6  C   UNL     1      97.385  17.184 120.155  1.00  0.00     0.004 C 
ENDBRANCH   1   5
TORSDOF 2
ENDMDL
MODEL 8
REMARK VINA RESULT:    -1.902      2.546      3.507
REMARK INTER + INTRA:          -2.132
REMARK INTER:                  -2.121
REMARK INTRA:                  -0.011
REMARK UNBOUND:                -0.008
REMARK SMILES CCCC(=O)[O-]
REMARK SMILES IDX 3 1 4 2 5 3 6 4 2 5 1 6
REMARK H PARENT
REMARK Flexibility Score: inf
ROOT
ATOM      1  C   UNL     1      85.779  18.544 121.085  1.00  0.00     0.052 C 
ENDROOT
BRANCH   1   2
ATOM      2  C   UNL     1      84.629  17.624 120.815  1.00  0.00     0.041 C 
ATOM      3  O   UNL     1      84.833  16.477 120.337  1.00  0.00    -0.550 OA
ATOM      4  O   UNL     1      83.333  18.019 121.125  1.00  0.00    -0.550 OA
ENDBRANCH   1   2
BRANCH   1   5
ATOM      5  C   UNL     1      87.120  17.799 121.064  1.00  0.00     0.003 C 
ATOM      6  C   UNL     1      88.315  18.750 121.117  1.00  0.00     0.004 C 
ENDBRANCH   1   5
TORSDOF 2
ENDMDL
