MODEL 1
REMARK VINA RESULT:    -4.520      0.000      0.000
REMARK INTER + INTRA:          -5.464
REMARK INTER:                  -5.313
REMARK INTRA:                  -0.151
REMARK UNBOUND:                -0.151
REMARK SMILES CCCC[C@@H]1OC(=O)C2=C1CCC=C2
REMARK SMILES IDX 3 1 2 2 1 3 4 4 5 5 10 6 6 7 9 8 11 9 7 10 14 11 12 12 8 13
REMARK SMILES IDX 13 14
REMARK H PARENT
REMARK Flexibility Score: inf
ROOT
ATOM      1  C   UNL     1      17.663  -5.680 -19.135  1.00  0.00     0.004 C 
ENDROOT
BRANCH   1   2
ATOM      2  C   UNL     1      16.406  -6.311 -18.517  1.00  0.00    -0.003 C 
ATOM      3  C   UNL     1      16.244  -7.761 -18.963  1.00  0.00     0.004 C 
ENDBRANCH   1   2
BRANCH   1   4
ATOM      4  C   UNL     1      17.658  -4.144 -19.073  1.00  0.00     0.050 C 
BRANCH   4   5
ATOM      5  C   UNL     1      19.051  -3.525 -19.278  1.00  0.00     0.204 C 
ATOM      6  C   UNL     1      19.328  -3.250 -20.739  1.00  0.00    -0.015 C 
ATOM      7  O   UNL     1      19.117  -2.220 -18.693  1.00  0.00    -0.454 OA
ATOM      8  C   UNL     1      19.495  -1.955 -20.951  1.00  0.00     0.062 C 
ATOM      9  C   UNL     1      19.294  -4.233 -21.877  1.00  0.00     0.040 C 
ATOM     10  C   UNL     1      19.370  -1.287 -19.684  1.00  0.00     0.338 C 
ATOM     11  C   UNL     1      19.739  -1.394 -22.285  1.00  0.00     0.011 C 
ATOM     12  C   UNL     1      20.124  -3.719 -23.077  1.00  0.00     0.032 C 
ATOM     13  O   UNL     1      19.469  -0.048 -19.485  1.00  0.00    -0.246 OA
ATOM     14  C   UNL     1      19.962  -2.230 -23.307  1.00  0.00    -0.026 C 
ENDBRANCH   4   5
ENDBRANCH   1   4
TORSDOF 3
ENDMDL
MODEL 2
REMARK VINA RESULT:    -4.514     20.677     21.991
REMARK INTER + INTRA:          -5.457
REMARK INTER:                  -5.258
REMARK INTRA:                  -0.199
REMARK UNBOUND:                -0.151
REMARK SMILES CCCC[C@@H]1OC(=O)C2=C1CCC=C2
REMARK SMILES IDX 3 1 2 2 1 3 4 4 5 5 10 6 6 7 9 8 11 9 7 10 14 11 12 12 8 13
REMARK SMILES IDX 13 14
REMARK H PARENT
REMARK Flexibility Score: inf
ROOT
ATOM      1  C   UNL     1       0.482   5.334 -13.988  1.00  0.00     0.004 C 
ENDROOT
BRANCH   1   2
ATOM      2  C   UNL     1       0.153   6.085 -15.287  1.00  0.00    -0.003 C 
ATOM      3  C   UNL     1       0.244   5.158 -16.496  1.00  0.00     0.004 C 
ENDBRANCH   1   2
BRANCH   1   4
ATOM      4  C   UNL     1       0.422   6.231 -12.742  1.00  0.00     0.050 C 
BRANCH   4   5
ATOM      5  C   UNL     1       1.809   6.675 -12.247  1.00  0.00     0.204 C 
ATOM      6  C   UNL     1       1.789   7.025 -10.776  1.00  0.00    -0.015 C 
ATOM      7  O   UNL     1       2.737   5.587 -12.300  1.00  0.00    -0.454 OA
ATOM      8  C   UNL     1       2.579   6.218 -10.089  1.00  0.00     0.062 C 
ATOM      9  C   UNL     1       0.915   8.039 -10.090  1.00  0.00     0.040 C 
ATOM     10  C   UNL     1       3.188   5.307 -11.021  1.00  0.00     0.338 C 
ATOM     11  C   UNL     1       2.725   6.300  -8.631  1.00  0.00     0.011 C 
ATOM     12  C   UNL     1       1.533   8.480  -8.742  1.00  0.00     0.032 C 
ATOM     13  O   UNL     1       4.004   4.391 -10.739  1.00  0.00    -0.246 OA
ATOM     14  C   UNL     1       2.166   7.331  -7.983  1.00  0.00    -0.026 C 
ENDBRANCH   4   5
ENDBRANCH   1   4
TORSDOF 3
ENDMDL
MODEL 3
REMARK VINA RESULT:    -4.274     20.960     21.979
REMARK INTER + INTRA:          -5.174
REMARK INTER:                  -4.942
REMARK INTRA:                  -0.232
REMARK UNBOUND:                -0.151
REMARK SMILES CCCC[C@@H]1OC(=O)C2=C1CCC=C2
REMARK SMILES IDX 3 1 2 2 1 3 4 4 5 5 10 6 6 7 9 8 11 9 7 10 14 11 12 12 8 13
REMARK SMILES IDX 13 14
REMARK H PARENT
REMARK Flexibility Score: inf
ROOT
ATOM      1  C   UNL     1      -0.038   8.882 -23.393  1.00  0.00     0.004 C 
ENDROOT
BRANCH   1   2
ATOM      2  C   UNL     1      -0.120   8.250 -24.791  1.00  0.00    -0.003 C 
ATOM      3  C   UNL     1       0.286   9.250 -25.870  1.00  0.00     0.004 C 
ENDBRANCH   1   2
BRANCH   1   4
ATOM      4  C   UNL     1       1.034   9.978 -23.289  1.00  0.00     0.050 C 
BRANCH   4   5
ATOM      5  C   UNL     1       2.139   9.650 -22.270  1.00  0.00     0.204 C 
ATOM      6  C   UNL     1       1.621   9.705 -20.851  1.00  0.00    -0.015 C 
ATOM      7  O   UNL     1       2.559   8.288 -22.399  1.00  0.00    -0.454 OA
ATOM      8  C   UNL     1       1.709   8.521 -20.270  1.00  0.00     0.062 C 
ATOM      9  C   UNL     1       0.952  10.867 -20.166  1.00  0.00     0.040 C 
ATOM     10  C   UNL     1       2.296   7.613 -21.220  1.00  0.00     0.338 C 
ATOM     11  C   UNL     1       1.241   8.270 -18.902  1.00  0.00     0.011 C 
ATOM     12  C   UNL     1       1.052  10.734 -18.629  1.00  0.00     0.032 C 
ATOM     13  O   UNL     1       2.539   6.394 -21.027  1.00  0.00    -0.246 OA
ATOM     14  C   UNL     1       0.859   9.309 -18.149  1.00  0.00    -0.026 C 
ENDBRANCH   4   5
ENDBRANCH   1   4
TORSDOF 3
ENDMDL
MODEL 4
REMARK VINA RESULT:    -4.263      2.518      3.879
REMARK INTER + INTRA:          -5.162
REMARK INTER:                  -4.910
REMARK INTRA:                  -0.252
REMARK UNBOUND:                -0.151
REMARK SMILES CCCC[C@@H]1OC(=O)C2=C1CCC=C2
REMARK SMILES IDX 3 1 2 2 1 3 4 4 5 5 10 6 6 7 9 8 11 9 7 10 14 11 12 12 8 13
REMARK SMILES IDX 13 14
REMARK H PARENT
REMARK Flexibility Score: inf
ROOT
ATOM      1  C   UNL     1      15.798  -8.936 -18.409  1.00  0.00     0.004 C 
ENDROOT
BRANCH   1   2
ATOM      2  C   UNL     1      16.312  -9.115 -16.973  1.00  0.00    -0.003 C 
ATOM      3  C   UNL     1      15.166  -9.060 -15.968  1.00  0.00     0.004 C 
ENDBRANCH   1   2
BRANCH   1   4
ATOM      4  C   UNL     1      16.570  -7.866 -19.197  1.00  0.00     0.050 C 
BRANCH   4   5
ATOM      5  C   UNL     1      17.092  -6.722 -18.312  1.00  0.00     0.204 C 
ATOM      6  C   UNL     1      17.981  -5.778 -19.090  1.00  0.00    -0.015 C 
ATOM      7  O   UNL     1      16.018  -5.872 -17.895  1.00  0.00    -0.454 OA
ATOM      8  C   UNL     1      17.457  -4.564 -19.132  1.00  0.00     0.062 C 
ATOM      9  C   UNL     1      19.227  -6.121 -19.860  1.00  0.00     0.040 C 
ATOM     10  C   UNL     1      16.226  -4.596 -18.389  1.00  0.00     0.338 C 
ATOM     11  C   UNL     1      18.084  -3.453 -19.855  1.00  0.00     0.011 C 
ATOM     12  C   UNL     1      20.117  -4.871 -20.057  1.00  0.00     0.032 C 
ATOM     13  O   UNL     1      15.445  -3.626 -18.205  1.00  0.00    -0.246 OA
ATOM     14  C   UNL     1      19.314  -3.621 -20.359  1.00  0.00    -0.026 C 
ENDBRANCH   4   5
ENDBRANCH   1   4
TORSDOF 3
ENDMDL
MODEL 5
REMARK VINA RESULT:    -4.177     20.720     21.896
REMARK INTER + INTRA:          -5.060
REMARK INTER:                  -4.813
REMARK INTRA:                  -0.248
REMARK UNBOUND:                -0.151
REMARK SMILES CCCC[C@@H]1OC(=O)C2=C1CCC=C2
REMARK SMILES IDX 3 1 2 2 1 3 4 4 5 5 10 6 6 7 9 8 11 9 7 10 14 11 12 12 8 13
REMARK SMILES IDX 13 14
REMARK H PARENT
REMARK Flexibility Score: inf
ROOT
ATOM      1  C   UNL     1       3.132   6.704  -8.926  1.00  0.00     0.004 C 
ENDROOT
BRANCH   1   2
ATOM      2  C   UNL     1       2.572   7.704  -7.904  1.00  0.00    -0.003 C 
ATOM      3  C   UNL     1       1.257   8.307  -8.389  1.00  0.00     0.004 C 
ENDBRANCH   1   2
BRANCH   1   4
ATOM      4  C   UNL     1       2.098   6.279  -9.982  1.00  0.00     0.050 C 
BRANCH   4   5
ATOM      5  C   UNL     1       2.515   6.642 -11.418  1.00  0.00     0.204 C 
ATOM      6  C   UNL     1       1.794   5.790 -12.438  1.00  0.00    -0.015 C 
ATOM      7  O   UNL     1       2.083   7.965 -11.751  1.00  0.00    -0.454 OA
ATOM      8  C   UNL     1       1.033   6.535 -13.221  1.00  0.00     0.062 C 
ATOM      9  C   UNL     1       1.778   4.288 -12.527  1.00  0.00     0.040 C 
ATOM     10  C   UNL     1       1.197   7.904 -12.813  1.00  0.00     0.338 C 
ATOM     11  C   UNL     1       0.187   5.969 -14.278  1.00  0.00     0.011 C 
ATOM     12  C   UNL     1       1.399   3.823 -13.953  1.00  0.00     0.032 C 
ATOM     13  O   UNL     1       0.632   8.904 -13.327  1.00  0.00    -0.246 OA
ATOM     14  C   UNL     1       0.306   4.668 -14.575  1.00  0.00    -0.026 C 
ENDBRANCH   4   5
ENDBRANCH   1   4
TORSDOF 3
ENDMDL
MODEL 6
REMARK VINA RESULT:    -3.993     21.166     22.425
REMARK INTER + INTRA:          -4.845
REMARK INTER:                  -4.592
REMARK INTRA:                  -0.253
REMARK UNBOUND:                -0.151
REMARK SMILES CCCC[C@@H]1OC(=O)C2=C1CCC=C2
REMARK SMILES IDX 3 1 2 2 1 3 4 4 5 5 10 6 6 7 9 8 11 9 7 10 14 11 12 12 8 13
REMARK SMILES IDX 13 14
REMARK H PARENT
REMARK Flexibility Score: inf
ROOT
ATOM      1  C   UNL     1       2.533   7.015  -9.631  1.00  0.00     0.004 C 
ENDROOT
BRANCH   1   2
ATOM      2  C   UNL     1       2.647   7.484  -8.173  1.00  0.00    -0.003 C 
ATOM      3  C   UNL     1       1.747   8.687  -7.910  1.00  0.00     0.004 C 
ENDBRANCH   1   2
BRANCH   1   4
ATOM      4  C   UNL     1       1.372   7.680 -10.389  1.00  0.00     0.050 C 
BRANCH   4   5
ATOM      5  C   UNL     1       0.256   6.694 -10.773  1.00  0.00     0.204 C 
ATOM      6  C   UNL     1       0.473   6.120 -12.155  1.00  0.00    -0.015 C 
ATOM      7  O   UNL     1       0.298   5.531  -9.939  1.00  0.00    -0.454 OA
ATOM      8  C   UNL     1       0.646   4.810 -12.100  1.00  0.00     0.062 C 
ATOM      9  C   UNL     1       0.627   6.877 -13.446  1.00  0.00     0.040 C 
ATOM     10  C   UNL     1       0.539   4.415 -10.721  1.00  0.00     0.338 C 
ATOM     11  C   UNL     1       0.917   3.994 -13.288  1.00  0.00     0.011 C 
ATOM     12  C   UNL     1       0.301   5.975 -14.659  1.00  0.00     0.032 C 
ATOM     13  O   UNL     1       0.646   3.243 -10.274  1.00  0.00    -0.246 OA
ATOM     14  C   UNL     1       0.827   4.562 -14.498  1.00  0.00    -0.026 C 
ENDBRANCH   4   5
ENDBRANCH   1   4
TORSDOF 3
ENDMDL
MODEL 7
REMARK VINA RESULT:    -3.880      3.411      7.390
REMARK INTER + INTRA:          -4.711
REMARK INTER:                  -4.440
REMARK INTRA:                  -0.271
REMARK UNBOUND:                -0.151
REMARK SMILES CCCC[C@@H]1OC(=O)C2=C1CCC=C2
REMARK SMILES IDX 3 1 2 2 1 3 4 4 5 5 10 6 6 7 9 8 11 9 7 10 14 11 12 12 8 13
REMARK SMILES IDX 13 14
REMARK H PARENT
REMARK Flexibility Score: inf
ROOT
ATOM      1  C   UNL     1      18.022  -4.470 -18.937  1.00  0.00     0.004 C 
ENDROOT
BRANCH   1   2
ATOM      2  C   UNL     1      19.050  -5.139 -19.861  1.00  0.00    -0.003 C 
ATOM      3  C   UNL     1      20.090  -4.134 -20.346  1.00  0.00     0.004 C 
ENDBRANCH   1   2
BRANCH   1   4
ATOM      4  C   UNL     1      16.754  -5.316 -18.733  1.00  0.00     0.050 C 
BRANCH   4   5
ATOM      5  C   UNL     1      17.034  -6.828 -18.700  1.00  0.00     0.204 C 
ATOM      6  C   UNL     1      16.431  -7.478 -17.475  1.00  0.00    -0.015 C 
ATOM      7  O   UNL     1      16.360  -7.492 -19.773  1.00  0.00    -0.454 OA
ATOM      8  C   UNL     1      15.514  -8.368 -17.817  1.00  0.00     0.062 C 
ATOM      9  C   UNL     1      16.678  -7.120 -16.034  1.00  0.00     0.040 C 
ATOM     10  C   UNL     1      15.451  -8.397 -19.254  1.00  0.00     0.338 C 
ATOM     11  C   UNL     1      14.735  -9.125 -16.830  1.00  0.00     0.011 C 
ATOM     12  C   UNL     1      16.324  -8.303 -15.103  1.00  0.00     0.032 C 
ATOM     13  O   UNL     1      14.695  -9.125 -19.948  1.00  0.00    -0.246 OA
ATOM     14  C   UNL     1      15.070  -9.037 -15.537  1.00  0.00    -0.026 C 
ENDBRANCH   4   5
ENDBRANCH   1   4
TORSDOF 3
ENDMDL
MODEL 8
REMARK VINA RESULT:    -3.716     20.976     22.064
REMARK INTER + INTRA:          -4.519
REMARK INTER:                  -4.282
REMARK INTRA:                  -0.237
REMARK UNBOUND:                -0.151
REMARK SMILES CCCC[C@@H]1OC(=O)C2=C1CCC=C2
REMARK SMILES IDX 3 1 2 2 1 3 4 4 5 5 10 6 6 7 9 8 11 9 7 10 14 11 12 12 8 13
REMARK SMILES IDX 13 14
REMARK H PARENT
REMARK Flexibility Score: inf
ROOT
ATOM      1  C   UNL     1       2.165   7.063 -10.828  1.00  0.00     0.004 C 
ENDROOT
BRANCH   1   2
ATOM      2  C   UNL     1       1.708   7.737  -9.525  1.00  0.00    -0.003 C 
ATOM      3  C   UNL     1       2.626   7.367  -8.364  1.00  0.00     0.004 C 
ENDBRANCH   1   2
BRANCH   1   4
ATOM      4  C   UNL     1       1.567   7.715 -12.085  1.00  0.00     0.050 C 
BRANCH   4   5
ATOM      5  C   UNL     1       0.298   7.008 -12.589  1.00  0.00     0.204 C 
ATOM      6  C   UNL     1       0.348   6.773 -14.082  1.00  0.00    -0.015 C 
ATOM      7  O   UNL     1       0.215   5.680 -12.063  1.00  0.00    -0.454 OA
ATOM      8  C   UNL     1       0.328   5.480 -14.357  1.00  0.00     0.062 C 
ATOM      9  C   UNL     1       0.538   7.802 -15.164  1.00  0.00     0.040 C 
ATOM     10  C   UNL     1       0.243   4.771 -13.108  1.00  0.00     0.338 C 
ATOM     11  C   UNL     1       0.407   4.957 -15.725  1.00  0.00     0.011 C 
ATOM     12  C   UNL     1       0.013   7.279 -16.522  1.00  0.00     0.032 C 
ATOM     13  O   UNL     1       0.201   3.522 -12.965  1.00  0.00    -0.246 OA
ATOM     14  C   UNL     1       0.334   5.815 -16.751  1.00  0.00    -0.026 C 
ENDBRANCH   4   5
ENDBRANCH   1   4
TORSDOF 3
ENDMDL
