MODEL 1
REMARK VINA RESULT:    -5.071      0.000      0.000
REMARK INTER + INTRA:          -5.634
REMARK INTER:                  -5.368
REMARK INTRA:                  -0.266
REMARK UNBOUND:                -0.266
REMARK SMILES C=C1CC[C@H](C(C)C)[C@H]2C=C(C)CC[C@H]12
REMARK SMILES IDX 12 1 11 2 10 3 9 4 15 5 14 6 13 7 2 8 1 9 3 10 4 11 5 12
REMARK SMILES IDX 6 13 7 14 8 15
REMARK H PARENT
REMARK Flexibility Score: inf
ROOT
ATOM      1  C   UNL     1      -5.646 -11.150  11.651  1.00  0.00     0.039 C 
ATOM      2  C   UNL     1      -4.263 -11.002  11.076  1.00  0.00    -0.077 C 
ATOM      3  C   UNL     1      -3.249 -10.640  11.892  1.00  0.00    -0.024 C 
ATOM      4  C   UNL     1      -1.798 -10.541  11.434  1.00  0.00     0.022 C 
ATOM      5  C   UNL     1      -1.725 -10.339   9.897  1.00  0.00     0.022 C 
ATOM      6  C   UNL     1      -2.613 -11.371   9.185  1.00  0.00     0.013 C 
ATOM      7  C   UNL     1      -4.076 -11.161   9.582  1.00  0.00     0.031 C 
ATOM      8  C   UNL     1      -0.268 -10.330   9.468  1.00  0.00    -0.074 C 
ATOM      9  C   UNL     1       0.278 -11.212   8.609  1.00  0.00     0.008 C 
ATOM     10  C   UNL     1       0.587  -9.285  10.132  1.00  0.00     0.031 C 
ATOM     11  C   UNL     1       0.493  -9.438  11.653  1.00  0.00     0.009 C 
ATOM     12  C   UNL     1      -0.977  -9.422  12.171  1.00  0.00    -0.001 C 
ENDROOT
BRANCH  12  13
ATOM     13  C   UNL     1      -1.085  -9.527  13.745  1.00  0.00    -0.014 C 
ATOM     14  C   UNL     1      -1.595  -8.202  14.345  1.00  0.00     0.007 C 
ATOM     15  C   UNL     1       0.210  -9.920  14.486  1.00  0.00     0.007 C 
ENDBRANCH  12  13
TORSDOF 1
ENDMDL
MODEL 2
REMARK VINA RESULT:    -5.010     13.492     15.584
REMARK INTER + INTRA:          -5.568
REMARK INTER:                  -5.296
REMARK INTRA:                  -0.273
REMARK UNBOUND:                -0.266
REMARK SMILES C=C1CC[C@H](C(C)C)[C@H]2C=C(C)CC[C@H]12
REMARK SMILES IDX 12 1 11 2 10 3 9 4 15 5 14 6 13 7 2 8 1 9 3 10 4 11 5 12
REMARK SMILES IDX 6 13 7 14 8 15
REMARK H PARENT
REMARK Flexibility Score: inf
ROOT
ATOM      1  C   UNL     1      -2.088   1.750  14.874  1.00  0.00     0.039 C 
ATOM      2  C   UNL     1      -1.672   2.869  13.957  1.00  0.00    -0.077 C 
ATOM      3  C   UNL     1      -2.625   3.640  13.388  1.00  0.00    -0.024 C 
ATOM      4  C   UNL     1      -2.314   4.847  12.511  1.00  0.00     0.022 C 
ATOM      5  C   UNL     1      -0.888   4.732  11.911  1.00  0.00     0.022 C 
ATOM      6  C   UNL     1       0.124   4.392  13.016  1.00  0.00     0.013 C 
ATOM      7  C   UNL     1      -0.205   3.025  13.621  1.00  0.00     0.031 C 
ATOM      8  C   UNL     1      -0.583   5.988  11.115  1.00  0.00    -0.074 C 
ATOM      9  C   UNL     1       0.428   6.835  11.387  1.00  0.00     0.008 C 
ATOM     10  C   UNL     1      -1.550   6.290  10.002  1.00  0.00     0.031 C 
ATOM     11  C   UNL     1      -2.972   6.364  10.566  1.00  0.00     0.009 C 
ATOM     12  C   UNL     1      -3.368   5.089  11.370  1.00  0.00    -0.001 C 
ENDROOT
BRANCH  12  13
ATOM     13  C   UNL     1      -4.853   5.130  11.913  1.00  0.00    -0.014 C 
ATOM     14  C   UNL     1      -5.860   5.105  10.747  1.00  0.00     0.007 C 
ATOM     15  C   UNL     1      -5.205   6.323  12.825  1.00  0.00     0.007 C 
ENDBRANCH  12  13
TORSDOF 1
ENDMDL
MODEL 3
REMARK VINA RESULT:    -4.825      1.154      4.008
REMARK INTER + INTRA:          -5.373
REMARK INTER:                  -5.131
REMARK INTRA:                  -0.242
REMARK UNBOUND:                -0.266
REMARK SMILES C=C1CC[C@H](C(C)C)[C@H]2C=C(C)CC[C@H]12
REMARK SMILES IDX 12 1 11 2 10 3 9 4 15 5 14 6 13 7 2 8 1 9 3 10 4 11 5 12
REMARK SMILES IDX 6 13 7 14 8 15
REMARK H PARENT
REMARK Flexibility Score: inf
ROOT
ATOM      1  C   UNL     1       2.375  -8.748  10.998  1.00  0.00     0.039 C 
ATOM      2  C   UNL     1       0.960  -9.261  10.994  1.00  0.00    -0.077 C 
ATOM      3  C   UNL     1       0.219  -9.148  12.119  1.00  0.00    -0.024 C 
ATOM      4  C   UNL     1      -1.246  -9.559  12.202  1.00  0.00     0.022 C 
ATOM      5  C   UNL     1      -1.585 -10.595  11.099  1.00  0.00     0.022 C 
ATOM      6  C   UNL     1      -1.074 -10.103   9.736  1.00  0.00     0.013 C 
ATOM      7  C   UNL     1       0.451  -9.981   9.765  1.00  0.00     0.031 C 
ATOM      8  C   UNL     1      -3.068 -10.916  11.158  1.00  0.00    -0.074 C 
ATOM      9  C   UNL     1      -3.935 -10.700  10.151  1.00  0.00     0.008 C 
ATOM     10  C   UNL     1      -3.555 -11.444  12.480  1.00  0.00     0.031 C 
ATOM     11  C   UNL     1      -3.190 -10.455  13.592  1.00  0.00     0.009 C 
ATOM     12  C   UNL     1      -1.671 -10.106  13.613  1.00  0.00    -0.001 C 
ENDROOT
BRANCH  12  13
ATOM     13  C   UNL     1      -1.273  -9.126  14.789  1.00  0.00    -0.014 C 
ATOM     14  C   UNL     1      -1.684  -9.716  16.152  1.00  0.00     0.007 C 
ATOM     15  C   UNL     1      -1.841  -7.695  14.697  1.00  0.00     0.007 C 
ENDBRANCH  12  13
TORSDOF 1
ENDMDL
MODEL 4
REMARK VINA RESULT:    -4.787      3.555      6.133
REMARK INTER + INTRA:          -5.333
REMARK INTER:                  -5.066
REMARK INTRA:                  -0.267
REMARK UNBOUND:                -0.266
REMARK SMILES C=C1CC[C@H](C(C)C)[C@H]2C=C(C)CC[C@H]12
REMARK SMILES IDX 12 1 11 2 10 3 9 4 15 5 14 6 13 7 2 8 1 9 3 10 4 11 5 12
REMARK SMILES IDX 6 13 7 14 8 15
REMARK H PARENT
REMARK Flexibility Score: inf
ROOT
ATOM      1  C   UNL     1      -7.074 -10.260  13.371  1.00  0.00     0.039 C 
ATOM      2  C   UNL     1      -6.186 -10.338  14.584  1.00  0.00    -0.077 C 
ATOM      3  C   UNL     1      -4.975  -9.740  14.549  1.00  0.00    -0.024 C 
ATOM      4  C   UNL     1      -4.031  -9.687  15.745  1.00  0.00     0.022 C 
ATOM      5  C   UNL     1      -4.350 -10.833  16.741  1.00  0.00     0.022 C 
ATOM      6  C   UNL     1      -5.857 -10.867  17.042  1.00  0.00     0.013 C 
ATOM      7  C   UNL     1      -6.636 -11.175  15.762  1.00  0.00     0.031 C 
ATOM      8  C   UNL     1      -3.449 -10.697  17.956  1.00  0.00    -0.074 C 
ATOM      9  C   UNL     1      -3.890 -10.511  19.215  1.00  0.00     0.008 C 
ATOM     10  C   UNL     1      -1.974 -10.713  17.662  1.00  0.00     0.031 C 
ATOM     11  C   UNL     1      -1.643  -9.618  16.644  1.00  0.00     0.009 C 
ATOM     12  C   UNL     1      -2.509  -9.715  15.352  1.00  0.00    -0.001 C 
ENDROOT
BRANCH  12  13
ATOM     13  C   UNL     1      -2.141  -8.621  14.271  1.00  0.00    -0.014 C 
ATOM     14  C   UNL     1      -0.997  -9.114  13.364  1.00  0.00     0.007 C 
ATOM     15  C   UNL     1      -1.752  -7.233  14.820  1.00  0.00     0.007 C 
ENDBRANCH  12  13
TORSDOF 1
ENDMDL
MODEL 5
REMARK VINA RESULT:    -4.785     13.615     15.716
REMARK INTER + INTRA:          -5.330
REMARK INTER:                  -5.084
REMARK INTRA:                  -0.246
REMARK UNBOUND:                -0.266
REMARK SMILES C=C1CC[C@H](C(C)C)[C@H]2C=C(C)CC[C@H]12
REMARK SMILES IDX 12 1 11 2 10 3 9 4 15 5 14 6 13 7 2 8 1 9 3 10 4 11 5 12
REMARK SMILES IDX 6 13 7 14 8 15
REMARK H PARENT
REMARK Flexibility Score: inf
ROOT
ATOM      1  C   UNL     1      -1.352   0.972  11.316  1.00  0.00     0.039 C 
ATOM      2  C   UNL     1      -0.824   2.227  11.957  1.00  0.00    -0.077 C 
ATOM      3  C   UNL     1      -1.065   3.418  11.365  1.00  0.00    -0.024 C 
ATOM      4  C   UNL     1      -0.648   4.754  11.968  1.00  0.00     0.022 C 
ATOM      5  C   UNL     1       0.522   4.559  12.967  1.00  0.00     0.022 C 
ATOM      6  C   UNL     1       0.197   3.422  13.948  1.00  0.00     0.013 C 
ATOM      7  C   UNL     1       0.052   2.103  13.186  1.00  0.00     0.031 C 
ATOM      8  C   UNL     1       0.853   5.895  13.609  1.00  0.00    -0.074 C 
ATOM      9  C   UNL     1       0.776   6.145  14.930  1.00  0.00     0.008 C 
ATOM     10  C   UNL     1       1.219   6.993  12.647  1.00  0.00     0.031 C 
ATOM     11  C   UNL     1       0.095   7.172  11.622  1.00  0.00     0.009 C 
ATOM     12  C   UNL     1      -0.276   5.843  10.897  1.00  0.00    -0.001 C 
ENDROOT
BRANCH  12  13
ATOM     13  C   UNL     1      -1.400   6.024   9.799  1.00  0.00    -0.014 C 
ATOM     14  C   UNL     1      -0.968   7.062   8.745  1.00  0.00     0.007 C 
ATOM     15  C   UNL     1      -2.795   6.423  10.321  1.00  0.00     0.007 C 
ENDBRANCH  12  13
TORSDOF 1
ENDMDL
MODEL 6
REMARK VINA RESULT:    -4.783     13.095     15.288
REMARK INTER + INTRA:          -5.329
REMARK INTER:                  -5.058
REMARK INTRA:                  -0.271
REMARK UNBOUND:                -0.266
REMARK SMILES C=C1CC[C@H](C(C)C)[C@H]2C=C(C)CC[C@H]12
REMARK SMILES IDX 12 1 11 2 10 3 9 4 15 5 14 6 13 7 2 8 1 9 3 10 4 11 5 12
REMARK SMILES IDX 6 13 7 14 8 15
REMARK H PARENT
REMARK Flexibility Score: inf
ROOT
ATOM      1  C   UNL     1      -5.261   5.519  12.214  1.00  0.00     0.039 C 
ATOM      2  C   UNL     1      -3.788   5.632  12.507  1.00  0.00    -0.077 C 
ATOM      3  C   UNL     1      -3.081   4.507  12.752  1.00  0.00    -0.024 C 
ATOM      4  C   UNL     1      -1.573   4.498  12.979  1.00  0.00     0.022 C 
ATOM      5  C   UNL     1      -1.086   5.892  13.455  1.00  0.00     0.022 C 
ATOM      6  C   UNL     1      -1.647   6.989  12.537  1.00  0.00     0.013 C 
ATOM      7  C   UNL     1      -3.174   7.010  12.624  1.00  0.00     0.031 C 
ATOM      8  C   UNL     1       0.427   5.868  13.589  1.00  0.00    -0.074 C 
ATOM      9  C   UNL     1       1.266   6.659  12.893  1.00  0.00     0.008 C 
ATOM     10  C   UNL     1       0.969   4.824  14.526  1.00  0.00     0.031 C 
ATOM     11  C   UNL     1       0.462   3.442  14.101  1.00  0.00     0.009 C 
ATOM     12  C   UNL     1      -1.091   3.382  13.976  1.00  0.00    -0.001 C 
ENDROOT
BRANCH  12  13
ATOM     13  C   UNL     1      -1.630   1.947  13.588  1.00  0.00    -0.014 C 
ATOM     14  C   UNL     1      -1.577   0.999  14.802  1.00  0.00     0.007 C 
ATOM     15  C   UNL     1      -0.918   1.254  12.409  1.00  0.00     0.007 C 
ENDBRANCH  12  13
TORSDOF 1
ENDMDL
MODEL 7
REMARK VINA RESULT:    -4.756      1.358      3.643
REMARK INTER + INTRA:          -5.300
REMARK INTER:                  -5.027
REMARK INTRA:                  -0.273
REMARK UNBOUND:                -0.266
REMARK SMILES C=C1CC[C@H](C(C)C)[C@H]2C=C(C)CC[C@H]12
REMARK SMILES IDX 12 1 11 2 10 3 9 4 15 5 14 6 13 7 2 8 1 9 3 10 4 11 5 12
REMARK SMILES IDX 6 13 7 14 8 15
REMARK H PARENT
REMARK Flexibility Score: inf
ROOT
ATOM      1  C   UNL     1      -1.284  -9.118  15.858  1.00  0.00     0.039 C 
ATOM      2  C   UNL     1      -1.479  -9.523  14.421  1.00  0.00    -0.077 C 
ATOM      3  C   UNL     1      -0.405  -9.572  13.602  1.00  0.00    -0.024 C 
ATOM      4  C   UNL     1      -0.476 -10.047  12.155  1.00  0.00     0.022 C 
ATOM      5  C   UNL     1      -1.919  -9.906  11.605  1.00  0.00     0.022 C 
ATOM      6  C   UNL     1      -2.924 -10.522  12.592  1.00  0.00     0.013 C 
ATOM      7  C   UNL     1      -2.887  -9.758  13.917  1.00  0.00     0.031 C 
ATOM      8  C   UNL     1      -1.969 -10.465  10.194  1.00  0.00    -0.074 C 
ATOM      9  C   UNL     1      -2.742 -11.499   9.812  1.00  0.00     0.008 C 
ATOM     10  C   UNL     1      -1.018  -9.825   9.220  1.00  0.00     0.031 C 
ATOM     11  C   UNL     1       0.411  -9.914   9.765  1.00  0.00     0.009 C 
ATOM     12  C   UNL     1       0.544  -9.325  11.202  1.00  0.00    -0.001 C 
ENDROOT
BRANCH  12  13
ATOM     13  C   UNL     1       2.025  -9.363  11.756  1.00  0.00    -0.014 C 
ATOM     14  C   UNL     1       2.917  -8.361  10.996  1.00  0.00     0.007 C 
ATOM     15  C   UNL     1       2.721 -10.739  11.730  1.00  0.00     0.007 C 
ENDBRANCH  12  13
TORSDOF 1
ENDMDL
MODEL 8
REMARK VINA RESULT:    -4.637     13.485     15.924
REMARK INTER + INTRA:          -5.174
REMARK INTER:                  -4.917
REMARK INTRA:                  -0.257
REMARK UNBOUND:                -0.266
REMARK SMILES C=C1CC[C@H](C(C)C)[C@H]2C=C(C)CC[C@H]12
REMARK SMILES IDX 12 1 11 2 10 3 9 4 15 5 14 6 13 7 2 8 1 9 3 10 4 11 5 12
REMARK SMILES IDX 6 13 7 14 8 15
REMARK H PARENT
REMARK Flexibility Score: inf
ROOT
ATOM      1  C   UNL     1       3.190   5.776  15.245  1.00  0.00     0.039 C 
ATOM      2  C   UNL     1       2.053   5.877  14.263  1.00  0.00    -0.077 C 
ATOM      3  C   UNL     1       1.138   4.884  14.214  1.00  0.00    -0.024 C 
ATOM      4  C   UNL     1      -0.094   4.923  13.317  1.00  0.00     0.022 C 
ATOM      5  C   UNL     1       0.131   5.889  12.124  1.00  0.00     0.022 C 
ATOM      6  C   UNL     1       0.670   7.236  12.629  1.00  0.00     0.013 C 
ATOM      7  C   UNL     1       2.035   7.036  13.290  1.00  0.00     0.031 C 
ATOM      8  C   UNL     1      -1.144   5.966  11.302  1.00  0.00    -0.074 C 
ATOM      9  C   UNL     1      -1.848   7.095  11.093  1.00  0.00     0.008 C 
ATOM     10  C   UNL     1      -1.641   4.650  10.769  1.00  0.00     0.031 C 
ATOM     11  C   UNL     1      -1.827   3.665  11.927  1.00  0.00     0.009 C 
ATOM     12  C   UNL     1      -0.543   3.509  12.797  1.00  0.00    -0.001 C 
ENDROOT
BRANCH  12  13
ATOM     13  C   UNL     1      -0.705   2.456  13.965  1.00  0.00    -0.014 C 
ATOM     14  C   UNL     1      -1.043   1.063  13.399  1.00  0.00     0.007 C 
ATOM     15  C   UNL     1      -1.752   2.801  15.044  1.00  0.00     0.007 C 
ENDBRANCH  12  13
TORSDOF 1
ENDMDL
MODEL 9
REMARK VINA RESULT:    -4.604     14.097     15.761
REMARK INTER + INTRA:          -5.139
REMARK INTER:                  -4.872
REMARK INTRA:                  -0.267
REMARK UNBOUND:                -0.266
REMARK SMILES C=C1CC[C@H](C(C)C)[C@H]2C=C(C)CC[C@H]12
REMARK SMILES IDX 12 1 11 2 10 3 9 4 15 5 14 6 13 7 2 8 1 9 3 10 4 11 5 12
REMARK SMILES IDX 6 13 7 14 8 15
REMARK H PARENT
REMARK Flexibility Score: inf
ROOT
ATOM      1  C   UNL     1      -5.305   5.011   9.986  1.00  0.00     0.039 C 
ATOM      2  C   UNL     1      -3.894   5.483  10.212  1.00  0.00    -0.077 C 
ATOM      3  C   UNL     1      -3.080   4.759  11.012  1.00  0.00    -0.024 C 
ATOM      4  C   UNL     1      -1.612   5.100  11.243  1.00  0.00     0.022 C 
ATOM      5  C   UNL     1      -1.348   6.600  10.949  1.00  0.00     0.022 C 
ATOM      6  C   UNL     1      -1.948   6.984   9.587  1.00  0.00     0.013 C 
ATOM      7  C   UNL     1      -3.467   6.809   9.619  1.00  0.00     0.031 C 
ATOM      8  C   UNL     1       0.136   6.882  11.107  1.00  0.00    -0.074 C 
ATOM      9  C   UNL     1       0.934   7.335  10.123  1.00  0.00     0.008 C 
ATOM     10  C   UNL     1       0.708   6.549  12.459  1.00  0.00     0.031 C 
ATOM     11  C   UNL     1       0.418   5.082  12.790  1.00  0.00     0.009 C 
ATOM     12  C   UNL     1      -1.096   4.727  12.681  1.00  0.00    -0.001 C 
ENDROOT
BRANCH  12  13
ATOM     13  C   UNL     1      -1.415   3.228  13.071  1.00  0.00    -0.014 C 
ATOM     14  C   UNL     1      -2.094   3.158  14.453  1.00  0.00     0.007 C 
ATOM     15  C   UNL     1      -0.212   2.262  13.080  1.00  0.00     0.007 C 
ENDBRANCH  12  13
TORSDOF 1
ENDMDL
