MODEL 1
REMARK VINA RESULT:    -4.446      0.000      0.000
REMARK INTER + INTRA:          -6.383
REMARK INTER:                  -6.006
REMARK INTRA:                  -0.377
REMARK UNBOUND:                -0.377
REMARK SMILES CCCCCCCC(=O)[O-]
REMARK SMILES IDX 5 1 6 2 7 3 8 4 9 5 10 6 4 7 3 8 2 9 1 10
REMARK H PARENT
REMARK Flexibility Score: inf
ROOT
ATOM      1  C   UNL     1      -7.869  62.811  54.433  1.00  0.00     0.000 C 
ENDROOT
BRANCH   1   2
ATOM      2  C   UNL     1      -7.949  64.009  53.474  1.00  0.00     0.006 C 
BRANCH   2   3
ATOM      3  C   UNL     1      -6.562  64.611  53.232  1.00  0.00     0.053 C 
BRANCH   3   4
ATOM      4  C   UNL     1      -6.231  64.599  51.773  1.00  0.00     0.041 C 
ATOM      5  O   UNL     1      -6.198  63.511  51.141  1.00  0.00    -0.550 OA
ATOM      6  O   UNL     1      -5.911  65.785  51.124  1.00  0.00    -0.550 OA
ENDBRANCH   3   4
ENDBRANCH   2   3
ENDBRANCH   1   2
BRANCH   1   7
ATOM      7  C   UNL     1      -7.631  61.481  53.701  1.00  0.00     0.000 C 
BRANCH   7   8
ATOM      8  C   UNL     1      -6.299  60.822  54.085  1.00  0.00    -0.000 C 
BRANCH   8   9
ATOM      9  C   UNL     1      -6.139  60.756  55.610  1.00  0.00    -0.003 C 
ATOM     10  C   UNL     1      -6.239  59.319  56.112  1.00  0.00     0.004 C 
ENDBRANCH   8   9
ENDBRANCH   7   8
ENDBRANCH   1   7
TORSDOF 6
ENDMDL
MODEL 2
REMARK VINA RESULT:    -4.381     14.516     15.794
REMARK INTER + INTRA:          -6.295
REMARK INTER:                  -5.913
REMARK INTRA:                  -0.382
REMARK UNBOUND:                -0.377
REMARK SMILES CCCCCCCC(=O)[O-]
REMARK SMILES IDX 5 1 6 2 7 3 8 4 9 5 10 6 4 7 3 8 2 9 1 10
REMARK H PARENT
REMARK Flexibility Score: inf
ROOT
ATOM      1  C   UNL     1     -12.633  59.600  39.764  1.00  0.00     0.000 C 
ENDROOT
BRANCH   1   2
ATOM      2  C   UNL     1     -12.152  60.827  40.555  1.00  0.00     0.006 C 
BRANCH   2   3
ATOM      3  C   UNL     1     -10.648  61.046  40.365  1.00  0.00     0.053 C 
BRANCH   3   4
ATOM      4  C   UNL     1     -10.391  62.343  39.666  1.00  0.00     0.041 C 
ATOM      5  O   UNL     1     -11.160  62.731  38.748  1.00  0.00    -0.550 OA
ATOM      6  O   UNL     1      -9.272  63.100  39.994  1.00  0.00    -0.550 OA
ENDBRANCH   3   4
ENDBRANCH   2   3
ENDBRANCH   1   2
BRANCH   1   7
ATOM      7  C   UNL     1     -13.511  59.977  38.561  1.00  0.00     0.000 C 
BRANCH   7   8
ATOM      8  C   UNL     1     -14.382  61.213  38.828  1.00  0.00    -0.000 C 
BRANCH   8   9
ATOM      9  C   UNL     1     -15.755  61.071  38.159  1.00  0.00    -0.003 C 
ATOM     10  C   UNL     1     -16.614  60.037  38.879  1.00  0.00     0.004 C 
ENDBRANCH   8   9
ENDBRANCH   7   8
ENDBRANCH   1   7
TORSDOF 6
ENDMDL
MODEL 3
REMARK VINA RESULT:    -4.364      3.499      5.355
REMARK INTER + INTRA:          -6.272
REMARK INTER:                  -5.942
REMARK INTRA:                  -0.329
REMARK UNBOUND:                -0.377
REMARK SMILES CCCCCCCC(=O)[O-]
REMARK SMILES IDX 5 1 6 2 7 3 8 4 9 5 10 6 4 7 3 8 2 9 1 10
REMARK H PARENT
REMARK Flexibility Score: inf
ROOT
ATOM      1  C   UNL     1      -7.706  61.510  53.615  1.00  0.00     0.000 C 
ENDROOT
BRANCH   1   2
ATOM      2  C   UNL     1      -6.427  60.753  54.005  1.00  0.00     0.006 C 
BRANCH   2   3
ATOM      3  C   UNL     1      -6.014  61.081  55.443  1.00  0.00     0.053 C 
BRANCH   3   4
ATOM      4  C   UNL     1      -5.746  59.826  56.211  1.00  0.00     0.041 C 
ATOM      5  O   UNL     1      -6.559  58.866  56.159  1.00  0.00    -0.550 OA
ATOM      6  O   UNL     1      -4.624  59.736  57.026  1.00  0.00    -0.550 OA
ENDBRANCH   3   4
ENDBRANCH   2   3
ENDBRANCH   1   2
BRANCH   1   7
ATOM      7  C   UNL     1      -7.905  62.797  54.429  1.00  0.00     0.000 C 
BRANCH   7   8
ATOM      8  C   UNL     1      -7.966  64.053  53.547  1.00  0.00    -0.000 C 
BRANCH   8   9
ATOM      9  C   UNL     1      -6.583  64.389  52.975  1.00  0.00    -0.003 C 
ATOM     10  C   UNL     1      -6.440  65.887  52.722  1.00  0.00     0.004 C 
ENDBRANCH   8   9
ENDBRANCH   7   8
ENDBRANCH   1   7
TORSDOF 6
ENDMDL
MODEL 4
REMARK VINA RESULT:    -4.349     13.712     15.167
REMARK INTER + INTRA:          -6.252
REMARK INTER:                  -5.936
REMARK INTRA:                  -0.316
REMARK UNBOUND:                -0.377
REMARK SMILES CCCCCCCC(=O)[O-]
REMARK SMILES IDX 5 1 6 2 7 3 8 4 9 5 10 6 4 7 3 8 2 9 1 10
REMARK H PARENT
REMARK Flexibility Score: inf
ROOT
ATOM      1  C   UNL     1     -12.241  60.435  40.072  1.00  0.00     0.000 C 
ENDROOT
BRANCH   1   2
ATOM      2  C   UNL     1     -11.402  61.623  39.577  1.00  0.00     0.006 C 
BRANCH   2   3
ATOM      3  C   UNL     1      -9.928  61.447  39.951  1.00  0.00     0.053 C 
BRANCH   3   4
ATOM      4  C   UNL     1      -9.543  62.409  41.030  1.00  0.00     0.041 C 
ATOM      5  O   UNL     1      -9.902  62.205  42.219  1.00  0.00    -0.550 OA
ATOM      6  O   UNL     1      -8.829  63.559  40.713  1.00  0.00    -0.550 OA
ENDBRANCH   3   4
ENDBRANCH   2   3
ENDBRANCH   1   2
BRANCH   1   7
ATOM      7  C   UNL     1     -13.305  59.995  39.055  1.00  0.00     0.000 C 
BRANCH   7   8
ATOM      8  C   UNL     1     -14.716  60.469  39.430  1.00  0.00    -0.000 C 
BRANCH   8   9
ATOM      9  C   UNL     1     -15.297  61.379  38.341  1.00  0.00    -0.003 C 
ATOM     10  C   UNL     1     -14.799  62.812  38.496  1.00  0.00     0.004 C 
ENDBRANCH   8   9
ENDBRANCH   7   8
ENDBRANCH   1   7
TORSDOF 6
ENDMDL
MODEL 5
REMARK VINA RESULT:    -4.320     13.563     14.973
REMARK INTER + INTRA:          -6.213
REMARK INTER:                  -5.874
REMARK INTRA:                  -0.339
REMARK UNBOUND:                -0.377
REMARK SMILES CCCCCCCC(=O)[O-]
REMARK SMILES IDX 5 1 6 2 7 3 8 4 9 5 10 6 4 7 3 8 2 9 1 10
REMARK H PARENT
REMARK Flexibility Score: inf
ROOT
ATOM      1  C   UNL     1     -12.068  60.802  40.473  1.00  0.00     0.000 C 
ENDROOT
BRANCH   1   2
ATOM      2  C   UNL     1     -11.165  61.665  39.578  1.00  0.00     0.006 C 
BRANCH   2   3
ATOM      3  C   UNL     1      -9.717  61.642  40.077  1.00  0.00     0.053 C 
BRANCH   3   4
ATOM      4  C   UNL     1      -9.364  62.943  40.725  1.00  0.00     0.041 C 
ATOM      5  O   UNL     1      -8.601  63.755  40.141  1.00  0.00    -0.550 OA
ATOM      6  O   UNL     1      -9.838  63.236  41.999  1.00  0.00    -0.550 OA
ENDBRANCH   3   4
ENDBRANCH   2   3
ENDBRANCH   1   2
BRANCH   1   7
ATOM      7  C   UNL     1     -12.679  59.609  39.722  1.00  0.00     0.000 C 
BRANCH   7   8
ATOM      8  C   UNL     1     -13.615  60.040  38.584  1.00  0.00    -0.000 C 
BRANCH   8   9
ATOM      9  C   UNL     1     -14.839  60.783  39.134  1.00  0.00    -0.003 C 
ATOM     10  C   UNL     1     -14.935  62.192  38.555  1.00  0.00     0.004 C 
ENDBRANCH   8   9
ENDBRANCH   7   8
ENDBRANCH   1   7
TORSDOF 6
ENDMDL
MODEL 6
REMARK VINA RESULT:    -4.224      1.442      2.428
REMARK INTER + INTRA:          -6.083
REMARK INTER:                  -5.889
REMARK INTRA:                  -0.194
REMARK UNBOUND:                -0.377
REMARK SMILES CCCCCCCC(=O)[O-]
REMARK SMILES IDX 5 1 6 2 7 3 8 4 9 5 10 6 4 7 3 8 2 9 1 10
REMARK H PARENT
REMARK Flexibility Score: inf
ROOT
ATOM      1  C   UNL     1      -6.170  60.944  54.297  1.00  0.00     0.000 C 
ENDROOT
BRANCH   1   2
ATOM      2  C   UNL     1      -7.436  61.465  53.600  1.00  0.00     0.006 C 
BRANCH   2   3
ATOM      3  C   UNL     1      -7.811  62.858  54.114  1.00  0.00     0.053 C 
BRANCH   3   4
ATOM      4  C   UNL     1      -7.362  63.911  53.150  1.00  0.00     0.041 C 
ATOM      5  O   UNL     1      -6.531  63.630  52.248  1.00  0.00    -0.550 OA
ATOM      6  O   UNL     1      -7.825  65.215  53.280  1.00  0.00    -0.550 OA
ENDBRANCH   3   4
ENDBRANCH   2   3
ENDBRANCH   1   2
BRANCH   1   7
ATOM      7  C   UNL     1      -6.375  60.713  55.802  1.00  0.00     0.000 C 
BRANCH   7   8
ATOM      8  C   UNL     1      -6.110  59.260  56.221  1.00  0.00    -0.000 C 
BRANCH   8   9
ATOM      9  C   UNL     1      -4.622  58.913  56.088  1.00  0.00    -0.003 C 
ATOM     10  C   UNL     1      -3.844  59.339  57.328  1.00  0.00     0.004 C 
ENDBRANCH   8   9
ENDBRANCH   7   8
ENDBRANCH   1   7
TORSDOF 6
ENDMDL
MODEL 7
REMARK VINA RESULT:    -4.181     12.850     14.353
REMARK INTER + INTRA:          -6.025
REMARK INTER:                  -5.687
REMARK INTRA:                  -0.337
REMARK UNBOUND:                -0.377
REMARK SMILES CCCCCCCC(=O)[O-]
REMARK SMILES IDX 5 1 6 2 7 3 8 4 9 5 10 6 4 7 3 8 2 9 1 10
REMARK H PARENT
REMARK Flexibility Score: inf
ROOT
ATOM      1  C   UNL     1     -10.601  62.614  38.501  1.00  0.00     0.000 C 
ENDROOT
BRANCH   1   2
ATOM      2  C   UNL     1     -10.016  63.930  39.037  1.00  0.00     0.006 C 
BRANCH   2   3
ATOM      3  C   UNL     1      -9.012  63.665  40.162  1.00  0.00     0.053 C 
BRANCH   3   4
ATOM      4  C   UNL     1      -9.489  64.271  41.444  1.00  0.00     0.041 C 
ATOM      5  O   UNL     1      -9.866  63.532  42.391  1.00  0.00    -0.550 OA
ATOM      6  O   UNL     1      -9.565  65.652  41.575  1.00  0.00    -0.550 OA
ENDBRANCH   3   4
ENDBRANCH   2   3
ENDBRANCH   1   2
BRANCH   1   7
ATOM      7  C   UNL     1     -11.871  62.182  39.250  1.00  0.00     0.000 C 
BRANCH   7   8
ATOM      8  C   UNL     1     -11.634  60.982  40.178  1.00  0.00    -0.000 C 
BRANCH   8   9
ATOM      9  C   UNL     1     -12.507  59.790  39.766  1.00  0.00    -0.003 C 
ATOM     10  C   UNL     1     -13.609  60.220  38.803  1.00  0.00     0.004 C 
ENDBRANCH   8   9
ENDBRANCH   7   8
ENDBRANCH   1   7
TORSDOF 6
ENDMDL
MODEL 8
REMARK VINA RESULT:    -4.151     15.399     16.720
REMARK INTER + INTRA:          -5.985
REMARK INTER:                  -5.621
REMARK INTRA:                  -0.364
REMARK UNBOUND:                -0.377
REMARK SMILES CCCCCCCC(=O)[O-]
REMARK SMILES IDX 5 1 6 2 7 3 8 4 9 5 10 6 4 7 3 8 2 9 1 10
REMARK H PARENT
REMARK Flexibility Score: inf
ROOT
ATOM      1  C   UNL     1     -13.761  60.445  39.975  1.00  0.00     0.000 C 
ENDROOT
BRANCH   1   2
ATOM      2  C   UNL     1     -14.366  60.338  38.567  1.00  0.00     0.006 C 
BRANCH   2   3
ATOM      3  C   UNL     1     -15.398  61.444  38.328  1.00  0.00     0.053 C 
BRANCH   3   4
ATOM      4  C   UNL     1     -16.787  60.900  38.444  1.00  0.00     0.041 C 
ATOM      5  O   UNL     1     -17.776  61.617  38.141  1.00  0.00    -0.550 OA
ATOM      6  O   UNL     1     -16.991  59.616  38.935  1.00  0.00    -0.550 OA
ENDBRANCH   3   4
ENDBRANCH   2   3
ENDBRANCH   1   2
BRANCH   1   7
ATOM      7  C   UNL     1     -12.316  59.929  40.040  1.00  0.00     0.000 C 
BRANCH   7   8
ATOM      8  C   UNL     1     -11.310  61.025  40.420  1.00  0.00    -0.000 C 
BRANCH   8   9
ATOM      9  C   UNL     1     -10.932  61.870  39.197  1.00  0.00    -0.003 C 
ATOM     10  C   UNL     1     -11.425  63.306  39.346  1.00  0.00     0.004 C 
ENDBRANCH   8   9
ENDBRANCH   7   8
ENDBRANCH   1   7
TORSDOF 6
ENDMDL
MODEL 9
REMARK VINA RESULT:    -4.109     13.895     15.392
REMARK INTER + INTRA:          -5.927
REMARK INTER:                  -5.652
REMARK INTRA:                  -0.275
REMARK UNBOUND:                -0.377
REMARK SMILES CCCCCCCC(=O)[O-]
REMARK SMILES IDX 5 1 6 2 7 3 8 4 9 5 10 6 4 7 3 8 2 9 1 10
REMARK H PARENT
REMARK Flexibility Score: inf
ROOT
ATOM      1  C   UNL     1     -11.989  60.769  40.668  1.00  0.00     0.000 C 
ENDROOT
BRANCH   1   2
ATOM      2  C   UNL     1     -12.620  59.643  39.833  1.00  0.00     0.006 C 
BRANCH   2   3
ATOM      3  C   UNL     1     -13.414  60.214  38.655  1.00  0.00     0.053 C 
BRANCH   3   4
ATOM      4  C   UNL     1     -14.378  61.256  39.127  1.00  0.00     0.041 C 
ATOM      5  O   UNL     1     -15.398  60.924  39.786  1.00  0.00    -0.550 OA
ATOM      6  O   UNL     1     -14.176  62.591  38.796  1.00  0.00    -0.550 OA
ENDBRANCH   3   4
ENDBRANCH   2   3
ENDBRANCH   1   2
BRANCH   1   7
ATOM      7  C   UNL     1     -10.622  61.214  40.125  1.00  0.00     0.000 C 
BRANCH   7   8
ATOM      8  C   UNL     1      -9.951  62.276  41.007  1.00  0.00    -0.000 C 
BRANCH   8   9
ATOM      9  C   UNL     1      -9.297  63.367  40.150  1.00  0.00    -0.003 C 
ATOM     10  C   UNL     1     -10.195  63.763  38.982  1.00  0.00     0.004 C 
ENDBRANCH   8   9
ENDBRANCH   7   8
ENDBRANCH   1   7
TORSDOF 6
ENDMDL
