MODEL 1
REMARK VINA RESULT:    -5.262      0.000      0.000
REMARK INTER + INTRA:          -6.201
REMARK INTER:                  -6.031
REMARK INTRA:                  -0.170
REMARK UNBOUND:                -0.170
REMARK SMILES CC=Cc1ccc(O)c(OC)c1
REMARK SMILES IDX 4 1 12 2 9 3 7 4 6 5 5 6 3 7 1 8 2 9 10 10 11 11 8 12
REMARK H PARENT 8 13
REMARK Flexibility Score: inf
ROOT
ATOM      1  C   UNL     1     -10.621  -1.677  -9.153  1.00  0.00    -0.022 A 
ATOM      2  C   UNL     1     -10.628  -2.468  -7.993  1.00  0.00     0.058 A 
ATOM      3  C   UNL     1     -10.179  -3.804  -8.025  1.00  0.00     0.161 A 
ATOM      4  C   UNL     1      -9.711  -4.341  -9.237  1.00  0.00     0.157 A 
ATOM      5  C   UNL     1      -9.688  -3.551 -10.389  1.00  0.00     0.051 A 
ATOM      6  C   UNL     1     -10.133  -2.230 -10.352  1.00  0.00     0.012 A 
ENDROOT
BRANCH   1   7
ATOM      7  C   UNL     1     -11.096  -0.273  -9.058  1.00  0.00     0.003 C 
ATOM      8  C   UNL     1     -12.658   1.594  -9.441  1.00  0.00     0.035 C 
ATOM      9  C   UNL     1     -12.242   0.166  -9.593  1.00  0.00    -0.030 C 
ENDBRANCH   1   7
BRANCH   3  10
ATOM     10  O   UNL     1     -10.186  -4.619  -6.881  1.00  0.00    -0.493 OA
ATOM     11  C   UNL     1     -11.328  -5.313  -6.390  1.00  0.00     0.278 C 
ENDBRANCH   3  10
BRANCH   4  12
ATOM     12  O   UNL     1      -9.258  -5.658  -9.314  1.00  0.00    -0.504 OA
ATOM     13  H   UNL     1      -9.408  -6.327  -8.567  1.00  0.00     0.293 HD
ENDBRANCH   4  12
TORSDOF 3
ENDMDL
MODEL 2
REMARK VINA RESULT:    -5.170     16.540     17.639
REMARK INTER + INTRA:          -6.095
REMARK INTER:                  -5.925
REMARK INTRA:                  -0.170
REMARK UNBOUND:                -0.170
REMARK SMILES CC=Cc1ccc(O)c(OC)c1
REMARK SMILES IDX 4 1 12 2 9 3 7 4 6 5 5 6 3 7 1 8 2 9 10 10 11 11 8 12
REMARK H PARENT 8 13
REMARK Flexibility Score: inf
ROOT
ATOM      1  C   UNL     1      -9.662   6.283   6.784  1.00  0.00    -0.022 A 
ATOM      2  C   UNL     1     -10.494   5.877   5.728  1.00  0.00     0.058 A 
ATOM      3  C   UNL     1     -11.422   4.830   5.898  1.00  0.00     0.161 A 
ATOM      4  C   UNL     1     -11.517   4.194   7.148  1.00  0.00     0.157 A 
ATOM      5  C   UNL     1     -10.701   4.606   8.205  1.00  0.00     0.051 A 
ATOM      6  C   UNL     1      -9.784   5.643   8.032  1.00  0.00     0.012 A 
ENDROOT
BRANCH   1   7
ATOM      7  C   UNL     1      -8.710   7.398   6.550  1.00  0.00     0.003 C 
ATOM      8  C   UNL     1      -7.747   9.299   5.313  1.00  0.00     0.035 C 
ATOM      9  C   UNL     1      -8.733   8.185   5.468  1.00  0.00    -0.030 C 
ENDBRANCH   1   7
BRANCH   3  10
ATOM     10  O   UNL     1     -12.258   4.400   4.855  1.00  0.00    -0.493 OA
ATOM     11  C   UNL     1     -13.288   5.188   4.266  1.00  0.00     0.278 C 
ENDBRANCH   3  10
BRANCH   4  12
ATOM     12  O   UNL     1     -12.421   3.153   7.361  1.00  0.00    -0.504 OA
ATOM     13  H   UNL     1     -12.158   2.180   7.263  1.00  0.00     0.293 HD
ENDBRANCH   4  12
TORSDOF 3
ENDMDL
MODEL 3
REMARK VINA RESULT:    -5.153      2.834      4.558
REMARK INTER + INTRA:          -6.076
REMARK INTER:                  -5.916
REMARK INTRA:                  -0.159
REMARK UNBOUND:                -0.170
REMARK SMILES CC=Cc1ccc(O)c(OC)c1
REMARK SMILES IDX 4 1 12 2 9 3 7 4 6 5 5 6 3 7 1 8 2 9 10 10 11 11 8 12
REMARK H PARENT 8 13
REMARK Flexibility Score: inf
ROOT
ATOM      1  C   UNL     1     -13.523   1.035  -9.717  1.00  0.00    -0.022 A 
ATOM      2  C   UNL     1     -12.497   0.076  -9.729  1.00  0.00     0.058 A 
ATOM      3  C   UNL     1     -12.773  -1.276 -10.018  1.00  0.00     0.161 A 
ATOM      4  C   UNL     1     -14.094  -1.660 -10.307  1.00  0.00     0.157 A 
ATOM      5  C   UNL     1     -15.114  -0.706 -10.311  1.00  0.00     0.051 A 
ATOM      6  C   UNL     1     -14.836   0.631 -10.025  1.00  0.00     0.012 A 
ENDROOT
BRANCH   1   7
ATOM      7  C   UNL     1     -13.173   2.446  -9.416  1.00  0.00     0.003 C 
ATOM      8  C   UNL     1     -13.493   4.664  -8.392  1.00  0.00     0.035 C 
ATOM      9  C   UNL     1     -13.923   3.257  -8.661  1.00  0.00    -0.030 C 
ENDBRANCH   1   7
BRANCH   3  10
ATOM     10  O   UNL     1     -11.766  -2.255 -10.026  1.00  0.00    -0.493 OA
ATOM     11  C   UNL     1     -10.602  -2.225  -9.206  1.00  0.00     0.278 C 
ENDBRANCH   3  10
BRANCH   4  12
ATOM     12  O   UNL     1     -14.411  -2.987 -10.597  1.00  0.00    -0.504 OA
ATOM     13  H   UNL     1     -15.133  -3.237 -11.263  1.00  0.00     0.293 HD
ENDBRANCH   4  12
TORSDOF 3
ENDMDL
MODEL 4
REMARK VINA RESULT:    -5.053      1.899      4.734
REMARK INTER + INTRA:          -5.962
REMARK INTER:                  -5.896
REMARK INTRA:                  -0.066
REMARK UNBOUND:                -0.170
REMARK SMILES CC=Cc1ccc(O)c(OC)c1
REMARK SMILES IDX 4 1 12 2 9 3 7 4 6 5 5 6 3 7 1 8 2 9 10 10 11 11 8 12
REMARK H PARENT 8 13
REMARK Flexibility Score: inf
ROOT
ATOM      1  C   UNL     1     -10.561  -4.377  -7.644  1.00  0.00    -0.022 A 
ATOM      2  C   UNL     1     -10.798  -2.994  -7.698  1.00  0.00     0.058 A 
ATOM      3  C   UNL     1     -10.468  -2.247  -8.847  1.00  0.00     0.161 A 
ATOM      4  C   UNL     1      -9.904  -2.905  -9.953  1.00  0.00     0.157 A 
ATOM      5  C   UNL     1      -9.681  -4.283  -9.909  1.00  0.00     0.051 A 
ATOM      6  C   UNL     1     -10.009  -5.018  -8.769  1.00  0.00     0.012 A 
ENDROOT
BRANCH   1   7
ATOM      7  C   UNL     1     -10.937  -5.115  -6.411  1.00  0.00     0.003 C 
ATOM      8  C   UNL     1     -12.079  -6.868  -5.110  1.00  0.00     0.035 C 
ATOM      9  C   UNL     1     -11.760  -6.170  -6.394  1.00  0.00    -0.030 C 
ENDBRANCH   1   7
BRANCH   3  10
ATOM     10  O   UNL     1     -10.687  -0.862  -8.922  1.00  0.00    -0.493 OA
ATOM     11  C   UNL     1     -11.740  -0.248  -9.657  1.00  0.00     0.278 C 
ENDBRANCH   3  10
BRANCH   4  12
ATOM     12  O   UNL     1      -9.562  -2.205 -11.110  1.00  0.00    -0.504 OA
ATOM     13  H   UNL     1      -9.528  -2.648 -12.021  1.00  0.00     0.293 HD
ENDBRANCH   4  12
TORSDOF 3
ENDMDL
MODEL 5
REMARK VINA RESULT:    -4.925      2.216      3.680
REMARK INTER + INTRA:          -5.815
REMARK INTER:                  -5.653
REMARK INTRA:                  -0.161
REMARK UNBOUND:                -0.170
REMARK SMILES CC=Cc1ccc(O)c(OC)c1
REMARK SMILES IDX 4 1 12 2 9 3 7 4 6 5 5 6 3 7 1 8 2 9 10 10 11 11 8 12
REMARK H PARENT 8 13
REMARK Flexibility Score: inf
ROOT
ATOM      1  C   UNL     1     -10.774  -4.195  -8.015  1.00  0.00    -0.022 A 
ATOM      2  C   UNL     1     -11.031  -5.275  -8.875  1.00  0.00     0.058 A 
ATOM      3  C   UNL     1     -11.264  -6.568  -8.363  1.00  0.00     0.161 A 
ATOM      4  C   UNL     1     -11.248  -6.769  -6.972  1.00  0.00     0.157 A 
ATOM      5  C   UNL     1     -11.008  -5.693  -6.114  1.00  0.00     0.051 A 
ATOM      6  C   UNL     1     -10.777  -4.415  -6.625  1.00  0.00     0.012 A 
ENDROOT
BRANCH   1   7
ATOM      7  C   UNL     1     -10.544  -2.854  -8.609  1.00  0.00     0.003 C 
ATOM      8  C   UNL     1     -10.987  -0.978 -10.144  1.00  0.00     0.035 C 
ATOM      9  C   UNL     1     -11.273  -2.345  -9.609  1.00  0.00    -0.030 C 
ENDBRANCH   1   7
BRANCH   3  10
ATOM     10  O   UNL     1     -11.514  -7.666  -9.203  1.00  0.00    -0.493 OA
ATOM     11  C   UNL     1     -12.805  -8.057  -9.660  1.00  0.00     0.278 C 
ENDBRANCH   3  10
BRANCH   4  12
ATOM     12  O   UNL     1     -11.474  -8.031  -6.423  1.00  0.00    -0.504 OA
ATOM     13  H   UNL     1     -11.932  -8.158  -5.529  1.00  0.00     0.293 HD
ENDBRANCH   4  12
TORSDOF 3
ENDMDL
MODEL 6
REMARK VINA RESULT:    -4.861      2.465      4.791
REMARK INTER + INTRA:          -5.741
REMARK INTER:                  -5.568
REMARK INTRA:                  -0.173
REMARK UNBOUND:                -0.170
REMARK SMILES CC=Cc1ccc(O)c(OC)c1
REMARK SMILES IDX 4 1 12 2 9 3 7 4 6 5 5 6 3 7 1 8 2 9 10 10 11 11 8 12
REMARK H PARENT 8 13
REMARK Flexibility Score: inf
ROOT
ATOM      1  C   UNL     1     -11.810  -5.166  -8.452  1.00  0.00    -0.022 A 
ATOM      2  C   UNL     1     -11.677  -3.983  -9.197  1.00  0.00     0.058 A 
ATOM      3  C   UNL     1     -10.472  -3.251  -9.185  1.00  0.00     0.161 A 
ATOM      4  C   UNL     1      -9.390  -3.724  -8.422  1.00  0.00     0.157 A 
ATOM      5  C   UNL     1      -9.514  -4.909  -7.693  1.00  0.00     0.051 A 
ATOM      6  C   UNL     1     -10.709  -5.630  -7.708  1.00  0.00     0.012 A 
ENDROOT
BRANCH   1   7
ATOM      7  C   UNL     1     -13.099  -5.900  -8.510  1.00  0.00     0.003 C 
ATOM      8  C   UNL     1     -15.041  -7.095  -7.575  1.00  0.00     0.035 C 
ATOM      9  C   UNL     1     -13.736  -6.377  -7.434  1.00  0.00    -0.030 C 
ENDBRANCH   1   7
BRANCH   3  10
ATOM     10  O   UNL     1     -10.317  -2.060  -9.913  1.00  0.00    -0.493 OA
ATOM     11  C   UNL     1     -10.984  -0.838  -9.614  1.00  0.00     0.278 C 
ENDBRANCH   3  10
BRANCH   4  12
ATOM     12  O   UNL     1      -8.180  -3.032  -8.381  1.00  0.00    -0.504 OA
ATOM     13  H   UNL     1      -7.472  -3.220  -7.680  1.00  0.00     0.293 HD
ENDBRANCH   4  12
TORSDOF 3
ENDMDL
MODEL 7
REMARK VINA RESULT:    -4.595     17.081     18.253
REMARK INTER + INTRA:          -5.436
REMARK INTER:                  -5.284
REMARK INTRA:                  -0.152
REMARK UNBOUND:                -0.170
REMARK SMILES CC=Cc1ccc(O)c(OC)c1
REMARK SMILES IDX 4 1 12 2 9 3 7 4 6 5 5 6 3 7 1 8 2 9 10 10 11 11 8 12
REMARK H PARENT 8 13
REMARK Flexibility Score: inf
ROOT
ATOM      1  C   UNL     1     -12.862   5.781   8.198  1.00  0.00    -0.022 A 
ATOM      2  C   UNL     1     -12.992   5.708   6.801  1.00  0.00     0.058 A 
ATOM      3  C   UNL     1     -12.520   4.588   6.088  1.00  0.00     0.161 A 
ATOM      4  C   UNL     1     -11.923   3.528   6.792  1.00  0.00     0.157 A 
ATOM      5  C   UNL     1     -11.807   3.590   8.183  1.00  0.00     0.051 A 
ATOM      6  C   UNL     1     -12.275   4.701   8.884  1.00  0.00     0.012 A 
ENDROOT
BRANCH   1   7
ATOM      7  C   UNL     1     -13.385   6.981   8.898  1.00  0.00     0.003 C 
ATOM      8  C   UNL     1     -14.222   9.293   9.060  1.00  0.00     0.035 C 
ATOM      9  C   UNL     1     -13.685   8.132   8.285  1.00  0.00    -0.030 C 
ENDBRANCH   1   7
BRANCH   3  10
ATOM     10  O   UNL     1     -12.629   4.496   4.690  1.00  0.00    -0.493 OA
ATOM     11  C   UNL     1     -13.529   5.264   3.897  1.00  0.00     0.278 C 
ENDBRANCH   3  10
BRANCH   4  12
ATOM     12  O   UNL     1     -11.443   2.400   6.126  1.00  0.00    -0.504 OA
ATOM     13  H   UNL     1     -10.625   2.432   5.528  1.00  0.00     0.293 HD
ENDBRANCH   4  12
TORSDOF 3
ENDMDL
