MODEL 1
REMARK VINA RESULT:    -3.585      0.000      0.000
REMARK INTER + INTRA:          -3.585
REMARK INTER:                  -3.585
REMARK INTRA:                   0.000
REMARK UNBOUND:                 0.000
REMARK SMILES CC1=CC(=O)[C@H]2C[C@@H]1C2(C)C
REMARK SMILES IDX 1 1 2 2 3 3 4 4 5 5 6 6 7 7 8 8 9 9 10 10 11 11
REMARK H PARENT
REMARK Flexibility Score: inf
ROOT
ATOM      1  C   UNL     1      26.622 -19.598   1.114  1.00  0.00     0.040 C 
ATOM      2  C   UNL     1      25.392 -18.746   1.160  1.00  0.00    -0.066 C 
ATOM      3  C   UNL     1      24.908 -18.107   0.058  1.00  0.00     0.047 C 
ATOM      4  C   UNL     1      23.668 -17.289   0.259  1.00  0.00     0.159 C 
ATOM      5  O   UNL     1      23.148 -16.618  -0.670  1.00  0.00    -0.295 OA
ATOM      6  C   UNL     1      23.080 -17.326   1.670  1.00  0.00     0.067 C 
ATOM      7  C   UNL     1      23.107 -18.823   2.050  1.00  0.00     0.021 C 
ATOM      8  C   UNL     1      24.580 -18.601   2.463  1.00  0.00     0.022 C 
ATOM      9  C   UNL     1      24.231 -17.102   2.692  1.00  0.00    -0.019 C 
ATOM     10  C   UNL     1      23.704 -16.831   4.124  1.00  0.00     0.012 C 
ATOM     11  C   UNL     1      25.315 -16.037   2.361  1.00  0.00     0.012 C 
ENDROOT
TORSDOF 0
ENDMDL
MODEL 2
REMARK VINA RESULT:    -3.557      1.648      2.197
REMARK INTER + INTRA:          -3.557
REMARK INTER:                  -3.557
REMARK INTRA:                   0.000
REMARK UNBOUND:                 0.000
REMARK SMILES CC1=CC(=O)[C@H]2C[C@@H]1C2(C)C
REMARK SMILES IDX 1 1 2 2 3 3 4 4 5 5 6 6 7 7 8 8 9 9 10 10 11 11
REMARK H PARENT
REMARK Flexibility Score: inf
ROOT
ATOM      1  C   UNL     1      24.953 -20.356   1.501  1.00  0.00     0.040 C 
ATOM      2  C   UNL     1      24.920 -18.879   1.266  1.00  0.00    -0.066 C 
ATOM      3  C   UNL     1      26.056 -18.140   1.125  1.00  0.00     0.047 C 
ATOM      4  C   UNL     1      25.866 -16.671   0.895  1.00  0.00     0.159 C 
ATOM      5  O   UNL     1      26.835 -15.875   0.793  1.00  0.00    -0.295 OA
ATOM      6  C   UNL     1      24.412 -16.207   0.794  1.00  0.00     0.067 C 
ATOM      7  C   UNL     1      23.750 -17.244  -0.140  1.00  0.00     0.021 C 
ATOM      8  C   UNL     1      23.579 -18.133   1.113  1.00  0.00     0.022 C 
ATOM      9  C   UNL     1      23.609 -16.834   1.969  1.00  0.00    -0.019 C 
ATOM     10  C   UNL     1      22.204 -16.200   2.129  1.00  0.00     0.012 C 
ATOM     11  C   UNL     1      24.279 -16.894   3.372  1.00  0.00     0.012 C 
ENDROOT
TORSDOF 0
ENDMDL
MODEL 3
REMARK VINA RESULT:    -3.531      1.694      3.172
REMARK INTER + INTRA:          -3.531
REMARK INTER:                  -3.531
REMARK INTRA:                   0.000
REMARK UNBOUND:                 0.000
REMARK SMILES CC1=CC(=O)[C@H]2C[C@@H]1C2(C)C
REMARK SMILES IDX 1 1 2 2 3 3 4 4 5 5 6 6 7 7 8 8 9 9 10 10 11 11
REMARK H PARENT
REMARK Flexibility Score: inf
ROOT
ATOM      1  C   UNL     1      22.906 -16.310  -0.800  1.00  0.00     0.040 C 
ATOM      2  C   UNL     1      23.425 -17.057   0.388  1.00  0.00    -0.066 C 
ATOM      3  C   UNL     1      22.826 -16.985   1.610  1.00  0.00     0.047 C 
ATOM      4  C   UNL     1      23.460 -17.788   2.706  1.00  0.00     0.159 C 
ATOM      5  O   UNL     1      23.028 -17.771   3.888  1.00  0.00    -0.295 OA
ATOM      6  C   UNL     1      24.667 -18.629   2.288  1.00  0.00     0.067 C 
ATOM      7  C   UNL     1      24.218 -19.303   0.973  1.00  0.00     0.021 C 
ATOM      8  C   UNL     1      24.640 -17.998   0.261  1.00  0.00     0.022 C 
ATOM      9  C   UNL     1      25.621 -17.738   1.441  1.00  0.00    -0.019 C 
ATOM     10  C   UNL     1      27.003 -18.401   1.216  1.00  0.00     0.012 C 
ATOM     11  C   UNL     1      25.853 -16.268   1.893  1.00  0.00     0.012 C 
ENDROOT
TORSDOF 0
ENDMDL
MODEL 4
REMARK VINA RESULT:    -3.195      1.876      3.173
REMARK INTER + INTRA:          -3.195
REMARK INTER:                  -3.195
REMARK INTRA:                   0.000
REMARK UNBOUND:                 0.000
REMARK SMILES CC1=CC(=O)[C@H]2C[C@@H]1C2(C)C
REMARK SMILES IDX 1 1 2 2 3 3 4 4 5 5 6 6 7 7 8 8 9 9 10 10 11 11
REMARK H PARENT
REMARK Flexibility Score: inf
ROOT
ATOM      1  C   UNL     1      23.375 -17.604   4.091  1.00  0.00     0.040 C 
ATOM      2  C   UNL     1      23.943 -17.996   2.763  1.00  0.00    -0.066 C 
ATOM      3  C   UNL     1      24.346 -19.269   2.493  1.00  0.00     0.047 C 
ATOM      4  C   UNL     1      24.895 -19.512   1.120  1.00  0.00     0.159 C 
ATOM      5  O   UNL     1      25.340 -20.633   0.762  1.00  0.00    -0.295 OA
ATOM      6  C   UNL     1      24.877 -18.303   0.184  1.00  0.00     0.067 C 
ATOM      7  C   UNL     1      23.468 -17.700   0.375  1.00  0.00     0.021 C 
ATOM      8  C   UNL     1      24.042 -16.974   1.613  1.00  0.00     0.022 C 
ATOM      9  C   UNL     1      25.446 -17.075   0.951  1.00  0.00    -0.019 C 
ATOM     10  C   UNL     1      25.743 -15.878   0.012  1.00  0.00     0.012 C 
ATOM     11  C   UNL     1      26.680 -17.288   1.874  1.00  0.00     0.012 C 
ENDROOT
TORSDOF 0
ENDMDL
MODEL 5
REMARK VINA RESULT:    -3.175      0.979      3.168
REMARK INTER + INTRA:          -3.175
REMARK INTER:                  -3.175
REMARK INTRA:                   0.000
REMARK UNBOUND:                 0.000
REMARK SMILES CC1=CC(=O)[C@H]2C[C@@H]1C2(C)C
REMARK SMILES IDX 1 1 2 2 3 3 4 4 5 5 6 6 7 7 8 8 9 9 10 10 11 11
REMARK H PARENT
REMARK Flexibility Score: inf
ROOT
ATOM      1  C   UNL     1      22.808 -16.536   3.959  1.00  0.00     0.040 C 
ATOM      2  C   UNL     1      23.400 -16.665   2.591  1.00  0.00    -0.066 C 
ATOM      3  C   UNL     1      22.661 -16.489   1.460  1.00  0.00     0.047 C 
ATOM      4  C   UNL     1      23.391 -16.651   0.161  1.00  0.00     0.159 C 
ATOM      5  O   UNL     1      22.812 -16.556  -0.953  1.00  0.00    -0.295 OA
ATOM      6  C   UNL     1      24.888 -16.941   0.282  1.00  0.00     0.067 C 
ATOM      7  C   UNL     1      25.381 -15.933   1.344  1.00  0.00     0.021 C 
ATOM      8  C   UNL     1      24.904 -16.951   2.405  1.00  0.00     0.022 C 
ATOM      9  C   UNL     1      25.090 -18.066   1.336  1.00  0.00    -0.019 C 
ATOM     10  C   UNL     1      26.531 -18.636   1.323  1.00  0.00     0.012 C 
ATOM     11  C   UNL     1      24.094 -19.261   1.341  1.00  0.00     0.012 C 
ENDROOT
TORSDOF 0
ENDMDL
MODEL 6
REMARK VINA RESULT:    -3.079      1.755      2.738
REMARK INTER + INTRA:          -3.079
REMARK INTER:                  -3.079
REMARK INTRA:                   0.000
REMARK UNBOUND:                 0.000
REMARK SMILES CC1=CC(=O)[C@H]2C[C@@H]1C2(C)C
REMARK SMILES IDX 1 1 2 2 3 3 4 4 5 5 6 6 7 7 8 8 9 9 10 10 11 11
REMARK H PARENT
REMARK Flexibility Score: inf
ROOT
ATOM      1  C   UNL     1      27.071 -15.956   0.750  1.00  0.00     0.040 C 
ATOM      2  C   UNL     1      25.898 -16.777   1.185  1.00  0.00    -0.066 C 
ATOM      3  C   UNL     1      25.891 -18.137   1.098  1.00  0.00     0.047 C 
ATOM      4  C   UNL     1      24.645 -18.824   1.572  1.00  0.00     0.159 C 
ATOM      5  O   UNL     1      24.498 -20.072   1.504  1.00  0.00    -0.295 OA
ATOM      6  C   UNL     1      23.566 -17.902   2.142  1.00  0.00     0.067 C 
ATOM      7  C   UNL     1      24.342 -16.945   3.074  1.00  0.00     0.021 C 
ATOM      8  C   UNL     1      24.656 -16.111   1.811  1.00  0.00     0.022 C 
ATOM      9  C   UNL     1      23.370 -16.706   1.168  1.00  0.00    -0.019 C 
ATOM     10  C   UNL     1      22.105 -15.875   1.500  1.00  0.00     0.012 C 
ATOM     11  C   UNL     1      23.378 -16.991  -0.361  1.00  0.00     0.012 C 
ENDROOT
TORSDOF 0
ENDMDL
MODEL 7
REMARK VINA RESULT:    -3.053      1.756      3.021
REMARK INTER + INTRA:          -3.053
REMARK INTER:                  -3.053
REMARK INTRA:                   0.000
REMARK UNBOUND:                 0.000
REMARK SMILES CC1=CC(=O)[C@H]2C[C@@H]1C2(C)C
REMARK SMILES IDX 1 1 2 2 3 3 4 4 5 5 6 6 7 7 8 8 9 9 10 10 11 11
REMARK H PARENT
REMARK Flexibility Score: inf
ROOT
ATOM      1  C   UNL     1      22.958 -16.627  -1.000  1.00  0.00     0.040 C 
ATOM      2  C   UNL     1      23.723 -16.636   0.286  1.00  0.00    -0.066 C 
ATOM      3  C   UNL     1      24.998 -16.164   0.376  1.00  0.00     0.047 C 
ATOM      4  C   UNL     1      25.637 -16.239   1.730  1.00  0.00     0.159 C 
ATOM      5  O   UNL     1      26.825 -15.875   1.934  1.00  0.00    -0.295 OA
ATOM      6  C   UNL     1      24.746 -16.787   2.845  1.00  0.00     0.067 C 
ATOM      7  C   UNL     1      23.401 -16.055   2.647  1.00  0.00     0.021 C 
ATOM      8  C   UNL     1      23.069 -17.134   1.591  1.00  0.00     0.022 C 
ATOM      9  C   UNL     1      24.054 -18.083   2.334  1.00  0.00    -0.019 C 
ATOM     10  C   UNL     1      23.364 -18.873   3.474  1.00  0.00     0.012 C 
ATOM     11  C   UNL     1      24.891 -19.082   1.485  1.00  0.00     0.012 C 
ENDROOT
TORSDOF 0
ENDMDL
MODEL 8
REMARK VINA RESULT:    -2.874      1.253      1.784
REMARK INTER + INTRA:          -2.874
REMARK INTER:                  -2.874
REMARK INTRA:                   0.000
REMARK UNBOUND:                 0.000
REMARK SMILES CC1=CC(=O)[C@H]2C[C@@H]1C2(C)C
REMARK SMILES IDX 1 1 2 2 3 3 4 4 5 5 6 6 7 7 8 8 9 9 10 10 11 11
REMARK H PARENT
REMARK Flexibility Score: inf
ROOT
ATOM      1  C   UNL     1      27.125 -16.167   1.225  1.00  0.00     0.040 C 
ATOM      2  C   UNL     1      25.743 -16.705   1.025  1.00  0.00    -0.066 C 
ATOM      3  C   UNL     1      24.887 -16.183   0.102  1.00  0.00     0.047 C 
ATOM      4  C   UNL     1      23.535 -16.825   0.015  1.00  0.00     0.159 C 
ATOM      5  O   UNL     1      22.641 -16.407  -0.766  1.00  0.00    -0.295 OA
ATOM      6  C   UNL     1      23.318 -18.022   0.942  1.00  0.00     0.067 C 
ATOM      7  C   UNL     1      24.603 -18.863   0.778  1.00  0.00     0.021 C 
ATOM      8  C   UNL     1      25.246 -17.926   1.826  1.00  0.00     0.022 C 
ATOM      9  C   UNL     1      23.814 -17.642   2.366  1.00  0.00    -0.019 C 
ATOM     10  C   UNL     1      23.375 -18.669   3.439  1.00  0.00     0.012 C 
ATOM     11  C   UNL     1      23.501 -16.215   2.901  1.00  0.00     0.012 C 
ENDROOT
TORSDOF 0
ENDMDL
