MODEL 1
REMARK VINA RESULT:    -4.779      0.000      0.000
REMARK INTER + INTRA:         -17.248
REMARK INTER:                 -12.044
REMARK INTRA:                  -5.204
REMARK UNBOUND:                -5.204
REMARK SMILES CCCCCCCCCCCCCCCCCCCCCCCCCCCC(=O)[O-]
REMARK SMILES IDX 15 1 16 2 17 3 18 4 19 5 20 6 21 7 22 8 23 9 24 10 25 11
REMARK SMILES IDX 26 12 27 13 28 14 29 15 30 16 14 17 13 18 12 19 11 20 10 21
REMARK SMILES IDX 9 22 8 23 7 24 6 25 5 26 4 27 3 28 2 29 1 30
REMARK H PARENT
REMARK Flexibility Score: inf
ROOT
ATOM      1  C   UNL     1      28.210  13.957  -9.031  1.00  0.00     0.000 C 
ENDROOT
BRANCH   1   2
ATOM      2  C   UNL     1      29.147  13.989 -10.251  1.00  0.00     0.000 C 
BRANCH   2   3
ATOM      3  C   UNL     1      28.708  13.017 -11.361  1.00  0.00     0.000 C 
BRANCH   3   4
ATOM      4  C   UNL     1      27.348  12.364 -11.065  1.00  0.00     0.000 C 
BRANCH   4   5
ATOM      5  C   UNL     1      26.191  13.026 -11.829  1.00  0.00     0.000 C 
BRANCH   5   6
ATOM      6  C   UNL     1      26.546  13.193 -13.316  1.00  0.00     0.000 C 
BRANCH   6   7
ATOM      7  C   UNL     1      25.412  13.836 -14.132  1.00  0.00     0.000 C 
BRANCH   7   8
ATOM      8  C   UNL     1      25.782  15.225 -14.669  1.00  0.00     0.000 C 
BRANCH   8   9
ATOM      9  C   UNL     1      24.523  16.069 -14.931  1.00  0.00     0.000 C 
BRANCH   9  10
ATOM     10  C   UNL     1      24.582  16.803 -16.287  1.00  0.00     0.000 C 
BRANCH  10  11
ATOM     11  C   UNL     1      24.726  18.330 -16.164  1.00  0.00     0.000 C 
BRANCH  11  12
ATOM     12  C   UNL     1      26.147  18.769 -15.784  1.00  0.00     0.006 C 
BRANCH  12  13
ATOM     13  C   UNL     1      27.198  17.965 -16.556  1.00  0.00     0.053 C 
BRANCH  13  14
ATOM     14  C   UNL     1      28.537  18.057 -15.892  1.00  0.00     0.041 C 
ATOM     15  O   UNL     1      28.621  18.365 -14.672  1.00  0.00    -0.550 OA
ATOM     16  O   UNL     1      29.696  17.810 -16.620  1.00  0.00    -0.550 OA
ENDBRANCH  13  14
ENDBRANCH  12  13
ENDBRANCH  11  12
ENDBRANCH  10  11
ENDBRANCH   9  10
ENDBRANCH   8   9
ENDBRANCH   7   8
ENDBRANCH   6   7
ENDBRANCH   5   6
ENDBRANCH   4   5
ENDBRANCH   3   4
ENDBRANCH   2   3
ENDBRANCH   1   2
BRANCH   1  17
ATOM     17  C   UNL     1      27.558  15.320  -8.750  1.00  0.00     0.000 C 
BRANCH  17  18
ATOM     18  C   UNL     1      26.065  15.302  -9.109  1.00  0.00     0.000 C 
BRANCH  18  19
ATOM     19  C   UNL     1      25.687  16.405 -10.112  1.00  0.00     0.000 C 
BRANCH  19  20
ATOM     20  C   UNL     1      26.733  16.567 -11.230  1.00  0.00     0.000 C 
BRANCH  20  21
ATOM     21  C   UNL     1      26.451  17.781 -12.129  1.00  0.00     0.000 C 
BRANCH  21  22
ATOM     22  C   UNL     1      25.317  18.672 -11.591  1.00  0.00    -0.000 C 
BRANCH  22  23
ATOM     23  C   UNL     1      24.215  18.935 -12.633  1.00  0.00    -0.000 C 
BRANCH  23  24
ATOM     24  C   UNL     1      22.783  18.976 -12.067  1.00  0.00    -0.000 C 
BRANCH  24  25
ATOM     25  C   UNL     1      22.440  17.750 -11.207  1.00  0.00    -0.000 C 
BRANCH  25  26
ATOM     26  C   UNL     1      22.226  16.508 -12.085  1.00  0.00    -0.000 C 
BRANCH  26  27
ATOM     27  C   UNL     1      22.906  15.250 -11.516  1.00  0.00    -0.000 C 
BRANCH  27  28
ATOM     28  C   UNL     1      22.277  14.695 -10.221  1.00  0.00    -0.000 C 
BRANCH  28  29
ATOM     29  C   UNL     1      22.576  13.213  -9.937  1.00  0.00    -0.003 C 
ATOM     30  C   UNL     1      22.573  12.351 -11.199  1.00  0.00     0.004 C 
ENDBRANCH  28  29
ENDBRANCH  27  28
ENDBRANCH  26  27
ENDBRANCH  25  26
ENDBRANCH  24  25
ENDBRANCH  23  24
ENDBRANCH  22  23
ENDBRANCH  21  22
ENDBRANCH  20  21
ENDBRANCH  19  20
ENDBRANCH  18  19
ENDBRANCH  17  18
ENDBRANCH   1  17
TORSDOF 26
ENDMDL
MODEL 2
REMARK VINA RESULT:    -4.769      1.609      4.596
REMARK INTER + INTRA:         -17.223
REMARK INTER:                 -12.403
REMARK INTRA:                  -4.820
REMARK UNBOUND:                -5.204
REMARK SMILES CCCCCCCCCCCCCCCCCCCCCCCCCCCC(=O)[O-]
REMARK SMILES IDX 15 1 16 2 17 3 18 4 19 5 20 6 21 7 22 8 23 9 24 10 25 11
REMARK SMILES IDX 26 12 27 13 28 14 29 15 30 16 14 17 13 18 12 19 11 20 10 21
REMARK SMILES IDX 9 22 8 23 7 24 6 25 5 26 4 27 3 28 2 29 1 30
REMARK H PARENT
REMARK Flexibility Score: inf
ROOT
ATOM      1  C   UNL     1      25.228  15.652 -12.587  1.00  0.00     0.000 C 
ENDROOT
BRANCH   1   2
ATOM      2  C   UNL     1      26.566  16.323 -12.232  1.00  0.00     0.000 C 
BRANCH   2   3
ATOM      3  C   UNL     1      26.551  17.842 -12.479  1.00  0.00     0.000 C 
BRANCH   3   4
ATOM      4  C   UNL     1      25.587  18.580 -11.536  1.00  0.00     0.000 C 
BRANCH   4   5
ATOM      5  C   UNL     1      24.474  19.326 -12.288  1.00  0.00     0.000 C 
BRANCH   5   6
ATOM      6  C   UNL     1      24.797  19.418 -13.788  1.00  0.00     0.000 C 
BRANCH   6   7
ATOM      7  C   UNL     1      23.542  19.582 -14.661  1.00  0.00     0.000 C 
BRANCH   7   8
ATOM      8  C   UNL     1      23.544  18.653 -15.883  1.00  0.00     0.000 C 
BRANCH   8   9
ATOM      9  C   UNL     1      23.453  17.178 -15.456  1.00  0.00     0.000 C 
BRANCH   9  10
ATOM     10  C   UNL     1      24.648  16.346 -15.968  1.00  0.00     0.000 C 
BRANCH  10  11
ATOM     11  C   UNL     1      25.777  17.191 -16.584  1.00  0.00     0.000 C 
BRANCH  11  12
ATOM     12  C   UNL     1      27.125  17.001 -15.874  1.00  0.00     0.006 C 
BRANCH  12  13
ATOM     13  C   UNL     1      28.249  16.743 -16.884  1.00  0.00     0.053 C 
BRANCH  13  14
ATOM     14  C   UNL     1      29.337  17.763 -16.744  1.00  0.00     0.041 C 
ATOM     15  O   UNL     1      29.952  18.179 -17.763  1.00  0.00    -0.550 OA
ATOM     16  O   UNL     1      29.680  18.248 -15.487  1.00  0.00    -0.550 OA
ENDBRANCH  13  14
ENDBRANCH  12  13
ENDBRANCH  11  12
ENDBRANCH  10  11
ENDBRANCH   9  10
ENDBRANCH   8   9
ENDBRANCH   7   8
ENDBRANCH   6   7
ENDBRANCH   5   6
ENDBRANCH   4   5
ENDBRANCH   3   4
ENDBRANCH   2   3
ENDBRANCH   1   2
BRANCH   1  17
ATOM     17  C   UNL     1      25.361  14.133 -12.782  1.00  0.00     0.000 C 
BRANCH  17  18
ATOM     18  C   UNL     1      26.418  13.805 -13.847  1.00  0.00     0.000 C 
BRANCH  18  19
ATOM     19  C   UNL     1      27.488  12.828 -13.332  1.00  0.00     0.000 C 
BRANCH  19  20
ATOM     20  C   UNL     1      27.498  12.721 -11.797  1.00  0.00     0.000 C 
BRANCH  20  21
ATOM     21  C   UNL     1      28.866  13.065 -11.189  1.00  0.00     0.000 C 
BRANCH  21  22
ATOM     22  C   UNL     1      28.874  14.425 -10.468  1.00  0.00    -0.000 C 
BRANCH  22  23
ATOM     23  C   UNL     1      28.332  14.344  -9.030  1.00  0.00    -0.000 C 
BRANCH  23  24
ATOM     24  C   UNL     1      26.966  15.023  -8.811  1.00  0.00    -0.000 C 
BRANCH  24  25
ATOM     25  C   UNL     1      25.780  14.125  -9.190  1.00  0.00    -0.000 C 
BRANCH  25  26
ATOM     26  C   UNL     1      24.446  14.850  -8.955  1.00  0.00    -0.000 C 
BRANCH  26  27
ATOM     27  C   UNL     1      24.564  16.378  -9.094  1.00  0.00    -0.000 C 
BRANCH  27  28
ATOM     28  C   UNL     1      23.279  17.166  -8.764  1.00  0.00    -0.000 C 
BRANCH  28  29
ATOM     29  C   UNL     1      21.974  16.361  -8.888  1.00  0.00    -0.003 C 
ATOM     30  C   UNL     1      20.782  17.052  -8.225  1.00  0.00     0.004 C 
ENDBRANCH  28  29
ENDBRANCH  27  28
ENDBRANCH  26  27
ENDBRANCH  25  26
ENDBRANCH  24  25
ENDBRANCH  23  24
ENDBRANCH  22  23
ENDBRANCH  21  22
ENDBRANCH  20  21
ENDBRANCH  19  20
ENDBRANCH  18  19
ENDBRANCH  17  18
ENDBRANCH   1  17
TORSDOF 26
ENDMDL
MODEL 3
REMARK VINA RESULT:    -4.760      4.061      7.202
REMARK INTER + INTRA:         -17.200
REMARK INTER:                 -12.865
REMARK INTRA:                  -4.335
REMARK UNBOUND:                -5.204
REMARK SMILES CCCCCCCCCCCCCCCCCCCCCCCCCCCC(=O)[O-]
REMARK SMILES IDX 15 1 16 2 17 3 18 4 19 5 20 6 21 7 22 8 23 9 24 10 25 11
REMARK SMILES IDX 26 12 27 13 28 14 29 15 30 16 14 17 13 18 12 19 11 20 10 21
REMARK SMILES IDX 9 22 8 23 7 24 6 25 5 26 4 27 3 28 2 29 1 30
REMARK H PARENT
REMARK Flexibility Score: inf
ROOT
ATOM      1  C   UNL     1      27.814  15.078 -10.336  1.00  0.00     0.000 C 
ENDROOT
BRANCH   1   2
ATOM      2  C   UNL     1      27.090  15.116  -8.980  1.00  0.00     0.000 C 
BRANCH   2   3
ATOM      3  C   UNL     1      25.588  15.428  -9.118  1.00  0.00     0.000 C 
BRANCH   3   4
ATOM      4  C   UNL     1      24.727  14.156  -9.172  1.00  0.00     0.000 C 
BRANCH   4   5
ATOM      5  C   UNL     1      23.886  14.061 -10.454  1.00  0.00     0.000 C 
BRANCH   5   6
ATOM      6  C   UNL     1      23.676  15.453 -11.072  1.00  0.00     0.000 C 
BRANCH   6   7
ATOM      7  C   UNL     1      22.243  15.978 -10.889  1.00  0.00     0.000 C 
BRANCH   7   8
ATOM      8  C   UNL     1      22.199  17.366 -10.235  1.00  0.00     0.000 C 
BRANCH   8   9
ATOM      9  C   UNL     1      22.489  17.276  -8.727  1.00  0.00     0.000 C 
BRANCH   9  10
ATOM     10  C   UNL     1      21.266  16.782  -7.925  1.00  0.00     0.000 C 
BRANCH  10  11
ATOM     11  C   UNL     1      20.316  17.907  -7.481  1.00  0.00     0.000 C 
BRANCH  11  12
ATOM     12  C   UNL     1      19.675  17.646  -6.111  1.00  0.00     0.006 C 
BRANCH  12  13
ATOM     13  C   UNL     1      20.258  18.578  -5.042  1.00  0.00     0.053 C 
BRANCH  13  14
ATOM     14  C   UNL     1      20.205  20.006  -5.491  1.00  0.00     0.041 C 
ATOM     15  O   UNL     1      21.270  20.657  -5.666  1.00  0.00    -0.550 OA
ATOM     16  O   UNL     1      18.978  20.623  -5.710  1.00  0.00    -0.550 OA
ENDBRANCH  13  14
ENDBRANCH  12  13
ENDBRANCH  11  12
ENDBRANCH  10  11
ENDBRANCH   9  10
ENDBRANCH   8   9
ENDBRANCH   7   8
ENDBRANCH   6   7
ENDBRANCH   5   6
ENDBRANCH   4   5
ENDBRANCH   3   4
ENDBRANCH   2   3
ENDBRANCH   1   2
BRANCH   1  17
ATOM     17  C   UNL     1      29.016  14.119 -10.338  1.00  0.00     0.000 C 
BRANCH  17  18
ATOM     18  C   UNL     1      28.827  13.001 -11.375  1.00  0.00     0.000 C 
BRANCH  18  19
ATOM     19  C   UNL     1      27.360  12.842 -11.807  1.00  0.00     0.000 C 
BRANCH  19  20
ATOM     20  C   UNL     1      27.187  12.900 -13.336  1.00  0.00     0.000 C 
BRANCH  20  21
ATOM     21  C   UNL     1      25.861  13.554 -13.755  1.00  0.00     0.000 C 
BRANCH  21  22
ATOM     22  C   UNL     1      25.999  15.063 -14.024  1.00  0.00    -0.000 C 
BRANCH  22  23
ATOM     23  C   UNL     1      24.685  15.710 -14.498  1.00  0.00    -0.000 C 
BRANCH  23  24
ATOM     24  C   UNL     1      24.840  16.734 -15.638  1.00  0.00    -0.000 C 
BRANCH  24  25
ATOM     25  C   UNL     1      23.984  17.993 -15.436  1.00  0.00    -0.000 C 
BRANCH  25  26
ATOM     26  C   UNL     1      24.691  18.994 -14.510  1.00  0.00    -0.000 C 
BRANCH  26  27
ATOM     27  C   UNL     1      24.205  18.906 -13.052  1.00  0.00    -0.000 C 
BRANCH  27  28
ATOM     28  C   UNL     1      25.300  19.114 -11.984  1.00  0.00    -0.000 C 
BRANCH  28  29
ATOM     29  C   UNL     1      26.200  17.892 -11.730  1.00  0.00    -0.003 C 
ATOM     30  C   UNL     1      27.574  18.018 -12.389  1.00  0.00     0.004 C 
ENDBRANCH  28  29
ENDBRANCH  27  28
ENDBRANCH  26  27
ENDBRANCH  25  26
ENDBRANCH  24  25
ENDBRANCH  23  24
ENDBRANCH  22  23
ENDBRANCH  21  22
ENDBRANCH  20  21
ENDBRANCH  19  20
ENDBRANCH  18  19
ENDBRANCH  17  18
ENDBRANCH   1  17
TORSDOF 26
ENDMDL
MODEL 4
REMARK VINA RESULT:    -4.746      2.541      5.523
REMARK INTER + INTRA:         -17.163
REMARK INTER:                 -12.280
REMARK INTRA:                  -4.883
REMARK UNBOUND:                -5.204
REMARK SMILES CCCCCCCCCCCCCCCCCCCCCCCCCCCC(=O)[O-]
REMARK SMILES IDX 15 1 16 2 17 3 18 4 19 5 20 6 21 7 22 8 23 9 24 10 25 11
REMARK SMILES IDX 26 12 27 13 28 14 29 15 30 16 14 17 13 18 12 19 11 20 10 21
REMARK SMILES IDX 9 22 8 23 7 24 6 25 5 26 4 27 3 28 2 29 1 30
REMARK H PARENT
REMARK Flexibility Score: inf
ROOT
ATOM      1  C   UNL     1      28.236  15.671 -10.032  1.00  0.00     0.000 C 
ENDROOT
BRANCH   1   2
ATOM      2  C   UNL     1      28.031  16.443 -11.347  1.00  0.00     0.000 C 
BRANCH   2   3
ATOM      3  C   UNL     1      26.568  16.874 -11.559  1.00  0.00     0.000 C 
BRANCH   3   4
ATOM      4  C   UNL     1      25.586  16.061 -10.700  1.00  0.00     0.000 C 
BRANCH   4   5
ATOM      5  C   UNL     1      24.721  16.945  -9.788  1.00  0.00     0.000 C 
BRANCH   5   6
ATOM      6  C   UNL     1      23.699  17.742 -10.613  1.00  0.00     0.000 C 
BRANCH   6   7
ATOM      7  C   UNL     1      22.962  16.877 -11.649  1.00  0.00     0.000 C 
BRANCH   7   8
ATOM      8  C   UNL     1      22.639  17.643 -12.939  1.00  0.00     0.000 C 
BRANCH   8   9
ATOM      9  C   UNL     1      23.663  18.763 -13.187  1.00  0.00     0.000 C 
BRANCH   9  10
ATOM     10  C   UNL     1      23.632  19.272 -14.644  1.00  0.00     0.000 C 
BRANCH  10  11
ATOM     11  C   UNL     1      23.829  20.792 -14.777  1.00  0.00     0.000 C 
BRANCH  11  12
ATOM     12  C   UNL     1      25.075  21.167 -15.592  1.00  0.00     0.006 C 
BRANCH  12  13
ATOM     13  C   UNL     1      25.131  22.677 -15.849  1.00  0.00     0.053 C 
BRANCH  13  14
ATOM     14  C   UNL     1      24.293  23.050 -17.032  1.00  0.00     0.041 C 
ATOM     15  O   UNL     1      24.450  22.458 -18.134  1.00  0.00    -0.550 OA
ATOM     16  O   UNL     1      23.341  24.058 -16.922  1.00  0.00    -0.550 OA
ENDBRANCH  13  14
ENDBRANCH  12  13
ENDBRANCH  11  12
ENDBRANCH  10  11
ENDBRANCH   9  10
ENDBRANCH   8   9
ENDBRANCH   7   8
ENDBRANCH   6   7
ENDBRANCH   5   6
ENDBRANCH   4   5
ENDBRANCH   3   4
ENDBRANCH   2   3
ENDBRANCH   1   2
BRANCH   1  17
ATOM     17  C   UNL     1      29.430  14.704 -10.095  1.00  0.00     0.000 C 
BRANCH  17  18
ATOM     18  C   UNL     1      29.033  13.380 -10.765  1.00  0.00     0.000 C 
BRANCH  18  19
ATOM     19  C   UNL     1      27.635  12.901 -10.338  1.00  0.00     0.000 C 
BRANCH  19  20
ATOM     20  C   UNL     1      26.699  12.673 -11.538  1.00  0.00     0.000 C 
BRANCH  20  21
ATOM     21  C   UNL     1      27.443  12.710 -12.882  1.00  0.00     0.000 C 
BRANCH  21  22
ATOM     22  C   UNL     1      26.529  13.100 -14.059  1.00  0.00    -0.000 C 
BRANCH  22  23
ATOM     23  C   UNL     1      25.272  13.868 -13.613  1.00  0.00    -0.000 C 
BRANCH  23  24
ATOM     24  C   UNL     1      25.027  15.198 -14.350  1.00  0.00    -0.000 C 
BRANCH  24  25
ATOM     25  C   UNL     1      26.131  15.535 -15.364  1.00  0.00    -0.000 C 
BRANCH  25  26
ATOM     26  C   UNL     1      25.661  16.617 -16.347  1.00  0.00    -0.000 C 
BRANCH  26  27
ATOM     27  C   UNL     1      26.592  17.842 -16.379  1.00  0.00    -0.000 C 
BRANCH  27  28
ATOM     28  C   UNL     1      27.241  18.206 -15.027  1.00  0.00    -0.000 C 
BRANCH  28  29
ATOM     29  C   UNL     1      28.774  18.337 -15.056  1.00  0.00    -0.003 C 
ATOM     30  C   UNL     1      29.384  17.897 -16.387  1.00  0.00     0.004 C 
ENDBRANCH  28  29
ENDBRANCH  27  28
ENDBRANCH  26  27
ENDBRANCH  25  26
ENDBRANCH  24  25
ENDBRANCH  23  24
ENDBRANCH  22  23
ENDBRANCH  21  22
ENDBRANCH  20  21
ENDBRANCH  19  20
ENDBRANCH  18  19
ENDBRANCH  17  18
ENDBRANCH   1  17
TORSDOF 26
ENDMDL
MODEL 5
REMARK VINA RESULT:    -4.738      4.408      7.930
REMARK INTER + INTRA:         -17.145
REMARK INTER:                 -13.692
REMARK INTRA:                  -3.453
REMARK UNBOUND:                -5.204
REMARK SMILES CCCCCCCCCCCCCCCCCCCCCCCCCCCC(=O)[O-]
REMARK SMILES IDX 15 1 16 2 17 3 18 4 19 5 20 6 21 7 22 8 23 9 24 10 25 11
REMARK SMILES IDX 26 12 27 13 28 14 29 15 30 16 14 17 13 18 12 19 11 20 10 21
REMARK SMILES IDX 9 22 8 23 7 24 6 25 5 26 4 27 3 28 2 29 1 30
REMARK H PARENT
REMARK Flexibility Score: inf
ROOT
ATOM      1  C   UNL     1      26.602  15.573  -9.555  1.00  0.00     0.000 C 
ENDROOT
BRANCH   1   2
ATOM      2  C   UNL     1      25.108  15.524  -9.194  1.00  0.00     0.000 C 
BRANCH   2   3
ATOM      3  C   UNL     1      24.363  14.381  -9.907  1.00  0.00     0.000 C 
BRANCH   3   4
ATOM      4  C   UNL     1      22.836  14.501  -9.772  1.00  0.00     0.000 C 
BRANCH   4   5
ATOM      5  C   UNL     1      22.412  15.562  -8.744  1.00  0.00     0.000 C 
BRANCH   5   6
ATOM      6  C   UNL     1      21.220  16.380  -9.268  1.00  0.00     0.000 C 
BRANCH   6   7
ATOM      7  C   UNL     1      20.754  17.458  -8.276  1.00  0.00     0.000 C 
BRANCH   7   8
ATOM      8  C   UNL     1      19.311  17.242  -7.799  1.00  0.00     0.000 C 
BRANCH   8   9
ATOM      9  C   UNL     1      19.279  16.729  -6.350  1.00  0.00     0.000 C 
BRANCH   9  10
ATOM     10  C   UNL     1      18.978  17.855  -5.338  1.00  0.00     0.000 C 
BRANCH  10  11
ATOM     11  C   UNL     1      20.218  18.357  -4.578  1.00  0.00     0.000 C 
BRANCH  11  12
ATOM     12  C   UNL     1      20.640  19.775  -4.989  1.00  0.00     0.006 C 
BRANCH  12  13
ATOM     13  C   UNL     1      19.476  20.530  -5.641  1.00  0.00     0.053 C 
BRANCH  13  14
ATOM     14  C   UNL     1      19.930  21.254  -6.871  1.00  0.00     0.041 C 
ATOM     15  O   UNL     1      19.480  20.927  -8.002  1.00  0.00    -0.550 OA
ATOM     16  O   UNL     1      20.856  22.286  -6.770  1.00  0.00    -0.550 OA
ENDBRANCH  13  14
ENDBRANCH  12  13
ENDBRANCH  11  12
ENDBRANCH  10  11
ENDBRANCH   9  10
ENDBRANCH   8   9
ENDBRANCH   7   8
ENDBRANCH   6   7
ENDBRANCH   5   6
ENDBRANCH   4   5
ENDBRANCH   3   4
ENDBRANCH   2   3
ENDBRANCH   1   2
BRANCH   1  17
ATOM     17  C   UNL     1      27.494  14.941  -8.474  1.00  0.00     0.000 C 
BRANCH  17  18
ATOM     18  C   UNL     1      28.283  13.749  -9.037  1.00  0.00     0.000 C 
BRANCH  18  19
ATOM     19  C   UNL     1      29.012  14.093 -10.346  1.00  0.00     0.000 C 
BRANCH  19  20
ATOM     20  C   UNL     1      28.810  13.020 -11.431  1.00  0.00     0.000 C 
BRANCH  20  21
ATOM     21  C   UNL     1      27.356  12.944 -11.923  1.00  0.00     0.000 C 
BRANCH  21  22
ATOM     22  C   UNL     1      27.251  12.804 -13.453  1.00  0.00    -0.000 C 
BRANCH  22  23
ATOM     23  C   UNL     1      25.949  13.397 -14.021  1.00  0.00    -0.000 C 
BRANCH  23  24
ATOM     24  C   UNL     1      26.031  14.885 -14.413  1.00  0.00    -0.000 C 
BRANCH  24  25
ATOM     25  C   UNL     1      25.317  15.810 -13.416  1.00  0.00    -0.000 C 
BRANCH  25  26
ATOM     26  C   UNL     1      25.754  17.269 -13.613  1.00  0.00    -0.000 C 
BRANCH  26  27
ATOM     27  C   UNL     1      26.469  17.851 -12.380  1.00  0.00    -0.000 C 
BRANCH  27  28
ATOM     28  C   UNL     1      25.685  18.946 -11.626  1.00  0.00    -0.000 C 
BRANCH  28  29
ATOM     29  C   UNL     1      24.490  18.438 -10.801  1.00  0.00    -0.003 C 
ATOM     30  C   UNL     1      23.205  18.320 -11.622  1.00  0.00     0.004 C 
ENDBRANCH  28  29
ENDBRANCH  27  28
ENDBRANCH  26  27
ENDBRANCH  25  26
ENDBRANCH  24  25
ENDBRANCH  23  24
ENDBRANCH  22  23
ENDBRANCH  21  22
ENDBRANCH  20  21
ENDBRANCH  19  20
ENDBRANCH  18  19
ENDBRANCH  17  18
ENDBRANCH   1  17
TORSDOF 26
ENDMDL
MODEL 6
REMARK VINA RESULT:    -4.723      3.877      7.057
REMARK INTER + INTRA:         -17.107
REMARK INTER:                 -13.056
REMARK INTRA:                  -4.051
REMARK UNBOUND:                -5.204
REMARK SMILES CCCCCCCCCCCCCCCCCCCCCCCCCCCC(=O)[O-]
REMARK SMILES IDX 15 1 16 2 17 3 18 4 19 5 20 6 21 7 22 8 23 9 24 10 25 11
REMARK SMILES IDX 26 12 27 13 28 14 29 15 30 16 14 17 13 18 12 19 11 20 10 21
REMARK SMILES IDX 9 22 8 23 7 24 6 25 5 26 4 27 3 28 2 29 1 30
REMARK H PARENT
REMARK Flexibility Score: inf
ROOT
ATOM      1  C   UNL     1      28.934  13.153 -11.263  1.00  0.00     0.000 C 
ENDROOT
BRANCH   1   2
ATOM      2  C   UNL     1      29.056  14.316 -10.264  1.00  0.00     0.000 C 
BRANCH   2   3
ATOM      3  C   UNL     1      27.776  15.170 -10.190  1.00  0.00     0.000 C 
BRANCH   3   4
ATOM      4  C   UNL     1      27.111  15.112  -8.805  1.00  0.00     0.000 C 
BRANCH   4   5
ATOM      5  C   UNL     1      25.888  14.182  -8.771  1.00  0.00     0.000 C 
BRANCH   5   6
ATOM      6  C   UNL     1      24.780  14.707  -9.698  1.00  0.00     0.000 C 
BRANCH   6   7
ATOM      7  C   UNL     1      23.939  15.821  -9.053  1.00  0.00     0.000 C 
BRANCH   7   8
ATOM      8  C   UNL     1      22.429  15.590  -9.208  1.00  0.00     0.000 C 
BRANCH   8   9
ATOM      9  C   UNL     1      21.651  16.907  -9.051  1.00  0.00     0.000 C 
BRANCH   9  10
ATOM     10  C   UNL     1      21.093  17.090  -7.623  1.00  0.00     0.000 C 
BRANCH  10  11
ATOM     11  C   UNL     1      21.467  18.434  -6.976  1.00  0.00     0.000 C 
BRANCH  11  12
ATOM     12  C   UNL     1      20.250  19.204  -6.445  1.00  0.00     0.006 C 
BRANCH  12  13
ATOM     13  C   UNL     1      20.663  20.212  -5.366  1.00  0.00     0.053 C 
BRANCH  13  14
ATOM     14  C   UNL     1      21.410  21.363  -5.966  1.00  0.00     0.041 C 
ATOM     15  O   UNL     1      20.853  22.107  -6.818  1.00  0.00    -0.550 OA
ATOM     16  O   UNL     1      22.726  21.610  -5.592  1.00  0.00    -0.550 OA
ENDBRANCH  13  14
ENDBRANCH  12  13
ENDBRANCH  11  12
ENDBRANCH  10  11
ENDBRANCH   9  10
ENDBRANCH   8   9
ENDBRANCH   7   8
ENDBRANCH   6   7
ENDBRANCH   5   6
ENDBRANCH   4   5
ENDBRANCH   3   4
ENDBRANCH   2   3
ENDBRANCH   1   2
BRANCH   1  17
ATOM     17  C   UNL     1      27.495  12.954 -11.766  1.00  0.00     0.000 C 
BRANCH  17  18
ATOM     18  C   UNL     1      27.470  12.721 -13.285  1.00  0.00     0.000 C 
BRANCH  18  19
ATOM     19  C   UNL     1      26.448  13.619 -14.001  1.00  0.00     0.000 C 
BRANCH  19  20
ATOM     20  C   UNL     1      25.373  14.166 -13.044  1.00  0.00     0.000 C 
BRANCH  20  21
ATOM     21  C   UNL     1      25.080  15.656 -13.275  1.00  0.00     0.000 C 
BRANCH  21  22
ATOM     22  C   UNL     1      26.310  16.436 -13.775  1.00  0.00    -0.000 C 
BRANCH  22  23
ATOM     23  C   UNL     1      26.783  17.511 -12.780  1.00  0.00    -0.000 C 
BRANCH  23  24
ATOM     24  C   UNL     1      25.872  17.707 -11.553  1.00  0.00    -0.000 C 
BRANCH  24  25
ATOM     25  C   UNL     1      25.168  19.072 -11.539  1.00  0.00    -0.000 C 
BRANCH  25  26
ATOM     26  C   UNL     1      23.735  18.955 -12.078  1.00  0.00    -0.000 C 
BRANCH  26  27
ATOM     27  C   UNL     1      23.441  19.950 -13.215  1.00  0.00    -0.000 C 
BRANCH  27  28
ATOM     28  C   UNL     1      23.855  19.475 -14.623  1.00  0.00    -0.000 C 
BRANCH  28  29
ATOM     29  C   UNL     1      25.175  20.067 -15.147  1.00  0.00    -0.003 C 
ATOM     30  C   UNL     1      25.870  19.164 -16.166  1.00  0.00     0.004 C 
ENDBRANCH  28  29
ENDBRANCH  27  28
ENDBRANCH  26  27
ENDBRANCH  25  26
ENDBRANCH  24  25
ENDBRANCH  23  24
ENDBRANCH  22  23
ENDBRANCH  21  22
ENDBRANCH  20  21
ENDBRANCH  19  20
ENDBRANCH  18  19
ENDBRANCH  17  18
ENDBRANCH   1  17
TORSDOF 26
ENDMDL
MODEL 7
REMARK VINA RESULT:    -4.722      1.515      4.840
REMARK INTER + INTRA:         -17.105
REMARK INTER:                 -12.288
REMARK INTRA:                  -4.817
REMARK UNBOUND:                -5.204
REMARK SMILES CCCCCCCCCCCCCCCCCCCCCCCCCCCC(=O)[O-]
REMARK SMILES IDX 15 1 16 2 17 3 18 4 19 5 20 6 21 7 22 8 23 9 24 10 25 11
REMARK SMILES IDX 26 12 27 13 28 14 29 15 30 16 14 17 13 18 12 19 11 20 10 21
REMARK SMILES IDX 9 22 8 23 7 24 6 25 5 26 4 27 3 28 2 29 1 30
REMARK H PARENT
REMARK Flexibility Score: inf
ROOT
ATOM      1  C   UNL     1      26.917  13.066 -13.574  1.00  0.00     0.000 C 
ENDROOT
BRANCH   1   2
ATOM      2  C   UNL     1      25.528  13.719 -13.484  1.00  0.00     0.000 C 
BRANCH   2   3
ATOM      3  C   UNL     1      25.448  15.051 -14.253  1.00  0.00     0.000 C 
BRANCH   3   4
ATOM      4  C   UNL     1      24.247  15.907 -13.820  1.00  0.00     0.000 C 
BRANCH   4   5
ATOM      5  C   UNL     1      23.629  16.697 -14.984  1.00  0.00     0.000 C 
BRANCH   5   6
ATOM      6  C   UNL     1      22.378  17.461 -14.520  1.00  0.00     0.000 C 
BRANCH   6   7
ATOM      7  C   UNL     1      22.715  18.733 -13.726  1.00  0.00     0.000 C 
BRANCH   7   8
ATOM      8  C   UNL     1      22.931  19.956 -14.629  1.00  0.00     0.000 C 
BRANCH   8   9
ATOM      9  C   UNL     1      24.399  20.413 -14.597  1.00  0.00     0.000 C 
BRANCH   9  10
ATOM     10  C   UNL     1      25.180  19.958 -15.849  1.00  0.00     0.000 C 
BRANCH  10  11
ATOM     11  C   UNL     1      26.275  18.918 -15.556  1.00  0.00     0.000 C 
BRANCH  11  12
ATOM     12  C   UNL     1      26.721  18.147 -16.806  1.00  0.00     0.006 C 
BRANCH  12  13
ATOM     13  C   UNL     1      27.751  17.069 -16.450  1.00  0.00     0.053 C 
BRANCH  13  14
ATOM     14  C   UNL     1      29.147  17.578 -16.638  1.00  0.00     0.041 C 
ATOM     15  O   UNL     1      29.687  18.292 -15.750  1.00  0.00    -0.550 OA
ATOM     16  O   UNL     1      29.851  17.272 -17.797  1.00  0.00    -0.550 OA
ENDBRANCH  13  14
ENDBRANCH  12  13
ENDBRANCH  11  12
ENDBRANCH  10  11
ENDBRANCH   9  10
ENDBRANCH   8   9
ENDBRANCH   7   8
ENDBRANCH   6   7
ENDBRANCH   5   6
ENDBRANCH   4   5
ENDBRANCH   3   4
ENDBRANCH   2   3
ENDBRANCH   1   2
BRANCH   1  17
ATOM     17  C   UNL     1      27.463  12.646 -12.199  1.00  0.00     0.000 C 
BRANCH  17  18
ATOM     18  C   UNL     1      27.965  13.865 -11.410  1.00  0.00     0.000 C 
BRANCH  18  19
ATOM     19  C   UNL     1      28.945  13.478 -10.291  1.00  0.00     0.000 C 
BRANCH  19  20
ATOM     20  C   UNL     1      28.285  13.486  -8.900  1.00  0.00     0.000 C 
BRANCH  20  21
ATOM     21  C   UNL     1      27.764  12.101  -8.486  1.00  0.00     0.000 C 
BRANCH  21  22
ATOM     22  C   UNL     1      26.329  12.145  -7.929  1.00  0.00    -0.000 C 
BRANCH  22  23
ATOM     23  C   UNL     1      25.257  11.958  -9.017  1.00  0.00    -0.000 C 
BRANCH  23  24
ATOM     24  C   UNL     1      24.139  13.018  -9.016  1.00  0.00    -0.000 C 
BRANCH  24  25
ATOM     25  C   UNL     1      24.384  14.153 -10.022  1.00  0.00    -0.000 C 
BRANCH  25  26
ATOM     26  C   UNL     1      25.074  15.346  -9.344  1.00  0.00    -0.000 C 
BRANCH  26  27
ATOM     27  C   UNL     1      25.620  16.372 -10.353  1.00  0.00    -0.000 C 
BRANCH  27  28
ATOM     28  C   UNL     1      24.809  17.681 -10.458  1.00  0.00    -0.000 C 
BRANCH  28  29
ATOM     29  C   UNL     1      25.415  18.748 -11.386  1.00  0.00    -0.003 C 
ATOM     30  C   UNL     1      26.612  18.233 -12.185  1.00  0.00     0.004 C 
ENDBRANCH  28  29
ENDBRANCH  27  28
ENDBRANCH  26  27
ENDBRANCH  25  26
ENDBRANCH  24  25
ENDBRANCH  23  24
ENDBRANCH  22  23
ENDBRANCH  21  22
ENDBRANCH  20  21
ENDBRANCH  19  20
ENDBRANCH  18  19
ENDBRANCH  17  18
ENDBRANCH   1  17
TORSDOF 26
ENDMDL
MODEL 8
REMARK VINA RESULT:    -4.706      2.985      5.717
REMARK INTER + INTRA:         -17.062
REMARK INTER:                 -12.078
REMARK INTRA:                  -4.984
REMARK UNBOUND:                -5.204
REMARK SMILES CCCCCCCCCCCCCCCCCCCCCCCCCCCC(=O)[O-]
REMARK SMILES IDX 15 1 16 2 17 3 18 4 19 5 20 6 21 7 22 8 23 9 24 10 25 11
REMARK SMILES IDX 26 12 27 13 28 14 29 15 30 16 14 17 13 18 12 19 11 20 10 21
REMARK SMILES IDX 9 22 8 23 7 24 6 25 5 26 4 27 3 28 2 29 1 30
REMARK H PARENT
REMARK Flexibility Score: inf
ROOT
ATOM      1  C   UNL     1      26.363  18.419 -12.310  1.00  0.00     0.000 C 
ENDROOT
BRANCH   1   2
ATOM      2  C   UNL     1      25.266  18.890 -11.341  1.00  0.00     0.000 C 
BRANCH   2   3
ATOM      3  C   UNL     1      24.743  17.756 -10.440  1.00  0.00     0.000 C 
BRANCH   3   4
ATOM      4  C   UNL     1      23.210  17.754 -10.330  1.00  0.00     0.000 C 
BRANCH   4   5
ATOM      5  C   UNL     1      22.518  18.129 -11.649  1.00  0.00     0.000 C 
BRANCH   5   6
ATOM      6  C   UNL     1      22.425  16.909 -12.581  1.00  0.00     0.000 C 
BRANCH   6   7
ATOM      7  C   UNL     1      22.009  17.282 -14.013  1.00  0.00     0.000 C 
BRANCH   7   8
ATOM      8  C   UNL     1      23.103  16.977 -15.047  1.00  0.00     0.000 C 
BRANCH   8   9
ATOM      9  C   UNL     1      23.426  18.221 -15.891  1.00  0.00     0.000 C 
BRANCH   9  10
ATOM     10  C   UNL     1      22.931  19.524 -15.228  1.00  0.00     0.000 C 
BRANCH  10  11
ATOM     11  C   UNL     1      24.056  20.386 -14.630  1.00  0.00     0.000 C 
BRANCH  11  12
ATOM     12  C   UNL     1      23.543  21.682 -13.989  1.00  0.00     0.006 C 
BRANCH  12  13
ATOM     13  C   UNL     1      22.716  22.502 -14.987  1.00  0.00     0.053 C 
BRANCH  13  14
ATOM     14  C   UNL     1      22.484  23.891 -14.476  1.00  0.00     0.041 C 
ATOM     15  O   UNL     1      22.852  24.887 -15.155  1.00  0.00    -0.550 OA
ATOM     16  O   UNL     1      21.868  24.087 -13.245  1.00  0.00    -0.550 OA
ENDBRANCH  13  14
ENDBRANCH  12  13
ENDBRANCH  11  12
ENDBRANCH  10  11
ENDBRANCH   9  10
ENDBRANCH   8   9
ENDBRANCH   7   8
ENDBRANCH   6   7
ENDBRANCH   5   6
ENDBRANCH   4   5
ENDBRANCH   3   4
ENDBRANCH   2   3
ENDBRANCH   1   2
BRANCH   1  17
ATOM     17  C   UNL     1      26.687  16.924 -12.154  1.00  0.00     0.000 C 
BRANCH  17  18
ATOM     18  C   UNL     1      26.209  16.126 -13.378  1.00  0.00     0.000 C 
BRANCH  18  19
ATOM     19  C   UNL     1      25.476  14.832 -12.987  1.00  0.00     0.000 C 
BRANCH  19  20
ATOM     20  C   UNL     1      25.819  13.657 -13.919  1.00  0.00     0.000 C 
BRANCH  20  21
ATOM     21  C   UNL     1      27.167  13.005 -13.576  1.00  0.00     0.000 C 
BRANCH  21  22
ATOM     22  C   UNL     1      27.301  12.662 -12.082  1.00  0.00    -0.000 C 
BRANCH  22  23
ATOM     23  C   UNL     1      28.664  13.068 -11.493  1.00  0.00    -0.000 C 
BRANCH  23  24
ATOM     24  C   UNL     1      28.653  13.379  -9.984  1.00  0.00    -0.000 C 
BRANCH  24  25
ATOM     25  C   UNL     1      28.173  14.804  -9.668  1.00  0.00    -0.000 C 
BRANCH  25  26
ATOM     26  C   UNL     1      26.737  14.790  -9.121  1.00  0.00    -0.000 C 
BRANCH  26  27
ATOM     27  C   UNL     1      26.277  13.387  -8.686  1.00  0.00    -0.000 C 
BRANCH  27  28
ATOM     28  C   UNL     1      24.748  13.183  -8.646  1.00  0.00    -0.000 C 
BRANCH  28  29
ATOM     29  C   UNL     1      23.929  14.267  -9.369  1.00  0.00    -0.003 C 
ATOM     30  C   UNL     1      23.145  13.724 -10.564  1.00  0.00     0.004 C 
ENDBRANCH  28  29
ENDBRANCH  27  28
ENDBRANCH  26  27
ENDBRANCH  25  26
ENDBRANCH  24  25
ENDBRANCH  23  24
ENDBRANCH  22  23
ENDBRANCH  21  22
ENDBRANCH  20  21
ENDBRANCH  19  20
ENDBRANCH  18  19
ENDBRANCH  17  18
ENDBRANCH   1  17
TORSDOF 26
ENDMDL
MODEL 9
REMARK VINA RESULT:    -3.737      2.486      5.294
REMARK INTER + INTRA:         -14.621
REMARK INTER:                  -9.769
REMARK INTRA:                  -4.852
REMARK UNBOUND:                -5.204
REMARK SMILES CCCCCCCCCCCCCCCCCCCCCCCCCCCC(=O)[O-]
REMARK SMILES IDX 15 1 16 2 17 3 18 4 19 5 20 6 21 7 22 8 23 9 24 10 25 11
REMARK SMILES IDX 26 12 27 13 28 14 29 15 30 16 14 17 13 18 12 19 11 20 10 21
REMARK SMILES IDX 9 22 8 23 7 24 6 25 5 26 4 27 3 28 2 29 1 30
REMARK H PARENT
REMARK Flexibility Score: inf
ROOT
ATOM      1  C   UNL     1      25.112  15.223 -13.193  1.00  0.00     0.000 C 
ENDROOT
BRANCH   1   2
ATOM      2  C   UNL     1      25.884  16.063 -12.161  1.00  0.00     0.000 C 
BRANCH   2   3
ATOM      3  C   UNL     1      26.672  17.217 -12.807  1.00  0.00     0.000 C 
BRANCH   3   4
ATOM      4  C   UNL     1      26.217  18.595 -12.298  1.00  0.00     0.000 C 
BRANCH   4   5
ATOM      5  C   UNL     1      25.003  18.512 -11.360  1.00  0.00     0.000 C 
BRANCH   5   6
ATOM      6  C   UNL     1      23.755  19.106 -12.030  1.00  0.00     0.000 C 
BRANCH   6   7
ATOM      7  C   UNL     1      22.647  18.065 -12.260  1.00  0.00     0.000 C 
BRANCH   7   8
ATOM      8  C   UNL     1      22.561  17.603 -13.722  1.00  0.00     0.000 C 
BRANCH   8   9
ATOM      9  C   UNL     1      22.968  18.733 -14.682  1.00  0.00     0.000 C 
BRANCH   9  10
ATOM     10  C   UNL     1      24.204  18.363 -15.530  1.00  0.00     0.000 C 
BRANCH  10  11
ATOM     11  C   UNL     1      25.230  19.502 -15.665  1.00  0.00     0.000 C 
BRANCH  11  12
ATOM     12  C   UNL     1      24.705  20.847 -15.144  1.00  0.00     0.006 C 
BRANCH  12  13
ATOM     13  C   UNL     1      25.386  22.019 -15.861  1.00  0.00     0.053 C 
BRANCH  13  14
ATOM     14  C   UNL     1      24.640  22.391 -17.105  1.00  0.00     0.041 C 
ATOM     15  O   UNL     1      23.902  23.413 -17.122  1.00  0.00    -0.550 OA
ATOM     16  O   UNL     1      24.752  21.605 -18.247  1.00  0.00    -0.550 OA
ENDBRANCH  13  14
ENDBRANCH  12  13
ENDBRANCH  11  12
ENDBRANCH  10  11
ENDBRANCH   9  10
ENDBRANCH   8   9
ENDBRANCH   7   8
ENDBRANCH   6   7
ENDBRANCH   5   6
ENDBRANCH   4   5
ENDBRANCH   3   4
ENDBRANCH   2   3
ENDBRANCH   1   2
BRANCH   1  17
ATOM     17  C   UNL     1      25.276  13.711 -12.965  1.00  0.00     0.000 C 
BRANCH  17  18
ATOM     18  C   UNL     1      26.281  13.110 -13.959  1.00  0.00     0.000 C 
BRANCH  18  19
ATOM     19  C   UNL     1      27.565  12.617 -13.271  1.00  0.00     0.000 C 
BRANCH  19  20
ATOM     20  C   UNL     1      27.585  12.933 -11.765  1.00  0.00     0.000 C 
BRANCH  20  21
ATOM     21  C   UNL     1      29.000  13.217 -11.240  1.00  0.00     0.000 C 
BRANCH  21  22
ATOM     22  C   UNL     1      29.038  14.374 -10.225  1.00  0.00    -0.000 C 
BRANCH  22  23
ATOM     23  C   UNL     1      27.768  14.455  -9.360  1.00  0.00    -0.000 C 
BRANCH  23  24
ATOM     24  C   UNL     1      27.864  13.746  -7.996  1.00  0.00    -0.000 C 
BRANCH  24  25
ATOM     25  C   UNL     1      27.316  12.311  -8.024  1.00  0.00    -0.000 C 
BRANCH  25  26
ATOM     26  C   UNL     1      25.807  12.295  -7.740  1.00  0.00    -0.000 C 
BRANCH  26  27
ATOM     27  C   UNL     1      24.973  11.875  -8.963  1.00  0.00    -0.000 C 
BRANCH  27  28
ATOM     28  C   UNL     1      24.286  13.034  -9.716  1.00  0.00    -0.000 C 
BRANCH  28  29
ATOM     29  C   UNL     1      23.640  14.101  -8.815  1.00  0.00    -0.003 C 
ATOM     30  C   UNL     1      24.188  15.506  -9.069  1.00  0.00     0.004 C 
ENDBRANCH  28  29
ENDBRANCH  27  28
ENDBRANCH  26  27
ENDBRANCH  25  26
ENDBRANCH  24  25
ENDBRANCH  23  24
ENDBRANCH  22  23
ENDBRANCH  21  22
ENDBRANCH  20  21
ENDBRANCH  19  20
ENDBRANCH  18  19
ENDBRANCH  17  18
ENDBRANCH   1  17
TORSDOF 26
ENDMDL
