MODEL 1
REMARK VINA RESULT:    -4.112      0.000      0.000
REMARK INTER + INTRA:          -5.872
REMARK INTER:                  -5.314
REMARK INTRA:                  -0.558
REMARK UNBOUND:                -0.558
REMARK SMILES CO[C@]1(CO)O[C@@H](CO)[C@@H](O)[C@@H]1O
REMARK SMILES IDX 3 1 12 2 10 3 7 4 6 5 2 6 1 7 4 8 5 9 13 11 11 13 8 15 9 16
REMARK H PARENT 5 10 13 12 11 14 9 17
REMARK Flexibility Score: inf
ROOT
ATOM      1  C   UNL     1      18.735  26.901  44.776  1.00  0.00     0.221 C 
ATOM      2  C   UNL     1      17.633  26.020  45.386  1.00  0.00     0.207 C 
ATOM      3  C   UNL     1      16.711  27.041  46.006  1.00  0.00     0.180 C 
ATOM      4  C   UNL     1      16.881  28.239  45.062  1.00  0.00     0.179 C 
ATOM      5  O   UNL     1      18.120  28.119  44.388  1.00  0.00    -0.337 OA
ENDROOT
BRANCH   1   6
ATOM      6  O   UNL     1      19.719  27.145  45.781  1.00  0.00    -0.349 OA
ATOM      7  C   UNL     1      21.039  26.873  45.350  1.00  0.00     0.198 C 
ENDBRANCH   1   6
BRANCH   1   8
ATOM      8  C   UNL     1      19.351  26.205  43.537  1.00  0.00     0.224 C 
BRANCH   8   9
ATOM      9  O   UNL     1      18.653  25.025  43.237  1.00  0.00    -0.391 OA
ATOM     10  H   UNL     1      19.109  24.627  42.451  1.00  0.00     0.210 HD
ENDBRANCH   8   9
ENDBRANCH   1   8
BRANCH   2  11
ATOM     11  O   UNL     1      18.118  25.070  46.307  1.00  0.00    -0.385 OA
ATOM     12  H   UNL     1      17.349  24.588  46.708  1.00  0.00     0.211 HD
ENDBRANCH   2  11
BRANCH   3  13
ATOM     13  O   UNL     1      15.387  26.573  46.067  1.00  0.00    -0.387 OA
ATOM     14  H   UNL     1      14.821  27.281  45.662  1.00  0.00     0.211 HD
ENDBRANCH   3  13
BRANCH   4  15
ATOM     15  C   UNL     1      15.761  28.360  44.017  1.00  0.00     0.191 C 
BRANCH  15  16
ATOM     16  O   UNL     1      14.565  28.727  44.649  1.00  0.00    -0.394 OA
ATOM     17  H   UNL     1      13.882  28.789  43.931  1.00  0.00     0.210 HD
ENDBRANCH  15  16
ENDBRANCH   4  15
TORSDOF 7
ENDMDL
MODEL 2
REMARK VINA RESULT:    -4.022      1.595      4.404
REMARK INTER + INTRA:          -5.755
REMARK INTER:                  -5.406
REMARK INTRA:                  -0.349
REMARK UNBOUND:                -0.558
REMARK SMILES CO[C@]1(CO)O[C@@H](CO)[C@@H](O)[C@@H]1O
REMARK SMILES IDX 3 1 12 2 10 3 7 4 6 5 2 6 1 7 4 8 5 9 13 11 11 13 8 15 9 16
REMARK H PARENT 5 10 13 12 11 14 9 17
REMARK Flexibility Score: inf
ROOT
ATOM      1  C   UNL     1      18.488  27.236  45.404  1.00  0.00     0.221 C 
ATOM      2  C   UNL     1      18.379  26.229  44.248  1.00  0.00     0.207 C 
ATOM      3  C   UNL     1      19.778  26.232  43.684  1.00  0.00     0.180 C 
ATOM      4  C   UNL     1      20.624  26.511  44.934  1.00  0.00     0.179 C 
ATOM      5  O   UNL     1      19.812  27.144  45.905  1.00  0.00    -0.337 OA
ENDROOT
BRANCH   1   6
ATOM      6  O   UNL     1      18.250  28.543  44.882  1.00  0.00    -0.349 OA
ATOM      7  C   UNL     1      17.334  29.296  45.653  1.00  0.00     0.198 C 
ENDBRANCH   1   6
BRANCH   1   8
ATOM      8  C   UNL     1      17.477  26.879  46.522  1.00  0.00     0.224 C 
BRANCH   8   9
ATOM      9  O   UNL     1      16.953  25.593  46.319  1.00  0.00    -0.391 OA
ATOM     10  H   UNL     1      16.242  25.474  47.001  1.00  0.00     0.210 HD
ENDBRANCH   8   9
ENDBRANCH   1   8
BRANCH   2  11
ATOM     11  O   UNL     1      17.391  26.566  43.300  1.00  0.00    -0.385 OA
ATOM     12  H   UNL     1      17.313  25.829  42.640  1.00  0.00     0.211 HD
ENDBRANCH   2  11
BRANCH   3  13
ATOM     13  O   UNL     1      20.092  25.007  43.071  1.00  0.00    -0.387 OA
ATOM     14  H   UNL     1      20.214  24.349  43.805  1.00  0.00     0.211 HD
ENDBRANCH   3  13
BRANCH   4  15
ATOM     15  C   UNL     1      21.240  25.247  45.553  1.00  0.00     0.191 C 
BRANCH  15  16
ATOM     16  O   UNL     1      22.368  25.594  46.309  1.00  0.00    -0.394 OA
ATOM     17  H   UNL     1      22.505  26.567  46.167  1.00  0.00     0.210 HD
ENDBRANCH  15  16
ENDBRANCH   4  15
TORSDOF 7
ENDMDL
MODEL 3
REMARK VINA RESULT:    -4.015     10.838     12.868
REMARK INTER + INTRA:          -5.747
REMARK INTER:                  -5.485
REMARK INTRA:                  -0.261
REMARK UNBOUND:                -0.558
REMARK SMILES CO[C@]1(CO)O[C@@H](CO)[C@@H](O)[C@@H]1O
REMARK SMILES IDX 3 1 12 2 10 3 7 4 6 5 2 6 1 7 4 8 5 9 13 11 11 13 8 15 9 16
REMARK H PARENT 5 10 13 12 11 14 9 17
REMARK Flexibility Score: inf
ROOT
ATOM      1  C   UNL     1      19.649  26.474  32.719  1.00  0.00     0.221 C 
ATOM      2  C   UNL     1      20.887  26.439  31.809  1.00  0.00     0.207 C 
ATOM      3  C   UNL     1      21.720  27.572  32.353  1.00  0.00     0.180 C 
ATOM      4  C   UNL     1      21.345  27.557  33.841  1.00  0.00     0.179 C 
ATOM      5  O   UNL     1      20.086  26.926  33.990  1.00  0.00    -0.337 OA
ENDROOT
BRANCH   1   6
ATOM      6  O   UNL     1      18.713  27.398  32.164  1.00  0.00    -0.349 OA
ATOM      7  C   UNL     1      17.717  27.807  33.082  1.00  0.00     0.198 C 
ENDBRANCH   1   6
BRANCH   1   8
ATOM      8  C   UNL     1      19.038  25.057  32.847  1.00  0.00     0.224 C 
BRANCH   8   9
ATOM      9  O   UNL     1      19.893  24.215  33.574  1.00  0.00    -0.391 OA
ATOM     10  H   UNL     1      20.592  23.914  32.937  1.00  0.00     0.210 HD
ENDBRANCH   8   9
ENDBRANCH   1   8
BRANCH   2  11
ATOM     11  O   UNL     1      20.582  26.574  30.439  1.00  0.00    -0.385 OA
ATOM     12  H   UNL     1      21.421  26.747  29.937  1.00  0.00     0.211 HD
ENDBRANCH   2  11
BRANCH   3  13
ATOM     13  O   UNL     1      23.091  27.360  32.131  1.00  0.00    -0.387 OA
ATOM     14  H   UNL     1      23.244  27.503  31.159  1.00  0.00     0.211 HD
ENDBRANCH   3  13
BRANCH   4  15
ATOM     15  C   UNL     1      22.370  26.828  34.725  1.00  0.00     0.191 C 
BRANCH  15  16
ATOM     16  O   UNL     1      21.780  26.492  35.951  1.00  0.00    -0.394 OA
ATOM     17  H   UNL     1      22.450  26.716  36.649  1.00  0.00     0.210 HD
ENDBRANCH  15  16
ENDBRANCH   4  15
TORSDOF 7
ENDMDL
MODEL 4
REMARK VINA RESULT:    -3.924      1.527      4.069
REMARK INTER + INTRA:          -5.629
REMARK INTER:                  -5.144
REMARK INTRA:                  -0.485
REMARK UNBOUND:                -0.558
REMARK SMILES CO[C@]1(CO)O[C@@H](CO)[C@@H](O)[C@@H]1O
REMARK SMILES IDX 3 1 12 2 10 3 7 4 6 5 2 6 1 7 4 8 5 9 13 11 11 13 8 15 9 16
REMARK H PARENT 5 10 13 12 11 14 9 17
REMARK Flexibility Score: inf
ROOT
ATOM      1  C   UNL     1      17.114  28.124  45.974  1.00  0.00     0.221 C 
ATOM      2  C   UNL     1      16.742  27.328  44.713  1.00  0.00     0.207 C 
ATOM      3  C   UNL     1      18.085  27.104  44.065  1.00  0.00     0.180 C 
ATOM      4  C   UNL     1      19.017  27.025  45.282  1.00  0.00     0.179 C 
ATOM      5  O   UNL     1      18.401  27.682  46.374  1.00  0.00    -0.337 OA
ENDROOT
BRANCH   1   6
ATOM      6  O   UNL     1      17.154  29.510  45.632  1.00  0.00    -0.349 OA
ATOM      7  C   UNL     1      16.440  30.331  46.536  1.00  0.00     0.198 C 
ENDBRANCH   1   6
BRANCH   1   8
ATOM      8  C   UNL     1      16.089  27.848  47.103  1.00  0.00     0.224 C 
BRANCH   8   9
ATOM      9  O   UNL     1      16.488  26.743  47.870  1.00  0.00    -0.391 OA
ATOM     10  H   UNL     1      17.463  26.847  48.018  1.00  0.00     0.210 HD
ENDBRANCH   8   9
ENDBRANCH   1   8
BRANCH   2  11
ATOM     11  O   UNL     1      15.820  27.994  43.879  1.00  0.00    -0.385 OA
ATOM     12  H   UNL     1      16.318  28.478  43.171  1.00  0.00     0.211 HD
ENDBRANCH   2  11
BRANCH   3  13
ATOM     13  O   UNL     1      18.097  25.933  43.288  1.00  0.00    -0.387 OA
ATOM     14  H   UNL     1      18.712  26.107  42.527  1.00  0.00     0.211 HD
ENDBRANCH   3  13
BRANCH   4  15
ATOM     15  C   UNL     1      19.358  25.586  45.701  1.00  0.00     0.191 C 
BRANCH  15  16
ATOM     16  O   UNL     1      18.242  24.994  46.306  1.00  0.00    -0.394 OA
ATOM     17  H   UNL     1      18.413  24.016  46.301  1.00  0.00     0.210 HD
ENDBRANCH  15  16
ENDBRANCH   4  15
TORSDOF 7
ENDMDL
MODEL 5
REMARK VINA RESULT:    -3.808      1.454      2.556
REMARK INTER + INTRA:          -5.479
REMARK INTER:                  -4.960
REMARK INTRA:                  -0.519
REMARK UNBOUND:                -0.558
REMARK SMILES CO[C@]1(CO)O[C@@H](CO)[C@@H](O)[C@@H]1O
REMARK SMILES IDX 3 1 12 2 10 3 7 4 6 5 2 6 1 7 4 8 5 9 13 11 11 13 8 15 9 16
REMARK H PARENT 5 10 13 12 11 14 9 17
REMARK Flexibility Score: inf
ROOT
ATOM      1  C   UNL     1      18.259  26.739  44.801  1.00  0.00     0.221 C 
ATOM      2  C   UNL     1      18.618  27.983  45.631  1.00  0.00     0.207 C 
ATOM      3  C   UNL     1      17.770  29.053  44.991  1.00  0.00     0.180 C 
ATOM      4  C   UNL     1      16.544  28.254  44.529  1.00  0.00     0.179 C 
ATOM      5  O   UNL     1      16.908  26.892  44.397  1.00  0.00    -0.337 OA
ENDROOT
BRANCH   1   6
ATOM      6  O   UNL     1      19.113  26.702  43.658  1.00  0.00    -0.349 OA
ATOM      7  C   UNL     1      19.610  25.408  43.373  1.00  0.00     0.198 C 
ENDBRANCH   1   6
BRANCH   1   8
ATOM      8  C   UNL     1      18.408  25.460  45.663  1.00  0.00     0.224 C 
BRANCH   8   9
ATOM      9  O   UNL     1      17.399  25.402  46.637  1.00  0.00    -0.391 OA
ATOM     10  H   UNL     1      16.555  25.216  46.150  1.00  0.00     0.210 HD
ENDBRANCH   8   9
ENDBRANCH   1   8
BRANCH   2  11
ATOM     11  O   UNL     1      19.996  28.281  45.627  1.00  0.00    -0.385 OA
ATOM     12  H   UNL     1      20.498  27.490  45.954  1.00  0.00     0.211 HD
ENDBRANCH   2  11
BRANCH   3  13
ATOM     13  O   UNL     1      17.449  30.072  45.904  1.00  0.00    -0.387 OA
ATOM     14  H   UNL     1      18.309  30.391  46.284  1.00  0.00     0.211 HD
ENDBRANCH   3  13
BRANCH   4  15
ATOM     15  C   UNL     1      15.348  28.355  45.488  1.00  0.00     0.191 C 
BRANCH  15  16
ATOM     16  O   UNL     1      15.026  27.081  45.974  1.00  0.00    -0.394 OA
ATOM     17  H   UNL     1      15.374  26.435  45.305  1.00  0.00     0.210 HD
ENDBRANCH  15  16
ENDBRANCH   4  15
TORSDOF 7
ENDMDL
MODEL 6
REMARK VINA RESULT:    -3.769     11.964     13.462
REMARK INTER + INTRA:          -5.428
REMARK INTER:                  -4.848
REMARK INTRA:                  -0.580
REMARK UNBOUND:                -0.558
REMARK SMILES CO[C@]1(CO)O[C@@H](CO)[C@@H](O)[C@@H]1O
REMARK SMILES IDX 3 1 12 2 10 3 7 4 6 5 2 6 1 7 4 8 5 9 13 11 11 13 8 15 9 16
REMARK H PARENT 5 10 13 12 11 14 9 17
REMARK Flexibility Score: inf
ROOT
ATOM      1  C   UNL     1      20.543  26.734  31.739  1.00  0.00     0.221 C 
ATOM      2  C   UNL     1      20.487  25.860  33.003  1.00  0.00     0.207 C 
ATOM      3  C   UNL     1      19.057  25.379  32.999  1.00  0.00     0.180 C 
ATOM      4  C   UNL     1      18.749  25.309  31.497  1.00  0.00     0.179 C 
ATOM      5  O   UNL     1      19.640  26.164  30.805  1.00  0.00    -0.337 OA
ENDROOT
BRANCH   1   6
ATOM      6  O   UNL     1      20.124  28.052  32.089  1.00  0.00    -0.349 OA
ATOM      7  C   UNL     1      19.937  28.897  30.969  1.00  0.00     0.198 C 
ENDBRANCH   1   6
BRANCH   1   8
ATOM      8  C   UNL     1      21.977  26.732  31.151  1.00  0.00     0.224 C 
BRANCH   8   9
ATOM      9  O   UNL     1      22.902  27.173  32.109  1.00  0.00    -0.391 OA
ATOM     10  H   UNL     1      22.851  28.163  32.108  1.00  0.00     0.210 HD
ENDBRANCH   8   9
ENDBRANCH   1   8
BRANCH   2  11
ATOM     11  O   UNL     1      20.844  26.549  34.179  1.00  0.00    -0.385 OA
ATOM     12  H   UNL     1      20.623  25.984  34.964  1.00  0.00     0.211 HD
ENDBRANCH   2  11
BRANCH   3  13
ATOM     13  O   UNL     1      18.926  24.138  33.645  1.00  0.00    -0.387 OA
ATOM     14  H   UNL     1      19.826  23.910  33.999  1.00  0.00     0.211 HD
ENDBRANCH   3  13
BRANCH   4  15
ATOM     15  C   UNL     1      18.871  23.893  30.911  1.00  0.00     0.191 C 
BRANCH  15  16
ATOM     16  O   UNL     1      17.816  23.098  31.378  1.00  0.00    -0.394 OA
ATOM     17  H   UNL     1      18.225  22.428  31.986  1.00  0.00     0.210 HD
ENDBRANCH  15  16
ENDBRANCH   4  15
TORSDOF 7
ENDMDL
MODEL 7
REMARK VINA RESULT:    -3.766      1.458      4.071
REMARK INTER + INTRA:          -5.425
REMARK INTER:                  -4.819
REMARK INTRA:                  -0.606
REMARK UNBOUND:                -0.558
REMARK SMILES CO[C@]1(CO)O[C@@H](CO)[C@@H](O)[C@@H]1O
REMARK SMILES IDX 3 1 12 2 10 3 7 4 6 5 2 6 1 7 4 8 5 9 13 11 11 13 8 15 9 16
REMARK H PARENT 5 10 13 12 11 14 9 17
REMARK Flexibility Score: inf
ROOT
ATOM      1  C   UNL     1      16.975  27.862  45.564  1.00  0.00     0.221 C 
ATOM      2  C   UNL     1      17.582  26.830  46.528  1.00  0.00     0.207 C 
ATOM      3  C   UNL     1      17.858  25.661  45.616  1.00  0.00     0.180 C 
ATOM      4  C   UNL     1      18.166  26.361  44.285  1.00  0.00     0.179 C 
ATOM      5  O   UNL     1      17.582  27.650  44.300  1.00  0.00    -0.337 OA
ENDROOT
BRANCH   1   6
ATOM      6  O   UNL     1      15.570  27.624  45.481  1.00  0.00    -0.349 OA
ATOM      7  C   UNL     1      14.795  28.805  45.561  1.00  0.00     0.198 C 
ENDBRANCH   1   6
BRANCH   1   8
ATOM      8  C   UNL     1      17.278  29.298  46.059  1.00  0.00     0.224 C 
BRANCH   8   9
ATOM      9  O   UNL     1      18.004  29.263  47.259  1.00  0.00    -0.391 OA
ATOM     10  H   UNL     1      18.110  30.207  47.546  1.00  0.00     0.210 HD
ENDBRANCH   8   9
ENDBRANCH   1   8
BRANCH   2  11
ATOM     11  O   UNL     1      16.739  26.509  47.612  1.00  0.00    -0.385 OA
ATOM     12  H   UNL     1      16.816  27.219  48.301  1.00  0.00     0.211 HD
ENDBRANCH   2  11
BRANCH   3  13
ATOM     13  O   UNL     1      18.928  24.880  46.085  1.00  0.00    -0.387 OA
ATOM     14  H   UNL     1      19.747  25.235  45.650  1.00  0.00     0.211 HD
ENDBRANCH   3  13
BRANCH   4  15
ATOM     15  C   UNL     1      19.670  26.504  44.000  1.00  0.00     0.191 C 
BRANCH  15  16
ATOM     16  O   UNL     1      20.149  25.332  43.401  1.00  0.00    -0.394 OA
ATOM     17  H   UNL     1      21.136  25.354  43.505  1.00  0.00     0.210 HD
ENDBRANCH  15  16
ENDBRANCH   4  15
TORSDOF 7
ENDMDL
MODEL 8
REMARK VINA RESULT:    -3.737     11.066     12.710
REMARK INTER + INTRA:          -5.387
REMARK INTER:                  -5.047
REMARK INTRA:                  -0.340
REMARK UNBOUND:                -0.558
REMARK SMILES CO[C@]1(CO)O[C@@H](CO)[C@@H](O)[C@@H]1O
REMARK SMILES IDX 3 1 12 2 10 3 7 4 6 5 2 6 1 7 4 8 5 9 13 11 11 13 8 15 9 16
REMARK H PARENT 5 10 13 12 11 14 9 17
REMARK Flexibility Score: inf
ROOT
ATOM      1  C   UNL     1      21.515  27.165  33.142  1.00  0.00     0.221 C 
ATOM      2  C   UNL     1      20.022  27.367  33.450  1.00  0.00     0.207 C 
ATOM      3  C   UNL     1      19.360  26.814  32.214  1.00  0.00     0.180 C 
ATOM      4  C   UNL     1      20.342  25.713  31.792  1.00  0.00     0.179 C 
ATOM      5  O   UNL     1      21.615  25.998  32.343  1.00  0.00    -0.337 OA
ENDROOT
BRANCH   1   6
ATOM      6  O   UNL     1      21.979  28.301  32.413  1.00  0.00    -0.349 OA
ATOM      7  C   UNL     1      22.940  27.980  31.426  1.00  0.00     0.198 C 
ENDBRANCH   1   6
BRANCH   1   8
ATOM      8  C   UNL     1      22.311  26.971  34.457  1.00  0.00     0.224 C 
BRANCH   8   9
ATOM      9  O   UNL     1      21.438  26.862  35.550  1.00  0.00    -0.391 OA
ATOM     10  H   UNL     1      21.986  27.031  36.359  1.00  0.00     0.210 HD
ENDBRANCH   8   9
ENDBRANCH   1   8
BRANCH   2  11
ATOM     11  O   UNL     1      19.681  28.709  33.718  1.00  0.00    -0.385 OA
ATOM     12  H   UNL     1      19.166  28.747  34.566  1.00  0.00     0.211 HD
ENDBRANCH   2  11
BRANCH   3  13
ATOM     13  O   UNL     1      18.072  26.325  32.491  1.00  0.00    -0.387 OA
ATOM     14  H   UNL     1      18.171  25.349  32.648  1.00  0.00     0.211 HD
ENDBRANCH   3  13
BRANCH   4  15
ATOM     15  C   UNL     1      19.915  24.306  32.239  1.00  0.00     0.191 C 
BRANCH  15  16
ATOM     16  O   UNL     1      19.875  24.248  33.638  1.00  0.00    -0.394 OA
ATOM     17  H   UNL     1      19.098  23.674  33.868  1.00  0.00     0.210 HD
ENDBRANCH  15  16
ENDBRANCH   4  15
TORSDOF 7
ENDMDL
MODEL 9
REMARK VINA RESULT:    -3.724      1.480      2.359
REMARK INTER + INTRA:          -5.371
REMARK INTER:                  -4.865
REMARK INTRA:                  -0.506
REMARK UNBOUND:                -0.558
REMARK SMILES CO[C@]1(CO)O[C@@H](CO)[C@@H](O)[C@@H]1O
REMARK SMILES IDX 3 1 12 2 10 3 7 4 6 5 2 6 1 7 4 8 5 9 13 11 11 13 8 15 9 16
REMARK H PARENT 5 10 13 12 11 14 9 17
REMARK Flexibility Score: inf
ROOT
ATOM      1  C   UNL     1      19.262  26.896  45.253  1.00  0.00     0.221 C 
ATOM      2  C   UNL     1      18.154  26.939  44.187  1.00  0.00     0.207 C 
ATOM      3  C   UNL     1      16.902  27.002  45.025  1.00  0.00     0.180 C 
ATOM      4  C   UNL     1      17.385  27.774  46.261  1.00  0.00     0.179 C 
ATOM      5  O   UNL     1      18.790  27.641  46.365  1.00  0.00    -0.337 OA
ENDROOT
BRANCH   1   6
ATOM      6  O   UNL     1      19.470  25.534  45.627  1.00  0.00    -0.349 OA
ATOM      7  C   UNL     1      20.836  25.170  45.678  1.00  0.00     0.198 C 
ENDBRANCH   1   6
BRANCH   1   8
ATOM      8  C   UNL     1      20.559  27.538  44.703  1.00  0.00     0.224 C 
BRANCH   8   9
ATOM      9  O   UNL     1      20.296  28.814  44.183  1.00  0.00    -0.391 OA
ATOM     10  H   UNL     1      19.576  28.695  43.510  1.00  0.00     0.210 HD
ENDBRANCH   8   9
ENDBRANCH   1   8
BRANCH   2  11
ATOM     11  O   UNL     1      18.183  25.841  43.303  1.00  0.00    -0.385 OA
ATOM     12  H   UNL     1      18.691  26.097  42.489  1.00  0.00     0.211 HD
ENDBRANCH   2  11
BRANCH   3  13
ATOM     13  O   UNL     1      15.857  27.652  44.346  1.00  0.00    -0.387 OA
ATOM     14  H   UNL     1      16.204  27.871  43.441  1.00  0.00     0.211 HD
ENDBRANCH   3  13
BRANCH   4  15
ATOM     15  C   UNL     1      17.032  29.269  46.228  1.00  0.00     0.191 C 
BRANCH  15  16
ATOM     16  O   UNL     1      17.801  29.913  45.249  1.00  0.00    -0.394 OA
ATOM     17  H   UNL     1      17.340  30.772  45.059  1.00  0.00     0.210 HD
ENDBRANCH  15  16
ENDBRANCH   4  15
TORSDOF 7
ENDMDL
