MODEL 1
REMARK VINA RESULT:    -5.827      0.000      0.000
REMARK INTER + INTRA:          -5.997
REMARK INTER:                  -5.997
REMARK INTRA:                   0.000
REMARK UNBOUND:                 0.000
REMARK SMILES O=c1ccc2ccc(O)cc2o1
REMARK SMILES IDX 6 1 7 2 8 3 10 4 11 5 5 6 4 7 3 8 2 9 1 10 12 11 9 12
REMARK H PARENT 9 13
REMARK Flexibility Score: inf
ROOT
ATOM      1  C   UNL     1     -15.174  44.255  24.069  1.00  0.00     0.016 A 
ATOM      2  C   UNL     1     -15.287  45.106  25.173  1.00  0.00     0.047 A 
ATOM      3  C   UNL     1     -14.304  46.068  25.429  1.00  0.00     0.119 A 
ATOM      4  C   UNL     1     -13.198  46.183  24.574  1.00  0.00     0.094 A 
ATOM      5  C   UNL     1     -13.076  45.336  23.466  1.00  0.00     0.142 A 
ATOM      6  C   UNL     1     -14.070  44.366  23.212  1.00  0.00     0.018 A 
ATOM      7  C   UNL     1     -13.921  43.534  22.098  1.00  0.00     0.019 A 
ATOM      8  C   UNL     1     -12.805  43.686  21.276  1.00  0.00     0.094 A 
ATOM      9  C   UNL     1     -11.860  44.669  21.589  1.00  0.00     0.336 A 
ATOM     10  O   UNL     1     -10.845  44.821  20.859  1.00  0.00    -0.246 OA
ATOM     11  O   UNL     1     -12.025  45.447  22.656  1.00  0.00    -0.423 OA
ENDROOT
BRANCH   3  12
ATOM     12  O   UNL     1     -14.434  46.907  26.535  1.00  0.00    -0.508 OA
ATOM     13  H   UNL     1     -14.486  47.913  26.432  1.00  0.00     0.293 HD
ENDBRANCH   3  12
TORSDOF 1
ENDMDL
MODEL 2
REMARK VINA RESULT:    -5.590     18.823     20.761
REMARK INTER + INTRA:          -5.753
REMARK INTER:                  -5.753
REMARK INTRA:                   0.000
REMARK UNBOUND:                 0.000
REMARK SMILES O=c1ccc2ccc(O)cc2o1
REMARK SMILES IDX 6 1 7 2 8 3 10 4 11 5 5 6 4 7 3 8 2 9 1 10 12 11 9 12
REMARK H PARENT 9 13
REMARK Flexibility Score: inf
ROOT
ATOM      1  C   UNL     1     -25.517  62.400  31.130  1.00  0.00     0.016 A 
ATOM      2  C   UNL     1     -26.427  61.698  31.927  1.00  0.00     0.047 A 
ATOM      3  C   UNL     1     -26.654  60.334  31.710  1.00  0.00     0.119 A 
ATOM      4  C   UNL     1     -25.966  59.665  30.686  1.00  0.00     0.094 A 
ATOM      5  C   UNL     1     -25.054  60.359  29.883  1.00  0.00     0.142 A 
ATOM      6  C   UNL     1     -24.828  61.735  30.106  1.00  0.00     0.018 A 
ATOM      7  C   UNL     1     -23.911  62.402  29.287  1.00  0.00     0.019 A 
ATOM      8  C   UNL     1     -23.252  61.694  28.283  1.00  0.00     0.094 A 
ATOM      9  C   UNL     1     -23.526  60.332  28.119  1.00  0.00     0.336 A 
ATOM     10  O   UNL     1     -22.940  59.677  27.219  1.00  0.00    -0.246 OA
ATOM     11  O   UNL     1     -24.403  59.722  28.912  1.00  0.00    -0.423 OA
ENDROOT
BRANCH   3  12
ATOM     12  O   UNL     1     -27.564  59.652  32.515  1.00  0.00    -0.508 OA
ATOM     13  H   UNL     1     -28.554  59.636  32.300  1.00  0.00     0.293 HD
ENDBRANCH   3  12
TORSDOF 1
ENDMDL
MODEL 3
REMARK VINA RESULT:    -5.519      1.673      2.346
REMARK INTER + INTRA:          -5.681
REMARK INTER:                  -5.681
REMARK INTRA:                   0.000
REMARK UNBOUND:                 0.000
REMARK SMILES O=c1ccc2ccc(O)cc2o1
REMARK SMILES IDX 6 1 7 2 8 3 10 4 11 5 5 6 4 7 3 8 2 9 1 10 12 11 9 12
REMARK H PARENT 9 13
REMARK Flexibility Score: inf
ROOT
ATOM      1  C   UNL     1     -12.642  45.916  24.026  1.00  0.00     0.016 A 
ATOM      2  C   UNL     1     -13.525  45.920  25.111  1.00  0.00     0.047 A 
ATOM      3  C   UNL     1     -14.715  45.185  25.060  1.00  0.00     0.119 A 
ATOM      4  C   UNL     1     -15.026  44.438  23.914  1.00  0.00     0.094 A 
ATOM      5  C   UNL     1     -14.149  44.427  22.823  1.00  0.00     0.142 A 
ATOM      6  C   UNL     1     -12.950  45.171  22.879  1.00  0.00     0.018 A 
ATOM      7  C   UNL     1     -12.094  45.141  21.774  1.00  0.00     0.019 A 
ATOM      8  C   UNL     1     -12.447  44.383  20.657  1.00  0.00     0.094 A 
ATOM      9  C   UNL     1     -13.651  43.671  20.672  1.00  0.00     0.336 A 
ATOM     10  O   UNL     1     -13.986  42.982  19.673  1.00  0.00    -0.246 OA
ATOM     11  O   UNL     1     -14.447  43.717  21.737  1.00  0.00    -0.423 OA
ENDROOT
BRANCH   3  12
ATOM     12  O   UNL     1     -15.581  45.202  26.152  1.00  0.00    -0.508 OA
ATOM     13  H   UNL     1     -15.431  45.824  26.937  1.00  0.00     0.293 HD
ENDBRANCH   3  12
TORSDOF 1
ENDMDL
MODEL 4
REMARK VINA RESULT:    -5.488      1.756      4.730
REMARK INTER + INTRA:          -5.649
REMARK INTER:                  -5.649
REMARK INTRA:                   0.000
REMARK UNBOUND:                 0.000
REMARK SMILES O=c1ccc2ccc(O)cc2o1
REMARK SMILES IDX 6 1 7 2 8 3 10 4 11 5 5 6 4 7 3 8 2 9 1 10 12 11 9 12
REMARK H PARENT 9 13
REMARK Flexibility Score: inf
ROOT
ATOM      1  C   UNL     1     -12.172  45.209  21.880  1.00  0.00     0.016 A 
ATOM      2  C   UNL     1     -12.518  44.429  20.771  1.00  0.00     0.047 A 
ATOM      3  C   UNL     1     -13.679  43.648  20.790  1.00  0.00     0.119 A 
ATOM      4  C   UNL     1     -14.503  43.645  21.925  1.00  0.00     0.094 A 
ATOM      5  C   UNL     1     -14.165  44.422  23.040  1.00  0.00     0.142 A 
ATOM      6  C   UNL     1     -12.992  45.209  23.017  1.00  0.00     0.018 A 
ATOM      7  C   UNL     1     -12.681  45.975  24.145  1.00  0.00     0.019 A 
ATOM      8  C   UNL     1     -13.530  45.940  25.250  1.00  0.00     0.094 A 
ATOM      9  C   UNL     1     -14.675  45.137  25.202  1.00  0.00     0.336 A 
ATOM     10  O   UNL     1     -15.454  45.093  26.190  1.00  0.00    -0.246 OA
ATOM     11  O   UNL     1     -14.948  44.418  24.116  1.00  0.00    -0.423 OA
ENDROOT
BRANCH   3  12
ATOM     12  O   UNL     1     -14.007  42.878  19.675  1.00  0.00    -0.508 OA
ATOM     13  H   UNL     1     -13.390  42.815  18.875  1.00  0.00     0.293 HD
ENDBRANCH   3  12
TORSDOF 1
ENDMDL
MODEL 5
REMARK VINA RESULT:    -5.487      1.107      4.258
REMARK INTER + INTRA:          -5.647
REMARK INTER:                  -5.647
REMARK INTRA:                   0.000
REMARK UNBOUND:                 0.000
REMARK SMILES O=c1ccc2ccc(O)cc2o1
REMARK SMILES IDX 6 1 7 2 8 3 10 4 11 5 5 6 4 7 3 8 2 9 1 10 12 11 9 12
REMARK H PARENT 9 13
REMARK Flexibility Score: inf
ROOT
ATOM      1  C   UNL     1     -14.201  43.582  22.107  1.00  0.00     0.016 A 
ATOM      2  C   UNL     1     -13.053  44.120  21.517  1.00  0.00     0.047 A 
ATOM      3  C   UNL     1     -12.339  45.140  22.158  1.00  0.00     0.119 A 
ATOM      4  C   UNL     1     -12.776  45.625  23.399  1.00  0.00     0.094 A 
ATOM      5  C   UNL     1     -13.924  45.092  23.998  1.00  0.00     0.142 A 
ATOM      6  C   UNL     1     -14.641  44.065  23.347  1.00  0.00     0.018 A 
ATOM      7  C   UNL     1     -15.785  43.552  23.969  1.00  0.00     0.019 A 
ATOM      8  C   UNL     1     -16.179  44.067  25.204  1.00  0.00     0.094 A 
ATOM      9  C   UNL     1     -15.420  45.085  25.789  1.00  0.00     0.336 A 
ATOM     10  O   UNL     1     -15.760  45.562  26.904  1.00  0.00    -0.246 OA
ATOM     11  O   UNL     1     -14.336  45.555  25.176  1.00  0.00    -0.423 OA
ENDROOT
BRANCH   3  12
ATOM     12  O   UNL     1     -11.198  45.663  21.554  1.00  0.00    -0.508 OA
ATOM     13  H   UNL     1     -11.214  46.011  20.603  1.00  0.00     0.293 HD
ENDBRANCH   3  12
TORSDOF 1
ENDMDL
MODEL 6
REMARK VINA RESULT:    -5.468     18.837     20.492
REMARK INTER + INTRA:          -5.628
REMARK INTER:                  -5.628
REMARK INTRA:                   0.000
REMARK UNBOUND:                 0.000
REMARK SMILES O=c1ccc2ccc(O)cc2o1
REMARK SMILES IDX 6 1 7 2 8 3 10 4 11 5 5 6 4 7 3 8 2 9 1 10 12 11 9 12
REMARK H PARENT 9 13
REMARK Flexibility Score: inf
ROOT
ATOM      1  C   UNL     1     -21.607  61.642  28.100  1.00  0.00     0.016 A 
ATOM      2  C   UNL     1     -20.283  61.630  28.550  1.00  0.00     0.047 A 
ATOM      3  C   UNL     1     -20.000  61.686  29.920  1.00  0.00     0.119 A 
ATOM      4  C   UNL     1     -21.049  61.754  30.848  1.00  0.00     0.094 A 
ATOM      5  C   UNL     1     -22.378  61.766  30.408  1.00  0.00     0.142 A 
ATOM      6  C   UNL     1     -22.658  61.710  29.025  1.00  0.00     0.018 A 
ATOM      7  C   UNL     1     -23.995  61.724  28.614  1.00  0.00     0.019 A 
ATOM      8  C   UNL     1     -25.004  61.792  29.575  1.00  0.00     0.094 A 
ATOM      9  C   UNL     1     -24.651  61.845  30.928  1.00  0.00     0.336 A 
ATOM     10  O   UNL     1     -25.548  61.907  31.809  1.00  0.00    -0.246 OA
ATOM     11  O   UNL     1     -23.371  61.831  31.291  1.00  0.00    -0.423 OA
ENDROOT
BRANCH   3  12
ATOM     12  O   UNL     1     -18.674  61.673  30.349  1.00  0.00    -0.508 OA
ATOM     13  H   UNL     1     -17.997  62.340  29.998  1.00  0.00     0.293 HD
ENDBRANCH   3  12
TORSDOF 1
ENDMDL
MODEL 7
REMARK VINA RESULT:    -5.365     18.983     21.464
REMARK INTER + INTRA:          -5.522
REMARK INTER:                  -5.522
REMARK INTRA:                   0.000
REMARK UNBOUND:                 0.000
REMARK SMILES O=c1ccc2ccc(O)cc2o1
REMARK SMILES IDX 6 1 7 2 8 3 10 4 11 5 5 6 4 7 3 8 2 9 1 10 12 11 9 12
REMARK H PARENT 9 13
REMARK Flexibility Score: inf
ROOT
ATOM      1  C   UNL     1     -24.012  62.369  29.329  1.00  0.00     0.016 A 
ATOM      2  C   UNL     1     -23.432  61.510  28.390  1.00  0.00     0.047 A 
ATOM      3  C   UNL     1     -23.819  60.166  28.325  1.00  0.00     0.119 A 
ATOM      4  C   UNL     1     -24.795  59.676  29.206  1.00  0.00     0.094 A 
ATOM      5  C   UNL     1     -25.381  60.528  30.149  1.00  0.00     0.142 A 
ATOM      6  C   UNL     1     -24.987  61.883  30.212  1.00  0.00     0.018 A 
ATOM      7  C   UNL     1     -25.590  62.710  31.165  1.00  0.00     0.019 A 
ATOM      8  C   UNL     1     -26.556  62.177  32.018  1.00  0.00     0.094 A 
ATOM      9  C   UNL     1     -26.896  60.825  31.900  1.00  0.00     0.336 A 
ATOM     10  O   UNL     1     -27.766  60.327  32.661  1.00  0.00    -0.246 OA
ATOM     11  O   UNL     1     -26.307  60.060  30.984  1.00  0.00    -0.423 OA
ENDROOT
BRANCH   3  12
ATOM     12  O   UNL     1     -23.230  59.326  27.382  1.00  0.00    -0.508 OA
ATOM     13  H   UNL     1     -22.493  59.653  26.769  1.00  0.00     0.293 HD
ENDBRANCH   3  12
TORSDOF 1
ENDMDL
MODEL 8
REMARK VINA RESULT:    -5.314     19.013     20.600
REMARK INTER + INTRA:          -5.469
REMARK INTER:                  -5.469
REMARK INTRA:                   0.000
REMARK UNBOUND:                 0.000
REMARK SMILES O=c1ccc2ccc(O)cc2o1
REMARK SMILES IDX 6 1 7 2 8 3 10 4 11 5 5 6 4 7 3 8 2 9 1 10 12 11 9 12
REMARK H PARENT 9 13
REMARK Flexibility Score: inf
ROOT
ATOM      1  C   UNL     1     -20.918  61.451  29.865  1.00  0.00     0.016 A 
ATOM      2  C   UNL     1     -20.656  61.639  28.504  1.00  0.00     0.047 A 
ATOM      3  C   UNL     1     -21.707  61.821  27.598  1.00  0.00     0.119 A 
ATOM      4  C   UNL     1     -23.033  61.818  28.056  1.00  0.00     0.094 A 
ATOM      5  C   UNL     1     -23.306  61.630  29.417  1.00  0.00     0.142 A 
ATOM      6  C   UNL     1     -22.242  61.446  30.327  1.00  0.00     0.018 A 
ATOM      7  C   UNL     1     -22.545  61.261  31.679  1.00  0.00     0.019 A 
ATOM      8  C   UNL     1     -23.878  61.266  32.087  1.00  0.00     0.094 A 
ATOM      9  C   UNL     1     -24.881  61.454  31.130  1.00  0.00     0.336 A 
ATOM     10  O   UNL     1     -26.090  61.461  31.479  1.00  0.00    -0.246 OA
ATOM     11  O   UNL     1     -24.565  61.627  29.849  1.00  0.00    -0.423 OA
ENDROOT
BRANCH   3  12
ATOM     12  O   UNL     1     -21.426  62.007  26.246  1.00  0.00    -0.508 OA
ATOM     13  H   UNL     1     -20.539  61.724  25.847  1.00  0.00     0.293 HD
ENDBRANCH   3  12
TORSDOF 1
ENDMDL
MODEL 9
REMARK VINA RESULT:    -5.297     18.560     20.428
REMARK INTER + INTRA:          -5.452
REMARK INTER:                  -5.452
REMARK INTRA:                   0.000
REMARK UNBOUND:                 0.000
REMARK SMILES O=c1ccc2ccc(O)cc2o1
REMARK SMILES IDX 6 1 7 2 8 3 10 4 11 5 5 6 4 7 3 8 2 9 1 10 12 11 9 12
REMARK H PARENT 9 13
REMARK Flexibility Score: inf
ROOT
ATOM      1  C   UNL     1     -25.578  59.644  30.233  1.00  0.00     0.016 A 
ATOM      2  C   UNL     1     -26.293  60.482  31.095  1.00  0.00     0.047 A 
ATOM      3  C   UNL     1     -26.025  61.856  31.131  1.00  0.00     0.119 A 
ATOM      4  C   UNL     1     -25.034  62.397  30.298  1.00  0.00     0.094 A 
ATOM      5  C   UNL     1     -24.313  61.566  29.432  1.00  0.00     0.142 A 
ATOM      6  C   UNL     1     -24.586  60.181  29.400  1.00  0.00     0.018 A 
ATOM      7  C   UNL     1     -23.850  59.377  28.525  1.00  0.00     0.019 A 
ATOM      8  C   UNL     1     -22.876  59.961  27.716  1.00  0.00     0.094 A 
ATOM      9  C   UNL     1     -22.659  61.340  27.802  1.00  0.00     0.336 A 
ATOM     10  O   UNL     1     -21.784  61.885  27.080  1.00  0.00    -0.246 OA
ATOM     11  O   UNL     1     -23.374  62.083  28.643  1.00  0.00    -0.423 OA
ENDROOT
BRANCH   3  12
ATOM     12  O   UNL     1     -26.748  62.675  31.996  1.00  0.00    -0.508 OA
ATOM     13  H   UNL     1     -27.684  62.988  31.769  1.00  0.00     0.293 HD
ENDBRANCH   3  12
TORSDOF 1
ENDMDL
