MODEL 1
REMARK VINA RESULT:    -3.208      0.000      0.000
REMARK INTER + INTRA:          -3.889
REMARK INTER:                  -3.771
REMARK INTRA:                  -0.118
REMARK UNBOUND:                -0.118
REMARK SMILES O=C([O-])CCC(=O)[O-]
REMARK SMILES IDX 4 1 2 2 1 3 3 4 5 5 6 6 7 7 8 8
REMARK H PARENT
REMARK Flexibility Score: inf
ROOT
ATOM      1  C   UNL     1       4.487   8.270  -3.634  1.00  0.00     0.059 C 
ENDROOT
BRANCH   1   2
ATOM      2  C   UNL     1       4.020   8.409  -2.218  1.00  0.00     0.042 C 
ATOM      3  O   UNL     1       3.570   7.409  -1.598  1.00  0.00    -0.550 OA
ATOM      4  O   UNL     1       4.043   9.651  -1.596  1.00  0.00    -0.550 OA
ENDBRANCH   1   2
BRANCH   1   5
ATOM      5  C   UNL     1       5.658   7.289  -3.749  1.00  0.00     0.059 C 
BRANCH   5   6
ATOM      6  C   UNL     1       5.249   6.018  -4.429  1.00  0.00     0.042 C 
ATOM      7  O   UNL     1       5.516   5.835  -5.645  1.00  0.00    -0.550 OA
ATOM      8  O   UNL     1       4.608   5.019  -3.706  1.00  0.00    -0.550 OA
ENDBRANCH   5   6
ENDBRANCH   1   5
TORSDOF 3
ENDMDL
MODEL 2
REMARK VINA RESULT:    -3.204      0.061      3.973
REMARK INTER + INTRA:          -3.884
REMARK INTER:                  -3.771
REMARK INTRA:                  -0.114
REMARK UNBOUND:                -0.118
REMARK SMILES O=C([O-])CCC(=O)[O-]
REMARK SMILES IDX 4 1 2 2 1 3 3 4 5 5 6 6 7 7 8 8
REMARK H PARENT
REMARK Flexibility Score: inf
ROOT
ATOM      1  C   UNL     1       5.691   7.244  -3.702  1.00  0.00     0.059 C 
ENDROOT
BRANCH   1   2
ATOM      2  C   UNL     1       5.247   6.009  -4.425  1.00  0.00     0.042 C 
ATOM      3  O   UNL     1       5.436   5.899  -5.665  1.00  0.00    -0.550 OA
ATOM      4  O   UNL     1       4.589   4.998  -3.736  1.00  0.00    -0.550 OA
ENDBRANCH   1   2
BRANCH   1   5
ATOM      5  C   UNL     1       4.575   8.292  -3.636  1.00  0.00     0.059 C 
BRANCH   5   6
ATOM      6  C   UNL     1       4.027   8.426  -2.248  1.00  0.00     0.042 C 
ATOM      7  O   UNL     1       3.595   7.414  -1.635  1.00  0.00    -0.550 OA
ATOM      8  O   UNL     1       4.030   9.663  -1.617  1.00  0.00    -0.550 OA
ENDBRANCH   5   6
ENDBRANCH   1   5
TORSDOF 3
ENDMDL
MODEL 3
REMARK VINA RESULT:    -2.839      1.864      3.290
REMARK INTER + INTRA:          -3.455
REMARK INTER:                  -3.337
REMARK INTRA:                  -0.118
REMARK UNBOUND:                -0.118
REMARK SMILES O=C([O-])CCC(=O)[O-]
REMARK SMILES IDX 4 1 2 2 1 3 3 4 5 5 6 6 7 7 8 8
REMARK H PARENT
REMARK Flexibility Score: inf
ROOT
ATOM      1  C   UNL     1       5.808   7.074  -4.286  1.00  0.00     0.059 C 
ENDROOT
BRANCH   1   2
ATOM      2  C   UNL     1       4.914   6.252  -3.410  1.00  0.00     0.042 C 
ATOM      3  O   UNL     1       4.625   5.069  -3.732  1.00  0.00    -0.550 OA
ATOM      4  O   UNL     1       4.368   6.805  -2.258  1.00  0.00    -0.550 OA
ENDBRANCH   1   2
BRANCH   1   5
ATOM      5  C   UNL     1       5.007   7.863  -5.328  1.00  0.00     0.059 C 
BRANCH   5   6
ATOM      6  C   UNL     1       4.514   9.165  -4.775  1.00  0.00     0.042 C 
ATOM      7  O   UNL     1       3.433   9.661  -5.188  1.00  0.00    -0.550 OA
ATOM      8  O   UNL     1       5.228   9.809  -3.773  1.00  0.00    -0.550 OA
ENDBRANCH   5   6
ENDBRANCH   1   5
TORSDOF 3
ENDMDL
MODEL 4
REMARK VINA RESULT:    -2.775      1.879      2.863
REMARK INTER + INTRA:          -3.380
REMARK INTER:                  -3.279
REMARK INTRA:                  -0.101
REMARK UNBOUND:                -0.118
REMARK SMILES O=C([O-])CCC(=O)[O-]
REMARK SMILES IDX 4 1 2 2 1 3 3 4 5 5 6 6 7 7 8 8
REMARK H PARENT
REMARK Flexibility Score: inf
ROOT
ATOM      1  C   UNL     1       5.292   8.699  -4.047  1.00  0.00     0.059 C 
ENDROOT
BRANCH   1   2
ATOM      2  C   UNL     1       4.461   8.919  -5.273  1.00  0.00     0.042 C 
ATOM      3  O   UNL     1       4.779   8.370  -6.361  1.00  0.00    -0.550 OA
ATOM      4  O   UNL     1       3.359   9.764  -5.226  1.00  0.00    -0.550 OA
ENDBRANCH   1   2
BRANCH   1   5
ATOM      5  C   UNL     1       5.811   7.259  -3.967  1.00  0.00     0.059 C 
BRANCH   5   6
ATOM      6  C   UNL     1       4.859   6.370  -3.228  1.00  0.00     0.042 C 
ATOM      7  O   UNL     1       4.219   6.810  -2.236  1.00  0.00    -0.550 OA
ATOM      8  O   UNL     1       4.649   5.066  -3.659  1.00  0.00    -0.550 OA
ENDBRANCH   5   6
ENDBRANCH   1   5
TORSDOF 3
ENDMDL
MODEL 5
REMARK VINA RESULT:    -2.769      1.734      2.778
REMARK INTER + INTRA:          -3.373
REMARK INTER:                  -3.261
REMARK INTRA:                  -0.112
REMARK UNBOUND:                -0.118
REMARK SMILES O=C([O-])CCC(=O)[O-]
REMARK SMILES IDX 4 1 2 2 1 3 3 4 5 5 6 6 7 7 8 8
REMARK H PARENT
REMARK Flexibility Score: inf
ROOT
ATOM      1  C   UNL     1       5.800   7.050  -4.328  1.00  0.00     0.059 C 
ENDROOT
BRANCH   1   2
ATOM      2  C   UNL     1       4.893   6.263  -3.432  1.00  0.00     0.042 C 
ATOM      3  O   UNL     1       4.635   5.058  -3.693  1.00  0.00    -0.550 OA
ATOM      4  O   UNL     1       4.301   6.871  -2.332  1.00  0.00    -0.550 OA
ENDBRANCH   1   2
BRANCH   1   5
ATOM      5  C   UNL     1       5.116   7.408  -5.651  1.00  0.00     0.059 C 
BRANCH   5   6
ATOM      6  C   UNL     1       5.575   6.521  -6.767  1.00  0.00     0.042 C 
ATOM      7  O   UNL     1       6.626   5.839  -6.644  1.00  0.00    -0.550 OA
ATOM      8  O   UNL     1       4.819   6.418  -7.928  1.00  0.00    -0.550 OA
ENDBRANCH   5   6
ENDBRANCH   1   5
TORSDOF 3
ENDMDL
MODEL 6
REMARK VINA RESULT:    -2.723      9.556     10.287
REMARK INTER + INTRA:          -3.319
REMARK INTER:                  -3.131
REMARK INTRA:                  -0.189
REMARK UNBOUND:                -0.118
REMARK SMILES O=C([O-])CCC(=O)[O-]
REMARK SMILES IDX 4 1 2 2 1 3 3 4 5 5 6 6 7 7 8 8
REMARK H PARENT
REMARK Flexibility Score: inf
ROOT
ATOM      1  C   UNL     1       1.876   5.901   5.261  1.00  0.00     0.059 C 
ENDROOT
BRANCH   1   2
ATOM      2  C   UNL     1       2.246   6.943   6.271  1.00  0.00     0.042 C 
ATOM      3  O   UNL     1       3.303   7.614   6.131  1.00  0.00    -0.550 OA
ATOM      4  O   UNL     1       1.446   7.145   7.388  1.00  0.00    -0.550 OA
ENDBRANCH   1   2
BRANCH   1   5
ATOM      5  C   UNL     1       2.881   4.744   5.249  1.00  0.00     0.059 C 
BRANCH   5   6
ATOM      6  C   UNL     1       2.970   4.076   6.586  1.00  0.00     0.042 C 
ATOM      7  O   UNL     1       4.053   4.083   7.229  1.00  0.00    -0.550 OA
ATOM      8  O   UNL     1       1.845   3.479   7.140  1.00  0.00    -0.550 OA
ENDBRANCH   5   6
ENDBRANCH   1   5
TORSDOF 3
ENDMDL
MODEL 7
REMARK VINA RESULT:    -2.707      9.573     10.651
REMARK INTER + INTRA:          -3.300
REMARK INTER:                  -3.117
REMARK INTRA:                  -0.183
REMARK UNBOUND:                -0.118
REMARK SMILES O=C([O-])CCC(=O)[O-]
REMARK SMILES IDX 4 1 2 2 1 3 3 4 5 5 6 6 7 7 8 8
REMARK H PARENT
REMARK Flexibility Score: inf
ROOT
ATOM      1  C   UNL     1       2.879   4.762   5.260  1.00  0.00     0.059 C 
ENDROOT
BRANCH   1   2
ATOM      2  C   UNL     1       2.985   4.113   6.605  1.00  0.00     0.042 C 
ATOM      3  O   UNL     1       4.089   4.088   7.211  1.00  0.00    -0.550 OA
ATOM      4  O   UNL     1       1.876   3.498   7.172  1.00  0.00    -0.550 OA
ENDBRANCH   1   2
BRANCH   1   5
ATOM      5  C   UNL     1       1.906   5.945   5.278  1.00  0.00     0.059 C 
BRANCH   5   6
ATOM      6  C   UNL     1       2.292   6.961   6.310  1.00  0.00     0.042 C 
ATOM      7  O   UNL     1       3.338   7.646   6.166  1.00  0.00    -0.550 OA
ATOM      8  O   UNL     1       1.473   7.178   7.411  1.00  0.00    -0.550 OA
ENDBRANCH   5   6
ENDBRANCH   1   5
TORSDOF 3
ENDMDL
MODEL 8
REMARK VINA RESULT:    -2.703     13.468     14.375
REMARK INTER + INTRA:          -3.296
REMARK INTER:                  -3.182
REMARK INTRA:                  -0.114
REMARK UNBOUND:                -0.118
REMARK SMILES O=C([O-])CCC(=O)[O-]
REMARK SMILES IDX 4 1 2 2 1 3 3 4 5 5 6 6 7 7 8 8
REMARK H PARENT
REMARK Flexibility Score: inf
ROOT
ATOM      1  C   UNL     1       3.868  -3.087   6.170  1.00  0.00     0.059 C 
ENDROOT
BRANCH   1   2
ATOM      2  C   UNL     1       4.547  -3.734   7.337  1.00  0.00     0.042 C 
ATOM      3  O   UNL     1       5.643  -4.335   7.179  1.00  0.00    -0.550 OA
ATOM      4  O   UNL     1       3.952  -3.709   8.592  1.00  0.00    -0.550 OA
ENDBRANCH   1   2
BRANCH   1   5
ATOM      5  C   UNL     1       4.217  -1.599   6.067  1.00  0.00     0.059 C 
BRANCH   5   6
ATOM      6  C   UNL     1       3.053  -0.732   6.439  1.00  0.00     0.042 C 
ATOM      7  O   UNL     1       2.492  -0.870   7.558  1.00  0.00    -0.550 OA
ATOM      8  O   UNL     1       2.615   0.255   5.566  1.00  0.00    -0.550 OA
ENDBRANCH   5   6
ENDBRANCH   1   5
TORSDOF 3
ENDMDL
MODEL 9
REMARK VINA RESULT:    -2.702     13.339     13.968
REMARK INTER + INTRA:          -3.294
REMARK INTER:                  -3.200
REMARK INTRA:                  -0.094
REMARK UNBOUND:                -0.118
REMARK SMILES O=C([O-])CCC(=O)[O-]
REMARK SMILES IDX 4 1 2 2 1 3 3 4 5 5 6 6 7 7 8 8
REMARK H PARENT
REMARK Flexibility Score: inf
ROOT
ATOM      1  C   UNL     1       4.157  -1.476   6.009  1.00  0.00     0.059 C 
ENDROOT
BRANCH   1   2
ATOM      2  C   UNL     1       2.957  -0.655   6.368  1.00  0.00     0.042 C 
ATOM      3  O   UNL     1       2.598   0.299   5.628  1.00  0.00    -0.550 OA
ATOM      4  O   UNL     1       2.259  -0.917   7.539  1.00  0.00    -0.550 OA
ENDBRANCH   1   2
BRANCH   1   5
ATOM      5  C   UNL     1       3.852  -2.976   6.061  1.00  0.00     0.059 C 
BRANCH   5   6
ATOM      6  C   UNL     1       4.637  -3.662   7.137  1.00  0.00     0.042 C 
ATOM      7  O   UNL     1       5.882  -3.811   7.018  1.00  0.00    -0.550 OA
ATOM      8  O   UNL     1       3.998  -4.101   8.289  1.00  0.00    -0.550 OA
ENDBRANCH   5   6
ENDBRANCH   1   5
TORSDOF 3
ENDMDL
