MODEL 1
REMARK VINA RESULT:    -4.064      0.000      0.000
REMARK INTER + INTRA:          -4.607
REMARK INTER:                  -4.421
REMARK INTRA:                  -0.186
REMARK UNBOUND:                -0.186
REMARK SMILES C=C(C)[C@H]1CC[C@@H](C)C[C@H]1O
REMARK SMILES IDX 8 1 7 2 6 3 5 4 4 5 10 6 9 7 11 8 2 10 1 11 3 12
REMARK H PARENT 11 9
REMARK Flexibility Score: inf
ROOT
ATOM      1  C   UNL     1     133.794 141.689 135.691  1.00  0.00     0.008 C 
ATOM      2  C   UNL     1     133.938 140.332 136.400  1.00  0.00    -0.012 C 
ATOM      3  C   UNL     1     133.217 139.202 135.636  1.00  0.00     0.004 C 
ATOM      4  C   UNL     1     131.693 139.246 135.819  1.00  0.00     0.011 C 
ATOM      5  C   UNL     1     131.321 139.216 137.315  1.00  0.00     0.043 C 
ATOM      6  C   UNL     1     131.974 140.388 138.086  1.00  0.00     0.121 C 
ATOM      7  C   UNL     1     133.502 140.386 137.884  1.00  0.00     0.035 C 
ENDROOT
BRANCH   6   8
ATOM      8  O   UNL     1     131.448 141.626 137.682  1.00  0.00    -0.392 OA
ATOM      9  H   UNL     1     132.106 142.325 137.936  1.00  0.00     0.210 HD
ENDBRANCH   6   8
BRANCH   5  10
ATOM     10  C   UNL     1     129.813 139.146 137.534  1.00  0.00    -0.075 C 
ATOM     11  C   UNL     1     129.281 138.988 138.759  1.00  0.00     0.008 C 
ATOM     12  C   UNL     1     128.876 139.267 136.359  1.00  0.00     0.039 C 
ENDBRANCH   5  10
TORSDOF 2
ENDMDL
MODEL 2
REMARK VINA RESULT:    -3.985     14.229     15.713
REMARK INTER + INTRA:          -4.521
REMARK INTER:                  -4.336
REMARK INTRA:                  -0.185
REMARK UNBOUND:                -0.186
REMARK SMILES C=C(C)[C@H]1CC[C@@H](C)C[C@H]1O
REMARK SMILES IDX 8 1 7 2 6 3 5 4 4 5 10 6 9 7 11 8 2 10 1 11 3 12
REMARK H PARENT 11 9
REMARK Flexibility Score: inf
ROOT
ATOM      1  C   UNL     1     136.581 132.477 149.756  1.00  0.00     0.008 C 
ATOM      2  C   UNL     1     136.937 133.224 148.459  1.00  0.00    -0.012 C 
ATOM      3  C   UNL     1     138.208 132.654 147.794  1.00  0.00     0.004 C 
ATOM      4  C   UNL     1     139.494 133.088 148.512  1.00  0.00     0.011 C 
ATOM      5  C   UNL     1     139.573 134.624 148.610  1.00  0.00     0.043 C 
ATOM      6  C   UNL     1     138.342 135.211 149.343  1.00  0.00     0.121 C 
ATOM      7  C   UNL     1     137.037 134.755 148.661  1.00  0.00     0.035 C 
ENDROOT
BRANCH   6   8
ATOM      8  O   UNL     1     138.322 134.836 150.697  1.00  0.00    -0.392 OA
ATOM      9  H   UNL     1     139.261 134.658 150.969  1.00  0.00     0.210 HD
ENDBRANCH   6   8
BRANCH   5  10
ATOM     10  C   UNL     1     140.890 135.098 149.219  1.00  0.00    -0.075 C 
ATOM     11  C   UNL     1     141.208 136.402 149.293  1.00  0.00     0.008 C 
ATOM     12  C   UNL     1     141.870 134.092 149.767  1.00  0.00     0.039 C 
ENDBRANCH   5  10
TORSDOF 2
ENDMDL
MODEL 3
REMARK VINA RESULT:    -3.918      1.651      2.476
REMARK INTER + INTRA:          -4.448
REMARK INTER:                  -4.277
REMARK INTRA:                  -0.171
REMARK UNBOUND:                -0.186
REMARK SMILES C=C(C)[C@H]1CC[C@@H](C)C[C@H]1O
REMARK SMILES IDX 8 1 7 2 6 3 5 4 4 5 10 6 9 7 11 8 2 10 1 11 3 12
REMARK H PARENT 11 9
REMARK Flexibility Score: inf
ROOT
ATOM      1  C   UNL     1     132.680 138.129 134.220  1.00  0.00     0.008 C 
ATOM      2  C   UNL     1     132.866 137.540 135.628  1.00  0.00    -0.012 C 
ATOM      3  C   UNL     1     131.547 136.978 136.199  1.00  0.00     0.004 C 
ATOM      4  C   UNL     1     130.595 138.082 136.681  1.00  0.00     0.011 C 
ATOM      5  C   UNL     1     131.292 138.991 137.713  1.00  0.00     0.043 C 
ATOM      6  C   UNL     1     132.579 139.626 137.134  1.00  0.00     0.121 C 
ATOM      7  C   UNL     1     133.533 138.535 136.608  1.00  0.00     0.035 C 
ENDROOT
BRANCH   6   8
ATOM      8  O   UNL     1     132.286 140.533 136.102  1.00  0.00    -0.392 OA
ATOM      9  H   UNL     1     131.306 140.693 136.117  1.00  0.00     0.210 HD
ENDBRANCH   6   8
BRANCH   5  10
ATOM     10  C   UNL     1     130.344 140.034 138.298  1.00  0.00    -0.075 C 
ATOM     11  C   UNL     1     129.030 140.035 138.014  1.00  0.00     0.008 C 
ATOM     12  C   UNL     1     130.873 141.093 139.231  1.00  0.00     0.039 C 
ENDBRANCH   5  10
TORSDOF 2
ENDMDL
MODEL 4
REMARK VINA RESULT:    -3.856      2.109      4.176
REMARK INTER + INTRA:          -4.381
REMARK INTER:                  -4.213
REMARK INTRA:                  -0.167
REMARK UNBOUND:                -0.186
REMARK SMILES C=C(C)[C@H]1CC[C@@H](C)C[C@H]1O
REMARK SMILES IDX 8 1 7 2 6 3 5 4 4 5 10 6 9 7 11 8 2 10 1 11 3 12
REMARK H PARENT 11 9
REMARK Flexibility Score: inf
ROOT
ATOM      1  C   UNL     1     128.974 140.205 137.610  1.00  0.00     0.008 C 
ATOM      2  C   UNL     1     130.049 139.428 138.387  1.00  0.00    -0.012 C 
ATOM      3  C   UNL     1     131.467 139.974 138.116  1.00  0.00     0.004 C 
ATOM      4  C   UNL     1     132.010 139.548 136.745  1.00  0.00     0.011 C 
ATOM      5  C   UNL     1     131.981 138.014 136.599  1.00  0.00     0.043 C 
ATOM      6  C   UNL     1     130.553 137.452 136.792  1.00  0.00     0.121 C 
ATOM      7  C   UNL     1     129.971 137.901 138.147  1.00  0.00     0.035 C 
ENDROOT
BRANCH   6   8
ATOM      8  O   UNL     1     129.695 137.857 135.755  1.00  0.00    -0.392 OA
ATOM      9  H   UNL     1     129.043 137.122 135.605  1.00  0.00     0.210 HD
ENDBRANCH   6   8
BRANCH   5  10
ATOM     10  C   UNL     1     132.616 137.545 135.293  1.00  0.00    -0.075 C 
ATOM     11  C   UNL     1     132.787 138.377 134.250  1.00  0.00     0.008 C 
ATOM     12  C   UNL     1     133.082 136.118 135.152  1.00  0.00     0.039 C 
ENDBRANCH   5  10
TORSDOF 2
ENDMDL
MODEL 5
REMARK VINA RESULT:    -3.840     14.300     15.506
REMARK INTER + INTRA:          -4.363
REMARK INTER:                  -4.183
REMARK INTRA:                  -0.180
REMARK UNBOUND:                -0.186
REMARK SMILES C=C(C)[C@H]1CC[C@@H](C)C[C@H]1O
REMARK SMILES IDX 8 1 7 2 6 3 5 4 4 5 10 6 9 7 11 8 2 10 1 11 3 12
REMARK H PARENT 11 9
REMARK Flexibility Score: inf
ROOT
ATOM      1  C   UNL     1     142.535 134.017 149.344  1.00  0.00     0.008 C 
ATOM      2  C   UNL     1     141.774 135.255 148.843  1.00  0.00    -0.012 C 
ATOM      3  C   UNL     1     140.892 135.877 149.946  1.00  0.00     0.004 C 
ATOM      4  C   UNL     1     139.610 135.072 150.200  1.00  0.00     0.011 C 
ATOM      5  C   UNL     1     138.807 134.897 148.895  1.00  0.00     0.043 C 
ATOM      6  C   UNL     1     139.650 134.205 147.798  1.00  0.00     0.121 C 
ATOM      7  C   UNL     1     140.963 134.976 147.555  1.00  0.00     0.035 C 
ENDROOT
BRANCH   6   8
ATOM      8  O   UNL     1     139.944 132.873 148.137  1.00  0.00    -0.392 OA
ATOM      9  H   UNL     1     139.078 132.397 148.243  1.00  0.00     0.210 HD
ENDBRANCH   6   8
BRANCH   5  10
ATOM     10  C   UNL     1     137.471 134.197 149.128  1.00  0.00    -0.075 C 
ATOM     11  C   UNL     1     136.595 133.992 148.129  1.00  0.00     0.008 C 
ATOM     12  C   UNL     1     137.111 133.704 150.506  1.00  0.00     0.039 C 
ENDBRANCH   5  10
TORSDOF 2
ENDMDL
MODEL 6
REMARK VINA RESULT:    -3.757     13.928     14.889
REMARK INTER + INTRA:          -4.273
REMARK INTER:                  -4.123
REMARK INTRA:                  -0.150
REMARK UNBOUND:                -0.186
REMARK SMILES C=C(C)[C@H]1CC[C@@H](C)C[C@H]1O
REMARK SMILES IDX 8 1 7 2 6 3 5 4 4 5 10 6 9 7 11 8 2 10 1 11 3 12
REMARK H PARENT 11 9
REMARK Flexibility Score: inf
ROOT
ATOM      1  C   UNL     1     139.779 134.579 147.987  1.00  0.00     0.008 C 
ATOM      2  C   UNL     1     138.301 134.825 147.642  1.00  0.00    -0.012 C 
ATOM      3  C   UNL     1     137.460 135.146 148.896  1.00  0.00     0.004 C 
ATOM      4  C   UNL     1     137.157 133.898 149.738  1.00  0.00     0.011 C 
ATOM      5  C   UNL     1     136.468 132.816 148.883  1.00  0.00     0.043 C 
ATOM      6  C   UNL     1     137.330 132.424 147.660  1.00  0.00     0.121 C 
ATOM      7  C   UNL     1     137.680 133.669 146.821  1.00  0.00     0.035 C 
ENDROOT
BRANCH   6   8
ATOM      8  O   UNL     1     138.513 131.773 148.051  1.00  0.00    -0.392 OA
ATOM      9  H   UNL     1     138.834 131.248 147.271  1.00  0.00     0.210 HD
ENDBRANCH   6   8
BRANCH   5  10
ATOM     10  C   UNL     1     136.051 131.604 149.711  1.00  0.00    -0.075 C 
ATOM     11  C   UNL     1     136.097 131.615 151.055  1.00  0.00     0.008 C 
ATOM     12  C   UNL     1     135.562 130.355 149.023  1.00  0.00     0.039 C 
ENDBRANCH   5  10
TORSDOF 2
ENDMDL
MODEL 7
REMARK VINA RESULT:    -3.739      8.422     10.099
REMARK INTER + INTRA:          -4.253
REMARK INTER:                  -4.131
REMARK INTRA:                  -0.122
REMARK UNBOUND:                -0.186
REMARK SMILES C=C(C)[C@H]1CC[C@@H](C)C[C@H]1O
REMARK SMILES IDX 8 1 7 2 6 3 5 4 4 5 10 6 9 7 11 8 2 10 1 11 3 12
REMARK H PARENT 11 9
REMARK Flexibility Score: inf
ROOT
ATOM      1  C   UNL     1     136.282 148.302 135.151  1.00  0.00     0.008 C 
ATOM      2  C   UNL     1     135.033 148.634 135.984  1.00  0.00    -0.012 C 
ATOM      3  C   UNL     1     135.188 149.961 136.755  1.00  0.00     0.004 C 
ATOM      4  C   UNL     1     136.092 149.825 137.988  1.00  0.00     0.011 C 
ATOM      5  C   UNL     1     135.579 148.709 138.921  1.00  0.00     0.043 C 
ATOM      6  C   UNL     1     135.488 147.351 138.186  1.00  0.00     0.121 C 
ATOM      7  C   UNL     1     134.616 147.475 136.921  1.00  0.00     0.035 C 
ENDROOT
BRANCH   6   8
ATOM      8  O   UNL     1     136.761 146.870 137.834  1.00  0.00    -0.392 OA
ATOM      9  H   UNL     1     136.632 146.165 137.146  1.00  0.00     0.210 HD
ENDBRANCH   6   8
BRANCH   5  10
ATOM     10  C   UNL     1     136.389 148.618 140.211  1.00  0.00    -0.075 C 
ATOM     11  C   UNL     1     135.837 148.205 141.366  1.00  0.00     0.008 C 
ATOM     12  C   UNL     1     137.851 148.985 140.210  1.00  0.00     0.039 C 
ENDBRANCH   5  10
TORSDOF 2
ENDMDL
MODEL 8
REMARK VINA RESULT:    -3.730     14.091     15.833
REMARK INTER + INTRA:          -4.244
REMARK INTER:                  -4.074
REMARK INTRA:                  -0.170
REMARK UNBOUND:                -0.186
REMARK SMILES C=C(C)[C@H]1CC[C@@H](C)C[C@H]1O
REMARK SMILES IDX 8 1 7 2 6 3 5 4 4 5 10 6 9 7 11 8 2 10 1 11 3 12
REMARK H PARENT 11 9
REMARK Flexibility Score: inf
ROOT
ATOM      1  C   UNL     1     137.822 135.155 148.551  1.00  0.00     0.008 C 
ATOM      2  C   UNL     1     138.879 134.257 149.214  1.00  0.00    -0.012 C 
ATOM      3  C   UNL     1     139.777 135.045 150.191  1.00  0.00     0.004 C 
ATOM      4  C   UNL     1     140.821 135.907 149.468  1.00  0.00     0.011 C 
ATOM      5  C   UNL     1     141.676 135.045 148.517  1.00  0.00     0.043 C 
ATOM      6  C   UNL     1     140.800 134.304 147.479  1.00  0.00     0.121 C 
ATOM      7  C   UNL     1     139.717 133.463 148.184  1.00  0.00     0.035 C 
ENDROOT
BRANCH   6   8
ATOM      8  O   UNL     1     140.191 135.202 146.585  1.00  0.00    -0.392 OA
ATOM      9  H   UNL     1     139.210 135.144 146.730  1.00  0.00     0.210 HD
ENDBRANCH   6   8
BRANCH   5  10
ATOM     10  C   UNL     1     142.798 135.846 147.863  1.00  0.00    -0.075 C 
ATOM     11  C   UNL     1     143.901 135.251 147.374  1.00  0.00     0.008 C 
ATOM     12  C   UNL     1     142.681 137.344 147.742  1.00  0.00     0.039 C 
ENDBRANCH   5  10
TORSDOF 2
ENDMDL
MODEL 9
REMARK VINA RESULT:    -3.716     15.404     16.662
REMARK INTER + INTRA:          -4.229
REMARK INTER:                  -4.045
REMARK INTRA:                  -0.183
REMARK UNBOUND:                -0.186
REMARK SMILES C=C(C)[C@H]1CC[C@@H](C)C[C@H]1O
REMARK SMILES IDX 8 1 7 2 6 3 5 4 4 5 10 6 9 7 11 8 2 10 1 11 3 12
REMARK H PARENT 11 9
REMARK Flexibility Score: inf
ROOT
ATOM      1  C   UNL     1     145.886 140.838 142.043  1.00  0.00     0.008 C 
ATOM      2  C   UNL     1     146.720 139.547 142.028  1.00  0.00    -0.012 C 
ATOM      3  C   UNL     1     145.853 138.296 142.282  1.00  0.00     0.004 C 
ATOM      4  C   UNL     1     145.459 138.141 143.758  1.00  0.00     0.011 C 
ATOM      5  C   UNL     1     146.711 138.128 144.658  1.00  0.00     0.043 C 
ATOM      6  C   UNL     1     147.556 139.410 144.475  1.00  0.00     0.121 C 
ATOM      7  C   UNL     1     147.929 139.607 142.992  1.00  0.00     0.035 C 
ENDROOT
BRANCH   6   8
ATOM      8  O   UNL     1     146.876 140.547 144.943  1.00  0.00    -0.392 OA
ATOM      9  H   UNL     1     146.594 140.359 145.877  1.00  0.00     0.210 HD
ENDBRANCH   6   8
BRANCH   5  10
ATOM     10  C   UNL     1     146.368 137.864 146.122  1.00  0.00    -0.075 C 
ATOM     11  C   UNL     1     147.321 137.733 147.061  1.00  0.00     0.008 C 
ATOM     12  C   UNL     1     144.926 137.754 146.548  1.00  0.00     0.039 C 
ENDBRANCH   5  10
TORSDOF 2
ENDMDL
