MODEL 1
REMARK VINA RESULT:    -5.488      0.000      0.000
REMARK INTER + INTRA:         -16.784
REMARK INTER:                 -13.831
REMARK INTRA:                  -2.954
REMARK UNBOUND:                -2.954
REMARK SMILES CCCCCCCCCCCCCCCCCCCCCCCCCCCC(=O)[O-]
REMARK SMILES IDX 15 1 16 2 17 3 18 4 19 5 20 6 21 7 22 8 23 9 24 10 25 11
REMARK SMILES IDX 26 12 27 13 28 14 29 15 30 16 14 17 13 18 12 19 11 20 10 21
REMARK SMILES IDX 9 22 8 23 7 24 6 25 5 26 4 27 3 28 2 29 1 30
REMARK H PARENT
REMARK Flexibility Score: inf
ROOT
ATOM      1  C   UNL     1       3.030  58.222  21.804  1.00  0.00     0.000 C 
ENDROOT
BRANCH   1   2
ATOM      2  C   UNL     1       2.591  59.673  21.581  1.00  0.00     0.000 C 
BRANCH   2   3
ATOM      3  C   UNL     1       2.378  60.400  22.918  1.00  0.00     0.000 C 
BRANCH   3   4
ATOM      4  C   UNL     1       1.324  59.705  23.806  1.00  0.00     0.000 C 
BRANCH   4   5
ATOM      5  C   UNL     1       0.245  60.653  24.356  1.00  0.00     0.000 C 
BRANCH   5   6
ATOM      6  C   UNL     1      -0.863  60.966  23.331  1.00  0.00     0.000 C 
BRANCH   6   7
ATOM      7  C   UNL     1      -1.257  59.745  22.475  1.00  0.00     0.000 C 
BRANCH   7   8
ATOM      8  C   UNL     1      -1.342  60.033  20.964  1.00  0.00     0.000 C 
BRANCH   8   9
ATOM      9  C   UNL     1      -0.567  61.273  20.485  1.00  0.00     0.000 C 
BRANCH   9  10
ATOM     10  C   UNL     1      -1.178  61.909  19.227  1.00  0.00     0.000 C 
BRANCH  10  11
ATOM     11  C   UNL     1      -0.211  61.823  18.037  1.00  0.00     0.000 C 
BRANCH  11  12
ATOM     12  C   UNL     1       0.781  60.651  18.159  1.00  0.00     0.006 C 
BRANCH  12  13
ATOM     13  C   UNL     1       1.684  60.458  16.932  1.00  0.00     0.053 C 
BRANCH  13  14
ATOM     14  C   UNL     1       1.800  59.017  16.542  1.00  0.00     0.041 C 
ATOM     15  O   UNL     1       0.931  58.188  16.919  1.00  0.00    -0.550 OA
ATOM     16  O   UNL     1       2.871  58.587  15.769  1.00  0.00    -0.550 OA
ENDBRANCH  13  14
ENDBRANCH  12  13
ENDBRANCH  11  12
ENDBRANCH  10  11
ENDBRANCH   9  10
ENDBRANCH   8   9
ENDBRANCH   7   8
ENDBRANCH   6   7
ENDBRANCH   5   6
ENDBRANCH   4   5
ENDBRANCH   3   4
ENDBRANCH   2   3
ENDBRANCH   1   2
BRANCH   1  17
ATOM     17  C   UNL     1       4.358  58.161  22.570  1.00  0.00     0.000 C 
BRANCH  17  18
ATOM     18  C   UNL     1       5.113  56.859  22.264  1.00  0.00     0.000 C 
BRANCH  18  19
ATOM     19  C   UNL     1       6.634  56.985  22.496  1.00  0.00     0.000 C 
BRANCH  19  20
ATOM     20  C   UNL     1       7.478  56.821  21.217  1.00  0.00     0.000 C 
BRANCH  20  21
ATOM     21  C   UNL     1       8.081  55.414  21.072  1.00  0.00     0.000 C 
BRANCH  21  22
ATOM     22  C   UNL     1       7.132  54.433  20.368  1.00  0.00    -0.000 C 
BRANCH  22  23
ATOM     23  C   UNL     1       6.364  53.545  21.359  1.00  0.00    -0.000 C 
BRANCH  23  24
ATOM     24  C   UNL     1       7.212  53.267  22.609  1.00  0.00    -0.000 C 
BRANCH  24  25
ATOM     25  C   UNL     1       6.559  53.785  23.901  1.00  0.00    -0.000 C 
BRANCH  25  26
ATOM     26  C   UNL     1       7.337  53.373  25.162  1.00  0.00    -0.000 C 
BRANCH  26  27
ATOM     27  C   UNL     1       8.328  54.452  25.630  1.00  0.00    -0.000 C 
BRANCH  27  28
ATOM     28  C   UNL     1       9.319  54.934  24.551  1.00  0.00    -0.000 C 
BRANCH  28  29
ATOM     29  C   UNL     1      10.547  54.015  24.381  1.00  0.00    -0.003 C 
ATOM     30  C   UNL     1      10.730  53.557  22.933  1.00  0.00     0.004 C 
ENDBRANCH  28  29
ENDBRANCH  27  28
ENDBRANCH  26  27
ENDBRANCH  25  26
ENDBRANCH  24  25
ENDBRANCH  23  24
ENDBRANCH  22  23
ENDBRANCH  21  22
ENDBRANCH  20  21
ENDBRANCH  19  20
ENDBRANCH  18  19
ENDBRANCH  17  18
ENDBRANCH   1  17
TORSDOF 26
ENDMDL
MODEL 2
REMARK VINA RESULT:    -5.333      7.345     14.217
REMARK INTER + INTRA:         -16.393
REMARK INTER:                 -13.837
REMARK INTRA:                  -2.555
REMARK UNBOUND:                -2.954
REMARK SMILES CCCCCCCCCCCCCCCCCCCCCCCCCCCC(=O)[O-]
REMARK SMILES IDX 15 1 16 2 17 3 18 4 19 5 20 6 21 7 22 8 23 9 24 10 25 11
REMARK SMILES IDX 26 12 27 13 28 14 29 15 30 16 14 17 13 18 12 19 11 20 10 21
REMARK SMILES IDX 9 22 8 23 7 24 6 25 5 26 4 27 3 28 2 29 1 30
REMARK H PARENT
REMARK Flexibility Score: inf
ROOT
ATOM      1  C   UNL     1      10.182  51.520  23.898  1.00  0.00     0.000 C 
ENDROOT
BRANCH   1   2
ATOM      2  C   UNL     1      10.148  50.036  23.515  1.00  0.00     0.000 C 
BRANCH   2   3
ATOM      3  C   UNL     1      10.983  49.192  24.491  1.00  0.00     0.000 C 
BRANCH   3   4
ATOM      4  C   UNL     1      10.106  48.357  25.447  1.00  0.00     0.000 C 
BRANCH   4   5
ATOM      5  C   UNL     1       9.607  47.033  24.844  1.00  0.00     0.000 C 
BRANCH   5   6
ATOM      6  C   UNL     1      10.748  46.048  24.523  1.00  0.00     0.000 C 
BRANCH   6   7
ATOM      7  C   UNL     1      10.447  44.605  24.978  1.00  0.00     0.000 C 
BRANCH   7   8
ATOM      8  C   UNL     1      11.152  44.194  26.285  1.00  0.00     0.000 C 
BRANCH   8   9
ATOM      9  C   UNL     1      11.437  45.342  27.269  1.00  0.00     0.000 C 
BRANCH   9  10
ATOM     10  C   UNL     1      12.240  44.890  28.498  1.00  0.00     0.000 C 
BRANCH  10  11
ATOM     11  C   UNL     1      11.792  45.642  29.760  1.00  0.00     0.000 C 
BRANCH  11  12
ATOM     12  C   UNL     1      12.833  46.670  30.241  1.00  0.00     0.006 C 
BRANCH  12  13
ATOM     13  C   UNL     1      12.510  48.122  29.858  1.00  0.00     0.053 C 
BRANCH  13  14
ATOM     14  C   UNL     1      13.350  48.601  28.715  1.00  0.00     0.041 C 
ATOM     15  O   UNL     1      13.042  48.297  27.533  1.00  0.00    -0.550 OA
ATOM     16  O   UNL     1      14.477  49.377  28.954  1.00  0.00    -0.550 OA
ENDBRANCH  13  14
ENDBRANCH  12  13
ENDBRANCH  11  12
ENDBRANCH  10  11
ENDBRANCH   9  10
ENDBRANCH   8   9
ENDBRANCH   7   8
ENDBRANCH   6   7
ENDBRANCH   5   6
ENDBRANCH   4   5
ENDBRANCH   3   4
ENDBRANCH   2   3
ENDBRANCH   1   2
BRANCH   1  17
ATOM     17  C   UNL     1      10.406  52.401  22.663  1.00  0.00     0.000 C 
BRANCH  17  18
ATOM     18  C   UNL     1      10.593  53.873  23.060  1.00  0.00     0.000 C 
BRANCH  18  19
ATOM     19  C   UNL     1      10.519  54.091  24.586  1.00  0.00     0.000 C 
BRANCH  19  20
ATOM     20  C   UNL     1       9.343  54.979  25.036  1.00  0.00     0.000 C 
BRANCH  20  21
ATOM     21  C   UNL     1       8.342  54.237  25.938  1.00  0.00     0.000 C 
BRANCH  21  22
ATOM     22  C   UNL     1       7.235  53.532  25.140  1.00  0.00    -0.000 C 
BRANCH  22  23
ATOM     23  C   UNL     1       7.120  54.058  23.702  1.00  0.00    -0.000 C 
BRANCH  23  24
ATOM     24  C   UNL     1       5.721  54.636  23.445  1.00  0.00    -0.000 C 
BRANCH  24  25
ATOM     25  C   UNL     1       5.752  55.932  22.617  1.00  0.00    -0.000 C 
BRANCH  25  26
ATOM     26  C   UNL     1       7.146  56.583  22.594  1.00  0.00    -0.000 C 
BRANCH  26  27
ATOM     27  C   UNL     1       7.859  56.416  21.241  1.00  0.00    -0.000 C 
BRANCH  27  28
ATOM     28  C   UNL     1       7.884  54.974  20.695  1.00  0.00    -0.000 C 
BRANCH  28  29
ATOM     29  C   UNL     1       7.105  54.797  19.374  1.00  0.00    -0.003 C 
ATOM     30  C   UNL     1       6.375  53.454  19.308  1.00  0.00     0.004 C 
ENDBRANCH  28  29
ENDBRANCH  27  28
ENDBRANCH  26  27
ENDBRANCH  25  26
ENDBRANCH  24  25
ENDBRANCH  23  24
ENDBRANCH  22  23
ENDBRANCH  21  22
ENDBRANCH  20  21
ENDBRANCH  19  20
ENDBRANCH  18  19
ENDBRANCH  17  18
ENDBRANCH   1  17
TORSDOF 26
ENDMDL
MODEL 3
REMARK VINA RESULT:    -5.331      6.596     11.285
REMARK INTER + INTRA:         -16.388
REMARK INTER:                 -13.108
REMARK INTRA:                  -3.280
REMARK UNBOUND:                -2.954
REMARK SMILES CCCCCCCCCCCCCCCCCCCCCCCCCCCC(=O)[O-]
REMARK SMILES IDX 15 1 16 2 17 3 18 4 19 5 20 6 21 7 22 8 23 9 24 10 25 11
REMARK SMILES IDX 26 12 27 13 28 14 29 15 30 16 14 17 13 18 12 19 11 20 10 21
REMARK SMILES IDX 9 22 8 23 7 24 6 25 5 26 4 27 3 28 2 29 1 30
REMARK H PARENT
REMARK Flexibility Score: inf
ROOT
ATOM      1  C   UNL     1      10.217  49.147  24.551  1.00  0.00     0.000 C 
ENDROOT
BRANCH   1   2
ATOM      2  C   UNL     1      10.486  50.147  23.421  1.00  0.00     0.000 C 
BRANCH   2   3
ATOM      3  C   UNL     1       9.969  51.548  23.785  1.00  0.00     0.000 C 
BRANCH   3   4
ATOM      4  C   UNL     1      10.261  52.587  22.683  1.00  0.00     0.000 C 
BRANCH   4   5
ATOM      5  C   UNL     1      10.527  54.006  23.214  1.00  0.00     0.000 C 
BRANCH   5   6
ATOM      6  C   UNL     1      10.572  54.076  24.753  1.00  0.00     0.000 C 
BRANCH   6   7
ATOM      7  C   UNL     1       9.551  55.070  25.343  1.00  0.00     0.000 C 
BRANCH   7   8
ATOM      8  C   UNL     1       8.360  54.403  26.059  1.00  0.00     0.000 C 
BRANCH   8   9
ATOM      9  C   UNL     1       7.445  53.552  25.162  1.00  0.00     0.000 C 
BRANCH   9  10
ATOM     10  C   UNL     1       6.867  54.343  23.979  1.00  0.00     0.000 C 
BRANCH  10  11
ATOM     11  C   UNL     1       6.769  53.465  22.721  1.00  0.00     0.000 C 
BRANCH  11  12
ATOM     12  C   UNL     1       6.678  54.291  21.425  1.00  0.00     0.006 C 
BRANCH  12  13
ATOM     13  C   UNL     1       7.857  55.251  21.203  1.00  0.00     0.053 C 
BRANCH  13  14
ATOM     14  C   UNL     1       7.430  56.685  21.251  1.00  0.00     0.041 C 
ATOM     15  O   UNL     1       6.419  57.022  21.920  1.00  0.00    -0.550 OA
ATOM     16  O   UNL     1       8.145  57.649  20.551  1.00  0.00    -0.550 OA
ENDBRANCH  13  14
ENDBRANCH  12  13
ENDBRANCH  11  12
ENDBRANCH  10  11
ENDBRANCH   9  10
ENDBRANCH   8   9
ENDBRANCH   7   8
ENDBRANCH   6   7
ENDBRANCH   5   6
ENDBRANCH   4   5
ENDBRANCH   3   4
ENDBRANCH   2   3
ENDBRANCH   1   2
BRANCH   1  17
ATOM     17  C   UNL     1      10.865  47.790  24.251  1.00  0.00     0.000 C 
BRANCH  17  18
ATOM     18  C   UNL     1      10.022  46.638  24.817  1.00  0.00     0.000 C 
BRANCH  18  19
ATOM     19  C   UNL     1      10.610  45.250  24.484  1.00  0.00     0.000 C 
BRANCH  19  20
ATOM     20  C   UNL     1      10.211  44.145  25.481  1.00  0.00     0.000 C 
BRANCH  20  21
ATOM     21  C   UNL     1      11.265  43.915  26.576  1.00  0.00     0.000 C 
BRANCH  21  22
ATOM     22  C   UNL     1      10.736  44.231  27.983  1.00  0.00    -0.000 C 
BRANCH  22  23
ATOM     23  C   UNL     1      11.523  45.358  28.668  1.00  0.00    -0.000 C 
BRANCH  23  24
ATOM     24  C   UNL     1      12.391  46.112  27.649  1.00  0.00    -0.000 C 
BRANCH  24  25
ATOM     25  C   UNL     1      12.220  47.637  27.731  1.00  0.00    -0.000 C 
BRANCH  25  26
ATOM     26  C   UNL     1      13.560  48.373  27.903  1.00  0.00    -0.000 C 
BRANCH  26  27
ATOM     27  C   UNL     1      14.337  47.911  29.148  1.00  0.00    -0.000 C 
BRANCH  27  28
ATOM     28  C   UNL     1      15.711  47.275  28.856  1.00  0.00    -0.000 C 
BRANCH  28  29
ATOM     29  C   UNL     1      16.088  46.138  29.829  1.00  0.00    -0.003 C 
ATOM     30  C   UNL     1      14.863  45.543  30.526  1.00  0.00     0.004 C 
ENDBRANCH  28  29
ENDBRANCH  27  28
ENDBRANCH  26  27
ENDBRANCH  25  26
ENDBRANCH  24  25
ENDBRANCH  23  24
ENDBRANCH  22  23
ENDBRANCH  21  22
ENDBRANCH  20  21
ENDBRANCH  19  20
ENDBRANCH  18  19
ENDBRANCH  17  18
ENDBRANCH   1  17
TORSDOF 26
ENDMDL
MODEL 4
REMARK VINA RESULT:    -5.195      6.469     13.292
REMARK INTER + INTRA:         -16.044
REMARK INTER:                 -13.548
REMARK INTRA:                  -2.496
REMARK UNBOUND:                -2.954
REMARK SMILES CCCCCCCCCCCCCCCCCCCCCCCCCCCC(=O)[O-]
REMARK SMILES IDX 15 1 16 2 17 3 18 4 19 5 20 6 21 7 22 8 23 9 24 10 25 11
REMARK SMILES IDX 26 12 27 13 28 14 29 15 30 16 14 17 13 18 12 19 11 20 10 21
REMARK SMILES IDX 9 22 8 23 7 24 6 25 5 26 4 27 3 28 2 29 1 30
REMARK H PARENT
REMARK Flexibility Score: inf
ROOT
ATOM      1  C   UNL     1       9.143  54.983  25.015  1.00  0.00     0.000 C 
ENDROOT
BRANCH   1   2
ATOM      2  C   UNL     1      10.407  54.161  24.740  1.00  0.00     0.000 C 
BRANCH   2   3
ATOM      3  C   UNL     1      10.629  53.974  23.231  1.00  0.00     0.000 C 
BRANCH   3   4
ATOM      4  C   UNL     1      10.367  52.524  22.773  1.00  0.00     0.000 C 
BRANCH   4   5
ATOM      5  C   UNL     1      10.252  51.513  23.927  1.00  0.00     0.000 C 
BRANCH   5   6
ATOM      6  C   UNL     1      10.308  50.048  23.454  1.00  0.00     0.000 C 
BRANCH   6   7
ATOM      7  C   UNL     1      10.619  49.056  24.594  1.00  0.00     0.000 C 
BRANCH   7   8
ATOM      8  C   UNL     1      10.923  47.622  24.119  1.00  0.00     0.000 C 
BRANCH   8   9
ATOM      9  C   UNL     1       9.860  46.570  24.480  1.00  0.00     0.000 C 
BRANCH   9  10
ATOM     10  C   UNL     1      10.460  45.315  25.131  1.00  0.00     0.000 C 
BRANCH  10  11
ATOM     11  C   UNL     1      10.060  45.213  26.611  1.00  0.00     0.000 C 
BRANCH  11  12
ATOM     12  C   UNL     1      11.228  44.778  27.515  1.00  0.00     0.006 C 
BRANCH  12  13
ATOM     13  C   UNL     1      11.916  45.933  28.258  1.00  0.00     0.053 C 
BRANCH  13  14
ATOM     14  C   UNL     1      12.695  46.812  27.330  1.00  0.00     0.041 C 
ATOM     15  O   UNL     1      12.556  48.062  27.376  1.00  0.00    -0.550 OA
ATOM     16  O   UNL     1      13.570  46.251  26.407  1.00  0.00    -0.550 OA
ENDBRANCH  13  14
ENDBRANCH  12  13
ENDBRANCH  11  12
ENDBRANCH  10  11
ENDBRANCH   9  10
ENDBRANCH   8   9
ENDBRANCH   7   8
ENDBRANCH   6   7
ENDBRANCH   5   6
ENDBRANCH   4   5
ENDBRANCH   3   4
ENDBRANCH   2   3
ENDBRANCH   1   2
BRANCH   1  17
ATOM     17  C   UNL     1       8.083  54.138  25.732  1.00  0.00     0.000 C 
BRANCH  17  18
ATOM     18  C   UNL     1       7.351  53.216  24.746  1.00  0.00     0.000 C 
BRANCH  18  19
ATOM     19  C   UNL     1       6.536  53.997  23.693  1.00  0.00     0.000 C 
BRANCH  19  20
ATOM     20  C   UNL     1       6.901  53.653  22.237  1.00  0.00     0.000 C 
BRANCH  20  21
ATOM     21  C   UNL     1       7.590  54.815  21.501  1.00  0.00     0.000 C 
BRANCH  21  22
ATOM     22  C   UNL     1       7.582  56.119  22.313  1.00  0.00    -0.000 C 
BRANCH  22  23
ATOM     23  C   UNL     1       6.573  57.142  21.771  1.00  0.00    -0.000 C 
BRANCH  23  24
ATOM     24  C   UNL     1       5.153  56.816  22.260  1.00  0.00    -0.000 C 
BRANCH  24  25
ATOM     25  C   UNL     1       4.352  58.070  22.645  1.00  0.00    -0.000 C 
BRANCH  25  26
ATOM     26  C   UNL     1       3.244  58.397  21.628  1.00  0.00    -0.000 C 
BRANCH  26  27
ATOM     27  C   UNL     1       3.244  59.876  21.203  1.00  0.00    -0.000 C 
BRANCH  27  28
ATOM     28  C   UNL     1       2.064  60.293  20.303  1.00  0.00    -0.000 C 
BRANCH  28  29
ATOM     29  C   UNL     1       1.443  59.122  19.511  1.00  0.00    -0.003 C 
ATOM     30  C   UNL     1       1.645  59.273  18.003  1.00  0.00     0.004 C 
ENDBRANCH  28  29
ENDBRANCH  27  28
ENDBRANCH  26  27
ENDBRANCH  25  26
ENDBRANCH  24  25
ENDBRANCH  23  24
ENDBRANCH  22  23
ENDBRANCH  21  22
ENDBRANCH  20  21
ENDBRANCH  19  20
ENDBRANCH  18  19
ENDBRANCH  17  18
ENDBRANCH   1  17
TORSDOF 26
ENDMDL
MODEL 5
REMARK VINA RESULT:    -5.043      4.597     11.492
REMARK INTER + INTRA:         -15.663
REMARK INTER:                 -12.841
REMARK INTRA:                  -2.822
REMARK UNBOUND:                -2.954
REMARK SMILES CCCCCCCCCCCCCCCCCCCCCCCCCCCC(=O)[O-]
REMARK SMILES IDX 15 1 16 2 17 3 18 4 19 5 20 6 21 7 22 8 23 9 24 10 25 11
REMARK SMILES IDX 26 12 27 13 28 14 29 15 30 16 14 17 13 18 12 19 11 20 10 21
REMARK SMILES IDX 9 22 8 23 7 24 6 25 5 26 4 27 3 28 2 29 1 30
REMARK H PARENT
REMARK Flexibility Score: inf
ROOT
ATOM      1  C   UNL     1       6.897  56.808  21.203  1.00  0.00     0.000 C 
ENDROOT
BRANCH   1   2
ATOM      2  C   UNL     1       7.807  55.745  21.828  1.00  0.00     0.000 C 
BRANCH   2   3
ATOM      3  C   UNL     1       7.307  54.328  21.507  1.00  0.00     0.000 C 
BRANCH   3   4
ATOM      4  C   UNL     1       7.054  53.491  22.779  1.00  0.00     0.000 C 
BRANCH   4   5
ATOM      5  C   UNL     1       6.762  54.330  24.034  1.00  0.00     0.000 C 
BRANCH   5   6
ATOM      6  C   UNL     1       7.687  53.989  25.218  1.00  0.00     0.000 C 
BRANCH   6   7
ATOM      7  C   UNL     1       9.008  54.784  25.201  1.00  0.00     0.000 C 
BRANCH   7   8
ATOM      8  C   UNL     1      10.249  53.941  24.847  1.00  0.00     0.000 C 
BRANCH   8   9
ATOM      9  C   UNL     1      10.627  53.919  23.356  1.00  0.00     0.000 C 
BRANCH   9  10
ATOM     10  C   UNL     1      10.455  52.532  22.718  1.00  0.00     0.000 C 
BRANCH  10  11
ATOM     11  C   UNL     1       9.960  51.505  23.749  1.00  0.00     0.000 C 
BRANCH  11  12
ATOM     12  C   UNL     1      10.574  50.109  23.539  1.00  0.00     0.006 C 
BRANCH  12  13
ATOM     13  C   UNL     1      10.346  49.137  24.707  1.00  0.00     0.053 C 
BRANCH  13  14
ATOM     14  C   UNL     1      10.606  47.716  24.313  1.00  0.00     0.041 C 
ATOM     15  O   UNL     1      11.697  47.399  23.772  1.00  0.00    -0.550 OA
ATOM     16  O   UNL     1       9.641  46.742  24.537  1.00  0.00    -0.550 OA
ENDBRANCH  13  14
ENDBRANCH  12  13
ENDBRANCH  11  12
ENDBRANCH  10  11
ENDBRANCH   9  10
ENDBRANCH   8   9
ENDBRANCH   7   8
ENDBRANCH   6   7
ENDBRANCH   5   6
ENDBRANCH   4   5
ENDBRANCH   3   4
ENDBRANCH   2   3
ENDBRANCH   1   2
BRANCH   1  17
ATOM     17  C   UNL     1       5.980  57.438  22.260  1.00  0.00     0.000 C 
BRANCH  17  18
ATOM     18  C   UNL     1       4.601  56.762  22.269  1.00  0.00     0.000 C 
BRANCH  18  19
ATOM     19  C   UNL     1       3.455  57.741  21.937  1.00  0.00     0.000 C 
BRANCH  19  20
ATOM     20  C   UNL     1       3.471  59.031  22.778  1.00  0.00     0.000 C 
BRANCH  20  21
ATOM     21  C   UNL     1       2.942  60.254  22.010  1.00  0.00     0.000 C 
BRANCH  21  22
ATOM     22  C   UNL     1       1.477  60.575  22.344  1.00  0.00    -0.000 C 
BRANCH  22  23
ATOM     23  C   UNL     1       0.622  60.791  21.087  1.00  0.00    -0.000 C 
BRANCH  23  24
ATOM     24  C   UNL     1      -0.849  60.448  21.364  1.00  0.00    -0.000 C 
BRANCH  24  25
ATOM     25  C   UNL     1      -1.619  60.047  20.095  1.00  0.00    -0.000 C 
BRANCH  25  26
ATOM     26  C   UNL     1      -0.792  60.255  18.814  1.00  0.00    -0.000 C 
BRANCH  26  27
ATOM     27  C   UNL     1      -0.921  59.083  17.826  1.00  0.00    -0.000 C 
BRANCH  27  28
ATOM     28  C   UNL     1       0.414  58.438  17.406  1.00  0.00    -0.000 C 
BRANCH  28  29
ATOM     29  C   UNL     1       1.653  59.281  17.774  1.00  0.00    -0.003 C 
ATOM     30  C   UNL     1       2.025  60.276  16.672  1.00  0.00     0.004 C 
ENDBRANCH  28  29
ENDBRANCH  27  28
ENDBRANCH  26  27
ENDBRANCH  25  26
ENDBRANCH  24  25
ENDBRANCH  23  24
ENDBRANCH  22  23
ENDBRANCH  21  22
ENDBRANCH  20  21
ENDBRANCH  19  20
ENDBRANCH  18  19
ENDBRANCH  17  18
ENDBRANCH   1  17
TORSDOF 26
ENDMDL
MODEL 6
REMARK VINA RESULT:    -5.039      7.198     13.942
REMARK INTER + INTRA:         -15.652
REMARK INTER:                 -13.307
REMARK INTRA:                  -2.344
REMARK UNBOUND:                -2.954
REMARK SMILES CCCCCCCCCCCCCCCCCCCCCCCCCCCC(=O)[O-]
REMARK SMILES IDX 15 1 16 2 17 3 18 4 19 5 20 6 21 7 22 8 23 9 24 10 25 11
REMARK SMILES IDX 26 12 27 13 28 14 29 15 30 16 14 17 13 18 12 19 11 20 10 21
REMARK SMILES IDX 9 22 8 23 7 24 6 25 5 26 4 27 3 28 2 29 1 30
REMARK H PARENT
REMARK Flexibility Score: inf
ROOT
ATOM      1  C   UNL     1      10.204  54.098  24.594  1.00  0.00     0.000 C 
ENDROOT
BRANCH   1   2
ATOM      2  C   UNL     1      10.460  53.959  23.090  1.00  0.00     0.000 C 
BRANCH   2   3
ATOM      3  C   UNL     1      10.485  52.481  22.666  1.00  0.00     0.000 C 
BRANCH   3   4
ATOM      4  C   UNL     1      10.281  51.524  23.859  1.00  0.00     0.000 C 
BRANCH   4   5
ATOM      5  C   UNL     1      10.238  50.036  23.468  1.00  0.00     0.000 C 
BRANCH   5   6
ATOM      6  C   UNL     1      10.497  49.091  24.657  1.00  0.00     0.000 C 
BRANCH   6   7
ATOM      7  C   UNL     1      11.433  47.918  24.303  1.00  0.00     0.000 C 
BRANCH   7   8
ATOM      8  C   UNL     1      11.141  46.619  25.079  1.00  0.00     0.000 C 
BRANCH   8   9
ATOM      9  C   UNL     1      11.645  46.592  26.532  1.00  0.00     0.000 C 
BRANCH   9  10
ATOM     10  C   UNL     1      11.393  45.245  27.226  1.00  0.00     0.000 C 
BRANCH  10  11
ATOM     11  C   UNL     1      12.405  45.007  28.358  1.00  0.00     0.000 C 
BRANCH  11  12
ATOM     12  C   UNL     1      11.882  45.470  29.730  1.00  0.00     0.006 C 
BRANCH  12  13
ATOM     13  C   UNL     1      12.252  46.916  30.093  1.00  0.00     0.053 C 
BRANCH  13  14
ATOM     14  C   UNL     1      13.686  47.221  29.790  1.00  0.00     0.041 C 
ATOM     15  O   UNL     1      14.599  46.482  30.243  1.00  0.00    -0.550 OA
ATOM     16  O   UNL     1      14.016  48.324  29.013  1.00  0.00    -0.550 OA
ENDBRANCH  13  14
ENDBRANCH  12  13
ENDBRANCH  11  12
ENDBRANCH  10  11
ENDBRANCH   9  10
ENDBRANCH   8   9
ENDBRANCH   7   8
ENDBRANCH   6   7
ENDBRANCH   5   6
ENDBRANCH   4   5
ENDBRANCH   3   4
ENDBRANCH   2   3
ENDBRANCH   1   2
BRANCH   1  17
ATOM     17  C   UNL     1       8.935  54.918  24.862  1.00  0.00     0.000 C 
BRANCH  17  18
ATOM     18  C   UNL     1       7.755  54.006  25.228  1.00  0.00     0.000 C 
BRANCH  18  19
ATOM     19  C   UNL     1       6.677  53.954  24.125  1.00  0.00     0.000 C 
BRANCH  19  20
ATOM     20  C   UNL     1       7.151  53.293  22.817  1.00  0.00     0.000 C 
BRANCH  20  21
ATOM     21  C   UNL     1       6.290  53.678  21.603  1.00  0.00     0.000 C 
BRANCH  21  22
ATOM     22  C   UNL     1       7.083  54.443  20.533  1.00  0.00    -0.000 C 
BRANCH  22  23
ATOM     23  C   UNL     1       7.967  55.547  21.133  1.00  0.00    -0.000 C 
BRANCH  23  24
ATOM     24  C   UNL     1       7.194  56.871  21.227  1.00  0.00    -0.000 C 
BRANCH  24  25
ATOM     25  C   UNL     1       6.508  57.066  22.589  1.00  0.00    -0.000 C 
BRANCH  25  26
ATOM     26  C   UNL     1       4.979  56.905  22.507  1.00  0.00    -0.000 C 
BRANCH  26  27
ATOM     27  C   UNL     1       4.245  58.252  22.397  1.00  0.00    -0.000 C 
BRANCH  27  28
ATOM     28  C   UNL     1       2.966  58.226  21.536  1.00  0.00    -0.000 C 
BRANCH  28  29
ATOM     29  C   UNL     1       1.693  58.644  22.303  1.00  0.00    -0.003 C 
ATOM     30  C   UNL     1       1.990  59.659  23.408  1.00  0.00     0.004 C 
ENDBRANCH  28  29
ENDBRANCH  27  28
ENDBRANCH  26  27
ENDBRANCH  25  26
ENDBRANCH  24  25
ENDBRANCH  23  24
ENDBRANCH  22  23
ENDBRANCH  21  22
ENDBRANCH  20  21
ENDBRANCH  19  20
ENDBRANCH  18  19
ENDBRANCH  17  18
ENDBRANCH   1  17
TORSDOF 26
ENDMDL
MODEL 7
REMARK VINA RESULT:    -5.012      4.119      6.639
REMARK INTER + INTRA:         -15.583
REMARK INTER:                 -13.755
REMARK INTRA:                  -1.828
REMARK UNBOUND:                -2.954
REMARK SMILES CCCCCCCCCCCCCCCCCCCCCCCCCCCC(=O)[O-]
REMARK SMILES IDX 15 1 16 2 17 3 18 4 19 5 20 6 21 7 22 8 23 9 24 10 25 11
REMARK SMILES IDX 26 12 27 13 28 14 29 15 30 16 14 17 13 18 12 19 11 20 10 21
REMARK SMILES IDX 9 22 8 23 7 24 6 25 5 26 4 27 3 28 2 29 1 30
REMARK H PARENT
REMARK Flexibility Score: inf
ROOT
ATOM      1  C   UNL     1       7.622  53.471  24.675  1.00  0.00     0.000 C 
ENDROOT
BRANCH   1   2
ATOM      2  C   UNL     1       6.519  53.991  23.746  1.00  0.00     0.000 C 
BRANCH   2   3
ATOM      3  C   UNL     1       6.817  53.640  22.280  1.00  0.00     0.000 C 
BRANCH   3   4
ATOM      4  C   UNL     1       7.692  54.706  21.586  1.00  0.00     0.000 C 
BRANCH   4   5
ATOM      5  C   UNL     1       6.907  55.928  21.081  1.00  0.00     0.000 C 
BRANCH   5   6
ATOM      6  C   UNL     1       6.634  56.970  22.182  1.00  0.00     0.000 C 
BRANCH   6   7
ATOM      7  C   UNL     1       5.139  57.092  22.543  1.00  0.00     0.000 C 
BRANCH   7   8
ATOM      8  C   UNL     1       4.402  58.227  21.805  1.00  0.00     0.000 C 
BRANCH   8   9
ATOM      9  C   UNL     1       3.366  58.994  22.645  1.00  0.00     0.000 C 
BRANCH   9  10
ATOM     10  C   UNL     1       1.994  59.085  21.963  1.00  0.00     0.000 C 
BRANCH  10  11
ATOM     11  C   UNL     1       2.069  58.616  20.501  1.00  0.00     0.000 C 
BRANCH  11  12
ATOM     12  C   UNL     1       1.453  59.629  19.519  1.00  0.00     0.006 C 
BRANCH  12  13
ATOM     13  C   UNL     1       0.961  59.011  18.201  1.00  0.00     0.053 C 
BRANCH  13  14
ATOM     14  C   UNL     1       1.801  59.433  17.036  1.00  0.00     0.041 C 
ATOM     15  O   UNL     1       2.063  60.650  16.852  1.00  0.00    -0.550 OA
ATOM     16  O   UNL     1       2.291  58.483  16.148  1.00  0.00    -0.550 OA
ENDBRANCH  13  14
ENDBRANCH  12  13
ENDBRANCH  11  12
ENDBRANCH  10  11
ENDBRANCH   9  10
ENDBRANCH   8   9
ENDBRANCH   7   8
ENDBRANCH   6   7
ENDBRANCH   5   6
ENDBRANCH   4   5
ENDBRANCH   3   4
ENDBRANCH   2   3
ENDBRANCH   1   2
BRANCH   1  17
ATOM     17  C   UNL     1       8.663  54.562  24.955  1.00  0.00     0.000 C 
BRANCH  17  18
ATOM     18  C   UNL     1      10.090  54.003  24.856  1.00  0.00     0.000 C 
BRANCH  18  19
ATOM     19  C   UNL     1      10.571  53.852  23.397  1.00  0.00     0.000 C 
BRANCH  19  20
ATOM     20  C   UNL     1      10.342  52.448  22.804  1.00  0.00     0.000 C 
BRANCH  20  21
ATOM     21  C   UNL     1       9.950  51.406  23.865  1.00  0.00     0.000 C 
BRANCH  21  22
ATOM     22  C   UNL     1      10.611  50.040  23.626  1.00  0.00    -0.000 C 
BRANCH  22  23
ATOM     23  C   UNL     1      10.123  48.970  24.613  1.00  0.00    -0.000 C 
BRANCH  23  24
ATOM     24  C   UNL     1      10.443  47.562  24.092  1.00  0.00    -0.000 C 
BRANCH  24  25
ATOM     25  C   UNL     1       9.949  46.450  25.032  1.00  0.00    -0.000 C 
BRANCH  25  26
ATOM     26  C   UNL     1      10.867  45.215  25.018  1.00  0.00    -0.000 C 
BRANCH  26  27
ATOM     27  C   UNL     1      11.704  45.081  26.301  1.00  0.00    -0.000 C 
BRANCH  27  28
ATOM     28  C   UNL     1      12.903  46.046  26.397  1.00  0.00    -0.000 C 
BRANCH  28  29
ATOM     29  C   UNL     1      12.972  46.821  27.729  1.00  0.00    -0.003 C 
ATOM     30  C   UNL     1      12.041  48.035  27.741  1.00  0.00     0.004 C 
ENDBRANCH  28  29
ENDBRANCH  27  28
ENDBRANCH  26  27
ENDBRANCH  25  26
ENDBRANCH  24  25
ENDBRANCH  23  24
ENDBRANCH  22  23
ENDBRANCH  21  22
ENDBRANCH  20  21
ENDBRANCH  19  20
ENDBRANCH  18  19
ENDBRANCH  17  18
ENDBRANCH   1  17
TORSDOF 26
ENDMDL
MODEL 8
REMARK VINA RESULT:    -5.009      6.257     10.459
REMARK INTER + INTRA:         -15.575
REMARK INTER:                 -12.565
REMARK INTRA:                  -3.010
REMARK UNBOUND:                -2.954
REMARK SMILES CCCCCCCCCCCCCCCCCCCCCCCCCCCC(=O)[O-]
REMARK SMILES IDX 15 1 16 2 17 3 18 4 19 5 20 6 21 7 22 8 23 9 24 10 25 11
REMARK SMILES IDX 26 12 27 13 28 14 29 15 30 16 14 17 13 18 12 19 11 20 10 21
REMARK SMILES IDX 9 22 8 23 7 24 6 25 5 26 4 27 3 28 2 29 1 30
REMARK H PARENT
REMARK Flexibility Score: inf
ROOT
ATOM      1  C   UNL     1      10.105  51.457  23.807  1.00  0.00     0.000 C 
ENDROOT
BRANCH   1   2
ATOM      2  C   UNL     1      10.238  52.363  22.578  1.00  0.00     0.000 C 
BRANCH   2   3
ATOM      3  C   UNL     1      10.538  53.814  22.988  1.00  0.00     0.000 C 
BRANCH   3   4
ATOM      4  C   UNL     1      10.618  53.989  24.519  1.00  0.00     0.000 C 
BRANCH   4   5
ATOM      5  C   UNL     1       9.646  55.041  25.081  1.00  0.00     0.000 C 
BRANCH   5   6
ATOM      6  C   UNL     1       8.723  54.484  26.182  1.00  0.00     0.000 C 
BRANCH   6   7
ATOM      7  C   UNL     1       7.546  53.658  25.623  1.00  0.00     0.000 C 
BRANCH   7   8
ATOM      8  C   UNL     1       7.002  54.165  24.273  1.00  0.00     0.000 C 
BRANCH   8   9
ATOM      9  C   UNL     1       6.930  53.111  23.155  1.00  0.00     0.000 C 
BRANCH   9  10
ATOM     10  C   UNL     1       6.283  53.649  21.870  1.00  0.00     0.000 C 
BRANCH  10  11
ATOM     11  C   UNL     1       7.345  53.975  20.809  1.00  0.00     0.000 C 
BRANCH  11  12
ATOM     12  C   UNL     1       7.259  55.428  20.308  1.00  0.00     0.006 C 
BRANCH  12  13
ATOM     13  C   UNL     1       8.047  56.437  21.157  1.00  0.00     0.053 C 
BRANCH  13  14
ATOM     14  C   UNL     1       7.224  56.991  22.278  1.00  0.00     0.041 C 
ATOM     15  O   UNL     1       7.769  57.311  23.365  1.00  0.00    -0.550 OA
ATOM     16  O   UNL     1       5.851  57.148  22.124  1.00  0.00    -0.550 OA
ENDBRANCH  13  14
ENDBRANCH  12  13
ENDBRANCH  11  12
ENDBRANCH  10  11
ENDBRANCH   9  10
ENDBRANCH   8   9
ENDBRANCH   7   8
ENDBRANCH   6   7
ENDBRANCH   5   6
ENDBRANCH   4   5
ENDBRANCH   3   4
ENDBRANCH   2   3
ENDBRANCH   1   2
BRANCH   1  17
ATOM     17  C   UNL     1      10.594  50.037  23.499  1.00  0.00     0.000 C 
BRANCH  17  18
ATOM     18  C   UNL     1      10.443  49.122  24.723  1.00  0.00     0.000 C 
BRANCH  18  19
ATOM     19  C   UNL     1      10.929  47.682  24.453  1.00  0.00     0.000 C 
BRANCH  19  20
ATOM     20  C   UNL     1       9.898  46.595  24.817  1.00  0.00     0.000 C 
BRANCH  20  21
ATOM     21  C   UNL     1      10.547  45.307  25.348  1.00  0.00     0.000 C 
BRANCH  21  22
ATOM     22  C   UNL     1      11.934  45.551  25.961  1.00  0.00    -0.000 C 
BRANCH  22  23
ATOM     23  C   UNL     1      12.180  44.701  27.216  1.00  0.00    -0.000 C 
BRANCH  23  24
ATOM     24  C   UNL     1      11.235  45.121  28.351  1.00  0.00    -0.000 C 
BRANCH  24  25
ATOM     25  C   UNL     1      11.980  45.680  29.574  1.00  0.00    -0.000 C 
BRANCH  25  26
ATOM     26  C   UNL     1      12.091  47.215  29.546  1.00  0.00    -0.000 C 
BRANCH  26  27
ATOM     27  C   UNL     1      13.531  47.711  29.756  1.00  0.00    -0.000 C 
BRANCH  27  28
ATOM     28  C   UNL     1      14.520  47.326  28.638  1.00  0.00    -0.000 C 
BRANCH  28  29
ATOM     29  C   UNL     1      15.847  46.734  29.159  1.00  0.00    -0.003 C 
ATOM     30  C   UNL     1      15.632  45.785  30.339  1.00  0.00     0.004 C 
ENDBRANCH  28  29
ENDBRANCH  27  28
ENDBRANCH  26  27
ENDBRANCH  25  26
ENDBRANCH  24  25
ENDBRANCH  23  24
ENDBRANCH  22  23
ENDBRANCH  21  22
ENDBRANCH  20  21
ENDBRANCH  19  20
ENDBRANCH  18  19
ENDBRANCH  17  18
ENDBRANCH   1  17
TORSDOF 26
ENDMDL
MODEL 9
REMARK VINA RESULT:    -4.917      6.197     10.952
REMARK INTER + INTRA:         -15.345
REMARK INTER:                 -13.210
REMARK INTRA:                  -2.135
REMARK UNBOUND:                -2.954
REMARK SMILES CCCCCCCCCCCCCCCCCCCCCCCCCCCC(=O)[O-]
REMARK SMILES IDX 15 1 16 2 17 3 18 4 19 5 20 6 21 7 22 8 23 9 24 10 25 11
REMARK SMILES IDX 26 12 27 13 28 14 29 15 30 16 14 17 13 18 12 19 11 20 10 21
REMARK SMILES IDX 9 22 8 23 7 24 6 25 5 26 4 27 3 28 2 29 1 30
REMARK H PARENT
REMARK Flexibility Score: inf
ROOT
ATOM      1  C   UNL     1      10.500  49.289  24.562  1.00  0.00     0.000 C 
ENDROOT
BRANCH   1   2
ATOM      2  C   UNL     1      10.610  50.271  23.390  1.00  0.00     0.000 C 
BRANCH   2   3
ATOM      3  C   UNL     1       9.837  51.568  23.680  1.00  0.00     0.000 C 
BRANCH   3   4
ATOM      4  C   UNL     1      10.228  52.712  22.722  1.00  0.00     0.000 C 
BRANCH   4   5
ATOM      5  C   UNL     1      10.669  54.003  23.434  1.00  0.00     0.000 C 
BRANCH   5   6
ATOM      6  C   UNL     1      10.356  53.997  24.943  1.00  0.00     0.000 C 
BRANCH   6   7
ATOM      7  C   UNL     1       9.152  54.887  25.314  1.00  0.00     0.000 C 
BRANCH   7   8
ATOM      8  C   UNL     1       7.800  54.147  25.331  1.00  0.00     0.000 C 
BRANCH   8   9
ATOM      9  C   UNL     1       7.113  54.000  23.962  1.00  0.00     0.000 C 
BRANCH   9  10
ATOM     10  C   UNL     1       6.638  55.342  23.386  1.00  0.00     0.000 C 
BRANCH  10  11
ATOM     11  C   UNL     1       7.826  56.192  22.908  1.00  0.00     0.000 C 
BRANCH  11  12
ATOM     12  C   UNL     1       8.155  55.972  21.420  1.00  0.00     0.006 C 
BRANCH  12  13
ATOM     13  C   UNL     1       6.926  55.723  20.532  1.00  0.00     0.053 C 
BRANCH  13  14
ATOM     14  C   UNL     1       7.155  54.608  19.559  1.00  0.00     0.041 C 
ATOM     15  O   UNL     1       7.781  53.577  19.914  1.00  0.00    -0.550 OA
ATOM     16  O   UNL     1       6.682  54.712  18.256  1.00  0.00    -0.550 OA
ENDBRANCH  13  14
ENDBRANCH  12  13
ENDBRANCH  11  12
ENDBRANCH  10  11
ENDBRANCH   9  10
ENDBRANCH   8   9
ENDBRANCH   7   8
ENDBRANCH   6   7
ENDBRANCH   5   6
ENDBRANCH   4   5
ENDBRANCH   3   4
ENDBRANCH   2   3
ENDBRANCH   1   2
BRANCH   1  17
ATOM     17  C   UNL     1      10.754  47.849  24.098  1.00  0.00     0.000 C 
BRANCH  17  18
ATOM     18  C   UNL     1      12.113  47.339  24.599  1.00  0.00     0.000 C 
BRANCH  18  19
ATOM     19  C   UNL     1      12.344  47.631  26.096  1.00  0.00     0.000 C 
BRANCH  19  20
ATOM     20  C   UNL     1      12.871  46.424  26.896  1.00  0.00     0.000 C 
BRANCH  20  21
ATOM     21  C   UNL     1      11.747  45.522  27.431  1.00  0.00     0.000 C 
BRANCH  21  22
ATOM     22  C   UNL     1      11.597  44.222  26.628  1.00  0.00    -0.000 C 
BRANCH  22  23
ATOM     23  C   UNL     1      10.129  43.875  26.339  1.00  0.00    -0.000 C 
BRANCH  23  24
ATOM     24  C   UNL     1       9.741  44.300  24.915  1.00  0.00    -0.000 C 
BRANCH  24  25
ATOM     25  C   UNL     1       8.603  45.333  24.890  1.00  0.00    -0.000 C 
BRANCH  25  26
ATOM     26  C   UNL     1       7.216  44.681  24.753  1.00  0.00    -0.000 C 
BRANCH  26  27
ATOM     27  C   UNL     1       6.124  45.684  24.345  1.00  0.00    -0.000 C 
BRANCH  27  28
ATOM     28  C   UNL     1       4.747  45.446  24.998  1.00  0.00    -0.000 C 
BRANCH  28  29
ATOM     29  C   UNL     1       3.563  45.960  24.153  1.00  0.00    -0.003 C 
ATOM     30  C   UNL     1       2.417  44.948  24.087  1.00  0.00     0.004 C 
ENDBRANCH  28  29
ENDBRANCH  27  28
ENDBRANCH  26  27
ENDBRANCH  25  26
ENDBRANCH  24  25
ENDBRANCH  23  24
ENDBRANCH  22  23
ENDBRANCH  21  22
ENDBRANCH  20  21
ENDBRANCH  19  20
ENDBRANCH  18  19
ENDBRANCH  17  18
ENDBRANCH   1  17
TORSDOF 26
ENDMDL
