MODEL 1
REMARK VINA RESULT:    -5.311      0.000      0.000
REMARK INTER + INTRA:          -5.311
REMARK INTER:                  -5.311
REMARK INTRA:                   0.000
REMARK UNBOUND:                 0.000
REMARK SMILES CC1=CC[C@@]2(C)CCCC(C)(C)[C@]23C[C@H]13
REMARK SMILES IDX 1 1 2 2 3 3 4 4 5 5 7 6 8 7 9 8 10 9 13 10 15 11 14 12 11 13
REMARK SMILES IDX 12 14 6 15
REMARK H PARENT
REMARK Flexibility Score: inf
ROOT
ATOM      1  C   UNL     1     138.534 138.410 131.511  1.00  0.00     0.039 C 
ATOM      2  C   UNL     1     139.881 138.354 132.172  1.00  0.00    -0.074 C 
ATOM      3  C   UNL     1     140.075 137.558 133.233  1.00  0.00    -0.027 C 
ATOM      4  C   UNL     1     141.402 137.528 133.933  1.00  0.00     0.034 C 
ATOM      5  C   UNL     1     142.001 138.954 134.078  1.00  0.00    -0.022 C 
ATOM      6  C   UNL     1     143.405 138.814 134.730  1.00  0.00     0.008 C 
ATOM      7  C   UNL     1     144.251 140.061 134.510  1.00  0.00     0.001 C 
ATOM      8  C   UNL     1     144.630 140.243 133.035  1.00  0.00     0.007 C 
ATOM      9  C   UNL     1     143.560 139.774 131.985  1.00  0.00    -0.029 C 
ATOM     10  C   UNL     1     142.117 139.639 132.643  1.00  0.00    -0.012 C 
ATOM     11  C   UNL     1     141.005 139.216 131.646  1.00  0.00     0.022 C 
ATOM     12  C   UNL     1     141.000 140.627 132.212  1.00  0.00     0.017 C 
ATOM     13  C   UNL     1     143.623 140.783 130.805  1.00  0.00     0.012 C 
ATOM     14  C   UNL     1     143.984 138.397 131.405  1.00  0.00     0.012 C 
ATOM     15  C   UNL     1     141.112 139.774 135.059  1.00  0.00     0.012 C 
ENDROOT
TORSDOF 0
ENDMDL
MODEL 2
REMARK VINA RESULT:    -5.264      2.537      4.076
REMARK INTER + INTRA:          -5.264
REMARK INTER:                  -5.264
REMARK INTRA:                   0.000
REMARK UNBOUND:                 0.000
REMARK SMILES CC1=CC[C@@]2(C)CCCC(C)(C)[C@]23C[C@H]13
REMARK SMILES IDX 1 1 2 2 3 3 4 4 5 5 7 6 8 7 9 8 10 9 13 10 15 11 14 12 11 13
REMARK SMILES IDX 12 14 6 15
REMARK H PARENT
REMARK Flexibility Score: inf
ROOT
ATOM      1  C   UNL     1     138.423 143.676 131.519  1.00  0.00     0.039 C 
ATOM      2  C   UNL     1     138.399 142.321 132.167  1.00  0.00    -0.074 C 
ATOM      3  C   UNL     1     137.653 142.115 133.262  1.00  0.00    -0.027 C 
ATOM      4  C   UNL     1     137.656 140.779 133.947  1.00  0.00     0.034 C 
ATOM      5  C   UNL     1     139.087 140.179 134.018  1.00  0.00    -0.022 C 
ATOM      6  C   UNL     1     138.978 138.768 134.660  1.00  0.00     0.008 C 
ATOM      7  C   UNL     1     140.213 137.926 134.372  1.00  0.00     0.001 C 
ATOM      8  C   UNL     1     140.326 137.564 132.886  1.00  0.00     0.007 C 
ATOM      9  C   UNL     1     139.808 138.646 131.872  1.00  0.00    -0.029 C 
ATOM     10  C   UNL     1     139.704 140.081 132.552  1.00  0.00    -0.012 C 
ATOM     11  C   UNL     1     139.235 141.204 131.589  1.00  0.00     0.022 C 
ATOM     12  C   UNL     1     140.671 141.203 132.088  1.00  0.00     0.017 C 
ATOM     13  C   UNL     1     140.761 138.597 130.645  1.00  0.00     0.012 C 
ATOM     14  C   UNL     1     138.406 138.227 131.352  1.00  0.00     0.012 C 
ATOM     15  C   UNL     1     139.952 141.058 134.971  1.00  0.00     0.012 C 
ENDROOT
TORSDOF 0
ENDMDL
MODEL 3
REMARK VINA RESULT:    -5.256      3.480      5.895
REMARK INTER + INTRA:          -5.256
REMARK INTER:                  -5.256
REMARK INTRA:                   0.000
REMARK UNBOUND:                 0.000
REMARK SMILES CC1=CC[C@@]2(C)CCCC(C)(C)[C@]23C[C@H]13
REMARK SMILES IDX 1 1 2 2 3 3 4 4 5 5 7 6 8 7 9 8 10 9 13 10 15 11 14 12 11 13
REMARK SMILES IDX 12 14 6 15
REMARK H PARENT
REMARK Flexibility Score: inf
ROOT
ATOM      1  C   UNL     1     143.660 143.956 131.442  1.00  0.00     0.039 C 
ATOM      2  C   UNL     1     142.318 143.975 132.114  1.00  0.00    -0.074 C 
ATOM      3  C   UNL     1     142.127 144.723 133.211  1.00  0.00    -0.027 C 
ATOM      4  C   UNL     1     140.805 144.714 133.920  1.00  0.00     0.034 C 
ATOM      5  C   UNL     1     140.215 143.280 134.007  1.00  0.00    -0.022 C 
ATOM      6  C   UNL     1     138.815 143.382 134.674  1.00  0.00     0.008 C 
ATOM      7  C   UNL     1     137.975 142.141 134.406  1.00  0.00     0.001 C 
ATOM      8  C   UNL     1     137.587 142.021 132.927  1.00  0.00     0.007 C 
ATOM      9  C   UNL     1     138.646 142.542 131.891  1.00  0.00    -0.029 C 
ATOM     10  C   UNL     1     140.093 142.657 132.544  1.00  0.00    -0.012 C 
ATOM     11  C   UNL     1     141.196 143.129 131.559  1.00  0.00     0.022 C 
ATOM     12  C   UNL     1     141.212 141.696 132.063  1.00  0.00     0.017 C 
ATOM     13  C   UNL     1     138.580 141.585 130.668  1.00  0.00     0.012 C 
ATOM     14  C   UNL     1     138.210 143.940 131.375  1.00  0.00     0.012 C 
ATOM     15  C   UNL     1     141.117 142.423 134.945  1.00  0.00     0.012 C 
ENDROOT
TORSDOF 0
ENDMDL
MODEL 4
REMARK VINA RESULT:    -5.256      2.603      4.139
REMARK INTER + INTRA:          -5.256
REMARK INTER:                  -5.256
REMARK INTRA:                   0.000
REMARK UNBOUND:                 0.000
REMARK SMILES CC1=CC[C@@]2(C)CCCC(C)(C)[C@]23C[C@H]13
REMARK SMILES IDX 1 1 2 2 3 3 4 4 5 5 7 6 8 7 9 8 10 9 13 10 15 11 14 12 11 13
REMARK SMILES IDX 12 14 6 15
REMARK H PARENT
REMARK Flexibility Score: inf
ROOT
ATOM      1  C   UNL     1     143.641 138.544 131.772  1.00  0.00     0.039 C 
ATOM      2  C   UNL     1     143.702 139.906 132.401  1.00  0.00    -0.074 C 
ATOM      3  C   UNL     1     144.520 140.128 133.441  1.00  0.00    -0.027 C 
ATOM      4  C   UNL     1     144.557 141.471 134.110  1.00  0.00     0.034 C 
ATOM      5  C   UNL     1     143.131 142.065 134.273  1.00  0.00    -0.022 C 
ATOM      6  C   UNL     1     143.276 143.484 134.891  1.00  0.00     0.008 C 
ATOM      7  C   UNL     1     142.019 144.317 134.679  1.00  0.00     0.001 C 
ATOM      8  C   UNL     1     141.802 144.661 133.200  1.00  0.00     0.007 C 
ATOM      9  C   UNL     1     142.256 143.571 132.164  1.00  0.00    -0.029 C 
ATOM     10  C   UNL     1     142.414 142.144 132.851  1.00  0.00    -0.012 C 
ATOM     11  C   UNL     1     142.822 141.012 131.870  1.00  0.00     0.022 C 
ATOM     12  C   UNL     1     141.424 141.013 132.467  1.00  0.00     0.017 C 
ATOM     13  C   UNL     1     141.220 143.602 131.005  1.00  0.00     0.012 C 
ATOM     14  C   UNL     1     143.617 143.990 131.545  1.00  0.00     0.012 C 
ATOM     15  C   UNL     1     142.338 141.192 135.291  1.00  0.00     0.012 C 
ENDROOT
TORSDOF 0
ENDMDL
MODEL 5
REMARK VINA RESULT:    -5.143      1.872      2.791
REMARK INTER + INTRA:          -5.143
REMARK INTER:                  -5.143
REMARK INTRA:                   0.000
REMARK UNBOUND:                 0.000
REMARK SMILES CC1=CC[C@@]2(C)CCCC(C)(C)[C@]23C[C@H]13
REMARK SMILES IDX 1 1 2 2 3 3 4 4 5 5 7 6 8 7 9 8 10 9 13 10 15 11 14 12 11 13
REMARK SMILES IDX 12 14 6 15
REMARK H PARENT
REMARK Flexibility Score: inf
ROOT
ATOM      1  C   UNL     1     137.220 141.347 133.625  1.00  0.00     0.039 C 
ATOM      2  C   UNL     1     138.310 140.473 134.171  1.00  0.00    -0.074 C 
ATOM      3  C   UNL     1     138.341 140.177 135.479  1.00  0.00    -0.027 C 
ATOM      4  C   UNL     1     139.452 139.343 136.048  1.00  0.00     0.034 C 
ATOM      5  C   UNL     1     140.826 139.737 135.443  1.00  0.00    -0.022 C 
ATOM      6  C   UNL     1     141.895 138.767 136.022  1.00  0.00     0.008 C 
ATOM      7  C   UNL     1     143.163 138.765 135.179  1.00  0.00     0.001 C 
ATOM      8  C   UNL     1     142.928 138.150 133.793  1.00  0.00     0.007 C 
ATOM      9  C   UNL     1     141.514 138.400 133.158  1.00  0.00    -0.029 C 
ATOM     10  C   UNL     1     140.770 139.624 133.854  1.00  0.00    -0.012 C 
ATOM     11  C   UNL     1     139.381 139.948 133.243  1.00  0.00     0.022 C 
ATOM     12  C   UNL     1     140.531 140.920 133.036  1.00  0.00     0.017 C 
ATOM     13  C   UNL     1     141.739 138.585 131.631  1.00  0.00     0.012 C 
ATOM     14  C   UNL     1     140.649 137.121 133.320  1.00  0.00     0.012 C 
ATOM     15  C   UNL     1     141.192 141.173 135.924  1.00  0.00     0.012 C 
ENDROOT
TORSDOF 0
ENDMDL
MODEL 6
REMARK VINA RESULT:    -5.133      1.759      2.644
REMARK INTER + INTRA:          -5.133
REMARK INTER:                  -5.133
REMARK INTRA:                   0.000
REMARK UNBOUND:                 0.000
REMARK SMILES CC1=CC[C@@]2(C)CCCC(C)(C)[C@]23C[C@H]13
REMARK SMILES IDX 1 1 2 2 3 3 4 4 5 5 7 6 8 7 9 8 10 9 13 10 15 11 14 12 11 13
REMARK SMILES IDX 12 14 6 15
REMARK H PARENT
REMARK Flexibility Score: inf
ROOT
ATOM      1  C   UNL     1     140.937 137.174 133.736  1.00  0.00     0.039 C 
ATOM      2  C   UNL     1     141.794 138.290 134.259  1.00  0.00    -0.074 C 
ATOM      3  C   UNL     1     142.085 138.356 135.567  1.00  0.00    -0.027 C 
ATOM      4  C   UNL     1     142.901 139.493 136.111  1.00  0.00     0.034 C 
ATOM      5  C   UNL     1     142.488 140.847 135.473  1.00  0.00    -0.022 C 
ATOM      6  C   UNL     1     143.440 141.943 136.029  1.00  0.00     0.008 C 
ATOM      7  C   UNL     1     143.425 143.191 135.156  1.00  0.00     0.001 C 
ATOM      8  C   UNL     1     144.048 142.933 133.778  1.00  0.00     0.007 C 
ATOM      9  C   UNL     1     143.820 141.500 133.175  1.00  0.00    -0.029 C 
ATOM     10  C   UNL     1     142.606 140.755 133.886  1.00  0.00    -0.012 C 
ATOM     11  C   UNL     1     142.305 139.346 133.307  1.00  0.00     0.022 C 
ATOM     12  C   UNL     1     141.316 140.476 133.070  1.00  0.00     0.017 C 
ATOM     13  C   UNL     1     143.636 141.687 131.643  1.00  0.00     0.012 C 
ATOM     14  C   UNL     1     145.112 140.658 133.360  1.00  0.00     0.012 C 
ATOM     15  C   UNL     1     141.045 141.202 135.942  1.00  0.00     0.012 C 
ENDROOT
TORSDOF 0
ENDMDL
MODEL 7
REMARK VINA RESULT:    -5.122      3.032      4.300
REMARK INTER + INTRA:          -5.122
REMARK INTER:                  -5.122
REMARK INTRA:                   0.000
REMARK UNBOUND:                 0.000
REMARK SMILES CC1=CC[C@@]2(C)CCCC(C)(C)[C@]23C[C@H]13
REMARK SMILES IDX 1 1 2 2 3 3 4 4 5 5 7 6 8 7 9 8 10 9 13 10 15 11 14 12 11 13
REMARK SMILES IDX 12 14 6 15
REMARK H PARENT
REMARK Flexibility Score: inf
ROOT
ATOM      1  C   UNL     1     137.644 139.581 132.105  1.00  0.00     0.039 C 
ATOM      2  C   UNL     1     138.355 140.688 132.830  1.00  0.00    -0.074 C 
ATOM      3  C   UNL     1     137.654 141.577 133.549  1.00  0.00    -0.027 C 
ATOM      4  C   UNL     1     138.347 142.716 134.239  1.00  0.00     0.034 C 
ATOM      5  C   UNL     1     139.451 143.338 133.342  1.00  0.00    -0.022 C 
ATOM      6  C   UNL     1     140.166 144.443 134.168  1.00  0.00     0.008 C 
ATOM      7  C   UNL     1     141.522 144.798 133.572  1.00  0.00     0.001 C 
ATOM      8  C   UNL     1     142.523 143.643 133.698  1.00  0.00     0.007 C 
ATOM      9  C   UNL     1     141.924 142.195 133.586  1.00  0.00    -0.029 C 
ATOM     10  C   UNL     1     140.487 142.211 132.900  1.00  0.00    -0.012 C 
ATOM     11  C   UNL     1     139.857 140.803 132.723  1.00  0.00     0.022 C 
ATOM     12  C   UNL     1     140.319 141.571 131.496  1.00  0.00     0.017 C 
ATOM     13  C   UNL     1     142.975 141.337 132.828  1.00  0.00     0.012 C 
ATOM     14  C   UNL     1     141.802 141.582 135.007  1.00  0.00     0.012 C 
ATOM     15  C   UNL     1     138.773 144.034 132.123  1.00  0.00     0.012 C 
ENDROOT
TORSDOF 0
ENDMDL
MODEL 8
REMARK VINA RESULT:    -5.075      1.850      4.250
REMARK INTER + INTRA:          -5.075
REMARK INTER:                  -5.075
REMARK INTRA:                   0.000
REMARK UNBOUND:                 0.000
REMARK SMILES CC1=CC[C@@]2(C)CCCC(C)(C)[C@]23C[C@H]13
REMARK SMILES IDX 1 1 2 2 3 3 4 4 5 5 7 6 8 7 9 8 10 9 13 10 15 11 14 12 11 13
REMARK SMILES IDX 12 14 6 15
REMARK H PARENT
REMARK Flexibility Score: inf
ROOT
ATOM      1  C   UNL     1     144.757 143.330 131.764  1.00  0.00     0.039 C 
ATOM      2  C   UNL     1     143.955 142.542 132.760  1.00  0.00    -0.074 C 
ATOM      3  C   UNL     1     143.535 143.124 133.893  1.00  0.00    -0.027 C 
ATOM      4  C   UNL     1     142.774 142.336 134.919  1.00  0.00     0.034 C 
ATOM      5  C   UNL     1     143.375 140.916 135.107  1.00  0.00    -0.022 C 
ATOM      6  C   UNL     1     142.474 140.150 136.116  1.00  0.00     0.008 C 
ATOM      7  C   UNL     1     142.694 138.646 136.031  1.00  0.00     0.001 C 
ATOM      8  C   UNL     1     142.199 138.068 134.699  1.00  0.00     0.007 C 
ATOM      9  C   UNL     1     142.356 138.998 133.444  1.00  0.00    -0.029 C 
ATOM     10  C   UNL     1     143.416 140.158 133.705  1.00  0.00    -0.012 C 
ATOM     11  C   UNL     1     143.646 141.089 132.485  1.00  0.00     0.022 C 
ATOM     12  C   UNL     1     144.753 140.143 132.920  1.00  0.00     0.017 C 
ATOM     13  C   UNL     1     142.717 138.073 132.248  1.00  0.00     0.012 C 
ATOM     14  C   UNL     1     140.981 139.634 133.104  1.00  0.00     0.012 C 
ATOM     15  C   UNL     1     144.786 141.051 135.752  1.00  0.00     0.012 C 
ENDROOT
TORSDOF 0
ENDMDL
MODEL 9
REMARK VINA RESULT:    -5.020      2.606      4.372
REMARK INTER + INTRA:          -5.020
REMARK INTER:                  -5.020
REMARK INTRA:                   0.000
REMARK UNBOUND:                 0.000
REMARK SMILES CC1=CC[C@@]2(C)CCCC(C)(C)[C@]23C[C@H]13
REMARK SMILES IDX 1 1 2 2 3 3 4 4 5 5 7 6 8 7 9 8 10 9 13 10 15 11 14 12 11 13
REMARK SMILES IDX 12 14 6 15
REMARK H PARENT
REMARK Flexibility Score: inf
ROOT
ATOM      1  C   UNL     1     139.164 144.359 132.521  1.00  0.00     0.039 C 
ATOM      2  C   UNL     1     140.395 143.763 133.138  1.00  0.00    -0.074 C 
ATOM      3  C   UNL     1     141.309 144.558 133.715  1.00  0.00    -0.027 C 
ATOM      4  C   UNL     1     142.567 143.980 134.293  1.00  0.00     0.034 C 
ATOM      5  C   UNL     1     143.160 142.875 133.377  1.00  0.00    -0.022 C 
ATOM      6  C   UNL     1     144.403 142.279 134.096  1.00  0.00     0.008 C 
ATOM      7  C   UNL     1     144.783 140.921 133.522  1.00  0.00     0.001 C 
ATOM      8  C   UNL     1     143.726 139.852 133.829  1.00  0.00     0.007 C 
ATOM      9  C   UNL     1     142.236 140.347 133.865  1.00  0.00    -0.029 C 
ATOM     10  C   UNL     1     142.067 141.743 133.120  1.00  0.00    -0.012 C 
ATOM     11  C   UNL     1     140.606 142.268 133.085  1.00  0.00     0.022 C 
ATOM     12  C   UNL     1     141.258 141.794 131.796  1.00  0.00     0.017 C 
ATOM     13  C   UNL     1     141.374 139.202 133.262  1.00  0.00     0.012 C 
ATOM     14  C   UNL     1     141.785 140.501 135.342  1.00  0.00     0.012 C 
ATOM     15  C   UNL     1     143.658 143.533 132.056  1.00  0.00     0.012 C 
ENDROOT
TORSDOF 0
ENDMDL
