MODEL 1
REMARK VINA RESULT:    -3.045      0.000      0.000
REMARK INTER + INTRA:          -3.604
REMARK INTER:                  -3.579
REMARK INTRA:                  -0.025
REMARK UNBOUND:                -0.025
REMARK SMILES CCCCC(=O)[O-]
REMARK SMILES IDX 4 1 5 2 6 3 7 4 3 5 2 6 1 7
REMARK H PARENT
REMARK Flexibility Score: inf
ROOT
ATOM      1  C   UNL     1      10.979  37.491  36.726  1.00  0.00     0.053 C 
ENDROOT
BRANCH   1   2
ATOM      2  C   UNL     1      11.025  36.625  35.504  1.00  0.00     0.041 C 
ATOM      3  O   UNL     1      10.786  37.117  34.370  1.00  0.00    -0.550 OA
ATOM      4  O   UNL     1      11.366  35.283  35.614  1.00  0.00    -0.550 OA
ENDBRANCH   1   2
BRANCH   1   5
ATOM      5  C   UNL     1      10.029  36.927  37.795  1.00  0.00     0.006 C 
BRANCH   5   6
ATOM      6  C   UNL     1      10.108  37.650  39.151  1.00  0.00    -0.003 C 
ATOM      7  C   UNL     1      11.545  37.906  39.605  1.00  0.00     0.004 C 
ENDBRANCH   5   6
ENDBRANCH   1   5
TORSDOF 3
ENDMDL
MODEL 2
REMARK VINA RESULT:    -2.984      2.758      3.892
REMARK INTER + INTRA:          -3.532
REMARK INTER:                  -3.506
REMARK INTRA:                  -0.026
REMARK UNBOUND:                -0.025
REMARK SMILES CCCCC(=O)[O-]
REMARK SMILES IDX 4 1 5 2 6 3 7 4 3 5 2 6 1 7
REMARK H PARENT
REMARK Flexibility Score: inf
ROOT
ATOM      1  C   UNL     1      11.164  37.782  37.438  1.00  0.00     0.053 C 
ENDROOT
BRANCH   1   2
ATOM      2  C   UNL     1      11.725  37.801  38.827  1.00  0.00     0.041 C 
ATOM      3  O   UNL     1      12.964  37.928  39.008  1.00  0.00    -0.550 OA
ATOM      4  O   UNL     1      10.874  37.713  39.923  1.00  0.00    -0.550 OA
ENDBRANCH   1   2
BRANCH   1   5
ATOM      5  C   UNL     1      10.313  36.528  37.178  1.00  0.00     0.006 C 
BRANCH   5   6
ATOM      6  C   UNL     1      10.718  35.742  35.919  1.00  0.00    -0.003 C 
ATOM      7  C   UNL     1      10.995  36.646  34.718  1.00  0.00     0.004 C 
ENDBRANCH   5   6
ENDBRANCH   1   5
TORSDOF 3
ENDMDL
MODEL 3
REMARK VINA RESULT:    -2.557     19.064     20.209
REMARK INTER + INTRA:          -3.030
REMARK INTER:                  -2.976
REMARK INTRA:                  -0.055
REMARK UNBOUND:                -0.025
REMARK SMILES CCCCC(=O)[O-]
REMARK SMILES IDX 4 1 5 2 6 3 7 4 3 5 2 6 1 7
REMARK H PARENT
REMARK Flexibility Score: inf
ROOT
ATOM      1  C   UNL     1      29.585  37.347  44.377  1.00  0.00     0.053 C 
ENDROOT
BRANCH   1   2
ATOM      2  C   UNL     1      29.736  36.150  45.265  1.00  0.00     0.041 C 
ATOM      3  O   UNL     1      30.125  35.052  44.786  1.00  0.00    -0.550 OA
ATOM      4  O   UNL     1      29.479  36.255  46.626  1.00  0.00    -0.550 OA
ENDBRANCH   1   2
BRANCH   1   5
ATOM      5  C   UNL     1      30.070  37.068  42.945  1.00  0.00     0.006 C 
BRANCH   5   6
ATOM      6  C   UNL     1      29.214  37.728  41.850  1.00  0.00    -0.003 C 
ATOM      7  C   UNL     1      27.780  38.000  42.301  1.00  0.00     0.004 C 
ENDBRANCH   5   6
ENDBRANCH   1   5
TORSDOF 3
ENDMDL
MODEL 4
REMARK VINA RESULT:    -2.438      3.345      4.133
REMARK INTER + INTRA:          -2.891
REMARK INTER:                  -2.860
REMARK INTRA:                  -0.031
REMARK UNBOUND:                -0.025
REMARK SMILES CCCCC(=O)[O-]
REMARK SMILES IDX 4 1 5 2 6 3 7 4 3 5 2 6 1 7
REMARK H PARENT
REMARK Flexibility Score: inf
ROOT
ATOM      1  C   UNL     1      12.282  37.136  38.424  1.00  0.00     0.053 C 
ENDROOT
BRANCH   1   2
ATOM      2  C   UNL     1      13.044  37.708  39.580  1.00  0.00     0.041 C 
ATOM      3  O   UNL     1      12.431  38.125  40.597  1.00  0.00    -0.550 OA
ATOM      4  O   UNL     1      14.432  37.748  39.548  1.00  0.00    -0.550 OA
ENDBRANCH   1   2
BRANCH   1   5
ATOM      5  C   UNL     1      10.778  37.442  38.516  1.00  0.00     0.006 C 
BRANCH   5   6
ATOM      6  C   UNL     1       9.899  36.557  37.616  1.00  0.00    -0.003 C 
ATOM      7  C   UNL     1      10.657  35.994  36.414  1.00  0.00     0.004 C 
ENDBRANCH   5   6
ENDBRANCH   1   5
TORSDOF 3
ENDMDL
MODEL 5
REMARK VINA RESULT:    -2.199     17.636     18.649
REMARK INTER + INTRA:          -2.610
REMARK INTER:                  -2.502
REMARK INTRA:                  -0.108
REMARK UNBOUND:                -0.025
REMARK SMILES CCCCC(=O)[O-]
REMARK SMILES IDX 4 1 5 2 6 3 7 4 3 5 2 6 1 7
REMARK H PARENT
REMARK Flexibility Score: inf
ROOT
ATOM      1  C   UNL     1      28.518  37.097  41.748  1.00  0.00     0.053 C 
ENDROOT
BRANCH   1   2
ATOM      2  C   UNL     1      27.177  37.178  42.412  1.00  0.00     0.041 C 
ATOM      3  O   UNL     1      26.917  38.125  43.199  1.00  0.00    -0.550 OA
ATOM      4  O   UNL     1      26.205  36.225  42.134  1.00  0.00    -0.550 OA
ENDBRANCH   1   2
BRANCH   1   5
ATOM      5  C   UNL     1      29.669  37.275  42.752  1.00  0.00     0.006 C 
BRANCH   5   6
ATOM      6  C   UNL     1      30.057  35.988  43.501  1.00  0.00    -0.003 C 
ATOM      7  C   UNL     1      29.634  36.005  44.969  1.00  0.00     0.004 C 
ENDBRANCH   5   6
ENDBRANCH   1   5
TORSDOF 3
ENDMDL
MODEL 6
REMARK VINA RESULT:    -2.194     17.741     18.653
REMARK INTER + INTRA:          -2.604
REMARK INTER:                  -2.568
REMARK INTRA:                  -0.036
REMARK UNBOUND:                -0.025
REMARK SMILES CCCCC(=O)[O-]
REMARK SMILES IDX 4 1 5 2 6 3 7 4 3 5 2 6 1 7
REMARK H PARENT
REMARK Flexibility Score: inf
ROOT
ATOM      1  C   UNL     1      22.353  30.123  48.662  1.00  0.00     0.053 C 
ENDROOT
BRANCH   1   2
ATOM      2  C   UNL     1      22.327  29.991  50.154  1.00  0.00     0.041 C 
ATOM      3  O   UNL     1      21.898  30.937  50.866  1.00  0.00    -0.550 OA
ATOM      4  O   UNL     1      22.744  28.810  50.756  1.00  0.00    -0.550 OA
ENDBRANCH   1   2
BRANCH   1   5
ATOM      5  C   UNL     1      23.645  29.550  48.056  1.00  0.00     0.006 C 
BRANCH   5   6
ATOM      6  C   UNL     1      24.071  30.217  46.737  1.00  0.00    -0.003 C 
ATOM      7  C   UNL     1      23.681  31.693  46.664  1.00  0.00     0.004 C 
ENDBRANCH   5   6
ENDBRANCH   1   5
TORSDOF 3
ENDMDL
MODEL 7
REMARK VINA RESULT:    -2.160     10.746     11.573
REMARK INTER + INTRA:          -2.564
REMARK INTER:                  -2.490
REMARK INTRA:                  -0.074
REMARK UNBOUND:                -0.025
REMARK SMILES CCCCC(=O)[O-]
REMARK SMILES IDX 4 1 5 2 6 3 7 4 3 5 2 6 1 7
REMARK H PARENT
REMARK Flexibility Score: inf
ROOT
ATOM      1  C   UNL     1      17.434  30.271  31.721  1.00  0.00     0.053 C 
ENDROOT
BRANCH   1   2
ATOM      2  C   UNL     1      17.694  28.864  31.279  1.00  0.00     0.041 C 
ATOM      3  O   UNL     1      18.874  28.431  31.206  1.00  0.00    -0.550 OA
ATOM      4  O   UNL     1      16.631  28.020  30.980  1.00  0.00    -0.550 OA
ENDBRANCH   1   2
BRANCH   1   5
ATOM      5  C   UNL     1      18.211  31.294  30.875  1.00  0.00     0.006 C 
BRANCH   5   6
ATOM      6  C   UNL     1      19.235  32.122  31.671  1.00  0.00    -0.003 C 
ATOM      7  C   UNL     1      18.860  32.271  33.145  1.00  0.00     0.004 C 
ENDBRANCH   5   6
ENDBRANCH   1   5
TORSDOF 3
ENDMDL
