MODEL 1
REMARK VINA RESULT:    -4.455      0.000      0.000
REMARK INTER + INTRA:          -8.463
REMARK INTER:                  -7.059
REMARK INTRA:                  -1.404
REMARK UNBOUND:                -1.404
REMARK SMILES CCCCCCCCCCCC(=O)[O-]
REMARK SMILES IDX 7 1 8 2 9 3 10 4 11 5 12 6 13 7 14 8 6 9 5 10 4 11 3 12 2 13
REMARK SMILES IDX 1 14
REMARK H PARENT
REMARK Flexibility Score: inf
ROOT
ATOM      1  C   UNL     1       9.315  -3.672  49.010  1.00  0.00     0.000 C 
ENDROOT
BRANCH   1   2
ATOM      2  C   UNL     1       9.225  -2.267  48.391  1.00  0.00     0.000 C 
BRANCH   2   3
ATOM      3  C   UNL     1       8.103  -2.151  47.344  1.00  0.00     0.000 C 
BRANCH   3   4
ATOM      4  C   UNL     1       7.455  -0.757  47.327  1.00  0.00     0.006 C 
BRANCH   4   5
ATOM      5  C   UNL     1       5.926  -0.817  47.440  1.00  0.00     0.053 C 
BRANCH   5   6
ATOM      6  C   UNL     1       5.373  -1.831  46.489  1.00  0.00     0.041 C 
ATOM      7  O   UNL     1       5.207  -1.537  45.275  1.00  0.00    -0.550 OA
ATOM      8  O   UNL     1       4.993  -3.084  46.951  1.00  0.00    -0.550 OA
ENDBRANCH   5   6
ENDBRANCH   4   5
ENDBRANCH   3   4
ENDBRANCH   2   3
ENDBRANCH   1   2
BRANCH   1   9
ATOM      9  C   UNL     1       8.339  -4.667  48.358  1.00  0.00     0.000 C 
BRANCH   9  10
ATOM     10  C   UNL     1       7.583  -5.528  49.388  1.00  0.00    -0.000 C 
BRANCH  10  11
ATOM     11  C   UNL     1       6.093  -5.185  49.565  1.00  0.00    -0.000 C 
BRANCH  11  12
ATOM     12  C   UNL     1       5.822  -4.297  50.792  1.00  0.00    -0.000 C 
BRANCH  12  13
ATOM     13  C   UNL     1       5.611  -2.822  50.415  1.00  0.00    -0.003 C 
ATOM     14  C   UNL     1       6.566  -1.881  51.150  1.00  0.00     0.004 C 
ENDBRANCH  12  13
ENDBRANCH  11  12
ENDBRANCH  10  11
ENDBRANCH   9  10
ENDBRANCH   1   9
TORSDOF 10
ENDMDL
MODEL 2
REMARK VINA RESULT:    -4.253      1.310      3.181
REMARK INTER + INTRA:          -8.143
REMARK INTER:                  -6.579
REMARK INTRA:                  -1.564
REMARK UNBOUND:                -1.404
REMARK SMILES CCCCCCCCCCCC(=O)[O-]
REMARK SMILES IDX 7 1 8 2 9 3 10 4 11 5 12 6 13 7 14 8 6 9 5 10 4 11 3 12 2 13
REMARK SMILES IDX 1 14
REMARK H PARENT
REMARK Flexibility Score: inf
ROOT
ATOM      1  C   UNL     1       4.617  -4.182  49.979  1.00  0.00     0.000 C 
ENDROOT
BRANCH   1   2
ATOM      2  C   UNL     1       5.763  -3.383  50.623  1.00  0.00     0.000 C 
BRANCH   2   3
ATOM      3  C   UNL     1       5.770  -1.905  50.193  1.00  0.00     0.000 C 
BRANCH   3   4
ATOM      4  C   UNL     1       6.584  -1.668  48.911  1.00  0.00     0.006 C 
BRANCH   4   5
ATOM      5  C   UNL     1       5.763  -0.985  47.810  1.00  0.00     0.053 C 
BRANCH   5   6
ATOM      6  C   UNL     1       6.168  -1.495  46.463  1.00  0.00     0.041 C 
ATOM      7  O   UNL     1       5.295  -1.729  45.585  1.00  0.00    -0.550 OA
ATOM      8  O   UNL     1       7.504  -1.761  46.193  1.00  0.00    -0.550 OA
ENDBRANCH   5   6
ENDBRANCH   4   5
ENDBRANCH   3   4
ENDBRANCH   2   3
ENDBRANCH   1   2
BRANCH   1   9
ATOM      9  C   UNL     1       5.125  -5.363  49.135  1.00  0.00     0.000 C 
BRANCH   9  10
ATOM     10  C   UNL     1       5.588  -4.939  47.728  1.00  0.00    -0.000 C 
BRANCH  10  11
ATOM     11  C   UNL     1       7.087  -5.135  47.441  1.00  0.00    -0.000 C 
BRANCH  11  12
ATOM     12  C   UNL     1       7.846  -5.774  48.617  1.00  0.00    -0.000 C 
BRANCH  12  13
ATOM     13  C   UNL     1       8.904  -4.833  49.215  1.00  0.00    -0.003 C 
ATOM     14  C   UNL     1       9.498  -3.876  48.182  1.00  0.00     0.004 C 
ENDBRANCH  12  13
ENDBRANCH  11  12
ENDBRANCH  10  11
ENDBRANCH   9  10
ENDBRANCH   1   9
TORSDOF 10
ENDMDL
MODEL 3
REMARK VINA RESULT:    -4.242      1.306      1.966
REMARK INTER + INTRA:          -8.126
REMARK INTER:                  -6.556
REMARK INTRA:                  -1.570
REMARK UNBOUND:                -1.404
REMARK SMILES CCCCCCCCCCCC(=O)[O-]
REMARK SMILES IDX 7 1 8 2 9 3 10 4 11 5 12 6 13 7 14 8 6 9 5 10 4 11 3 12 2 13
REMARK SMILES IDX 1 14
REMARK H PARENT
REMARK Flexibility Score: inf
ROOT
ATOM      1  C   UNL     1       8.802  -3.112  47.499  1.00  0.00     0.000 C 
ENDROOT
BRANCH   1   2
ATOM      2  C   UNL     1       8.666  -1.998  48.550  1.00  0.00     0.000 C 
BRANCH   2   3
ATOM      3  C   UNL     1       7.363  -2.105  49.363  1.00  0.00     0.000 C 
BRANCH   3   4
ATOM      4  C   UNL     1       6.182  -1.396  48.680  1.00  0.00     0.006 C 
BRANCH   4   5
ATOM      5  C   UNL     1       5.246  -2.373  47.958  1.00  0.00     0.053 C 
BRANCH   5   6
ATOM      6  C   UNL     1       5.392  -2.237  46.476  1.00  0.00     0.041 C 
ATOM      7  O   UNL     1       5.209  -3.234  45.727  1.00  0.00    -0.550 OA
ATOM      8  O   UNL     1       5.780  -1.024  45.923  1.00  0.00    -0.550 OA
ENDBRANCH   5   6
ENDBRANCH   4   5
ENDBRANCH   3   4
ENDBRANCH   2   3
ENDBRANCH   1   2
BRANCH   1   9
ATOM      9  C   UNL     1       8.837  -4.515  48.128  1.00  0.00     0.000 C 
BRANCH   9  10
ATOM     10  C   UNL     1       7.728  -5.440  47.594  1.00  0.00    -0.000 C 
BRANCH  10  11
ATOM     11  C   UNL     1       6.554  -5.687  48.560  1.00  0.00    -0.000 C 
BRANCH  11  12
ATOM     12  C   UNL     1       6.986  -5.707  50.037  1.00  0.00    -0.000 C 
BRANCH  12  13
ATOM     13  C   UNL     1       5.900  -5.158  50.974  1.00  0.00    -0.003 C 
ATOM     14  C   UNL     1       4.523  -5.095  50.314  1.00  0.00     0.004 C 
ENDBRANCH  12  13
ENDBRANCH  11  12
ENDBRANCH  10  11
ENDBRANCH   9  10
ENDBRANCH   1   9
TORSDOF 10
ENDMDL
MODEL 4
REMARK VINA RESULT:    -4.211      1.319      2.996
REMARK INTER + INTRA:          -8.077
REMARK INTER:                  -6.600
REMARK INTRA:                  -1.478
REMARK UNBOUND:                -1.404
REMARK SMILES CCCCCCCCCCCC(=O)[O-]
REMARK SMILES IDX 7 1 8 2 9 3 10 4 11 5 12 6 13 7 14 8 6 9 5 10 4 11 3 12 2 13
REMARK SMILES IDX 1 14
REMARK H PARENT
REMARK Flexibility Score: inf
ROOT
ATOM      1  C   UNL     1       6.167  -1.531  49.331  1.00  0.00     0.000 C 
ENDROOT
BRANCH   1   2
ATOM      2  C   UNL     1       7.277  -1.221  48.313  1.00  0.00     0.000 C 
BRANCH   2   3
ATOM      3  C   UNL     1       6.767  -1.225  46.860  1.00  0.00     0.000 C 
BRANCH   3   4
ATOM      4  C   UNL     1       5.339  -1.780  46.738  1.00  0.00     0.006 C 
BRANCH   4   5
ATOM      5  C   UNL     1       5.261  -3.006  45.821  1.00  0.00     0.053 C 
BRANCH   5   6
ATOM      6  C   UNL     1       4.678  -2.631  44.495  1.00  0.00     0.041 C 
ATOM      7  O   UNL     1       4.435  -3.519  43.635  1.00  0.00    -0.550 OA
ATOM      8  O   UNL     1       4.449  -1.296  44.189  1.00  0.00    -0.550 OA
ENDBRANCH   5   6
ENDBRANCH   4   5
ENDBRANCH   3   4
ENDBRANCH   2   3
ENDBRANCH   1   2
BRANCH   1   9
ATOM      9  C   UNL     1       6.650  -2.448  50.468  1.00  0.00     0.000 C 
BRANCH   9  10
ATOM     10  C   UNL     1       5.977  -3.833  50.448  1.00  0.00    -0.000 C 
BRANCH  10  11
ATOM     11  C   UNL     1       6.207  -4.659  49.169  1.00  0.00    -0.000 C 
BRANCH  11  12
ATOM     12  C   UNL     1       7.632  -5.233  49.073  1.00  0.00    -0.000 C 
BRANCH  12  13
ATOM     13  C   UNL     1       8.399  -4.700  47.852  1.00  0.00    -0.003 C 
ATOM     14  C   UNL     1       9.632  -3.883  48.237  1.00  0.00     0.004 C 
ENDBRANCH  12  13
ENDBRANCH  11  12
ENDBRANCH  10  11
ENDBRANCH   9  10
ENDBRANCH   1   9
TORSDOF 10
ENDMDL
MODEL 5
REMARK VINA RESULT:    -4.166      1.565      2.680
REMARK INTER + INTRA:          -8.006
REMARK INTER:                  -6.906
REMARK INTRA:                  -1.099
REMARK UNBOUND:                -1.404
REMARK SMILES CCCCCCCCCCCC(=O)[O-]
REMARK SMILES IDX 7 1 8 2 9 3 10 4 11 5 12 6 13 7 14 8 6 9 5 10 4 11 3 12 2 13
REMARK SMILES IDX 1 14
REMARK H PARENT
REMARK Flexibility Score: inf
ROOT
ATOM      1  C   UNL     1       8.128  -2.314  47.939  1.00  0.00     0.000 C 
ENDROOT
BRANCH   1   2
ATOM      2  C   UNL     1       7.578  -0.884  47.806  1.00  0.00     0.000 C 
BRANCH   2   3
ATOM      3  C   UNL     1       6.674  -0.709  46.572  1.00  0.00     0.000 C 
BRANCH   3   4
ATOM      4  C   UNL     1       5.370  -1.515  46.677  1.00  0.00     0.006 C 
BRANCH   4   5
ATOM      5  C   UNL     1       5.381  -2.770  45.795  1.00  0.00     0.053 C 
BRANCH   5   6
ATOM      6  C   UNL     1       4.651  -2.514  44.515  1.00  0.00     0.041 C 
ATOM      7  O   UNL     1       4.262  -3.479  43.803  1.00  0.00    -0.550 OA
ATOM      8  O   UNL     1       4.441  -1.212  44.081  1.00  0.00    -0.550 OA
ENDBRANCH   5   6
ENDBRANCH   4   5
ENDBRANCH   3   4
ENDBRANCH   2   3
ENDBRANCH   1   2
BRANCH   1   9
ATOM      9  C   UNL     1       7.875  -2.915  49.332  1.00  0.00     0.000 C 
BRANCH   9  10
ATOM     10  C   UNL     1       7.077  -1.975  50.255  1.00  0.00    -0.000 C 
BRANCH  10  11
ATOM     11  C   UNL     1       5.617  -2.391  50.515  1.00  0.00    -0.000 C 
BRANCH  11  12
ATOM     12  C   UNL     1       5.474  -3.873  50.903  1.00  0.00    -0.000 C 
BRANCH  12  13
ATOM     13  C   UNL     1       4.354  -4.579  50.122  1.00  0.00    -0.003 C 
ATOM     14  C   UNL     1       4.766  -4.948  48.697  1.00  0.00     0.004 C 
ENDBRANCH  12  13
ENDBRANCH  11  12
ENDBRANCH  10  11
ENDBRANCH   9  10
ENDBRANCH   1   9
TORSDOF 10
ENDMDL
MODEL 6
REMARK VINA RESULT:    -4.132      1.983      4.110
REMARK INTER + INTRA:          -7.951
REMARK INTER:                  -6.555
REMARK INTRA:                  -1.396
REMARK UNBOUND:                -1.404
REMARK SMILES CCCCCCCCCCCC(=O)[O-]
REMARK SMILES IDX 7 1 8 2 9 3 10 4 11 5 12 6 13 7 14 8 6 9 5 10 4 11 3 12 2 13
REMARK SMILES IDX 1 14
REMARK H PARENT
REMARK Flexibility Score: inf
ROOT
ATOM      1  C   UNL     1       8.102  -5.454  47.774  1.00  0.00     0.000 C 
ENDROOT
BRANCH   1   2
ATOM      2  C   UNL     1       6.593  -5.732  47.887  1.00  0.00     0.000 C 
BRANCH   2   3
ATOM      3  C   UNL     1       5.740  -4.688  47.145  1.00  0.00     0.000 C 
BRANCH   3   4
ATOM      4  C   UNL     1       4.767  -3.950  48.079  1.00  0.00     0.006 C 
BRANCH   4   5
ATOM      5  C   UNL     1       4.754  -4.536  49.496  1.00  0.00     0.053 C 
BRANCH   5   6
ATOM      6  C   UNL     1       5.314  -3.551  50.473  1.00  0.00     0.041 C 
ATOM      7  O   UNL     1       5.827  -3.951  51.552  1.00  0.00    -0.550 OA
ATOM      8  O   UNL     1       5.226  -2.189  50.216  1.00  0.00    -0.550 OA
ENDBRANCH   5   6
ENDBRANCH   4   5
ENDBRANCH   3   4
ENDBRANCH   2   3
ENDBRANCH   1   2
BRANCH   1   9
ATOM      9  C   UNL     1       8.694  -4.879  49.071  1.00  0.00     0.000 C 
BRANCH   9  10
ATOM     10  C   UNL     1       8.719  -3.339  49.089  1.00  0.00    -0.000 C 
BRANCH  10  11
ATOM     11  C   UNL     1       9.279  -2.675  47.818  1.00  0.00    -0.000 C 
BRANCH  11  12
ATOM     12  C   UNL     1       8.184  -2.061  46.929  1.00  0.00    -0.000 C 
BRANCH  12  13
ATOM     13  C   UNL     1       7.528  -0.828  47.570  1.00  0.00    -0.003 C 
ATOM     14  C   UNL     1       6.081  -0.624  47.120  1.00  0.00     0.004 C 
ENDBRANCH  12  13
ENDBRANCH  11  12
ENDBRANCH  10  11
ENDBRANCH   9  10
ENDBRANCH   1   9
TORSDOF 10
ENDMDL
MODEL 7
REMARK VINA RESULT:    -4.114      2.160      4.592
REMARK INTER + INTRA:          -7.923
REMARK INTER:                  -6.761
REMARK INTRA:                  -1.162
REMARK UNBOUND:                -1.404
REMARK SMILES CCCCCCCCCCCC(=O)[O-]
REMARK SMILES IDX 7 1 8 2 9 3 10 4 11 5 12 6 13 7 14 8 6 9 5 10 4 11 3 12 2 13
REMARK SMILES IDX 1 14
REMARK H PARENT
REMARK Flexibility Score: inf
ROOT
ATOM      1  C   UNL     1       8.830  -2.160  48.587  1.00  0.00     0.000 C 
ENDROOT
BRANCH   1   2
ATOM      2  C   UNL     1       9.251  -3.587  48.198  1.00  0.00     0.000 C 
BRANCH   2   3
ATOM      3  C   UNL     1       8.705  -4.651  49.166  1.00  0.00     0.000 C 
BRANCH   3   4
ATOM      4  C   UNL     1       7.211  -4.938  48.946  1.00  0.00     0.006 C 
BRANCH   4   5
ATOM      5  C   UNL     1       6.483  -5.296  50.248  1.00  0.00     0.053 C 
BRANCH   5   6
ATOM      6  C   UNL     1       5.542  -4.199  50.638  1.00  0.00     0.041 C 
ATOM      7  O   UNL     1       4.300  -4.345  50.482  1.00  0.00    -0.550 OA
ATOM      8  O   UNL     1       6.039  -2.998  51.126  1.00  0.00    -0.550 OA
ENDBRANCH   5   6
ENDBRANCH   4   5
ENDBRANCH   3   4
ENDBRANCH   2   3
ENDBRANCH   1   2
BRANCH   1   9
ATOM      9  C   UNL     1       7.866  -1.531  47.566  1.00  0.00     0.000 C 
BRANCH   9  10
ATOM     10  C   UNL     1       6.486  -1.202  48.167  1.00  0.00    -0.000 C 
BRANCH  10  11
ATOM     11  C   UNL     1       5.312  -2.025  47.606  1.00  0.00    -0.000 C 
BRANCH  11  12
ATOM     12  C   UNL     1       5.646  -2.719  46.275  1.00  0.00    -0.000 C 
BRANCH  12  13
ATOM     13  C   UNL     1       4.932  -2.070  45.078  1.00  0.00    -0.003 C 
ATOM     14  C   UNL     1       4.426  -3.095  44.062  1.00  0.00     0.004 C 
ENDBRANCH  12  13
ENDBRANCH  11  12
ENDBRANCH  10  11
ENDBRANCH   9  10
ENDBRANCH   1   9
TORSDOF 10
ENDMDL
MODEL 8
REMARK VINA RESULT:    -4.101      2.271      3.610
REMARK INTER + INTRA:          -7.902
REMARK INTER:                  -6.407
REMARK INTRA:                  -1.495
REMARK UNBOUND:                -1.404
REMARK SMILES CCCCCCCCCCCC(=O)[O-]
REMARK SMILES IDX 7 1 8 2 9 3 10 4 11 5 12 6 13 7 14 8 6 9 5 10 4 11 3 12 2 13
REMARK SMILES IDX 1 14
REMARK H PARENT
REMARK Flexibility Score: inf
ROOT
ATOM      1  C   UNL     1       5.271  -1.799  47.606  1.00  0.00     0.000 C 
ENDROOT
BRANCH   1   2
ATOM      2  C   UNL     1       6.509  -1.340  48.396  1.00  0.00     0.000 C 
BRANCH   2   3
ATOM      3  C   UNL     1       7.790  -1.335  47.543  1.00  0.00     0.000 C 
BRANCH   3   4
ATOM      4  C   UNL     1       8.964  -2.044  48.237  1.00  0.00     0.006 C 
BRANCH   4   5
ATOM      5  C   UNL     1       8.500  -3.044  49.303  1.00  0.00     0.053 C 
BRANCH   5   6
ATOM      6  C   UNL     1       8.907  -4.434  48.928  1.00  0.00     0.041 C 
ATOM      7  O   UNL     1       9.426  -4.659  47.802  1.00  0.00    -0.550 OA
ATOM      8  O   UNL     1       8.670  -5.488  49.800  1.00  0.00    -0.550 OA
ENDBRANCH   5   6
ENDBRANCH   4   5
ENDBRANCH   3   4
ENDBRANCH   2   3
ENDBRANCH   1   2
BRANCH   1   9
ATOM      9  C   UNL     1       5.634  -2.712  46.422  1.00  0.00     0.000 C 
BRANCH   9  10
ATOM     10  C   UNL     1       5.624  -4.207  46.793  1.00  0.00    -0.000 C 
BRANCH  10  11
ATOM     11  C   UNL     1       4.574  -4.619  47.841  1.00  0.00    -0.000 C 
BRANCH  11  12
ATOM     12  C   UNL     1       5.198  -5.204  49.120  1.00  0.00    -0.000 C 
BRANCH  12  13
ATOM     13  C   UNL     1       4.604  -4.590  50.398  1.00  0.00    -0.003 C 
ATOM     14  C   UNL     1       5.600  -3.706  51.149  1.00  0.00     0.004 C 
ENDBRANCH  12  13
ENDBRANCH  11  12
ENDBRANCH  10  11
ENDBRANCH   9  10
ENDBRANCH   1   9
TORSDOF 10
ENDMDL
MODEL 9
REMARK VINA RESULT:    -4.015      2.455      4.576
REMARK INTER + INTRA:          -7.767
REMARK INTER:                  -6.403
REMARK INTRA:                  -1.364
REMARK UNBOUND:                -1.404
REMARK SMILES CCCCCCCCCCCC(=O)[O-]
REMARK SMILES IDX 7 1 8 2 9 3 10 4 11 5 12 6 13 7 14 8 6 9 5 10 4 11 3 12 2 13
REMARK SMILES IDX 1 14
REMARK H PARENT
REMARK Flexibility Score: inf
ROOT
ATOM      1  C   UNL     1       5.271  -5.361  50.369  1.00  0.00     0.000 C 
ENDROOT
BRANCH   1   2
ATOM      2  C   UNL     1       4.661  -5.847  49.043  1.00  0.00     0.000 C 
BRANCH   2   3
ATOM      3  C   UNL     1       5.420  -5.321  47.812  1.00  0.00     0.000 C 
BRANCH   3   4
ATOM      4  C   UNL     1       6.881  -5.796  47.772  1.00  0.00     0.006 C 
BRANCH   4   5
ATOM      5  C   UNL     1       7.875  -4.633  47.658  1.00  0.00     0.053 C 
BRANCH   5   6
ATOM      6  C   UNL     1       8.727  -4.553  48.886  1.00  0.00     0.041 C 
ATOM      7  O   UNL     1       9.454  -3.543  49.087  1.00  0.00    -0.550 OA
ATOM      8  O   UNL     1       8.757  -5.613  49.783  1.00  0.00    -0.550 OA
ENDBRANCH   5   6
ENDBRANCH   4   5
ENDBRANCH   3   4
ENDBRANCH   2   3
ENDBRANCH   1   2
BRANCH   1   9
ATOM      9  C   UNL     1       4.881  -3.910  50.700  1.00  0.00     0.000 C 
BRANCH   9  10
ATOM     10  C   UNL     1       6.100  -2.986  50.878  1.00  0.00    -0.000 C 
BRANCH  10  11
ATOM     11  C   UNL     1       6.002  -1.623  50.169  1.00  0.00    -0.000 C 
BRANCH  11  12
ATOM     12  C   UNL     1       5.903  -1.747  48.638  1.00  0.00    -0.000 C 
BRANCH  12  13
ATOM     13  C   UNL     1       7.059  -1.039  47.914  1.00  0.00    -0.003 C 
ATOM     14  C   UNL     1       6.579  -0.110  46.799  1.00  0.00     0.004 C 
ENDBRANCH  12  13
ENDBRANCH  11  12
ENDBRANCH  10  11
ENDBRANCH   9  10
ENDBRANCH   1   9
TORSDOF 10
ENDMDL
