MODEL 1
REMARK VINA RESULT:    -3.947      0.000      0.000
REMARK INTER + INTRA:          -6.094
REMARK INTER:                  -5.562
REMARK INTRA:                  -0.532
REMARK UNBOUND:                -0.532
REMARK SMILES CCCCCCCCC(=O)[O-]
REMARK SMILES IDX 6 1 7 2 8 3 9 4 10 5 11 6 5 7 4 8 3 9 2 10 1 11
REMARK H PARENT
REMARK Flexibility Score: inf
ROOT
ATOM      1  C   UNL     1      60.521  -1.944  83.485  1.00  0.00     0.000 C 
ENDROOT
BRANCH   1   2
ATOM      2  C   UNL     1      59.325  -1.000  83.263  1.00  0.00     0.006 C 
BRANCH   2   3
ATOM      3  C   UNL     1      58.819  -0.312  84.542  1.00  0.00     0.053 C 
BRANCH   3   4
ATOM      4  C   UNL     1      57.343  -0.488  84.726  1.00  0.00     0.041 C 
ATOM      5  O   UNL     1      56.639  -0.957  83.794  1.00  0.00    -0.550 OA
ATOM      6  O   UNL     1      56.739  -0.100  85.916  1.00  0.00    -0.550 OA
ENDBRANCH   3   4
ENDBRANCH   2   3
ENDBRANCH   1   2
BRANCH   1   7
ATOM      7  C   UNL     1      60.209  -3.399  83.093  1.00  0.00     0.000 C 
BRANCH   7   8
ATOM      8  C   UNL     1      58.732  -3.607  82.723  1.00  0.00    -0.000 C 
BRANCH   8   9
ATOM      9  C   UNL     1      57.986  -4.486  83.739  1.00  0.00    -0.000 C 
BRANCH   9  10
ATOM     10  C   UNL     1      58.897  -5.595  84.277  1.00  0.00    -0.003 C 
ATOM     11  C   UNL     1      58.299  -6.243  85.522  1.00  0.00     0.004 C 
ENDBRANCH   9  10
ENDBRANCH   8   9
ENDBRANCH   7   8
ENDBRANCH   1   7
TORSDOF 7
ENDMDL
MODEL 2
REMARK VINA RESULT:    -3.924      2.203      4.442
REMARK INTER + INTRA:          -6.062
REMARK INTER:                  -5.671
REMARK INTRA:                  -0.390
REMARK UNBOUND:                -0.532
REMARK SMILES CCCCCCCCC(=O)[O-]
REMARK SMILES IDX 6 1 7 2 8 3 9 4 10 5 11 6 5 7 4 8 3 9 2 10 1 11
REMARK H PARENT
REMARK Flexibility Score: inf
ROOT
ATOM      1  C   UNL     1      60.373  -3.242  82.785  1.00  0.00     0.000 C 
ENDROOT
BRANCH   1   2
ATOM      2  C   UNL     1      60.419  -4.450  83.738  1.00  0.00     0.006 C 
BRANCH   2   3
ATOM      3  C   UNL     1      59.389  -5.546  83.417  1.00  0.00     0.053 C 
BRANCH   3   4
ATOM      4  C   UNL     1      58.219  -5.508  84.352  1.00  0.00     0.041 C 
ATOM      5  O   UNL     1      57.221  -4.789  84.088  1.00  0.00    -0.550 OA
ATOM      6  O   UNL     1      58.248  -6.241  85.533  1.00  0.00    -0.550 OA
ENDBRANCH   3   4
ENDBRANCH   2   3
ENDBRANCH   1   2
BRANCH   1   7
ATOM      7  C   UNL     1      60.606  -1.905  83.510  1.00  0.00     0.000 C 
BRANCH   7   8
ATOM      8  C   UNL     1      59.436  -0.924  83.331  1.00  0.00    -0.000 C 
BRANCH   8   9
ATOM      9  C   UNL     1      59.107  -0.156  84.620  1.00  0.00    -0.000 C 
BRANCH   9  10
ATOM     10  C   UNL     1      57.623  -0.295  84.979  1.00  0.00    -0.003 C 
ATOM     11  C   UNL     1      56.903  -1.216  83.998  1.00  0.00     0.004 C 
ENDBRANCH   9  10
ENDBRANCH   8   9
ENDBRANCH   7   8
ENDBRANCH   1   7
TORSDOF 7
ENDMDL
MODEL 3
REMARK VINA RESULT:    -3.848      3.477      5.332
REMARK INTER + INTRA:          -5.955
REMARK INTER:                  -5.403
REMARK INTRA:                  -0.552
REMARK UNBOUND:                -0.532
REMARK SMILES CCCCCCCCC(=O)[O-]
REMARK SMILES IDX 6 1 7 2 8 3 9 4 10 5 11 6 5 7 4 8 3 9 2 10 1 11
REMARK H PARENT
REMARK Flexibility Score: inf
ROOT
ATOM      1  C   UNL     1      57.639  -5.048  83.784  1.00  0.00     0.000 C 
ENDROOT
BRANCH   1   2
ATOM      2  C   UNL     1      58.831  -5.559  84.613  1.00  0.00     0.006 C 
BRANCH   2   3
ATOM      3  C   UNL     1      60.204  -5.105  84.091  1.00  0.00     0.053 C 
BRANCH   3   4
ATOM      4  C   UNL     1      60.796  -6.095  83.136  1.00  0.00     0.041 C 
ATOM      5  O   UNL     1      61.734  -5.753  82.370  1.00  0.00    -0.550 OA
ATOM      6  O   UNL     1      60.288  -7.387  83.067  1.00  0.00    -0.550 OA
ENDBRANCH   3   4
ENDBRANCH   2   3
ENDBRANCH   1   2
BRANCH   1   7
ATOM      7  C   UNL     1      57.891  -3.657  83.176  1.00  0.00     0.000 C 
BRANCH   7   8
ATOM      8  C   UNL     1      56.961  -2.581  83.758  1.00  0.00    -0.000 C 
BRANCH   8   9
ATOM      9  C   UNL     1      57.674  -1.238  83.976  1.00  0.00    -0.000 C 
BRANCH   9  10
ATOM     10  C   UNL     1      59.114  -1.290  83.451  1.00  0.00    -0.003 C 
ATOM     11  C   UNL     1      60.088  -0.675  84.451  1.00  0.00     0.004 C 
ENDBRANCH   9  10
ENDBRANCH   8   9
ENDBRANCH   7   8
ENDBRANCH   1   7
TORSDOF 7
ENDMDL
MODEL 4
REMARK VINA RESULT:    -3.831      2.683      3.480
REMARK INTER + INTRA:          -5.931
REMARK INTER:                  -5.264
REMARK INTRA:                  -0.667
REMARK UNBOUND:                -0.532
REMARK SMILES CCCCCCCCC(=O)[O-]
REMARK SMILES IDX 6 1 7 2 8 3 9 4 10 5 11 6 5 7 4 8 3 9 2 10 1 11
REMARK H PARENT
REMARK Flexibility Score: inf
ROOT
ATOM      1  C   UNL     1      57.593  -2.122  83.691  1.00  0.00     0.000 C 
ENDROOT
BRANCH   1   2
ATOM      2  C   UNL     1      58.853  -1.261  83.493  1.00  0.00     0.006 C 
BRANCH   2   3
ATOM      3  C   UNL     1      60.174  -2.010  83.731  1.00  0.00     0.053 C 
BRANCH   3   4
ATOM      4  C   UNL     1      61.016  -2.071  82.493  1.00  0.00     0.041 C 
ATOM      5  O   UNL     1      62.124  -1.475  82.451  1.00  0.00    -0.550 OA
ATOM      6  O   UNL     1      60.559  -2.755  81.373  1.00  0.00    -0.550 OA
ENDBRANCH   3   4
ENDBRANCH   2   3
ENDBRANCH   1   2
BRANCH   1   7
ATOM      7  C   UNL     1      57.701  -3.499  83.010  1.00  0.00     0.000 C 
BRANCH   7   8
ATOM      8  C   UNL     1      57.235  -4.646  83.920  1.00  0.00    -0.000 C 
BRANCH   8   9
ATOM      9  C   UNL     1      58.407  -5.444  84.512  1.00  0.00    -0.000 C 
BRANCH   9  10
ATOM     10  C   UNL     1      59.358  -5.921  83.410  1.00  0.00    -0.003 C 
ATOM     11  C   UNL     1      60.815  -5.695  83.802  1.00  0.00     0.004 C 
ENDBRANCH   9  10
ENDBRANCH   8   9
ENDBRANCH   7   8
ENDBRANCH   1   7
TORSDOF 7
ENDMDL
MODEL 5
REMARK VINA RESULT:    -3.816     12.339     13.556
REMARK INTER + INTRA:          -5.910
REMARK INTER:                  -5.311
REMARK INTRA:                  -0.599
REMARK UNBOUND:                -0.532
REMARK SMILES CCCCCCCCC(=O)[O-]
REMARK SMILES IDX 6 1 7 2 8 3 9 4 10 5 11 6 5 7 4 8 3 9 2 10 1 11
REMARK H PARENT
REMARK Flexibility Score: inf
ROOT
ATOM      1  C   UNL     1      53.160  -0.523  72.045  1.00  0.00     0.000 C 
ENDROOT
BRANCH   1   2
ATOM      2  C   UNL     1      53.051  -1.597  73.143  1.00  0.00     0.006 C 
BRANCH   2   3
ATOM      3  C   UNL     1      53.479  -3.004  72.694  1.00  0.00     0.053 C 
BRANCH   3   4
ATOM      4  C   UNL     1      53.841  -3.878  73.857  1.00  0.00     0.041 C 
ATOM      5  O   UNL     1      53.182  -3.813  74.927  1.00  0.00    -0.550 OA
ATOM      6  O   UNL     1      54.929  -4.738  73.769  1.00  0.00    -0.550 OA
ENDBRANCH   3   4
ENDBRANCH   2   3
ENDBRANCH   1   2
BRANCH   1   7
ATOM      7  C   UNL     1      51.896   0.349  71.940  1.00  0.00     0.000 C 
BRANCH   7   8
ATOM      8  C   UNL     1      50.739  -0.182  72.802  1.00  0.00    -0.000 C 
BRANCH   8   9
ATOM      9  C   UNL     1      49.615  -0.808  71.962  1.00  0.00    -0.000 C 
BRANCH   9  10
ATOM     10  C   UNL     1      49.016  -2.029  72.669  1.00  0.00    -0.003 C 
ATOM     11  C   UNL     1      49.810  -3.293  72.354  1.00  0.00     0.004 C 
ENDBRANCH   9  10
ENDBRANCH   8   9
ENDBRANCH   7   8
ENDBRANCH   1   7
TORSDOF 7
ENDMDL
MODEL 6
REMARK VINA RESULT:    -3.762      2.861      3.972
REMARK INTER + INTRA:          -5.834
REMARK INTER:                  -5.321
REMARK INTRA:                  -0.513
REMARK UNBOUND:                -0.532
REMARK SMILES CCCCCCCCC(=O)[O-]
REMARK SMILES IDX 6 1 7 2 8 3 9 4 10 5 11 6 5 7 4 8 3 9 2 10 1 11
REMARK H PARENT
REMARK Flexibility Score: inf
ROOT
ATOM      1  C   UNL     1      59.202  -0.219  84.168  1.00  0.00     0.000 C 
ENDROOT
BRANCH   1   2
ATOM      2  C   UNL     1      60.293  -1.298  84.287  1.00  0.00     0.006 C 
BRANCH   2   3
ATOM      3  C   UNL     1      60.951  -1.681  82.952  1.00  0.00     0.053 C 
BRANCH   3   4
ATOM      4  C   UNL     1      60.382  -2.949  82.390  1.00  0.00     0.041 C 
ATOM      5  O   UNL     1      59.514  -2.905  81.480  1.00  0.00    -0.550 OA
ATOM      6  O   UNL     1      60.787  -4.178  82.897  1.00  0.00    -0.550 OA
ENDBRANCH   3   4
ENDBRANCH   2   3
ENDBRANCH   1   2
BRANCH   1   7
ATOM      7  C   UNL     1      57.869  -0.649  84.806  1.00  0.00     0.000 C 
BRANCH   7   8
ATOM      8  C   UNL     1      56.924  -1.325  83.801  1.00  0.00    -0.000 C 
BRANCH   8   9
ATOM      9  C   UNL     1      57.014  -2.858  83.844  1.00  0.00    -0.000 C 
BRANCH   9  10
ATOM     10  C   UNL     1      56.174  -3.488  82.727  1.00  0.00    -0.003 C 
ATOM     11  C   UNL     1      54.906  -2.680  82.468  1.00  0.00     0.004 C 
ENDBRANCH   9  10
ENDBRANCH   8   9
ENDBRANCH   7   8
ENDBRANCH   1   7
TORSDOF 7
ENDMDL
MODEL 7
REMARK VINA RESULT:    -3.739     11.983     13.317
REMARK INTER + INTRA:          -5.802
REMARK INTER:                  -5.167
REMARK INTRA:                  -0.635
REMARK UNBOUND:                -0.532
REMARK SMILES CCCCCCCCC(=O)[O-]
REMARK SMILES IDX 6 1 7 2 8 3 9 4 10 5 11 6 5 7 4 8 3 9 2 10 1 11
REMARK H PARENT
REMARK Flexibility Score: inf
ROOT
ATOM      1  C   UNL     1      53.171  -1.497  73.148  1.00  0.00     0.000 C 
ENDROOT
BRANCH   1   2
ATOM      2  C   UNL     1      53.239  -2.963  72.682  1.00  0.00     0.006 C 
BRANCH   2   3
ATOM      3  C   UNL     1      52.805  -3.984  73.745  1.00  0.00     0.053 C 
BRANCH   3   4
ATOM      4  C   UNL     1      53.978  -4.641  74.405  1.00  0.00     0.041 C 
ATOM      5  O   UNL     1      53.840  -5.218  75.515  1.00  0.00    -0.550 OA
ATOM      6  O   UNL     1      55.233  -4.585  73.810  1.00  0.00    -0.550 OA
ENDBRANCH   3   4
ENDBRANCH   2   3
ENDBRANCH   1   2
BRANCH   1   7
ATOM      7  C   UNL     1      53.217  -0.499  71.977  1.00  0.00     0.000 C 
BRANCH   7   8
ATOM      8  C   UNL     1      51.975   0.405  71.923  1.00  0.00    -0.000 C 
BRANCH   8   9
ATOM      9  C   UNL     1      50.865  -0.059  72.879  1.00  0.00    -0.000 C 
BRANCH   9  10
ATOM     10  C   UNL     1      49.683  -0.649  72.101  1.00  0.00    -0.003 C 
ATOM     11  C   UNL     1      49.569  -2.153  72.329  1.00  0.00     0.004 C 
ENDBRANCH   9  10
ENDBRANCH   8   9
ENDBRANCH   7   8
ENDBRANCH   1   7
TORSDOF 7
ENDMDL
MODEL 8
REMARK VINA RESULT:    -3.714     13.801     14.738
REMARK INTER + INTRA:          -5.766
REMARK INTER:                  -5.435
REMARK INTRA:                  -0.331
REMARK UNBOUND:                -0.532
REMARK SMILES CCCCCCCCC(=O)[O-]
REMARK SMILES IDX 6 1 7 2 8 3 9 4 10 5 11 6 5 7 4 8 3 9 2 10 1 11
REMARK H PARENT
REMARK Flexibility Score: inf
ROOT
ATOM      1  C   UNL     1      49.477  -1.749  72.072  1.00  0.00     0.000 C 
ENDROOT
BRANCH   1   2
ATOM      2  C   UNL     1      50.379  -0.523  72.300  1.00  0.00     0.006 C 
BRANCH   2   3
ATOM      3  C   UNL     1      51.852  -0.866  72.577  1.00  0.00     0.053 C 
BRANCH   3   4
ATOM      4  C   UNL     1      52.787  -0.006  71.782  1.00  0.00     0.041 C 
ATOM      5  O   UNL     1      53.881  -0.473  71.371  1.00  0.00    -0.550 OA
ATOM      6  O   UNL     1      52.465   1.321  71.526  1.00  0.00    -0.550 OA
ENDBRANCH   3   4
ENDBRANCH   2   3
ENDBRANCH   1   2
BRANCH   1   7
ATOM      7  C   UNL     1      50.236  -3.080  72.215  1.00  0.00     0.000 C 
BRANCH   7   8
ATOM      8  C   UNL     1      49.307  -4.256  72.556  1.00  0.00    -0.000 C 
BRANCH   8   9
ATOM      9  C   UNL     1      48.057  -3.815  73.332  1.00  0.00    -0.000 C 
BRANCH   9  10
ATOM     10  C   UNL     1      47.186  -5.022  73.700  1.00  0.00    -0.003 C 
ATOM     11  C   UNL     1      46.938  -5.913  72.487  1.00  0.00     0.004 C 
ENDBRANCH   9  10
ENDBRANCH   8   9
ENDBRANCH   7   8
ENDBRANCH   1   7
TORSDOF 7
ENDMDL
MODEL 9
REMARK VINA RESULT:    -3.703     12.986     14.155
REMARK INTER + INTRA:          -5.750
REMARK INTER:                  -4.971
REMARK INTRA:                  -0.779
REMARK UNBOUND:                -0.532
REMARK SMILES CCCCCCCCC(=O)[O-]
REMARK SMILES IDX 6 1 7 2 8 3 9 4 10 5 11 6 5 7 4 8 3 9 2 10 1 11
REMARK H PARENT
REMARK Flexibility Score: inf
ROOT
ATOM      1  C   UNL     1      51.686  -2.855  73.813  1.00  0.00     0.000 C 
ENDROOT
BRANCH   1   2
ATOM      2  C   UNL     1      52.662  -1.674  73.668  1.00  0.00     0.006 C 
BRANCH   2   3
ATOM      3  C   UNL     1      53.124  -1.410  72.225  1.00  0.00     0.053 C 
BRANCH   3   4
ATOM      4  C   UNL     1      53.154   0.053  71.904  1.00  0.00     0.041 C 
ATOM      5  O   UNL     1      52.089   0.722  71.898  1.00  0.00    -0.550 OA
ATOM      6  O   UNL     1      54.356   0.669  71.577  1.00  0.00    -0.550 OA
ENDBRANCH   3   4
ENDBRANCH   2   3
ENDBRANCH   1   2
BRANCH   1   7
ATOM      7  C   UNL     1      50.929  -3.163  72.509  1.00  0.00     0.000 C 
BRANCH   7   8
ATOM      8  C   UNL     1      49.495  -2.610  72.514  1.00  0.00    -0.000 C 
BRANCH   8   9
ATOM      9  C   UNL     1      49.359  -1.314  71.699  1.00  0.00    -0.000 C 
BRANCH   9  10
ATOM     10  C   UNL     1      48.573  -0.255  72.480  1.00  0.00    -0.003 C 
ATOM     11  C   UNL     1      49.150  -0.061  73.879  1.00  0.00     0.004 C 
ENDBRANCH   9  10
ENDBRANCH   8   9
ENDBRANCH   7   8
ENDBRANCH   1   7
TORSDOF 7
ENDMDL
