MODEL 1
REMARK VINA RESULT:    -4.161      0.000      0.000
REMARK INTER + INTRA:         -10.951
REMARK INTER:                  -9.027
REMARK INTRA:                  -1.925
REMARK UNBOUND:                -1.925
REMARK SMILES CCCCCCCCCCCCCCCCCCCCCC(=O)[O-]
REMARK SMILES IDX 12 1 11 2 10 3 9 4 8 5 7 6 6 7 5 8 4 9 3 10 2 11 1 12 13 13
REMARK SMILES IDX 14 14 15 15 16 16 17 17 18 18 19 19 20 20 21 21 22 22 23 23
REMARK SMILES IDX 24 24
REMARK H PARENT
REMARK Flexibility Score: inf
ROOT
ATOM      1  C   UNL     1      -8.021  -2.330   2.787  1.00  0.00     0.000 C 
ENDROOT
BRANCH   1   2
ATOM      2  C   UNL     1      -7.346  -3.653   3.197  1.00  0.00     0.000 C 
BRANCH   2   3
ATOM      3  C   UNL     1      -7.074  -3.745   4.708  1.00  0.00     0.000 C 
BRANCH   3   4
ATOM      4  C   UNL     1      -5.734  -4.429   5.037  1.00  0.00    -0.000 C 
BRANCH   4   5
ATOM      5  C   UNL     1      -4.496  -3.809   4.363  1.00  0.00    -0.000 C 
BRANCH   5   6
ATOM      6  C   UNL     1      -3.260  -4.722   4.424  1.00  0.00    -0.000 C 
BRANCH   6   7
ATOM      7  C   UNL     1      -2.223  -4.234   5.450  1.00  0.00    -0.000 C 
BRANCH   7   8
ATOM      8  C   UNL     1      -2.564  -4.674   6.885  1.00  0.00    -0.000 C 
BRANCH   8   9
ATOM      9  C   UNL     1      -2.539  -3.504   7.884  1.00  0.00    -0.000 C 
BRANCH   9  10
ATOM     10  C   UNL     1      -3.252  -2.227   7.399  1.00  0.00    -0.000 C 
BRANCH  10  11
ATOM     11  C   UNL     1      -4.744  -2.163   7.788  1.00  0.00    -0.003 C 
ATOM     12  C   UNL     1      -5.097  -0.878   8.538  1.00  0.00     0.004 C 
ENDBRANCH  10  11
ENDBRANCH   9  10
ENDBRANCH   8   9
ENDBRANCH   7   8
ENDBRANCH   6   7
ENDBRANCH   5   6
ENDBRANCH   4   5
ENDBRANCH   3   4
ENDBRANCH   2   3
ENDBRANCH   1   2
BRANCH   1  13
ATOM     13  C   UNL     1      -7.269  -1.502   1.724  1.00  0.00     0.000 C 
BRANCH  13  14
ATOM     14  C   UNL     1      -6.040  -2.189   1.101  1.00  0.00     0.000 C 
BRANCH  14  15
ATOM     15  C   UNL     1      -5.098  -1.202   0.395  1.00  0.00     0.000 C 
BRANCH  15  16
ATOM     16  C   UNL     1      -5.272   0.245   0.887  1.00  0.00     0.000 C 
BRANCH  16  17
ATOM     17  C   UNL     1      -5.838   1.204  -0.182  1.00  0.00     0.000 C 
BRANCH  17  18
ATOM     18  C   UNL     1      -4.927   2.424  -0.404  1.00  0.00     0.000 C 
BRANCH  18  19
ATOM     19  C   UNL     1      -3.548   2.262   0.251  1.00  0.00     0.000 C 
BRANCH  19  20
ATOM     20  C   UNL     1      -3.248   3.366   1.276  1.00  0.00     0.006 C 
BRANCH  20  21
ATOM     21  C   UNL     1      -4.488   3.681   2.118  1.00  0.00     0.053 C 
BRANCH  21  22
ATOM     22  C   UNL     1      -4.229   4.845   3.023  1.00  0.00     0.041 C 
ATOM     23  O   UNL     1      -3.943   5.974   2.538  1.00  0.00    -0.550 OA
ATOM     24  O   UNL     1      -4.258   4.677   4.403  1.00  0.00    -0.550 OA
ENDBRANCH  21  22
ENDBRANCH  20  21
ENDBRANCH  19  20
ENDBRANCH  18  19
ENDBRANCH  17  18
ENDBRANCH  16  17
ENDBRANCH  15  16
ENDBRANCH  14  15
ENDBRANCH  13  14
ENDBRANCH   1  13
TORSDOF 20
ENDMDL
MODEL 2
REMARK VINA RESULT:    -4.138      4.272      7.732
REMARK INTER + INTRA:         -10.901
REMARK INTER:                  -7.852
REMARK INTRA:                  -3.049
REMARK UNBOUND:                -1.925
REMARK SMILES CCCCCCCCCCCCCCCCCCCCCC(=O)[O-]
REMARK SMILES IDX 12 1 11 2 10 3 9 4 8 5 7 6 6 7 5 8 4 9 3 10 2 11 1 12 13 13
REMARK SMILES IDX 14 14 15 15 16 16 17 17 18 18 19 19 20 20 21 21 22 22 23 23
REMARK SMILES IDX 24 24
REMARK H PARENT
REMARK Flexibility Score: inf
ROOT
ATOM      1  C   UNL     1      -4.199   3.739   2.829  1.00  0.00     0.000 C 
ENDROOT
BRANCH   1   2
ATOM      2  C   UNL     1      -3.225   3.633   1.640  1.00  0.00     0.000 C 
BRANCH   2   3
ATOM      3  C   UNL     1      -3.538   2.448   0.711  1.00  0.00     0.000 C 
BRANCH   3   4
ATOM      4  C   UNL     1      -3.131   2.706  -0.751  1.00  0.00    -0.000 C 
BRANCH   4   5
ATOM      5  C   UNL     1      -3.961   3.774  -1.486  1.00  0.00    -0.000 C 
BRANCH   5   6
ATOM      6  C   UNL     1      -5.393   3.902  -0.941  1.00  0.00    -0.000 C 
BRANCH   6   7
ATOM      7  C   UNL     1      -6.450   3.457  -1.965  1.00  0.00    -0.000 C 
BRANCH   7   8
ATOM      8  C   UNL     1      -7.386   2.369  -1.410  1.00  0.00    -0.000 C 
BRANCH   8   9
ATOM      9  C   UNL     1      -6.696   1.468  -0.371  1.00  0.00    -0.000 C 
BRANCH   9  10
ATOM     10  C   UNL     1      -7.439   0.154  -0.062  1.00  0.00    -0.000 C 
BRANCH  10  11
ATOM     11  C   UNL     1      -6.758  -0.704   1.025  1.00  0.00    -0.003 C 
ATOM     12  C   UNL     1      -5.261  -0.887   0.772  1.00  0.00     0.004 C 
ENDBRANCH  10  11
ENDBRANCH   9  10
ENDBRANCH   8   9
ENDBRANCH   7   8
ENDBRANCH   6   7
ENDBRANCH   5   6
ENDBRANCH   4   5
ENDBRANCH   3   4
ENDBRANCH   2   3
ENDBRANCH   1   2
BRANCH   1  13
ATOM     13  C   UNL     1      -5.537   2.988   2.661  1.00  0.00     0.000 C 
BRANCH  13  14
ATOM     14  C   UNL     1      -6.780   3.883   2.502  1.00  0.00     0.000 C 
BRANCH  14  15
ATOM     15  C   UNL     1      -8.069   3.207   2.991  1.00  0.00     0.000 C 
BRANCH  15  16
ATOM     16  C   UNL     1      -7.808   2.102   4.029  1.00  0.00     0.000 C 
BRANCH  16  17
ATOM     17  C   UNL     1      -8.454   2.371   5.404  1.00  0.00     0.000 C 
BRANCH  17  18
ATOM     18  C   UNL     1      -8.419   3.864   5.776  1.00  0.00     0.000 C 
BRANCH  18  19
ATOM     19  C   UNL     1      -7.646   4.134   7.076  1.00  0.00     0.000 C 
BRANCH  19  20
ATOM     20  C   UNL     1      -6.158   3.770   6.963  1.00  0.00     0.006 C 
BRANCH  20  21
ATOM     21  C   UNL     1      -5.405   4.800   6.117  1.00  0.00     0.053 C 
BRANCH  21  22
ATOM     22  C   UNL     1      -4.141   5.222   6.800  1.00  0.00     0.041 C 
ATOM     23  O   UNL     1      -3.625   6.344   6.543  1.00  0.00    -0.550 OA
ATOM     24  O   UNL     1      -3.506   4.360   7.686  1.00  0.00    -0.550 OA
ENDBRANCH  21  22
ENDBRANCH  20  21
ENDBRANCH  19  20
ENDBRANCH  18  19
ENDBRANCH  17  18
ENDBRANCH  16  17
ENDBRANCH  15  16
ENDBRANCH  14  15
ENDBRANCH  13  14
ENDBRANCH   1  13
TORSDOF 20
ENDMDL
MODEL 3
REMARK VINA RESULT:    -4.122      4.280      6.817
REMARK INTER + INTRA:         -10.867
REMARK INTER:                  -7.443
REMARK INTRA:                  -3.425
REMARK UNBOUND:                -1.925
REMARK SMILES CCCCCCCCCCCCCCCCCCCCCC(=O)[O-]
REMARK SMILES IDX 12 1 11 2 10 3 9 4 8 5 7 6 6 7 5 8 4 9 3 10 2 11 1 12 13 13
REMARK SMILES IDX 14 14 15 15 16 16 17 17 18 18 19 19 20 20 21 21 22 22 23 23
REMARK SMILES IDX 24 24
REMARK H PARENT
REMARK Flexibility Score: inf
ROOT
ATOM      1  C   UNL     1      -5.283   0.563   0.907  1.00  0.00     0.000 C 
ENDROOT
BRANCH   1   2
ATOM      2  C   UNL     1      -5.095  -0.946   0.663  1.00  0.00     0.000 C 
BRANCH   2   3
ATOM      3  C   UNL     1      -6.405  -1.743   0.788  1.00  0.00     0.000 C 
BRANCH   3   4
ATOM      4  C   UNL     1      -7.482  -1.004   1.603  1.00  0.00    -0.000 C 
BRANCH   4   5
ATOM      5  C   UNL     1      -8.820  -0.778   0.876  1.00  0.00    -0.000 C 
BRANCH   5   6
ATOM      6  C   UNL     1      -8.657  -0.631  -0.646  1.00  0.00    -0.000 C 
BRANCH   6   7
ATOM      7  C   UNL     1      -9.729  -1.410  -1.427  1.00  0.00    -0.000 C 
BRANCH   7   8
ATOM      8  C   UNL     1      -9.136  -2.581  -2.231  1.00  0.00    -0.000 C 
BRANCH   8   9
ATOM      9  C   UNL     1      -8.725  -3.764  -1.338  1.00  0.00    -0.000 C 
BRANCH   9  10
ATOM     10  C   UNL     1      -7.299  -4.293  -1.585  1.00  0.00    -0.000 C 
BRANCH  10  11
ATOM     11  C   UNL     1      -6.938  -4.432  -3.079  1.00  0.00    -0.003 C 
ATOM     12  C   UNL     1      -7.634  -5.623  -3.739  1.00  0.00     0.004 C 
ENDBRANCH  10  11
ENDBRANCH   9  10
ENDBRANCH   8   9
ENDBRANCH   7   8
ENDBRANCH   6   7
ENDBRANCH   5   6
ENDBRANCH   4   5
ENDBRANCH   3   4
ENDBRANCH   2   3
ENDBRANCH   1   2
BRANCH   1  13
ATOM     13  C   UNL     1      -4.368   1.490   0.080  1.00  0.00     0.000 C 
BRANCH  13  14
ATOM     14  C   UNL     1      -5.091   2.590  -0.719  1.00  0.00     0.000 C 
BRANCH  14  15
ATOM     15  C   UNL     1      -6.559   2.247  -1.011  1.00  0.00     0.000 C 
BRANCH  15  16
ATOM     16  C   UNL     1      -7.540   3.288  -0.445  1.00  0.00     0.000 C 
BRANCH  16  17
ATOM     17  C   UNL     1      -8.210   2.861   0.878  1.00  0.00     0.000 C 
BRANCH  17  18
ATOM     18  C   UNL     1      -7.723   3.703   2.070  1.00  0.00     0.000 C 
BRANCH  18  19
ATOM     19  C   UNL     1      -6.747   2.939   2.977  1.00  0.00     0.000 C 
BRANCH  19  20
ATOM     20  C   UNL     1      -5.496   3.762   3.322  1.00  0.00     0.006 C 
BRANCH  20  21
ATOM     21  C   UNL     1      -5.127   4.705   2.173  1.00  0.00     0.053 C 
BRANCH  21  22
ATOM     22  C   UNL     1      -3.646   4.714   1.953  1.00  0.00     0.041 C 
ATOM     23  O   UNL     1      -3.092   5.708   1.410  1.00  0.00    -0.550 OA
ATOM     24  O   UNL     1      -2.881   3.608   2.306  1.00  0.00    -0.550 OA
ENDBRANCH  21  22
ENDBRANCH  20  21
ENDBRANCH  19  20
ENDBRANCH  18  19
ENDBRANCH  17  18
ENDBRANCH  16  17
ENDBRANCH  15  16
ENDBRANCH  14  15
ENDBRANCH  13  14
ENDBRANCH   1  13
TORSDOF 20
ENDMDL
MODEL 4
REMARK VINA RESULT:    -4.122      5.048      8.825
REMARK INTER + INTRA:         -10.866
REMARK INTER:                  -7.060
REMARK INTRA:                  -3.805
REMARK UNBOUND:                -1.925
REMARK SMILES CCCCCCCCCCCCCCCCCCCCCC(=O)[O-]
REMARK SMILES IDX 12 1 11 2 10 3 9 4 8 5 7 6 6 7 5 8 4 9 3 10 2 11 1 12 13 13
REMARK SMILES IDX 14 14 15 15 16 16 17 17 18 18 19 19 20 20 21 21 22 22 23 23
REMARK SMILES IDX 24 24
REMARK H PARENT
REMARK Flexibility Score: inf
ROOT
ATOM      1  C   UNL     1      -3.961   1.947  -0.185  1.00  0.00     0.000 C 
ENDROOT
BRANCH   1   2
ATOM      2  C   UNL     1      -3.179   2.943   0.693  1.00  0.00     0.000 C 
BRANCH   2   3
ATOM      3  C   UNL     1      -4.068   3.665   1.719  1.00  0.00     0.000 C 
BRANCH   3   4
ATOM      4  C   UNL     1      -4.627   5.001   1.196  1.00  0.00    -0.000 C 
BRANCH   4   5
ATOM      5  C   UNL     1      -3.583   5.962   0.598  1.00  0.00    -0.000 C 
BRANCH   5   6
ATOM      6  C   UNL     1      -3.864   6.313  -0.872  1.00  0.00    -0.000 C 
BRANCH   6   7
ATOM      7  C   UNL     1      -5.137   5.632  -1.404  1.00  0.00    -0.000 C 
BRANCH   7   8
ATOM      8  C   UNL     1      -4.852   4.703  -2.596  1.00  0.00    -0.000 C 
BRANCH   8   9
ATOM      9  C   UNL     1      -3.347   4.517  -2.856  1.00  0.00    -0.000 C 
BRANCH   9  10
ATOM     10  C   UNL     1      -2.852   5.071  -4.206  1.00  0.00    -0.000 C 
BRANCH  10  11
ATOM     11  C   UNL     1      -2.211   4.004  -5.118  1.00  0.00    -0.003 C 
ATOM     12  C   UNL     1      -3.031   3.748  -6.383  1.00  0.00     0.004 C 
ENDBRANCH  10  11
ENDBRANCH   9  10
ENDBRANCH   8   9
ENDBRANCH   7   8
ENDBRANCH   6   7
ENDBRANCH   5   6
ENDBRANCH   4   5
ENDBRANCH   3   4
ENDBRANCH   2   3
ENDBRANCH   1   2
BRANCH   1  13
ATOM     13  C   UNL     1      -4.892   0.979   0.575  1.00  0.00     0.000 C 
BRANCH  13  14
ATOM     14  C   UNL     1      -6.338   0.906   0.050  1.00  0.00     0.000 C 
BRANCH  14  15
ATOM     15  C   UNL     1      -6.694   2.074  -0.881  1.00  0.00     0.000 C 
BRANCH  15  16
ATOM     16  C   UNL     1      -7.543   3.153  -0.187  1.00  0.00     0.000 C 
BRANCH  16  17
ATOM     17  C   UNL     1      -8.222   2.674   1.113  1.00  0.00     0.000 C 
BRANCH  17  18
ATOM     18  C   UNL     1      -7.755   3.479   2.339  1.00  0.00     0.000 C 
BRANCH  18  19
ATOM     19  C   UNL     1      -7.185   2.587   3.452  1.00  0.00     0.000 C 
BRANCH  19  20
ATOM     20  C   UNL     1      -6.653   3.399   4.643  1.00  0.00     0.006 C 
BRANCH  20  21
ATOM     21  C   UNL     1      -6.556   4.887   4.291  1.00  0.00     0.053 C 
BRANCH  21  22
ATOM     22  C   UNL     1      -5.409   5.525   5.011  1.00  0.00     0.041 C 
ATOM     23  O   UNL     1      -4.239   5.081   4.858  1.00  0.00    -0.550 OA
ATOM     24  O   UNL     1      -5.635   6.581   5.886  1.00  0.00    -0.550 OA
ENDBRANCH  21  22
ENDBRANCH  20  21
ENDBRANCH  19  20
ENDBRANCH  18  19
ENDBRANCH  17  18
ENDBRANCH  16  17
ENDBRANCH  15  16
ENDBRANCH  14  15
ENDBRANCH  13  14
ENDBRANCH   1  13
TORSDOF 20
ENDMDL
MODEL 5
REMARK VINA RESULT:    -4.119      3.210      6.022
REMARK INTER + INTRA:         -10.859
REMARK INTER:                  -7.055
REMARK INTRA:                  -3.804
REMARK UNBOUND:                -1.925
REMARK SMILES CCCCCCCCCCCCCCCCCCCCCC(=O)[O-]
REMARK SMILES IDX 12 1 11 2 10 3 9 4 8 5 7 6 6 7 5 8 4 9 3 10 2 11 1 12 13 13
REMARK SMILES IDX 14 14 15 15 16 16 17 17 18 18 19 19 20 20 21 21 22 22 23 23
REMARK SMILES IDX 24 24
REMARK H PARENT
REMARK Flexibility Score: inf
ROOT
ATOM      1  C   UNL     1      -6.029   3.646  -1.879  1.00  0.00     0.000 C 
ENDROOT
BRANCH   1   2
ATOM      2  C   UNL     1      -4.900   4.018  -0.899  1.00  0.00     0.000 C 
BRANCH   2   3
ATOM      3  C   UNL     1      -3.709   3.045  -0.958  1.00  0.00     0.000 C 
BRANCH   3   4
ATOM      4  C   UNL     1      -3.353   2.448   0.416  1.00  0.00    -0.000 C 
BRANCH   4   5
ATOM      5  C   UNL     1      -4.470   1.631   1.089  1.00  0.00    -0.000 C 
BRANCH   5   6
ATOM      6  C   UNL     1      -4.878   0.390   0.278  1.00  0.00    -0.000 C 
BRANCH   6   7
ATOM      7  C   UNL     1      -5.498  -0.707   1.160  1.00  0.00    -0.000 C 
BRANCH   7   8
ATOM      8  C   UNL     1      -6.215  -1.790   0.335  1.00  0.00    -0.000 C 
BRANCH   8   9
ATOM      9  C   UNL     1      -7.627  -2.098   0.862  1.00  0.00    -0.000 C 
BRANCH   9  10
ATOM     10  C   UNL     1      -7.927  -1.536   2.266  1.00  0.00    -0.000 C 
BRANCH  10  11
ATOM     11  C   UNL     1      -8.180  -2.626   3.329  1.00  0.00    -0.003 C 
ATOM     12  C   UNL     1      -7.009  -3.600   3.456  1.00  0.00     0.004 C 
ENDBRANCH  10  11
ENDBRANCH   9  10
ENDBRANCH   8   9
ENDBRANCH   7   8
ENDBRANCH   6   7
ENDBRANCH   5   6
ENDBRANCH   4   5
ENDBRANCH   3   4
ENDBRANCH   2   3
ENDBRANCH   1   2
BRANCH   1  13
ATOM     13  C   UNL     1      -7.398   3.342  -1.232  1.00  0.00     0.000 C 
BRANCH  13  14
ATOM     14  C   UNL     1      -7.717   1.849  -1.036  1.00  0.00     0.000 C 
BRANCH  14  15
ATOM     15  C   UNL     1      -8.437   1.562   0.289  1.00  0.00     0.000 C 
BRANCH  15  16
ATOM     16  C   UNL     1      -8.138   2.613   1.372  1.00  0.00     0.000 C 
BRANCH  16  17
ATOM     17  C   UNL     1      -7.610   2.016   2.693  1.00  0.00     0.000 C 
BRANCH  17  18
ATOM     18  C   UNL     1      -6.792   3.037   3.502  1.00  0.00     0.000 C 
BRANCH  18  19
ATOM     19  C   UNL     1      -6.525   4.334   2.723  1.00  0.00     0.000 C 
BRANCH  19  20
ATOM     20  C   UNL     1      -5.059   4.785   2.813  1.00  0.00     0.006 C 
BRANCH  20  21
ATOM     21  C   UNL     1      -4.489   4.517   4.209  1.00  0.00     0.053 C 
BRANCH  21  22
ATOM     22  C   UNL     1      -4.627   5.729   5.077  1.00  0.00     0.041 C 
ATOM     23  O   UNL     1      -5.553   5.794   5.930  1.00  0.00    -0.550 OA
ATOM     24  O   UNL     1      -3.764   6.806   4.914  1.00  0.00    -0.550 OA
ENDBRANCH  21  22
ENDBRANCH  20  21
ENDBRANCH  19  20
ENDBRANCH  18  19
ENDBRANCH  17  18
ENDBRANCH  16  17
ENDBRANCH  15  16
ENDBRANCH  14  15
ENDBRANCH  13  14
ENDBRANCH   1  13
TORSDOF 20
ENDMDL
MODEL 6
REMARK VINA RESULT:    -4.119      5.718      8.419
REMARK INTER + INTRA:         -10.859
REMARK INTER:                  -8.102
REMARK INTRA:                  -2.757
REMARK UNBOUND:                -1.925
REMARK SMILES CCCCCCCCCCCCCCCCCCCCCC(=O)[O-]
REMARK SMILES IDX 12 1 11 2 10 3 9 4 8 5 7 6 6 7 5 8 4 9 3 10 2 11 1 12 13 13
REMARK SMILES IDX 14 14 15 15 16 16 17 17 18 18 19 19 20 20 21 21 22 22 23 23
REMARK SMILES IDX 24 24
REMARK H PARENT
REMARK Flexibility Score: inf
ROOT
ATOM      1  C   UNL     1      -6.634   3.273  -0.930  1.00  0.00     0.000 C 
ENDROOT
BRANCH   1   2
ATOM      2  C   UNL     1      -5.540   3.786  -1.885  1.00  0.00     0.000 C 
BRANCH   2   3
ATOM      3  C   UNL     1      -4.239   4.169  -1.159  1.00  0.00     0.000 C 
BRANCH   3   4
ATOM      4  C   UNL     1      -3.352   2.952  -0.834  1.00  0.00    -0.000 C 
BRANCH   4   5
ATOM      5  C   UNL     1      -3.147   2.668   0.665  1.00  0.00    -0.000 C 
BRANCH   5   6
ATOM      6  C   UNL     1      -3.793   3.730   1.571  1.00  0.00    -0.000 C 
BRANCH   6   7
ATOM      7  C   UNL     1      -4.755   3.114   2.600  1.00  0.00    -0.000 C 
BRANCH   7   8
ATOM      8  C   UNL     1      -6.007   3.978   2.826  1.00  0.00    -0.000 C 
BRANCH   8   9
ATOM      9  C   UNL     1      -6.614   3.786   4.227  1.00  0.00    -0.000 C 
BRANCH   9  10
ATOM     10  C   UNL     1      -6.467   4.999   5.165  1.00  0.00    -0.000 C 
BRANCH  10  11
ATOM     11  C   UNL     1      -5.057   5.625   5.155  1.00  0.00    -0.003 C 
ATOM     12  C   UNL     1      -4.197   5.146   6.325  1.00  0.00     0.004 C 
ENDBRANCH  10  11
ENDBRANCH   9  10
ENDBRANCH   8   9
ENDBRANCH   7   8
ENDBRANCH   6   7
ENDBRANCH   5   6
ENDBRANCH   4   5
ENDBRANCH   3   4
ENDBRANCH   2   3
ENDBRANCH   1   2
BRANCH   1  13
ATOM     13  C   UNL     1      -6.706   1.740  -0.763  1.00  0.00     0.000 C 
BRANCH  13  14
ATOM     14  C   UNL     1      -7.490   1.248   0.468  1.00  0.00     0.000 C 
BRANCH  14  15
ATOM     15  C   UNL     1      -6.680   0.281   1.344  1.00  0.00     0.000 C 
BRANCH  15  16
ATOM     16  C   UNL     1      -5.367  -0.168   0.681  1.00  0.00     0.000 C 
BRANCH  16  17
ATOM     17  C   UNL     1      -5.319  -1.675   0.348  1.00  0.00     0.000 C 
BRANCH  17  18
ATOM     18  C   UNL     1      -6.675  -2.362   0.585  1.00  0.00     0.000 C 
BRANCH  18  19
ATOM     19  C   UNL     1      -7.308  -2.887  -0.712  1.00  0.00     0.000 C 
BRANCH  19  20
ATOM     20  C   UNL     1      -6.327  -3.716  -1.554  1.00  0.00     0.006 C 
BRANCH  20  21
ATOM     21  C   UNL     1      -6.995  -4.217  -2.838  1.00  0.00     0.053 C 
BRANCH  21  22
ATOM     22  C   UNL     1      -6.670  -5.660  -3.073  1.00  0.00     0.041 C 
ATOM     23  O   UNL     1      -7.264  -6.304  -3.980  1.00  0.00    -0.550 OA
ATOM     24  O   UNL     1      -5.746  -6.308  -2.262  1.00  0.00    -0.550 OA
ENDBRANCH  21  22
ENDBRANCH  20  21
ENDBRANCH  19  20
ENDBRANCH  18  19
ENDBRANCH  17  18
ENDBRANCH  16  17
ENDBRANCH  15  16
ENDBRANCH  14  15
ENDBRANCH  13  14
ENDBRANCH   1  13
TORSDOF 20
ENDMDL
MODEL 7
REMARK VINA RESULT:    -4.115      4.814      7.690
REMARK INTER + INTRA:         -10.850
REMARK INTER:                  -7.550
REMARK INTRA:                  -3.300
REMARK UNBOUND:                -1.925
REMARK SMILES CCCCCCCCCCCCCCCCCCCCCC(=O)[O-]
REMARK SMILES IDX 12 1 11 2 10 3 9 4 8 5 7 6 6 7 5 8 4 9 3 10 2 11 1 12 13 13
REMARK SMILES IDX 14 14 15 15 16 16 17 17 18 18 19 19 20 20 21 21 22 22 23 23
REMARK SMILES IDX 24 24
REMARK H PARENT
REMARK Flexibility Score: inf
ROOT
ATOM      1  C   UNL     1      -3.947   4.131  -1.228  1.00  0.00     0.000 C 
ENDROOT
BRANCH   1   2
ATOM      2  C   UNL     1      -3.400   2.783  -0.724  1.00  0.00     0.000 C 
BRANCH   2   3
ATOM      3  C   UNL     1      -3.055   2.798   0.775  1.00  0.00     0.000 C 
BRANCH   3   4
ATOM      4  C   UNL     1      -3.575   4.054   1.499  1.00  0.00    -0.000 C 
BRANCH   4   5
ATOM      5  C   UNL     1      -4.735   3.814   2.481  1.00  0.00    -0.000 C 
BRANCH   5   6
ATOM      6  C   UNL     1      -5.928   4.754   2.242  1.00  0.00    -0.000 C 
BRANCH   6   7
ATOM      7  C   UNL     1      -6.831   4.880   3.480  1.00  0.00    -0.000 C 
BRANCH   7   8
ATOM      8  C   UNL     1      -6.383   3.962   4.631  1.00  0.00    -0.000 C 
BRANCH   8   9
ATOM      9  C   UNL     1      -6.078   4.739   5.923  1.00  0.00    -0.000 C 
BRANCH   9  10
ATOM     10  C   UNL     1      -4.596   5.116   6.114  1.00  0.00    -0.000 C 
BRANCH  10  11
ATOM     11  C   UNL     1      -4.175   6.387   5.347  1.00  0.00    -0.003 C 
ATOM     12  C   UNL     1      -3.927   7.575   6.277  1.00  0.00     0.004 C 
ENDBRANCH  10  11
ENDBRANCH   9  10
ENDBRANCH   8   9
ENDBRANCH   7   8
ENDBRANCH   6   7
ENDBRANCH   5   6
ENDBRANCH   4   5
ENDBRANCH   3   4
ENDBRANCH   2   3
ENDBRANCH   1   2
BRANCH   1  13
ATOM     13  C   UNL     1      -5.287   4.061  -1.992  1.00  0.00     0.000 C 
BRANCH  13  14
ATOM     14  C   UNL     1      -6.535   3.849  -1.115  1.00  0.00     0.000 C 
BRANCH  14  15
ATOM     15  C   UNL     1      -7.438   2.716  -1.626  1.00  0.00     0.000 C 
BRANCH  15  16
ATOM     16  C   UNL     1      -7.278   1.415  -0.821  1.00  0.00     0.000 C 
BRANCH  16  17
ATOM     17  C   UNL     1      -7.305   1.620   0.709  1.00  0.00     0.000 C 
BRANCH  17  18
ATOM     18  C   UNL     1      -6.173   0.853   1.414  1.00  0.00     0.000 C 
BRANCH  18  19
ATOM     19  C   UNL     1      -5.347  -0.008   0.446  1.00  0.00     0.000 C 
BRANCH  19  20
ATOM     20  C   UNL     1      -5.357  -1.496   0.826  1.00  0.00     0.006 C 
BRANCH  20  21
ATOM     21  C   UNL     1      -6.539  -2.220   0.172  1.00  0.00     0.053 C 
BRANCH  21  22
ATOM     22  C   UNL     1      -7.650  -2.409   1.157  1.00  0.00     0.041 C 
ATOM     23  O   UNL     1      -8.833  -2.101   0.845  1.00  0.00    -0.550 OA
ATOM     24  O   UNL     1      -7.378  -2.883   2.435  1.00  0.00    -0.550 OA
ENDBRANCH  21  22
ENDBRANCH  20  21
ENDBRANCH  19  20
ENDBRANCH  18  19
ENDBRANCH  17  18
ENDBRANCH  16  17
ENDBRANCH  15  16
ENDBRANCH  14  15
ENDBRANCH  13  14
ENDBRANCH   1  13
TORSDOF 20
ENDMDL
MODEL 8
REMARK VINA RESULT:    -4.108      5.731      8.778
REMARK INTER + INTRA:         -10.835
REMARK INTER:                  -8.146
REMARK INTRA:                  -2.690
REMARK UNBOUND:                -1.925
REMARK SMILES CCCCCCCCCCCCCCCCCCCCCC(=O)[O-]
REMARK SMILES IDX 12 1 11 2 10 3 9 4 8 5 7 6 6 7 5 8 4 9 3 10 2 11 1 12 13 13
REMARK SMILES IDX 14 14 15 15 16 16 17 17 18 18 19 19 20 20 21 21 22 22 23 23
REMARK SMILES IDX 24 24
REMARK H PARENT
REMARK Flexibility Score: inf
ROOT
ATOM      1  C   UNL     1      -6.699   1.493  -0.681  1.00  0.00     0.000 C 
ENDROOT
BRANCH   1   2
ATOM      2  C   UNL     1      -7.027   2.993  -0.549  1.00  0.00     0.000 C 
BRANCH   2   3
ATOM      3  C   UNL     1      -6.814   3.771  -1.858  1.00  0.00     0.000 C 
BRANCH   3   4
ATOM      4  C   UNL     1      -5.327   3.969  -2.205  1.00  0.00    -0.000 C 
BRANCH   4   5
ATOM      5  C   UNL     1      -4.394   4.192  -1.001  1.00  0.00    -0.000 C 
BRANCH   5   6
ATOM      6  C   UNL     1      -3.416   3.027  -0.776  1.00  0.00    -0.000 C 
BRANCH   6   7
ATOM      7  C   UNL     1      -3.186   2.736   0.717  1.00  0.00    -0.000 C 
BRANCH   7   8
ATOM      8  C   UNL     1      -3.309   3.999   1.588  1.00  0.00    -0.000 C 
BRANCH   8   9
ATOM      9  C   UNL     1      -4.062   3.738   2.904  1.00  0.00    -0.000 C 
BRANCH   9  10
ATOM     10  C   UNL     1      -5.582   3.539   2.749  1.00  0.00    -0.000 C 
BRANCH  10  11
ATOM     11  C   UNL     1      -6.410   4.803   3.065  1.00  0.00    -0.003 C 
ATOM     12  C   UNL     1      -6.521   5.743   1.864  1.00  0.00     0.004 C 
ENDBRANCH  10  11
ENDBRANCH   9  10
ENDBRANCH   8   9
ENDBRANCH   7   8
ENDBRANCH   6   7
ENDBRANCH   5   6
ENDBRANCH   4   5
ENDBRANCH   3   4
ENDBRANCH   2   3
ENDBRANCH   1   2
BRANCH   1  13
ATOM     13  C   UNL     1      -6.365   0.767   0.639  1.00  0.00     0.000 C 
BRANCH  13  14
ATOM     14  C   UNL     1      -5.216  -0.255   0.556  1.00  0.00     0.000 C 
BRANCH  14  15
ATOM     15  C   UNL     1      -5.693  -1.705   0.725  1.00  0.00     0.000 C 
BRANCH  15  16
ATOM     16  C   UNL     1      -7.143  -1.802   1.231  1.00  0.00     0.000 C 
BRANCH  16  17
ATOM     17  C   UNL     1      -8.053  -2.686   0.352  1.00  0.00     0.000 C 
BRANCH  17  18
ATOM     18  C   UNL     1      -7.251  -3.471  -0.702  1.00  0.00     0.000 C 
BRANCH  18  19
ATOM     19  C   UNL     1      -8.031  -3.677  -2.009  1.00  0.00     0.000 C 
BRANCH  19  20
ATOM     20  C   UNL     1      -7.122  -4.072  -3.182  1.00  0.00     0.006 C 
BRANCH  20  21
ATOM     21  C   UNL     1      -5.821  -4.703  -2.677  1.00  0.00     0.053 C 
BRANCH  21  22
ATOM     22  C   UNL     1      -5.852  -6.189  -2.855  1.00  0.00     0.041 C 
ATOM     23  O   UNL     1      -5.256  -6.939  -2.034  1.00  0.00    -0.550 OA
ATOM     24  O   UNL     1      -6.499  -6.748  -3.952  1.00  0.00    -0.550 OA
ENDBRANCH  21  22
ENDBRANCH  20  21
ENDBRANCH  19  20
ENDBRANCH  18  19
ENDBRANCH  17  18
ENDBRANCH  16  17
ENDBRANCH  15  16
ENDBRANCH  14  15
ENDBRANCH  13  14
ENDBRANCH   1  13
TORSDOF 20
ENDMDL
MODEL 9
REMARK VINA RESULT:    -4.098      4.053      6.742
REMARK INTER + INTRA:         -10.815
REMARK INTER:                  -8.232
REMARK INTRA:                  -2.583
REMARK UNBOUND:                -1.925
REMARK SMILES CCCCCCCCCCCCCCCCCCCCCC(=O)[O-]
REMARK SMILES IDX 12 1 11 2 10 3 9 4 8 5 7 6 6 7 5 8 4 9 3 10 2 11 1 12 13 13
REMARK SMILES IDX 14 14 15 15 16 16 17 17 18 18 19 19 20 20 21 21 22 22 23 23
REMARK SMILES IDX 24 24
REMARK H PARENT
REMARK Flexibility Score: inf
ROOT
ATOM      1  C   UNL     1      -6.480   0.661   0.021  1.00  0.00     0.000 C 
ENDROOT
BRANCH   1   2
ATOM      2  C   UNL     1      -5.286   0.009   0.743  1.00  0.00     0.000 C 
BRANCH   2   3
ATOM      3  C   UNL     1      -5.309  -1.527   0.675  1.00  0.00     0.000 C 
BRANCH   3   4
ATOM      4  C   UNL     1      -6.533  -2.142   1.377  1.00  0.00    -0.000 C 
BRANCH   4   5
ATOM      5  C   UNL     1      -7.529  -2.865   0.451  1.00  0.00    -0.000 C 
BRANCH   5   6
ATOM      6  C   UNL     1      -8.858  -2.107   0.292  1.00  0.00    -0.000 C 
BRANCH   6   7
ATOM      7  C   UNL     1      -9.370  -2.124  -1.158  1.00  0.00    -0.000 C 
BRANCH   7   8
ATOM      8  C   UNL     1      -9.184  -3.495  -1.832  1.00  0.00    -0.000 C 
BRANCH   8   9
ATOM      9  C   UNL     1      -8.807  -3.377  -3.319  1.00  0.00    -0.000 C 
BRANCH   9  10
ATOM     10  C   UNL     1      -7.599  -4.232  -3.748  1.00  0.00    -0.000 C 
BRANCH  10  11
ATOM     11  C   UNL     1      -6.436  -4.217  -2.733  1.00  0.00    -0.003 C 
ATOM     12  C   UNL     1      -5.782  -5.590  -2.574  1.00  0.00     0.004 C 
ENDBRANCH  10  11
ENDBRANCH   9  10
ENDBRANCH   8   9
ENDBRANCH   7   8
ENDBRANCH   6   7
ENDBRANCH   5   6
ENDBRANCH   4   5
ENDBRANCH   3   4
ENDBRANCH   2   3
ENDBRANCH   1   2
BRANCH   1  13
ATOM     13  C   UNL     1      -6.932   2.027   0.581  1.00  0.00     0.000 C 
BRANCH  13  14
ATOM     14  C   UNL     1      -6.887   3.197  -0.420  1.00  0.00     0.000 C 
BRANCH  14  15
ATOM     15  C   UNL     1      -5.721   3.088  -1.413  1.00  0.00     0.000 C 
BRANCH  15  16
ATOM     16  C   UNL     1      -4.452   3.810  -0.926  1.00  0.00     0.000 C 
BRANCH  16  17
ATOM     17  C   UNL     1      -3.336   2.856  -0.448  1.00  0.00     0.000 C 
BRANCH  17  18
ATOM     18  C   UNL     1      -3.154   2.901   1.080  1.00  0.00     0.000 C 
BRANCH  18  19
ATOM     19  C   UNL     1      -3.878   4.090   1.729  1.00  0.00     0.000 C 
BRANCH  19  20
ATOM     20  C   UNL     1      -4.779   3.664   2.898  1.00  0.00     0.006 C 
BRANCH  20  21
ATOM     21  C   UNL     1      -4.469   4.484   4.154  1.00  0.00     0.053 C 
BRANCH  21  22
ATOM     22  C   UNL     1      -4.794   5.929   3.934  1.00  0.00     0.041 C 
ATOM     23  O   UNL     1      -5.978   6.281   3.678  1.00  0.00    -0.550 OA
ATOM     24  O   UNL     1      -3.784   6.884   3.965  1.00  0.00    -0.550 OA
ENDBRANCH  21  22
ENDBRANCH  20  21
ENDBRANCH  19  20
ENDBRANCH  18  19
ENDBRANCH  17  18
ENDBRANCH  16  17
ENDBRANCH  15  16
ENDBRANCH  14  15
ENDBRANCH  13  14
ENDBRANCH   1  13
TORSDOF 20
ENDMDL
