MODEL 1
REMARK VINA RESULT:    -6.905      0.000      0.000
REMARK INTER + INTRA:         -10.175
REMARK INTER:                  -9.327
REMARK INTRA:                  -0.847
REMARK UNBOUND:                -0.847
REMARK SMILES CC[C@H](CC[C@@H](C)[C@H]1CC[C@H]2[C@H]3CC(=O)C4=CC(=O)CC[C@]4(C)[C@@H]3CC[C@@]12C)C(C)C
REMARK SMILES IDX 4 1 3 2 2 3 1 4 29 5 30 6 31 7 5 8 6 9 7 10 8 11 9 12 27 13
REMARK SMILES IDX 10 14 11 15 26 16 28 17 12 18 25 19 24 20 13 21 22 22 14 23
REMARK SMILES IDX 16 24 21 25 23 26 15 27 17 28 20 29 18 30 19 31
REMARK H PARENT
REMARK Flexibility Score: inf
ROOT
ATOM      1  C   UNL     1      58.764 -17.945   0.698  1.00  0.00     0.004 C 
ENDROOT
BRANCH   1   2
ATOM      2  C   UNL     1      60.320 -18.040   0.636  1.00  0.00    -0.009 C 
BRANCH   2   3
ATOM      3  C   UNL     1      60.834 -19.174   1.587  1.00  0.00     0.000 C 
ATOM      4  C   UNL     1      59.734 -19.740   2.483  1.00  0.00     0.004 C 
ENDBRANCH   2   3
BRANCH   2   5
ATOM      5  C   UNL     1      60.855 -18.274  -0.822  1.00  0.00    -0.014 C 
ATOM      6  C   UNL     1      61.988 -19.325  -0.832  1.00  0.00     0.007 C 
ATOM      7  C   UNL     1      61.380 -16.995  -1.508  1.00  0.00     0.007 C 
ENDBRANCH   2   5
ENDBRANCH   1   2
BRANCH   1   8
ATOM      8  C   UNL     1      57.997 -18.802  -0.333  1.00  0.00     0.004 C 
BRANCH   8   9
ATOM      9  C   UNL     1      56.469 -18.935  -0.085  1.00  0.00    -0.011 C 
ATOM     10  C   UNL     1      56.143 -19.129   1.406  1.00  0.00     0.008 C 
BRANCH   9  11
ATOM     11  C   UNL     1      55.653 -17.825  -0.840  1.00  0.00    -0.002 C 
ATOM     12  C   UNL     1      55.620 -16.484  -0.094  1.00  0.00     0.005 C 
ATOM     13  C   UNL     1      55.903 -17.456  -2.341  1.00  0.00    -0.026 C 
ATOM     14  C   UNL     1      55.235 -15.428  -1.131  1.00  0.00     0.005 C 
ATOM     15  C   UNL     1      55.037 -16.177  -2.463  1.00  0.00    -0.001 C 
ATOM     16  C   UNL     1      57.390 -17.104  -2.650  1.00  0.00     0.007 C 
ATOM     17  C   UNL     1      55.390 -18.560  -3.304  1.00  0.00     0.012 C 
ATOM     18  C   UNL     1      55.276 -15.325  -3.751  1.00  0.00     0.004 C 
ATOM     19  C   UNL     1      57.571 -16.386  -3.989  1.00  0.00     0.005 C 
ATOM     20  C   UNL     1      56.771 -15.065  -4.065  1.00  0.00     0.003 C 
ATOM     21  C   UNL     1      54.525 -13.984  -3.663  1.00  0.00     0.085 C 
ATOM     22  C   UNL     1      56.993 -14.235  -5.421  1.00  0.00    -0.000 C 
ATOM     23  C   UNL     1      54.617 -13.246  -4.955  1.00  0.00     0.159 C 
ATOM     24  C   UNL     1      55.699 -13.556  -5.914  1.00  0.00     0.005 C 
ATOM     25  C   UNL     1      57.549 -15.133  -6.579  1.00  0.00     0.020 C 
ATOM     26  C   UNL     1      58.013 -13.107  -5.120  1.00  0.00     0.017 C 
ATOM     27  O   UNL     1      53.761 -12.355  -5.214  1.00  0.00    -0.295 OA
ATOM     28  C   UNL     1      55.526 -13.224  -7.210  1.00  0.00     0.055 C 
ATOM     29  C   UNL     1      57.726 -14.381  -7.905  1.00  0.00     0.081 C 
ATOM     30  C   UNL     1      56.489 -13.613  -8.251  1.00  0.00     0.156 C 
ATOM     31  O   UNL     1      56.282 -13.273  -9.445  1.00  0.00    -0.295 OA
ENDBRANCH   9  11
ENDBRANCH   8   9
ENDBRANCH   1   8
TORSDOF 6
ENDMDL
MODEL 2
REMARK VINA RESULT:    -6.843      1.270      2.133
REMARK INTER + INTRA:         -10.091
REMARK INTER:                  -8.462
REMARK INTRA:                  -1.629
REMARK UNBOUND:                -0.847
REMARK SMILES CC[C@H](CC[C@@H](C)[C@H]1CC[C@H]2[C@H]3CC(=O)C4=CC(=O)CC[C@]4(C)[C@@H]3CC[C@@]12C)C(C)C
REMARK SMILES IDX 4 1 3 2 2 3 1 4 29 5 30 6 31 7 5 8 6 9 7 10 8 11 9 12 27 13
REMARK SMILES IDX 10 14 11 15 26 16 28 17 12 18 25 19 24 20 13 21 22 22 14 23
REMARK SMILES IDX 16 24 21 25 23 26 15 27 17 28 20 29 18 30 19 31
REMARK H PARENT
REMARK Flexibility Score: inf
ROOT
ATOM      1  C   UNL     1      59.266 -19.766   1.803  1.00  0.00     0.004 C 
ENDROOT
BRANCH   1   2
ATOM      2  C   UNL     1      60.411 -18.745   1.516  1.00  0.00    -0.009 C 
BRANCH   2   3
ATOM      3  C   UNL     1      60.627 -18.589  -0.027  1.00  0.00     0.000 C 
ATOM      4  C   UNL     1      61.836 -19.368  -0.539  1.00  0.00     0.004 C 
ENDBRANCH   2   3
BRANCH   2   5
ATOM      5  C   UNL     1      60.149 -17.342   2.171  1.00  0.00    -0.014 C 
ATOM      6  C   UNL     1      59.125 -17.453   3.323  1.00  0.00     0.007 C 
ATOM      7  C   UNL     1      59.643 -16.273   1.178  1.00  0.00     0.007 C 
ENDBRANCH   2   5
ENDBRANCH   1   2
BRANCH   1   8
ATOM      8  C   UNL     1      58.328 -20.073   0.614  1.00  0.00     0.004 C 
BRANCH   8   9
ATOM      9  C   UNL     1      56.812 -20.111   0.953  1.00  0.00    -0.011 C 
ATOM     10  C   UNL     1      56.561 -20.465   2.430  1.00  0.00     0.008 C 
BRANCH   9  11
ATOM     11  C   UNL     1      56.055 -18.851   0.399  1.00  0.00    -0.002 C 
ATOM     12  C   UNL     1      56.293 -17.585   1.232  1.00  0.00     0.005 C 
ATOM     13  C   UNL     1      56.152 -18.387  -1.094  1.00  0.00    -0.026 C 
ATOM     14  C   UNL     1      55.916 -16.406   0.335  1.00  0.00     0.005 C 
ATOM     15  C   UNL     1      55.450 -17.009  -1.005  1.00  0.00    -0.001 C 
ATOM     16  C   UNL     1      57.619 -18.189  -1.583  1.00  0.00     0.007 C 
ATOM     17  C   UNL     1      55.379 -19.336  -2.049  1.00  0.00     0.012 C 
ATOM     18  C   UNL     1      55.627 -16.085  -2.252  1.00  0.00     0.004 C 
ATOM     19  C   UNL     1      57.715 -17.386  -2.882  1.00  0.00     0.005 C 
ATOM     20  C   UNL     1      57.089 -15.978  -2.754  1.00  0.00     0.003 C 
ATOM     21  C   UNL     1      55.073 -14.677  -1.968  1.00  0.00     0.085 C 
ATOM     22  C   UNL     1      57.237 -15.067  -4.068  1.00  0.00    -0.000 C 
ATOM     23  C   UNL     1      55.090 -13.846  -3.206  1.00  0.00     0.159 C 
ATOM     24  C   UNL     1      55.988 -14.199  -4.326  1.00  0.00     0.005 C 
ATOM     25  C   UNL     1      57.516 -15.921  -5.351  1.00  0.00     0.020 C 
ATOM     26  C   UNL     1      58.425 -14.097  -3.836  1.00  0.00     0.017 C 
ATOM     27  O   UNL     1      54.330 -12.842  -3.280  1.00  0.00    -0.295 OA
ATOM     28  C   UNL     1      55.693 -13.740  -5.559  1.00  0.00     0.055 C 
ATOM     29  C   UNL     1      57.614 -15.085  -6.634  1.00  0.00     0.081 C 
ATOM     30  C   UNL     1      56.453 -14.149  -6.749  1.00  0.00     0.156 C 
ATOM     31  O   UNL     1      56.137 -13.687  -7.876  1.00  0.00    -0.295 OA
ENDBRANCH   9  11
ENDBRANCH   8   9
ENDBRANCH   1   8
TORSDOF 6
ENDMDL
MODEL 3
REMARK VINA RESULT:    -6.668      0.973      1.599
REMARK INTER + INTRA:          -9.854
REMARK INTER:                  -8.583
REMARK INTRA:                  -1.271
REMARK UNBOUND:                -0.847
REMARK SMILES CC[C@H](CC[C@@H](C)[C@H]1CC[C@H]2[C@H]3CC(=O)C4=CC(=O)CC[C@]4(C)[C@@H]3CC[C@@]12C)C(C)C
REMARK SMILES IDX 4 1 3 2 2 3 1 4 29 5 30 6 31 7 5 8 6 9 7 10 8 11 9 12 27 13
REMARK SMILES IDX 10 14 11 15 26 16 28 17 12 18 25 19 24 20 13 21 22 22 14 23
REMARK SMILES IDX 16 24 21 25 23 26 15 27 17 28 20 29 18 30 19 31
REMARK H PARENT
REMARK Flexibility Score: inf
ROOT
ATOM      1  C   UNL     1      58.347 -17.813   2.177  1.00  0.00     0.004 C 
ENDROOT
BRANCH   1   2
ATOM      2  C   UNL     1      59.008 -18.991   2.958  1.00  0.00    -0.009 C 
BRANCH   2   3
ATOM      3  C   UNL     1      57.912 -19.976   3.487  1.00  0.00     0.000 C 
ATOM      4  C   UNL     1      58.209 -20.496   4.892  1.00  0.00     0.004 C 
ENDBRANCH   2   3
BRANCH   2   5
ATOM      5  C   UNL     1      60.067 -19.770   2.099  1.00  0.00    -0.014 C 
ATOM      6  C   UNL     1      61.364 -20.008   2.904  1.00  0.00     0.007 C 
ATOM      7  C   UNL     1      60.443 -19.064   0.778  1.00  0.00     0.007 C 
ENDBRANCH   2   5
ENDBRANCH   1   2
BRANCH   1   8
ATOM      8  C   UNL     1      56.901 -18.057   1.692  1.00  0.00     0.004 C 
BRANCH   8   9
ATOM      9  C   UNL     1      56.756 -18.451   0.196  1.00  0.00    -0.011 C 
ATOM     10  C   UNL     1      56.366 -19.931   0.026  1.00  0.00     0.008 C 
BRANCH   9  11
ATOM     11  C   UNL     1      55.899 -17.407  -0.606  1.00  0.00    -0.002 C 
ATOM     12  C   UNL     1      55.857 -16.022   0.055  1.00  0.00     0.005 C 
ATOM     13  C   UNL     1      56.105 -17.130  -2.133  1.00  0.00    -0.026 C 
ATOM     14  C   UNL     1      55.426 -15.042  -1.037  1.00  0.00     0.005 C 
ATOM     15  C   UNL     1      55.210 -15.878  -2.314  1.00  0.00    -0.001 C 
ATOM     16  C   UNL     1      57.576 -16.770  -2.502  1.00  0.00     0.007 C 
ATOM     17  C   UNL     1      55.591 -18.302  -3.011  1.00  0.00     0.012 C 
ATOM     18  C   UNL     1      55.401 -15.106  -3.659  1.00  0.00     0.004 C 
ATOM     19  C   UNL     1      57.710 -16.136  -3.888  1.00  0.00     0.005 C 
ATOM     20  C   UNL     1      56.882 -14.838  -4.027  1.00  0.00     0.003 C 
ATOM     21  C   UNL     1      54.624 -13.776  -3.637  1.00  0.00     0.085 C 
ATOM     22  C   UNL     1      57.053 -14.092  -5.438  1.00  0.00    -0.000 C 
ATOM     23  C   UNL     1      54.670 -13.120  -4.975  1.00  0.00     0.159 C 
ATOM     24  C   UNL     1      55.734 -13.470  -5.939  1.00  0.00     0.005 C 
ATOM     25  C   UNL     1      57.598 -15.052  -6.551  1.00  0.00     0.020 C 
ATOM     26  C   UNL     1      58.058 -12.928  -5.236  1.00  0.00     0.017 C 
ATOM     27  O   UNL     1      53.790 -12.264  -5.267  1.00  0.00    -0.295 OA
ATOM     28  C   UNL     1      55.523 -13.226  -7.249  1.00  0.00     0.055 C 
ATOM     29  C   UNL     1      57.727 -14.383  -7.926  1.00  0.00     0.081 C 
ATOM     30  C   UNL     1      56.468 -13.661  -8.288  1.00  0.00     0.156 C 
ATOM     31  O   UNL     1      56.225 -13.403  -9.495  1.00  0.00    -0.295 OA
ENDBRANCH   9  11
ENDBRANCH   8   9
ENDBRANCH   1   8
TORSDOF 6
ENDMDL
MODEL 4
REMARK VINA RESULT:    -6.607      1.397      2.461
REMARK INTER + INTRA:          -9.771
REMARK INTER:                  -8.421
REMARK INTRA:                  -1.350
REMARK UNBOUND:                -0.847
REMARK SMILES CC[C@H](CC[C@@H](C)[C@H]1CC[C@H]2[C@H]3CC(=O)C4=CC(=O)CC[C@]4(C)[C@@H]3CC[C@@]12C)C(C)C
REMARK SMILES IDX 4 1 3 2 2 3 1 4 29 5 30 6 31 7 5 8 6 9 7 10 8 11 9 12 27 13
REMARK SMILES IDX 10 14 11 15 26 16 28 17 12 18 25 19 24 20 13 21 22 22 14 23
REMARK SMILES IDX 16 24 21 25 23 26 15 27 17 28 20 29 18 30 19 31
REMARK H PARENT
REMARK Flexibility Score: inf
ROOT
ATOM      1  C   UNL     1      59.326 -19.773   1.969  1.00  0.00     0.004 C 
ENDROOT
BRANCH   1   2
ATOM      2  C   UNL     1      59.012 -19.681   3.494  1.00  0.00    -0.009 C 
BRANCH   2   3
ATOM      3  C   UNL     1      60.338 -19.547   4.316  1.00  0.00     0.000 C 
ATOM      4  C   UNL     1      61.543 -20.158   3.603  1.00  0.00     0.004 C 
ENDBRANCH   2   3
BRANCH   2   5
ATOM      5  C   UNL     1      58.038 -18.499   3.842  1.00  0.00    -0.014 C 
ATOM      6  C   UNL     1      58.648 -17.585   4.929  1.00  0.00     0.007 C 
ATOM      7  C   UNL     1      56.645 -18.957   4.324  1.00  0.00     0.007 C 
ENDBRANCH   2   5
ENDBRANCH   1   2
BRANCH   1   8
ATOM      8  C   UNL     1      58.649 -18.707   1.078  1.00  0.00     0.004 C 
BRANCH   8   9
ATOM      9  C   UNL     1      57.560 -19.243   0.108  1.00  0.00    -0.011 C 
ATOM     10  C   UNL     1      56.805 -20.447   0.699  1.00  0.00     0.008 C 
BRANCH   9  11
ATOM     11  C   UNL     1      56.676 -18.085  -0.480  1.00  0.00    -0.002 C 
ATOM     12  C   UNL     1      56.824 -16.762   0.284  1.00  0.00     0.005 C 
ATOM     13  C   UNL     1      56.688 -17.690  -1.995  1.00  0.00    -0.026 C 
ATOM     14  C   UNL     1      56.315 -15.668  -0.655  1.00  0.00     0.005 C 
ATOM     15  C   UNL     1      55.867 -16.376  -1.948  1.00  0.00    -0.001 C 
ATOM     16  C   UNL     1      58.115 -17.387  -2.542  1.00  0.00     0.007 C 
ATOM     17  C   UNL     1      55.976 -18.750  -2.878  1.00  0.00     0.012 C 
ATOM     18  C   UNL     1      55.923 -15.504  -3.243  1.00  0.00     0.004 C 
ATOM     19  C   UNL     1      58.101 -16.645  -3.881  1.00  0.00     0.005 C 
ATOM     20  C   UNL     1      57.354 -15.293  -3.799  1.00  0.00     0.003 C 
ATOM     21  C   UNL     1      55.253 -14.138  -3.008  1.00  0.00     0.085 C 
ATOM     22  C   UNL     1      57.381 -14.440  -5.158  1.00  0.00    -0.000 C 
ATOM     23  C   UNL     1      55.159 -13.373  -4.284  1.00  0.00     0.159 C 
ATOM     24  C   UNL     1      56.052 -13.701  -5.416  1.00  0.00     0.005 C 
ATOM     25  C   UNL     1      57.698 -15.330  -6.408  1.00  0.00     0.020 C 
ATOM     26  C   UNL     1      58.483 -13.359  -5.013  1.00  0.00     0.017 C 
ATOM     27  O   UNL     1      54.310 -12.445  -4.380  1.00  0.00    -0.295 OA
ATOM     28  C   UNL     1      55.680 -13.332  -6.658  1.00  0.00     0.055 C 
ATOM     29  C   UNL     1      57.683 -14.554  -7.732  1.00  0.00     0.081 C 
ATOM     30  C   UNL     1      56.439 -13.732  -7.852  1.00  0.00     0.156 C 
ATOM     31  O   UNL     1      56.050 -13.356  -8.989  1.00  0.00    -0.295 OA
ENDBRANCH   9  11
ENDBRANCH   8   9
ENDBRANCH   1   8
TORSDOF 6
ENDMDL
MODEL 5
REMARK VINA RESULT:    -6.520      2.822      5.182
REMARK INTER + INTRA:          -9.654
REMARK INTER:                  -8.319
REMARK INTRA:                  -1.335
REMARK UNBOUND:                -0.847
REMARK SMILES CC[C@H](CC[C@@H](C)[C@H]1CC[C@H]2[C@H]3CC(=O)C4=CC(=O)CC[C@]4(C)[C@@H]3CC[C@@]12C)C(C)C
REMARK SMILES IDX 4 1 3 2 2 3 1 4 29 5 30 6 31 7 5 8 6 9 7 10 8 11 9 12 27 13
REMARK SMILES IDX 10 14 11 15 26 16 28 17 12 18 25 19 24 20 13 21 22 22 14 23
REMARK SMILES IDX 16 24 21 25 23 26 15 27 17 28 20 29 18 30 19 31
REMARK H PARENT
REMARK Flexibility Score: inf
ROOT
ATOM      1  C   UNL     1      60.340 -20.632   5.461  1.00  0.00     0.004 C 
ENDROOT
BRANCH   1   2
ATOM      2  C   UNL     1      60.831 -19.733   6.638  1.00  0.00    -0.009 C 
BRANCH   2   3
ATOM      3  C   UNL     1      62.358 -19.965   6.899  1.00  0.00     0.000 C 
ATOM      4  C   UNL     1      62.858 -21.298   6.348  1.00  0.00     0.004 C 
ENDBRANCH   2   3
BRANCH   2   5
ATOM      5  C   UNL     1      60.550 -18.208   6.394  1.00  0.00    -0.014 C 
ATOM      6  C   UNL     1      61.850 -17.459   6.025  1.00  0.00     0.007 C 
ATOM      7  C   UNL     1      59.906 -17.489   7.599  1.00  0.00     0.007 C 
ENDBRANCH   2   5
ENDBRANCH   1   2
BRANCH   1   8
ATOM      8  C   UNL     1      59.462 -19.930   4.401  1.00  0.00     0.004 C 
BRANCH   8   9
ATOM      9  C   UNL     1      60.181 -19.575   3.070  1.00  0.00    -0.011 C 
ATOM     10  C   UNL     1      61.570 -20.231   2.973  1.00  0.00     0.008 C 
BRANCH   9  11
ATOM     11  C   UNL     1      59.236 -19.755   1.827  1.00  0.00    -0.002 C 
ATOM     12  C   UNL     1      57.748 -19.799   2.199  1.00  0.00     0.005 C 
ATOM     13  C   UNL     1      59.317 -18.843   0.556  1.00  0.00    -0.026 C 
ATOM     14  C   UNL     1      56.978 -19.493   0.914  1.00  0.00     0.005 C 
ATOM     15  C   UNL     1      58.034 -19.288  -0.190  1.00  0.00    -0.001 C 
ATOM     16  C   UNL     1      59.223 -17.322   0.882  1.00  0.00     0.007 C 
ATOM     17  C   UNL     1      60.579 -19.145  -0.295  1.00  0.00     0.012 C 
ATOM     18  C   UNL     1      57.595 -18.369  -1.374  1.00  0.00     0.004 C 
ATOM     19  C   UNL     1      58.920 -16.462  -0.347  1.00  0.00     0.005 C 
ATOM     20  C   UNL     1      57.591 -16.858  -1.032  1.00  0.00     0.003 C 
ATOM     21  C   UNL     1      56.208 -18.784  -1.898  1.00  0.00     0.085 C 
ATOM     22  C   UNL     1      57.189 -15.932  -2.280  1.00  0.00    -0.000 C 
ATOM     23  C   UNL     1      55.862 -18.019  -3.130  1.00  0.00     0.159 C 
ATOM     24  C   UNL     1      56.534 -16.735  -3.422  1.00  0.00     0.005 C 
ATOM     25  C   UNL     1      58.421 -15.160  -2.864  1.00  0.00     0.020 C 
ATOM     26  C   UNL     1      56.138 -14.906  -1.784  1.00  0.00     0.017 C 
ATOM     27  O   UNL     1      54.988 -18.483  -3.914  1.00  0.00    -0.295 OA
ATOM     28  C   UNL     1      56.551 -16.290  -4.695  1.00  0.00     0.055 C 
ATOM     29  C   UNL     1      58.081 -14.303  -4.090  1.00  0.00     0.081 C 
ATOM     30  C   UNL     1      57.307 -15.095  -5.096  1.00  0.00     0.156 C 
ATOM     31  O   UNL     1      57.285 -14.721  -6.297  1.00  0.00    -0.295 OA
ENDBRANCH   9  11
ENDBRANCH   8   9
ENDBRANCH   1   8
TORSDOF 6
ENDMDL
MODEL 6
REMARK VINA RESULT:    -6.448      3.660      8.530
REMARK INTER + INTRA:          -9.557
REMARK INTER:                  -7.963
REMARK INTRA:                  -1.594
REMARK UNBOUND:                -0.847
REMARK SMILES CC[C@H](CC[C@@H](C)[C@H]1CC[C@H]2[C@H]3CC(=O)C4=CC(=O)CC[C@]4(C)[C@@H]3CC[C@@]12C)C(C)C
REMARK SMILES IDX 4 1 3 2 2 3 1 4 29 5 30 6 31 7 5 8 6 9 7 10 8 11 9 12 27 13
REMARK SMILES IDX 10 14 11 15 26 16 28 17 12 18 25 19 24 20 13 21 22 22 14 23
REMARK SMILES IDX 16 24 21 25 23 26 15 27 17 28 20 29 18 30 19 31
REMARK H PARENT
REMARK Flexibility Score: inf
ROOT
ATOM      1  C   UNL     1      57.526 -15.833  -5.308  1.00  0.00     0.004 C 
ENDROOT
BRANCH   1   2
ATOM      2  C   UNL     1      57.749 -14.611  -6.252  1.00  0.00    -0.009 C 
BRANCH   2   3
ATOM      3  C   UNL     1      56.591 -14.516  -7.301  1.00  0.00     0.000 C 
ATOM      4  C   UNL     1      55.646 -13.345  -7.037  1.00  0.00     0.004 C 
ENDBRANCH   2   3
BRANCH   2   5
ATOM      5  C   UNL     1      57.882 -13.257  -5.468  1.00  0.00    -0.014 C 
ATOM      6  C   UNL     1      58.889 -12.313  -6.163  1.00  0.00     0.007 C 
ATOM      7  C   UNL     1      58.317 -13.425  -3.996  1.00  0.00     0.007 C 
ENDBRANCH   2   5
ENDBRANCH   1   2
BRANCH   1   8
ATOM      8  C   UNL     1      56.053 -16.187  -5.004  1.00  0.00     0.004 C 
BRANCH   8   9
ATOM      9  C   UNL     1      55.472 -15.562  -3.706  1.00  0.00    -0.011 C 
ATOM     10  C   UNL     1      54.225 -14.704  -3.989  1.00  0.00     0.008 C 
BRANCH   9  11
ATOM     11  C   UNL     1      55.344 -16.619  -2.551  1.00  0.00    -0.002 C 
ATOM     12  C   UNL     1      55.379 -18.070  -3.050  1.00  0.00     0.005 C 
ATOM     13  C   UNL     1      56.252 -16.600  -1.274  1.00  0.00    -0.026 C 
ATOM     14  C   UNL     1      55.727 -18.931  -1.836  1.00  0.00     0.005 C 
ATOM     15  C   UNL     1      55.877 -17.965  -0.644  1.00  0.00    -0.001 C 
ATOM     16  C   UNL     1      57.775 -16.584  -1.602  1.00  0.00     0.007 C 
ATOM     17  C   UNL     1      55.884 -15.435  -0.317  1.00  0.00     0.012 C 
ATOM     18  C   UNL     1      56.819 -18.456   0.501  1.00  0.00     0.004 C 
ATOM     19  C   UNL     1      58.652 -16.947  -0.401  1.00  0.00     0.005 C 
ATOM     20  C   UNL     1      58.328 -18.349   0.165  1.00  0.00     0.003 C 
ATOM     21  C   UNL     1      56.479 -19.904   0.901  1.00  0.00     0.085 C 
ATOM     22  C   UNL     1      59.276 -18.809   1.376  1.00  0.00    -0.000 C 
ATOM     23  C   UNL     1      57.264 -20.314   2.101  1.00  0.00     0.159 C 
ATOM     24  C   UNL     1      58.510 -19.602   2.455  1.00  0.00     0.005 C 
ATOM     25  C   UNL     1      59.981 -17.593   2.068  1.00  0.00     0.020 C 
ATOM     26  C   UNL     1      60.356 -19.757   0.794  1.00  0.00     0.017 C 
ATOM     27  O   UNL     1      56.848 -21.276   2.805  1.00  0.00    -0.295 OA
ATOM     28  C   UNL     1      58.955 -19.673   3.726  1.00  0.00     0.055 C 
ATOM     29  C   UNL     1      60.857 -17.992   3.263  1.00  0.00     0.081 C 
ATOM     30  C   UNL     1      60.108 -18.891   4.195  1.00  0.00     0.156 C 
ATOM     31  O   UNL     1      60.484 -18.998   5.391  1.00  0.00    -0.295 OA
ENDBRANCH   9  11
ENDBRANCH   8   9
ENDBRANCH   1   8
TORSDOF 6
ENDMDL
MODEL 7
REMARK VINA RESULT:    -6.398      1.851      3.126
REMARK INTER + INTRA:          -9.489
REMARK INTER:                  -8.197
REMARK INTRA:                  -1.292
REMARK UNBOUND:                -0.847
REMARK SMILES CC[C@H](CC[C@@H](C)[C@H]1CC[C@H]2[C@H]3CC(=O)C4=CC(=O)CC[C@]4(C)[C@@H]3CC[C@@]12C)C(C)C
REMARK SMILES IDX 4 1 3 2 2 3 1 4 29 5 30 6 31 7 5 8 6 9 7 10 8 11 9 12 27 13
REMARK SMILES IDX 10 14 11 15 26 16 28 17 12 18 25 19 24 20 13 21 22 22 14 23
REMARK SMILES IDX 16 24 21 25 23 26 15 27 17 28 20 29 18 30 19 31
REMARK H PARENT
REMARK Flexibility Score: inf
ROOT
ATOM      1  C   UNL     1      58.503 -20.112   1.972  1.00  0.00     0.004 C 
ENDROOT
BRANCH   1   2
ATOM      2  C   UNL     1      60.007 -19.728   2.128  1.00  0.00    -0.009 C 
BRANCH   2   3
ATOM      3  C   UNL     1      60.355 -18.510   1.208  1.00  0.00     0.000 C 
ATOM      4  C   UNL     1      59.888 -17.176   1.788  1.00  0.00     0.004 C 
ENDBRANCH   2   3
BRANCH   2   5
ATOM      5  C   UNL     1      60.401 -19.413   3.615  1.00  0.00    -0.014 C 
ATOM      6  C   UNL     1      61.664 -20.201   4.030  1.00  0.00     0.007 C 
ATOM      7  C   UNL     1      59.285 -19.719   4.636  1.00  0.00     0.007 C 
ENDBRANCH   2   5
ENDBRANCH   1   2
BRANCH   1   8
ATOM      8  C   UNL     1      57.969 -20.162   0.523  1.00  0.00     0.004 C 
BRANCH   8   9
ATOM      9  C   UNL     1      56.598 -19.469   0.293  1.00  0.00    -0.011 C 
ATOM     10  C   UNL     1      56.265 -18.466   1.413  1.00  0.00     0.008 C 
BRANCH   9  11
ATOM     11  C   UNL     1      56.443 -18.947  -1.181  1.00  0.00    -0.002 C 
ATOM     12  C   UNL     1      54.996 -18.602  -1.553  1.00  0.00     0.005 C 
ATOM     13  C   UNL     1      57.310 -17.782  -1.767  1.00  0.00    -0.026 C 
ATOM     14  C   UNL     1      55.076 -17.691  -2.779  1.00  0.00     0.005 C 
ATOM     15  C   UNL     1      56.574 -17.532  -3.107  1.00  0.00    -0.001 C 
ATOM     16  C   UNL     1      57.264 -16.485  -0.904  1.00  0.00     0.007 C 
ATOM     17  C   UNL     1      58.777 -18.220  -2.021  1.00  0.00     0.012 C 
ATOM     18  C   UNL     1      56.960 -16.213  -3.849  1.00  0.00     0.004 C 
ATOM     19  C   UNL     1      57.779 -15.250  -1.647  1.00  0.00     0.005 C 
ATOM     20  C   UNL     1      56.979 -14.960  -2.937  1.00  0.00     0.003 C 
ATOM     21  C   UNL     1      56.023 -15.968  -5.045  1.00  0.00     0.085 C 
ATOM     22  C   UNL     1      57.431 -13.627  -3.710  1.00  0.00    -0.000 C 
ATOM     23  C   UNL     1      56.491 -14.802  -5.849  1.00  0.00     0.159 C 
ATOM     24  C   UNL     1      57.382 -13.791  -5.243  1.00  0.00     0.005 C 
ATOM     25  C   UNL     1      58.876 -13.174  -3.309  1.00  0.00     0.020 C 
ATOM     26  C   UNL     1      56.427 -12.505  -3.339  1.00  0.00     0.017 C 
ATOM     27  O   UNL     1      56.115 -14.695  -7.049  1.00  0.00    -0.295 OA
ATOM     28  C   UNL     1      58.132 -13.021  -6.057  1.00  0.00     0.055 C 
ATOM     29  C   UNL     1      59.359 -11.930  -4.067  1.00  0.00     0.081 C 
ATOM     30  C   UNL     1      59.140 -12.084  -5.538  1.00  0.00     0.156 C 
ATOM     31  O   UNL     1      59.810 -11.386  -6.343  1.00  0.00    -0.295 OA
ENDBRANCH   9  11
ENDBRANCH   8   9
ENDBRANCH   1   8
TORSDOF 6
ENDMDL
MODEL 8
REMARK VINA RESULT:    -6.327      3.841      8.910
REMARK INTER + INTRA:          -9.393
REMARK INTER:                  -8.441
REMARK INTRA:                  -0.952
REMARK UNBOUND:                -0.847
REMARK SMILES CC[C@H](CC[C@@H](C)[C@H]1CC[C@H]2[C@H]3CC(=O)C4=CC(=O)CC[C@]4(C)[C@@H]3CC[C@@]12C)C(C)C
REMARK SMILES IDX 4 1 3 2 2 3 1 4 29 5 30 6 31 7 5 8 6 9 7 10 8 11 9 12 27 13
REMARK SMILES IDX 10 14 11 15 26 16 28 17 12 18 25 19 24 20 13 21 22 22 14 23
REMARK SMILES IDX 16 24 21 25 23 26 15 27 17 28 20 29 18 30 19 31
REMARK H PARENT
REMARK Flexibility Score: inf
ROOT
ATOM      1  C   UNL     1      55.649 -14.678  -4.874  1.00  0.00     0.004 C 
ENDROOT
BRANCH   1   2
ATOM      2  C   UNL     1      56.564 -13.900  -5.869  1.00  0.00    -0.009 C 
BRANCH   2   3
ATOM      3  C   UNL     1      58.040 -13.877  -5.347  1.00  0.00     0.000 C 
ATOM      4  C   UNL     1      58.642 -12.473  -5.331  1.00  0.00     0.004 C 
ENDBRANCH   2   3
BRANCH   2   5
ATOM      5  C   UNL     1      56.515 -14.489  -7.324  1.00  0.00    -0.014 C 
ATOM      6  C   UNL     1      57.834 -15.217  -7.669  1.00  0.00     0.007 C 
ATOM      7  C   UNL     1      56.247 -13.433  -8.418  1.00  0.00     0.007 C 
ENDBRANCH   2   5
ENDBRANCH   1   2
BRANCH   1   8
ATOM      8  C   UNL     1      55.720 -16.219  -4.960  1.00  0.00     0.004 C 
BRANCH   8   9
ATOM      9  C   UNL     1      55.208 -16.981  -3.706  1.00  0.00    -0.011 C 
ATOM     10  C   UNL     1      53.942 -17.803  -4.010  1.00  0.00     0.008 C 
BRANCH   9  11
ATOM     11  C   UNL     1      56.369 -17.736  -2.963  1.00  0.00    -0.002 C 
ATOM     12  C   UNL     1      57.725 -17.027  -3.080  1.00  0.00     0.005 C 
ATOM     13  C   UNL     1      56.269 -18.191  -1.468  1.00  0.00    -0.026 C 
ATOM     14  C   UNL     1      58.597 -17.585  -1.955  1.00  0.00     0.005 C 
ATOM     15  C   UNL     1      57.734 -18.622  -1.208  1.00  0.00    -0.001 C 
ATOM     16  C   UNL     1      55.890 -17.034  -0.495  1.00  0.00     0.007 C 
ATOM     17  C   UNL     1      55.304 -19.395  -1.291  1.00  0.00     0.012 C 
ATOM     18  C   UNL     1      58.110 -18.850   0.291  1.00  0.00     0.004 C 
ATOM     19  C   UNL     1      56.161 -17.372   0.973  1.00  0.00     0.005 C 
ATOM     20  C   UNL     1      57.646 -17.714   1.236  1.00  0.00     0.003 C 
ATOM     21  C   UNL     1      59.627 -19.064   0.444  1.00  0.00     0.085 C 
ATOM     22  C   UNL     1      57.996 -17.996   2.777  1.00  0.00    -0.000 C 
ATOM     23  C   UNL     1      59.964 -19.445   1.846  1.00  0.00     0.159 C 
ATOM     24  C   UNL     1      59.032 -19.125   2.948  1.00  0.00     0.005 C 
ATOM     25  C   UNL     1      56.723 -18.366   3.614  1.00  0.00     0.020 C 
ATOM     26  C   UNL     1      58.628 -16.706   3.360  1.00  0.00     0.017 C 
ATOM     27  O   UNL     1      61.054 -20.040   2.074  1.00  0.00    -0.295 OA
ATOM     28  C   UNL     1      59.120 -19.834   4.092  1.00  0.00     0.055 C 
ATOM     29  C   UNL     1      57.029 -18.691   5.082  1.00  0.00     0.081 C 
ATOM     30  C   UNL     1      58.151 -19.674   5.187  1.00  0.00     0.156 C 
ATOM     31  O   UNL     1      58.282 -20.358   6.235  1.00  0.00    -0.295 OA
ENDBRANCH   9  11
ENDBRANCH   8   9
ENDBRANCH   1   8
TORSDOF 6
ENDMDL
MODEL 9
REMARK VINA RESULT:    -6.231      3.822      9.029
REMARK INTER + INTRA:          -9.264
REMARK INTER:                  -7.574
REMARK INTRA:                  -1.691
REMARK UNBOUND:                -0.847
REMARK SMILES CC[C@H](CC[C@@H](C)[C@H]1CC[C@H]2[C@H]3CC(=O)C4=CC(=O)CC[C@]4(C)[C@@H]3CC[C@@]12C)C(C)C
REMARK SMILES IDX 4 1 3 2 2 3 1 4 29 5 30 6 31 7 5 8 6 9 7 10 8 11 9 12 27 13
REMARK SMILES IDX 10 14 11 15 26 16 28 17 12 18 25 19 24 20 13 21 22 22 14 23
REMARK SMILES IDX 16 24 21 25 23 26 15 27 17 28 20 29 18 30 19 31
REMARK H PARENT
REMARK Flexibility Score: inf
ROOT
ATOM      1  C   UNL     1      57.387 -13.491  -4.278  1.00  0.00     0.004 C 
ENDROOT
BRANCH   1   2
ATOM      2  C   UNL     1      56.452 -14.302  -5.228  1.00  0.00    -0.009 C 
BRANCH   2   3
ATOM      3  C   UNL     1      57.297 -15.252  -6.143  1.00  0.00     0.000 C 
ATOM      4  C   UNL     1      57.371 -14.771  -7.590  1.00  0.00     0.004 C 
ENDBRANCH   2   3
BRANCH   2   5
ATOM      5  C   UNL     1      55.366 -15.126  -4.450  1.00  0.00    -0.014 C 
ATOM      6  C   UNL     1      55.368 -14.762  -2.948  1.00  0.00     0.007 C 
ATOM      7  C   UNL     1      55.532 -16.656  -4.574  1.00  0.00     0.007 C 
ENDBRANCH   2   5
ENDBRANCH   1   2
BRANCH   1   8
ATOM      8  C   UNL     1      58.892 -13.831  -4.366  1.00  0.00     0.004 C 
BRANCH   8   9
ATOM      9  C   UNL     1      59.564 -14.231  -3.023  1.00  0.00    -0.011 C 
ATOM     10  C   UNL     1      59.922 -13.000  -2.170  1.00  0.00     0.008 C 
BRANCH   9  11
ATOM     11  C   UNL     1      58.782 -15.382  -2.295  1.00  0.00    -0.002 C 
ATOM     12  C   UNL     1      58.800 -16.709  -3.065  1.00  0.00     0.005 C 
ATOM     13  C   UNL     1      59.035 -15.770  -0.799  1.00  0.00    -0.026 C 
ATOM     14  C   UNL     1      58.444 -17.796  -2.050  1.00  0.00     0.005 C 
ATOM     15  C   UNL     1      58.212 -17.079  -0.706  1.00  0.00    -0.001 C 
ATOM     16  C   UNL     1      60.530 -16.077  -0.486  1.00  0.00     0.007 C 
ATOM     17  C   UNL     1      58.477 -14.702   0.180  1.00  0.00     0.012 C 
ATOM     18  C   UNL     1      58.471 -17.946   0.568  1.00  0.00     0.004 C 
ATOM     19  C   UNL     1      60.727 -16.812   0.842  1.00  0.00     0.005 C 
ATOM     20  C   UNL     1      59.972 -18.160   0.888  1.00  0.00     0.003 C 
ATOM     21  C   UNL     1      57.767 -19.309   0.451  1.00  0.00     0.085 C 
ATOM     22  C   UNL     1      60.213 -19.007   2.231  1.00  0.00    -0.000 C 
ATOM     23  C   UNL     1      57.876 -20.068   1.730  1.00  0.00     0.159 C 
ATOM     24  C   UNL     1      58.940 -19.739   2.702  1.00  0.00     0.005 C 
ATOM     25  C   UNL     1      60.730 -18.112   3.409  1.00  0.00     0.020 C 
ATOM     26  C   UNL     1      61.274 -20.094   1.917  1.00  0.00     0.017 C 
ATOM     27  O   UNL     1      57.049 -20.992   1.966  1.00  0.00    -0.295 OA
ATOM     28  C   UNL     1      58.770 -20.099   3.990  1.00  0.00     0.055 C 
ATOM     29  C   UNL     1      60.924 -18.882   4.722  1.00  0.00     0.081 C 
ATOM     30  C   UNL     1      59.713 -19.698   5.045  1.00  0.00     0.156 C 
ATOM     31  O   UNL     1      59.509 -20.066   6.231  1.00  0.00    -0.295 OA
ENDBRANCH   9  11
ENDBRANCH   8   9
ENDBRANCH   1   8
TORSDOF 6
ENDMDL
