MODEL 1
REMARK VINA RESULT:     0.213      0.000      0.000
REMARK INTER + INTRA:           0.925
REMARK INTER:                   0.487
REMARK INTRA:                   0.438
REMARK UNBOUND:                 0.438
REMARK SMILES CCCCCCCCCCCCCCCCCCCCCCCC(=O)[O-]
REMARK SMILES IDX 13 1 14 2 15 3 16 4 17 5 18 6 19 7 20 8 21 9 22 10 23 11
REMARK SMILES IDX 24 12 25 13 26 14 12 15 11 16 10 17 9 18 8 19 7 20 6 21 5 22
REMARK SMILES IDX 4 23 3 24 2 25 1 26
REMARK H PARENT
REMARK Flexibility Score: inf
ROOT
ATOM      1  C   UNL     1      18.720 -18.123  13.420  1.00  0.00     0.000 C 
ENDROOT
BRANCH   1   2
ATOM      2  C   UNL     1      17.957 -16.797  13.549  1.00  0.00     0.000 C 
BRANCH   2   3
ATOM      3  C   UNL     1      17.109 -16.779  14.827  1.00  0.00     0.000 C 
BRANCH   3   4
ATOM      4  C   UNL     1      17.754 -15.896  15.906  1.00  0.00     0.000 C 
BRANCH   4   5
ATOM      5  C   UNL     1      18.228 -16.707  17.125  1.00  0.00     0.000 C 
BRANCH   5   6
ATOM      6  C   UNL     1      19.000 -17.975  16.726  1.00  0.00     0.000 C 
BRANCH   6   7
ATOM      7  C   UNL     1      20.510 -17.780  16.906  1.00  0.00     0.000 C 
BRANCH   7   8
ATOM      8  C   UNL     1      20.878 -16.289  16.873  1.00  0.00     0.000 C 
BRANCH   8   9
ATOM      9  C   UNL     1      22.387 -16.052  16.703  1.00  0.00     0.000 C 
BRANCH   9  10
ATOM     10  C   UNL     1      23.000 -16.907  15.584  1.00  0.00     0.006 C 
BRANCH  10  11
ATOM     11  C   UNL     1      22.808 -16.240  14.218  1.00  0.00     0.053 C 
BRANCH  11  12
ATOM     12  C   UNL     1      22.207 -14.877  14.376  1.00  0.00     0.041 C 
ATOM     13  O   UNL     1      22.917 -13.914  14.769  1.00  0.00    -0.550 OA
ATOM     14  O   UNL     1      20.865 -14.669  14.082  1.00  0.00    -0.550 OA
ENDBRANCH  11  12
ENDBRANCH  10  11
ENDBRANCH   9  10
ENDBRANCH   8   9
ENDBRANCH   7   8
ENDBRANCH   6   7
ENDBRANCH   5   6
ENDBRANCH   4   5
ENDBRANCH   3   4
ENDBRANCH   2   3
ENDBRANCH   1   2
BRANCH   1  15
ATOM     15  C   UNL     1      20.164 -17.936  12.933  1.00  0.00     0.000 C 
BRANCH  15  16
ATOM     16  C   UNL     1      20.241 -17.431  11.484  1.00  0.00     0.000 C 
BRANCH  16  17
ATOM     17  C   UNL     1      19.158 -18.089  10.615  1.00  0.00     0.000 C 
BRANCH  17  18
ATOM     18  C   UNL     1      18.100 -17.090  10.120  1.00  0.00    -0.000 C 
BRANCH  18  19
ATOM     19  C   UNL     1      16.932 -17.718   9.334  1.00  0.00    -0.000 C 
BRANCH  19  20
ATOM     20  C   UNL     1      15.648 -17.908  10.171  1.00  0.00    -0.000 C 
BRANCH  20  21
ATOM     21  C   UNL     1      15.903 -17.738  11.676  1.00  0.00    -0.000 C 
BRANCH  21  22
ATOM     22  C   UNL     1      14.666 -18.125  12.496  1.00  0.00    -0.000 C 
BRANCH  22  23
ATOM     23  C   UNL     1      14.572 -17.284  13.778  1.00  0.00    -0.000 C 
BRANCH  23  24
ATOM     24  C   UNL     1      14.254 -18.125  15.027  1.00  0.00    -0.000 C 
BRANCH  24  25
ATOM     25  C   UNL     1      13.213 -17.508  15.977  1.00  0.00    -0.003 C 
ATOM     26  C   UNL     1      11.789 -17.985  15.698  1.00  0.00     0.004 C 
ENDBRANCH  24  25
ENDBRANCH  23  24
ENDBRANCH  22  23
ENDBRANCH  21  22
ENDBRANCH  20  21
ENDBRANCH  19  20
ENDBRANCH  18  19
ENDBRANCH  17  18
ENDBRANCH  16  17
ENDBRANCH  15  16
ENDBRANCH   1  15
TORSDOF 22
ENDMDL
MODEL 2
REMARK VINA RESULT:     2.723      4.513      5.629
REMARK INTER + INTRA:           6.664
REMARK INTER:                   7.775
REMARK INTRA:                  -1.111
REMARK UNBOUND:                 0.438
REMARK SMILES CCCCCCCCCCCCCCCCCCCCCCCC(=O)[O-]
REMARK SMILES IDX 13 1 14 2 15 3 16 4 17 5 18 6 19 7 20 8 21 9 22 10 23 11
REMARK SMILES IDX 24 12 25 13 26 14 12 15 11 16 10 17 9 18 8 19 7 20 6 21 5 22
REMARK SMILES IDX 4 23 3 24 2 25 1 26
REMARK H PARENT
REMARK Flexibility Score: inf
ROOT
ATOM      1  C   UNL     1      16.678 -18.121  11.038  1.00  0.00     0.000 C 
ENDROOT
BRANCH   1   2
ATOM      2  C   UNL     1      17.370 -17.984  12.402  1.00  0.00     0.000 C 
BRANCH   2   3
ATOM      3  C   UNL     1      16.908 -16.710  13.120  1.00  0.00     0.000 C 
BRANCH   3   4
ATOM      4  C   UNL     1      17.640 -16.535  14.460  1.00  0.00     0.000 C 
BRANCH   4   5
ATOM      5  C   UNL     1      17.890 -17.874  15.174  1.00  0.00     0.000 C 
BRANCH   5   6
ATOM      6  C   UNL     1      18.106 -17.706  16.686  1.00  0.00     0.000 C 
BRANCH   6   7
ATOM      7  C   UNL     1      19.534 -18.092  17.087  1.00  0.00     0.000 C 
BRANCH   7   8
ATOM      8  C   UNL     1      20.541 -17.654  16.013  1.00  0.00     0.000 C 
BRANCH   8   9
ATOM      9  C   UNL     1      21.253 -16.338  16.365  1.00  0.00     0.000 C 
BRANCH   9  10
ATOM     10  C   UNL     1      22.708 -16.302  15.874  1.00  0.00     0.006 C 
BRANCH  10  11
ATOM     11  C   UNL     1      22.793 -15.723  14.457  1.00  0.00     0.053 C 
BRANCH  11  12
ATOM     12  C   UNL     1      22.288 -16.712  13.452  1.00  0.00     0.041 C 
ATOM     13  O   UNL     1      21.213 -16.495  12.835  1.00  0.00    -0.550 OA
ATOM     14  O   UNL     1      23.009 -17.871  13.193  1.00  0.00    -0.550 OA
ENDBRANCH  11  12
ENDBRANCH  10  11
ENDBRANCH   9  10
ENDBRANCH   8   9
ENDBRANCH   7   8
ENDBRANCH   6   7
ENDBRANCH   5   6
ENDBRANCH   4   5
ENDBRANCH   3   4
ENDBRANCH   2   3
ENDBRANCH   1   2
BRANCH   1  15
ATOM     15  C   UNL     1      17.566 -17.668   9.870  1.00  0.00     0.000 C 
BRANCH  15  16
ATOM     16  C   UNL     1      18.752 -16.804  10.327  1.00  0.00     0.000 C 
BRANCH  16  17
ATOM     17  C   UNL     1      19.266 -15.925   9.177  1.00  0.00     0.000 C 
BRANCH  17  18
ATOM     18  C   UNL     1      18.370 -14.705   8.910  1.00  0.00    -0.000 C 
BRANCH  18  19
ATOM     19  C   UNL     1      18.159 -13.777  10.122  1.00  0.00    -0.000 C 
BRANCH  19  20
ATOM     20  C   UNL     1      18.288 -12.275   9.788  1.00  0.00    -0.000 C 
BRANCH  20  21
ATOM     21  C   UNL     1      17.371 -11.404  10.663  1.00  0.00    -0.000 C 
BRANCH  21  22
ATOM     22  C   UNL     1      17.406  -9.938  10.212  1.00  0.00    -0.000 C 
BRANCH  22  23
ATOM     23  C   UNL     1      16.038  -9.269  10.418  1.00  0.00    -0.000 C 
BRANCH  23  24
ATOM     24  C   UNL     1      15.868  -7.981   9.592  1.00  0.00    -0.000 C 
BRANCH  24  25
ATOM     25  C   UNL     1      15.157  -8.165   8.240  1.00  0.00    -0.003 C 
ATOM     26  C   UNL     1      14.070  -7.123   7.987  1.00  0.00     0.004 C 
ENDBRANCH  24  25
ENDBRANCH  23  24
ENDBRANCH  22  23
ENDBRANCH  21  22
ENDBRANCH  20  21
ENDBRANCH  19  20
ENDBRANCH  18  19
ENDBRANCH  17  18
ENDBRANCH  16  17
ENDBRANCH  15  16
ENDBRANCH   1  15
TORSDOF 22
ENDMDL
MODEL 3
REMARK VINA RESULT:     2.761      4.582      8.038
REMARK INTER + INTRA:           6.749
REMARK INTER:                   7.988
REMARK INTRA:                  -1.240
REMARK UNBOUND:                 0.438
REMARK SMILES CCCCCCCCCCCCCCCCCCCCCCCC(=O)[O-]
REMARK SMILES IDX 13 1 14 2 15 3 16 4 17 5 18 6 19 7 20 8 21 9 22 10 23 11
REMARK SMILES IDX 24 12 25 13 26 14 12 15 11 16 10 17 9 18 8 19 7 20 6 21 5 22
REMARK SMILES IDX 4 23 3 24 2 25 1 26
REMARK H PARENT
REMARK Flexibility Score: inf
ROOT
ATOM      1  C   UNL     1      18.114 -17.852  12.244  1.00  0.00     0.000 C 
ENDROOT
BRANCH   1   2
ATOM      2  C   UNL     1      18.873 -17.858  10.909  1.00  0.00     0.000 C 
BRANCH   2   3
ATOM      3  C   UNL     1      17.897 -17.951   9.729  1.00  0.00     0.000 C 
BRANCH   3   4
ATOM      4  C   UNL     1      17.758 -16.596   9.019  1.00  0.00     0.000 C 
BRANCH   4   5
ATOM      5  C   UNL     1      18.622 -15.500   9.666  1.00  0.00     0.000 C 
BRANCH   5   6
ATOM      6  C   UNL     1      18.323 -14.102   9.102  1.00  0.00     0.000 C 
BRANCH   6   7
ATOM      7  C   UNL     1      17.909 -13.134  10.216  1.00  0.00     0.000 C 
BRANCH   7   8
ATOM      8  C   UNL     1      18.298 -11.691   9.859  1.00  0.00     0.000 C 
BRANCH   8   9
ATOM      9  C   UNL     1      17.527 -10.645  10.681  1.00  0.00     0.000 C 
BRANCH   9  10
ATOM     10  C   UNL     1      16.184 -10.261  10.042  1.00  0.00     0.006 C 
BRANCH  10  11
ATOM     11  C   UNL     1      15.803  -8.819  10.395  1.00  0.00     0.053 C 
BRANCH  11  12
ATOM     12  C   UNL     1      15.926  -7.931   9.195  1.00  0.00     0.041 C 
ATOM     13  O   UNL     1      17.057  -7.697   8.693  1.00  0.00    -0.550 OA
ATOM     14  O   UNL     1      14.791  -7.368   8.627  1.00  0.00    -0.550 OA
ENDBRANCH  11  12
ENDBRANCH  10  11
ENDBRANCH   9  10
ENDBRANCH   8   9
ENDBRANCH   7   8
ENDBRANCH   6   7
ENDBRANCH   5   6
ENDBRANCH   4   5
ENDBRANCH   3   4
ENDBRANCH   2   3
ENDBRANCH   1   2
BRANCH   1  15
ATOM     15  C   UNL     1      17.984 -16.447  12.851  1.00  0.00     0.000 C 
BRANCH  15  16
ATOM     16  C   UNL     1      17.368 -16.463  14.258  1.00  0.00     0.000 C 
BRANCH  16  17
ATOM     17  C   UNL     1      16.783 -17.845  14.585  1.00  0.00     0.000 C 
BRANCH  17  18
ATOM     18  C   UNL     1      16.251 -17.945  16.024  1.00  0.00    -0.000 C 
BRANCH  18  19
ATOM     19  C   UNL     1      17.263 -17.550  17.118  1.00  0.00    -0.000 C 
BRANCH  19  20
ATOM     20  C   UNL     1      18.687 -18.098  16.878  1.00  0.00    -0.000 C 
BRANCH  20  21
ATOM     21  C   UNL     1      19.652 -17.010  16.381  1.00  0.00    -0.000 C 
BRANCH  21  22
ATOM     22  C   UNL     1      21.075 -17.560  16.228  1.00  0.00    -0.000 C 
BRANCH  22  23
ATOM     23  C   UNL     1      21.518 -17.534  14.757  1.00  0.00    -0.000 C 
BRANCH  23  24
ATOM     24  C   UNL     1      22.933 -16.960  14.564  1.00  0.00    -0.000 C 
BRANCH  24  25
ATOM     25  C   UNL     1      23.125 -15.519  15.067  1.00  0.00    -0.003 C 
ATOM     26  C   UNL     1      22.039 -14.563  14.578  1.00  0.00     0.004 C 
ENDBRANCH  24  25
ENDBRANCH  23  24
ENDBRANCH  22  23
ENDBRANCH  21  22
ENDBRANCH  20  21
ENDBRANCH  19  20
ENDBRANCH  18  19
ENDBRANCH  17  18
ENDBRANCH  16  17
ENDBRANCH  15  16
ENDBRANCH   1  15
TORSDOF 22
ENDMDL
MODEL 4
REMARK VINA RESULT:     2.876      4.554      8.224
REMARK INTER + INTRA:           7.013
REMARK INTER:                   8.797
REMARK INTRA:                  -1.785
REMARK UNBOUND:                 0.438
REMARK SMILES CCCCCCCCCCCCCCCCCCCCCCCC(=O)[O-]
REMARK SMILES IDX 13 1 14 2 15 3 16 4 17 5 18 6 19 7 20 8 21 9 22 10 23 11
REMARK SMILES IDX 24 12 25 13 26 14 12 15 11 16 10 17 9 18 8 19 7 20 6 21 5 22
REMARK SMILES IDX 4 23 3 24 2 25 1 26
REMARK H PARENT
REMARK Flexibility Score: inf
ROOT
ATOM      1  C   UNL     1      17.682 -16.732  12.803  1.00  0.00     0.000 C 
ENDROOT
BRANCH   1   2
ATOM      2  C   UNL     1      18.740 -17.226  11.806  1.00  0.00     0.000 C 
BRANCH   2   3
ATOM      3  C   UNL     1      18.092 -18.063  10.696  1.00  0.00     0.000 C 
BRANCH   3   4
ATOM      4  C   UNL     1      17.783 -17.200   9.462  1.00  0.00     0.000 C 
BRANCH   4   5
ATOM      5  C   UNL     1      18.689 -15.960   9.368  1.00  0.00     0.000 C 
BRANCH   5   6
ATOM      6  C   UNL     1      17.901 -14.675   9.071  1.00  0.00     0.000 C 
BRANCH   6   7
ATOM      7  C   UNL     1      18.643 -13.439   9.594  1.00  0.00     0.000 C 
BRANCH   7   8
ATOM      8  C   UNL     1      17.668 -12.454  10.256  1.00  0.00     0.000 C 
BRANCH   8   9
ATOM      9  C   UNL     1      18.054 -10.985  10.021  1.00  0.00     0.000 C 
BRANCH   9  10
ATOM     10  C   UNL     1      16.899 -10.015  10.310  1.00  0.00     0.006 C 
BRANCH  10  11
ATOM     11  C   UNL     1      16.953  -8.805   9.371  1.00  0.00     0.053 C 
BRANCH  11  12
ATOM     12  C   UNL     1      15.751  -7.931   9.567  1.00  0.00     0.041 C 
ATOM     13  O   UNL     1      14.979  -7.690   8.602  1.00  0.00    -0.550 OA
ATOM     14  O   UNL     1      15.481  -7.389  10.817  1.00  0.00    -0.550 OA
ENDBRANCH  11  12
ENDBRANCH  10  11
ENDBRANCH   9  10
ENDBRANCH   8   9
ENDBRANCH   7   8
ENDBRANCH   6   7
ENDBRANCH   5   6
ENDBRANCH   4   5
ENDBRANCH   3   4
ENDBRANCH   2   3
ENDBRANCH   1   2
BRANCH   1  15
ATOM     15  C   UNL     1      16.806 -17.866  13.355  1.00  0.00     0.000 C 
BRANCH  15  16
ATOM     16  C   UNL     1      16.215 -17.542  14.735  1.00  0.00     0.000 C 
BRANCH  16  17
ATOM     17  C   UNL     1      17.215 -17.874  15.852  1.00  0.00     0.000 C 
BRANCH  17  18
ATOM     18  C   UNL     1      18.148 -16.699  16.189  1.00  0.00    -0.000 C 
BRANCH  18  19
ATOM     19  C   UNL     1      19.379 -17.071  17.038  1.00  0.00    -0.000 C 
BRANCH  19  20
ATOM     20  C   UNL     1      20.720 -16.603  16.432  1.00  0.00    -0.000 C 
BRANCH  20  21
ATOM     21  C   UNL     1      21.005 -17.261  15.072  1.00  0.00    -0.000 C 
BRANCH  21  22
ATOM     22  C   UNL     1      22.505 -17.251  14.754  1.00  0.00    -0.000 C 
BRANCH  22  23
ATOM     23  C   UNL     1      22.772 -16.606  13.386  1.00  0.00    -0.000 C 
BRANCH  23  24
ATOM     24  C   UNL     1      22.143 -17.388  12.219  1.00  0.00    -0.000 C 
BRANCH  24  25
ATOM     25  C   UNL     1      23.099 -17.696  11.053  1.00  0.00    -0.003 C 
ATOM     26  C   UNL     1      22.373 -17.979   9.740  1.00  0.00     0.004 C 
ENDBRANCH  24  25
ENDBRANCH  23  24
ENDBRANCH  22  23
ENDBRANCH  21  22
ENDBRANCH  20  21
ENDBRANCH  19  20
ENDBRANCH  18  19
ENDBRANCH  17  18
ENDBRANCH  16  17
ENDBRANCH  15  16
ENDBRANCH   1  15
TORSDOF 22
ENDMDL
