MODEL 1
REMARK VINA RESULT:    -6.306      0.000      0.000
REMARK INTER + INTRA:          -7.868
REMARK INTER:                  -7.596
REMARK INTRA:                  -0.272
REMARK UNBOUND:                -0.272
REMARK SMILES O=c1c(O)c(-c2ccc(O)c(O)c2)oc2cc(O)cc(O)c12
REMARK SMILES IDX 5 1 3 2 2 3 1 4 22 5 20 6 19 7 17 8 16 9 15 10 14 11 6 12
REMARK SMILES IDX 7 13 8 14 9 15 13 16 11 17 10 18 12 20 4 22 21 24 18 26
REMARK H PARENT 10 19 12 21 4 23 21 25 18 27
REMARK Flexibility Score: inf
ROOT
ATOM      1  C   UNL     1       3.315   1.148   8.234  1.00  0.00     0.180 A 
ATOM      2  C   UNL     1       4.320   0.473   8.947  1.00  0.00     0.208 A 
ATOM      3  C   UNL     1       4.170  -0.900   9.202  1.00  0.00     0.238 A 
ATOM      4  O   UNL     1       5.048  -1.487   9.888  1.00  0.00    -0.285 OA
ATOM      5  C   UNL     1       3.026  -1.584   8.724  1.00  0.00     0.111 A 
ATOM      6  C   UNL     1       2.791  -2.982   8.889  1.00  0.00     0.134 A 
ATOM      7  C   UNL     1       1.564  -3.527   8.491  1.00  0.00     0.093 A 
ATOM      8  C   UNL     1       0.591  -2.736   7.875  1.00  0.00     0.123 A 
ATOM      9  C   UNL     1       0.836  -1.383   7.656  1.00  0.00     0.094 A 
ATOM     10  C   UNL     1       2.035  -0.802   8.075  1.00  0.00     0.146 A 
ATOM     11  O   UNL     1       2.223   0.493   7.857  1.00  0.00    -0.452 OA
ENDROOT
BRANCH   1  12
ATOM     12  C   UNL     1       3.414   2.589   7.906  1.00  0.00     0.025 A 
ATOM     13  C   UNL     1       3.806   2.978   6.617  1.00  0.00     0.016 A 
ATOM     14  C   UNL     1       3.923   4.331   6.293  1.00  0.00     0.051 A 
ATOM     15  C   UNL     1       3.670   5.319   7.250  1.00  0.00     0.157 A 
ATOM     16  C   UNL     1       3.180   3.579   8.876  1.00  0.00     0.062 A 
ATOM     17  C   UNL     1       3.300   4.938   8.561  1.00  0.00     0.158 A 
BRANCH  15  18
ATOM     18  O   UNL     1       3.798   6.654   6.860  1.00  0.00    -0.504 OA
ATOM     19  H   UNL     1       3.240   7.088   6.139  1.00  0.00     0.293 HD
ENDBRANCH  15  18
BRANCH  17  20
ATOM     20  O   UNL     1       3.050   5.866   9.574  1.00  0.00    -0.504 OA
ATOM     21  H   UNL     1       3.674   6.040  10.347  1.00  0.00     0.293 HD
ENDBRANCH  17  20
ENDBRANCH   1  12
BRANCH   2  22
ATOM     22  O   UNL     1       5.432   1.172   9.428  1.00  0.00    -0.502 OA
ATOM     23  H   UNL     1       5.353   1.924  10.102  1.00  0.00     0.293 HD
ENDBRANCH   2  22
BRANCH   6  24
ATOM     24  O   UNL     1       3.732  -3.876   9.408  1.00  0.00    -0.507 OA
ATOM     25  H   UNL     1       4.712  -3.884   9.167  1.00  0.00     0.293 HD
ENDBRANCH   6  24
BRANCH   8  26
ATOM     26  O   UNL     1      -0.621  -3.290   7.468  1.00  0.00    -0.508 OA
ATOM     27  H   UNL     1      -1.220  -2.821   6.800  1.00  0.00     0.293 HD
ENDBRANCH   8  26
TORSDOF 6
ENDMDL
MODEL 2
REMARK VINA RESULT:    -5.875      1.205      2.840
REMARK INTER + INTRA:          -7.349
REMARK INTER:                  -7.024
REMARK INTRA:                  -0.325
REMARK UNBOUND:                -0.272
REMARK SMILES O=c1c(O)c(-c2ccc(O)c(O)c2)oc2cc(O)cc(O)c12
REMARK SMILES IDX 5 1 3 2 2 3 1 4 22 5 20 6 19 7 17 8 16 9 15 10 14 11 6 12
REMARK SMILES IDX 7 13 8 14 9 15 13 16 11 17 10 18 12 20 4 22 21 24 18 26
REMARK H PARENT 10 19 12 21 4 23 21 25 18 27
REMARK Flexibility Score: inf
ROOT
ATOM      1  C   UNL     1       2.900   1.227   7.967  1.00  0.00     0.180 A 
ATOM      2  C   UNL     1       1.648   0.674   7.650  1.00  0.00     0.208 A 
ATOM      3  C   UNL     1       1.432  -0.696   7.875  1.00  0.00     0.238 A 
ATOM      4  O   UNL     1       0.327  -1.197   7.538  1.00  0.00    -0.285 OA
ATOM      5  C   UNL     1       2.464  -1.489   8.431  1.00  0.00     0.111 A 
ATOM      6  C   UNL     1       2.341  -2.878   8.739  1.00  0.00     0.134 A 
ATOM      7  C   UNL     1       3.468  -3.593   9.163  1.00  0.00     0.093 A 
ATOM      8  C   UNL     1       4.697  -2.954   9.353  1.00  0.00     0.123 A 
ATOM      9  C   UNL     1       4.811  -1.588   9.112  1.00  0.00     0.094 A 
ATOM     10  C   UNL     1       3.714  -0.855   8.652  1.00  0.00     0.146 A 
ATOM     11  O   UNL     1       3.869   0.443   8.425  1.00  0.00    -0.452 OA
ENDROOT
BRANCH   1  12
ATOM     12  C   UNL     1       3.195   2.667   7.781  1.00  0.00     0.025 A 
ATOM     13  C   UNL     1       3.706   3.113   6.554  1.00  0.00     0.016 A 
ATOM     14  C   UNL     1       4.008   4.463   6.365  1.00  0.00     0.051 A 
ATOM     15  C   UNL     1       3.824   5.389   7.397  1.00  0.00     0.157 A 
ATOM     16  C   UNL     1       3.029   3.590   8.828  1.00  0.00     0.062 A 
ATOM     17  C   UNL     1       3.333   4.945   8.647  1.00  0.00     0.158 A 
BRANCH  15  18
ATOM     18  O   UNL     1       4.139   6.725   7.140  1.00  0.00    -0.504 OA
ATOM     19  H   UNL     1       4.929   7.023   6.586  1.00  0.00     0.293 HD
ENDBRANCH  15  18
BRANCH  17  20
ATOM     20  O   UNL     1       3.142   5.806   9.730  1.00  0.00    -0.504 OA
ATOM     21  H   UNL     1       3.326   5.556  10.690  1.00  0.00     0.293 HD
ENDBRANCH  17  20
ENDBRANCH   1  12
BRANCH   2  22
ATOM     22  O   UNL     1       0.649   1.471   7.082  1.00  0.00    -0.502 OA
ATOM     23  H   UNL     1      -0.185   1.741   7.589  1.00  0.00     0.293 HD
ENDBRANCH   2  22
BRANCH   6  24
ATOM     24  O   UNL     1       1.140  -3.589   8.673  1.00  0.00    -0.507 OA
ATOM     25  H   UNL     1       0.394  -3.398   8.021  1.00  0.00     0.293 HD
ENDBRANCH   6  24
BRANCH   8  26
ATOM     26  O   UNL     1       5.809  -3.671   9.790  1.00  0.00    -0.508 OA
ATOM     27  H   UNL     1       6.466  -3.276  10.452  1.00  0.00     0.293 HD
ENDBRANCH   8  26
TORSDOF 6
ENDMDL
MODEL 3
REMARK VINA RESULT:    -5.838      1.739      7.322
REMARK INTER + INTRA:          -7.305
REMARK INTER:                  -7.639
REMARK INTRA:                   0.334
REMARK UNBOUND:                -0.272
REMARK SMILES O=c1c(O)c(-c2ccc(O)c(O)c2)oc2cc(O)cc(O)c12
REMARK SMILES IDX 5 1 3 2 2 3 1 4 22 5 20 6 19 7 17 8 16 9 15 10 14 11 6 12
REMARK SMILES IDX 7 13 8 14 9 15 13 16 11 17 10 18 12 20 4 22 21 24 18 26
REMARK H PARENT 10 19 12 21 4 23 21 25 18 27
REMARK Flexibility Score: inf
ROOT
ATOM      1  C   UNL     1       2.526   0.826   7.774  1.00  0.00     0.180 A 
ATOM      2  C   UNL     1       1.442   1.432   7.117  1.00  0.00     0.208 A 
ATOM      3  C   UNL     1       1.581   2.746   6.642  1.00  0.00     0.238 A 
ATOM      4  O   UNL     1       0.589   3.302   6.102  1.00  0.00    -0.285 OA
ATOM      5  C   UNL     1       2.809   3.431   6.814  1.00  0.00     0.111 A 
ATOM      6  C   UNL     1       3.074   4.750   6.337  1.00  0.00     0.134 A 
ATOM      7  C   UNL     1       4.278   5.378   6.679  1.00  0.00     0.093 A 
ATOM      8  C   UNL     1       5.252   4.710   7.426  1.00  0.00     0.123 A 
ATOM      9  C   UNL     1       5.026   3.401   7.845  1.00  0.00     0.094 A 
ATOM     10  C   UNL     1       3.820   2.761   7.551  1.00  0.00     0.146 A 
ATOM     11  O   UNL     1       3.641   1.518   7.979  1.00  0.00    -0.452 OA
ENDROOT
BRANCH   1  12
ATOM     12  C   UNL     1       2.463  -0.564   8.281  1.00  0.00     0.025 A 
ATOM     13  C   UNL     1       3.367  -0.980   9.268  1.00  0.00     0.016 A 
ATOM     14  C   UNL     1       3.337  -2.293   9.745  1.00  0.00     0.051 A 
ATOM     15  C   UNL     1       2.419  -3.217   9.237  1.00  0.00     0.157 A 
ATOM     16  C   UNL     1       1.553  -1.496   7.751  1.00  0.00     0.062 A 
ATOM     17  C   UNL     1       1.519  -2.815   8.222  1.00  0.00     0.158 A 
BRANCH  15  18
ATOM     18  O   UNL     1       2.436  -4.511   9.762  1.00  0.00    -0.504 OA
ATOM     19  H   UNL     1       2.638  -5.338   9.219  1.00  0.00     0.293 HD
ENDBRANCH  15  18
BRANCH  17  20
ATOM     20  O   UNL     1       0.588  -3.686   7.652  1.00  0.00    -0.504 OA
ATOM     21  H   UNL     1       0.200  -4.488   8.127  1.00  0.00     0.293 HD
ENDBRANCH  17  20
ENDBRANCH   1  12
BRANCH   2  22
ATOM     22  O   UNL     1       0.232   0.745   6.975  1.00  0.00    -0.502 OA
ATOM     23  H   UNL     1      -0.536   0.856   7.626  1.00  0.00     0.293 HD
ENDBRANCH   2  22
BRANCH   6  24
ATOM     24  O   UNL     1       2.209   5.469   5.508  1.00  0.00    -0.507 OA
ATOM     25  H   UNL     1       2.345   5.608   4.518  1.00  0.00     0.293 HD
ENDBRANCH   6  24
BRANCH   8  26
ATOM     26  O   UNL     1       6.453   5.337   7.749  1.00  0.00    -0.508 OA
ATOM     27  H   UNL     1       6.768   5.418   8.708  1.00  0.00     0.293 HD
ENDBRANCH   8  26
TORSDOF 6
ENDMDL
MODEL 4
REMARK VINA RESULT:    -5.822      3.239      4.974
REMARK INTER + INTRA:          -7.286
REMARK INTER:                  -7.416
REMARK INTRA:                   0.131
REMARK UNBOUND:                -0.272
REMARK SMILES O=c1c(O)c(-c2ccc(O)c(O)c2)oc2cc(O)cc(O)c12
REMARK SMILES IDX 5 1 3 2 2 3 1 4 22 5 20 6 19 7 17 8 16 9 15 10 14 11 6 12
REMARK SMILES IDX 7 13 8 14 9 15 13 16 11 17 10 18 12 20 4 22 21 24 18 26
REMARK H PARENT 10 19 12 21 4 23 21 25 18 27
REMARK Flexibility Score: inf
ROOT
ATOM      1  C   UNL     1       4.438   4.862   7.213  1.00  0.00     0.180 A 
ATOM      2  C   UNL     1       4.537   3.841   8.174  1.00  0.00     0.208 A 
ATOM      3  C   UNL     1       3.566   2.826   8.194  1.00  0.00     0.238 A 
ATOM      4  O   UNL     1       3.630   1.946   9.091  1.00  0.00    -0.285 OA
ATOM      5  C   UNL     1       2.518   2.837   7.241  1.00  0.00     0.111 A 
ATOM      6  C   UNL     1       1.504   1.837   7.144  1.00  0.00     0.134 A 
ATOM      7  C   UNL     1       0.442   2.017   6.249  1.00  0.00     0.093 A 
ATOM      8  C   UNL     1       0.394   3.128   5.403  1.00  0.00     0.123 A 
ATOM      9  C   UNL     1       1.411   4.078   5.449  1.00  0.00     0.094 A 
ATOM     10  C   UNL     1       2.464   3.945   6.357  1.00  0.00     0.146 A 
ATOM     11  O   UNL     1       3.407   4.879   6.376  1.00  0.00    -0.452 OA
ENDROOT
BRANCH   1  12
ATOM     12  C   UNL     1       5.436   5.950   7.114  1.00  0.00     0.025 A 
ATOM     13  C   UNL     1       5.017   7.241   6.764  1.00  0.00     0.016 A 
ATOM     14  C   UNL     1       5.946   8.278   6.647  1.00  0.00     0.051 A 
ATOM     15  C   UNL     1       7.308   8.044   6.859  1.00  0.00     0.157 A 
ATOM     16  C   UNL     1       6.808   5.707   7.306  1.00  0.00     0.062 A 
ATOM     17  C   UNL     1       7.746   6.740   7.187  1.00  0.00     0.158 A 
BRANCH  15  18
ATOM     18  O   UNL     1       8.184   9.125   6.733  1.00  0.00    -0.504 OA
ATOM     19  H   UNL     1       9.034   9.228   7.267  1.00  0.00     0.293 HD
ENDBRANCH  15  18
BRANCH  17  20
ATOM     20  O   UNL     1       9.091   6.426   7.394  1.00  0.00    -0.504 OA
ATOM     21  H   UNL     1       9.666   6.847   8.108  1.00  0.00     0.293 HD
ENDBRANCH  17  20
ENDBRANCH   1  12
BRANCH   2  22
ATOM     22  O   UNL     1       5.568   3.862   9.118  1.00  0.00    -0.502 OA
ATOM     23  H   UNL     1       6.180   4.659   9.239  1.00  0.00     0.293 HD
ENDBRANCH   2  22
BRANCH   6  24
ATOM     24  O   UNL     1       1.507   0.646   7.876  1.00  0.00    -0.507 OA
ATOM     25  H   UNL     1       1.128  -0.230   7.550  1.00  0.00     0.293 HD
ENDBRANCH   6  24
BRANCH   8  26
ATOM     26  O   UNL     1      -0.659   3.292   4.504  1.00  0.00    -0.508 OA
ATOM     27  H   UNL     1      -0.924   4.206   4.159  1.00  0.00     0.293 HD
ENDBRANCH   8  26
TORSDOF 6
ENDMDL
MODEL 5
REMARK VINA RESULT:    -5.739      1.529      6.753
REMARK INTER + INTRA:          -7.185
REMARK INTER:                  -6.931
REMARK INTRA:                  -0.254
REMARK UNBOUND:                -0.272
REMARK SMILES O=c1c(O)c(-c2ccc(O)c(O)c2)oc2cc(O)cc(O)c12
REMARK SMILES IDX 5 1 3 2 2 3 1 4 22 5 20 6 19 7 17 8 16 9 15 10 14 11 6 12
REMARK SMILES IDX 7 13 8 14 9 15 13 16 11 17 10 18 12 20 4 22 21 24 18 26
REMARK H PARENT 10 19 12 21 4 23 21 25 18 27
REMARK Flexibility Score: inf
ROOT
ATOM      1  C   UNL     1       2.477   0.046   7.779  1.00  0.00     0.180 A 
ATOM      2  C   UNL     1       3.468  -0.033   8.772  1.00  0.00     0.208 A 
ATOM      3  C   UNL     1       4.225   1.111   9.072  1.00  0.00     0.238 A 
ATOM      4  O   UNL     1       5.147   1.020   9.924  1.00  0.00    -0.285 OA
ATOM      5  C   UNL     1       3.969   2.324   8.387  1.00  0.00     0.111 A 
ATOM      6  C   UNL     1       4.647   3.554   8.639  1.00  0.00     0.134 A 
ATOM      7  C   UNL     1       4.404   4.658   7.812  1.00  0.00     0.093 A 
ATOM      8  C   UNL     1       3.460   4.593   6.784  1.00  0.00     0.123 A 
ATOM      9  C   UNL     1       2.750   3.414   6.569  1.00  0.00     0.094 A 
ATOM     10  C   UNL     1       2.997   2.285   7.354  1.00  0.00     0.146 A 
ATOM     11  O   UNL     1       2.306   1.179   7.108  1.00  0.00    -0.452 OA
ENDROOT
BRANCH   1  12
ATOM     12  C   UNL     1       1.623  -1.111   7.424  1.00  0.00     0.025 A 
ATOM     13  C   UNL     1       0.613  -1.519   8.307  1.00  0.00     0.016 A 
ATOM     14  C   UNL     1      -0.191  -2.619   8.000  1.00  0.00     0.051 A 
ATOM     15  C   UNL     1       0.008  -3.342   6.820  1.00  0.00     0.157 A 
ATOM     16  C   UNL     1       1.840  -1.849   6.247  1.00  0.00     0.062 A 
ATOM     17  C   UNL     1       1.041  -2.955   5.934  1.00  0.00     0.158 A 
BRANCH  15  18
ATOM     18  O   UNL     1      -0.835  -4.427   6.569  1.00  0.00    -0.504 OA
ATOM     19  H   UNL     1      -1.286  -4.971   7.290  1.00  0.00     0.293 HD
ENDBRANCH  15  18
BRANCH  17  20
ATOM     20  O   UNL     1       1.311  -3.639   4.747  1.00  0.00    -0.504 OA
ATOM     21  H   UNL     1       1.323  -3.206   3.835  1.00  0.00     0.293 HD
ENDBRANCH  17  20
ENDBRANCH   1  12
BRANCH   2  22
ATOM     22  O   UNL     1       3.719  -1.246   9.421  1.00  0.00    -0.502 OA
ATOM     23  H   UNL     1       3.084  -1.638  10.107  1.00  0.00     0.293 HD
ENDBRANCH   2  22
BRANCH   6  24
ATOM     24  O   UNL     1       5.539   3.752   9.697  1.00  0.00    -0.507 OA
ATOM     25  H   UNL     1       5.284   3.745  10.673  1.00  0.00     0.293 HD
ENDBRANCH   6  24
BRANCH   8  26
ATOM     26  O   UNL     1       3.214   5.701   5.975  1.00  0.00    -0.508 OA
ATOM     27  H   UNL     1       2.337   6.206   6.021  1.00  0.00     0.293 HD
ENDBRANCH   8  26
TORSDOF 6
ENDMDL
MODEL 6
REMARK VINA RESULT:    -5.664      2.054      3.755
REMARK INTER + INTRA:          -7.095
REMARK INTER:                  -6.908
REMARK INTRA:                  -0.188
REMARK UNBOUND:                -0.272
REMARK SMILES O=c1c(O)c(-c2ccc(O)c(O)c2)oc2cc(O)cc(O)c12
REMARK SMILES IDX 5 1 3 2 2 3 1 4 22 5 20 6 19 7 17 8 16 9 15 10 14 11 6 12
REMARK SMILES IDX 7 13 8 14 9 15 13 16 11 17 10 18 12 20 4 22 21 24 18 26
REMARK H PARENT 10 19 12 21 4 23 21 25 18 27
REMARK Flexibility Score: inf
ROOT
ATOM      1  C   UNL     1       2.255   0.151   7.632  1.00  0.00     0.180 A 
ATOM      2  C   UNL     1       1.094  -0.609   7.855  1.00  0.00     0.208 A 
ATOM      3  C   UNL     1       1.205  -1.850   8.503  1.00  0.00     0.238 A 
ATOM      4  O   UNL     1       0.169  -2.550   8.650  1.00  0.00    -0.285 OA
ATOM      5  C   UNL     1       2.474  -2.307   8.936  1.00  0.00     0.111 A 
ATOM      6  C   UNL     1       2.697  -3.529   9.638  1.00  0.00     0.134 A 
ATOM      7  C   UNL     1       4.009  -3.944   9.901  1.00  0.00     0.093 A 
ATOM      8  C   UNL     1       5.101  -3.148   9.545  1.00  0.00     0.123 A 
ATOM      9  C   UNL     1       4.889  -1.925   8.913  1.00  0.00     0.094 A 
ATOM     10  C   UNL     1       3.594  -1.502   8.604  1.00  0.00     0.146 A 
ATOM     11  O   UNL     1       3.438  -0.335   7.991  1.00  0.00    -0.452 OA
ENDROOT
BRANCH   1  12
ATOM     12  C   UNL     1       2.214   1.479   6.978  1.00  0.00     0.025 A 
ATOM     13  C   UNL     1       2.475   2.629   7.735  1.00  0.00     0.016 A 
ATOM     14  C   UNL     1       2.423   3.892   7.141  1.00  0.00     0.051 A 
ATOM     15  C   UNL     1       2.094   4.033   5.790  1.00  0.00     0.157 A 
ATOM     16  C   UNL     1       1.861   1.618   5.624  1.00  0.00     0.062 A 
ATOM     17  C   UNL     1       1.803   2.881   5.022  1.00  0.00     0.158 A 
BRANCH  15  18
ATOM     18  O   UNL     1       2.066   5.323   5.255  1.00  0.00    -0.504 OA
ATOM     19  H   UNL     1       1.677   6.124   5.732  1.00  0.00     0.293 HD
ENDBRANCH  15  18
BRANCH  17  20
ATOM     20  O   UNL     1       1.447   2.944   3.673  1.00  0.00    -0.504 OA
ATOM     21  H   UNL     1       2.079   2.744   2.912  1.00  0.00     0.293 HD
ENDBRANCH  17  20
ENDBRANCH   1  12
BRANCH   2  22
ATOM     22  O   UNL     1      -0.146  -0.149   7.401  1.00  0.00    -0.502 OA
ATOM     23  H   UNL     1      -0.239   0.655   6.792  1.00  0.00     0.293 HD
ENDBRANCH   2  22
BRANCH   6  24
ATOM     24  O   UNL     1       1.675  -4.352  10.120  1.00  0.00    -0.507 OA
ATOM     25  H   UNL     1       0.927  -4.045  10.724  1.00  0.00     0.293 HD
ENDBRANCH   6  24
BRANCH   8  26
ATOM     26  O   UNL     1       6.402  -3.561   9.824  1.00  0.00    -0.508 OA
ATOM     27  H   UNL     1       7.194  -2.946   9.685  1.00  0.00     0.293 HD
ENDBRANCH   8  26
TORSDOF 6
ENDMDL
MODEL 7
REMARK VINA RESULT:    -5.630      2.039      4.107
REMARK INTER + INTRA:          -7.054
REMARK INTER:                  -7.205
REMARK INTRA:                   0.150
REMARK UNBOUND:                -0.272
REMARK SMILES O=c1c(O)c(-c2ccc(O)c(O)c2)oc2cc(O)cc(O)c12
REMARK SMILES IDX 5 1 3 2 2 3 1 4 22 5 20 6 19 7 17 8 16 9 15 10 14 11 6 12
REMARK SMILES IDX 7 13 8 14 9 15 13 16 11 17 10 18 12 20 4 22 21 24 18 26
REMARK H PARENT 10 19 12 21 4 23 21 25 18 27
REMARK Flexibility Score: inf
ROOT
ATOM      1  C   UNL     1       3.972   3.798   7.321  1.00  0.00     0.180 A 
ATOM      2  C   UNL     1       2.819   3.627   6.536  1.00  0.00     0.208 A 
ATOM      3  C   UNL     1       2.105   2.420   6.628  1.00  0.00     0.238 A 
ATOM      4  O   UNL     1       1.105   2.252   5.882  1.00  0.00    -0.285 OA
ATOM      5  C   UNL     1       2.544   1.409   7.516  1.00  0.00     0.111 A 
ATOM      6  C   UNL     1       1.875   0.164   7.719  1.00  0.00     0.134 A 
ATOM      7  C   UNL     1       2.469  -0.816   8.524  1.00  0.00     0.093 A 
ATOM      8  C   UNL     1       3.676  -0.570   9.184  1.00  0.00     0.123 A 
ATOM      9  C   UNL     1       4.306   0.663   9.039  1.00  0.00     0.094 A 
ATOM     10  C   UNL     1       3.756   1.648   8.213  1.00  0.00     0.146 A 
ATOM     11  O   UNL     1       4.395   2.804   8.095  1.00  0.00    -0.452 OA
ENDROOT
BRANCH   1  12
ATOM     12  C   UNL     1       4.763   5.050   7.297  1.00  0.00     0.025 A 
ATOM     13  C   UNL     1       6.155   4.990   7.451  1.00  0.00     0.016 A 
ATOM     14  C   UNL     1       6.916   6.161   7.451  1.00  0.00     0.051 A 
ATOM     15  C   UNL     1       6.305   7.411   7.314  1.00  0.00     0.157 A 
ATOM     16  C   UNL     1       4.142   6.306   7.181  1.00  0.00     0.062 A 
ATOM     17  C   UNL     1       4.898   7.485   7.184  1.00  0.00     0.158 A 
BRANCH  15  18
ATOM     18  O   UNL     1       7.124   8.542   7.314  1.00  0.00    -0.504 OA
ATOM     19  H   UNL     1       7.423   9.022   6.478  1.00  0.00     0.293 HD
ENDBRANCH  15  18
BRANCH  17  20
ATOM     20  O   UNL     1       4.215   8.697   7.062  1.00  0.00    -0.504 OA
ATOM     21  H   UNL     1       3.218   8.773   6.927  1.00  0.00     0.293 HD
ENDBRANCH  17  20
ENDBRANCH   1  12
BRANCH   2  22
ATOM     22  O   UNL     1       2.416   4.630   5.650  1.00  0.00    -0.502 OA
ATOM     23  H   UNL     1       2.889   4.803   4.771  1.00  0.00     0.293 HD
ENDBRANCH   2  22
BRANCH   6  24
ATOM     24  O   UNL     1       0.622  -0.146   7.182  1.00  0.00    -0.507 OA
ATOM     25  H   UNL     1       0.151   0.395   6.473  1.00  0.00     0.293 HD
ENDBRANCH   6  24
BRANCH   8  26
ATOM     26  O   UNL     1       4.253  -1.545   9.995  1.00  0.00    -0.508 OA
ATOM     27  H   UNL     1       4.185  -1.503  11.004  1.00  0.00     0.293 HD
ENDBRANCH   8  26
TORSDOF 6
ENDMDL
MODEL 8
REMARK VINA RESULT:    -5.503      1.750      6.688
REMARK INTER + INTRA:          -6.902
REMARK INTER:                  -6.781
REMARK INTRA:                  -0.121
REMARK UNBOUND:                -0.272
REMARK SMILES O=c1c(O)c(-c2ccc(O)c(O)c2)oc2cc(O)cc(O)c12
REMARK SMILES IDX 5 1 3 2 2 3 1 4 22 5 20 6 19 7 17 8 16 9 15 10 14 11 6 12
REMARK SMILES IDX 7 13 8 14 9 15 13 16 11 17 10 18 12 20 4 22 21 24 18 26
REMARK H PARENT 10 19 12 21 4 23 21 25 18 27
REMARK Flexibility Score: inf
ROOT
ATOM      1  C   UNL     1       3.140   0.299   8.259  1.00  0.00     0.180 A 
ATOM      2  C   UNL     1       3.869   1.215   9.035  1.00  0.00     0.208 A 
ATOM      3  C   UNL     1       3.859   2.573   8.676  1.00  0.00     0.238 A 
ATOM      4  O   UNL     1       4.558   3.380   9.344  1.00  0.00    -0.285 OA
ATOM      5  C   UNL     1       3.105   3.000   7.556  1.00  0.00     0.111 A 
ATOM      6  C   UNL     1       2.990   4.356   7.127  1.00  0.00     0.134 A 
ATOM      7  C   UNL     1       2.325   4.647   5.929  1.00  0.00     0.093 A 
ATOM      8  C   UNL     1       1.715   3.636   5.181  1.00  0.00     0.123 A 
ATOM      9  C   UNL     1       1.771   2.317   5.624  1.00  0.00     0.094 A 
ATOM     10  C   UNL     1       2.459   1.991   6.795  1.00  0.00     0.146 A 
ATOM     11  O   UNL     1       2.496   0.721   7.176  1.00  0.00    -0.452 OA
ENDROOT
BRANCH   1  12
ATOM     12  C   UNL     1       3.083  -1.143   8.588  1.00  0.00     0.025 A 
ATOM     13  C   UNL     1       1.857  -1.721   8.948  1.00  0.00     0.016 A 
ATOM     14  C   UNL     1       1.785  -3.075   9.281  1.00  0.00     0.051 A 
ATOM     15  C   UNL     1       2.933  -3.873   9.279  1.00  0.00     0.157 A 
ATOM     16  C   UNL     1       4.243  -1.937   8.607  1.00  0.00     0.062 A 
ATOM     17  C   UNL     1       4.180  -3.295   8.943  1.00  0.00     0.158 A 
BRANCH  15  18
ATOM     18  O   UNL     1       2.792  -5.222   9.614  1.00  0.00    -0.504 OA
ATOM     19  H   UNL     1       3.523  -5.910   9.506  1.00  0.00     0.293 HD
ENDBRANCH  15  18
BRANCH  17  20
ATOM     20  O   UNL     1       5.372  -4.023   8.938  1.00  0.00    -0.504 OA
ATOM     21  H   UNL     1       5.515  -4.876   9.458  1.00  0.00     0.293 HD
ENDBRANCH  17  20
ENDBRANCH   1  12
BRANCH   2  22
ATOM     22  O   UNL     1       4.624   0.770  10.125  1.00  0.00    -0.502 OA
ATOM     23  H   UNL     1       5.221   1.386  10.662  1.00  0.00     0.293 HD
ENDBRANCH   2  22
BRANCH   6  24
ATOM     24  O   UNL     1       3.483   5.448   7.847  1.00  0.00    -0.507 OA
ATOM     25  H   UNL     1       2.909   6.143   8.300  1.00  0.00     0.293 HD
ENDBRANCH   6  24
BRANCH   8  26
ATOM     26  O   UNL     1       1.042   3.936   3.998  1.00  0.00    -0.508 OA
ATOM     27  H   UNL     1       1.492   4.447   3.248  1.00  0.00     0.293 HD
ENDBRANCH   8  26
TORSDOF 6
ENDMDL
MODEL 9
REMARK VINA RESULT:    -5.447      9.548     10.531
REMARK INTER + INTRA:          -6.833
REMARK INTER:                  -6.506
REMARK INTRA:                  -0.327
REMARK UNBOUND:                -0.272
REMARK SMILES O=c1c(O)c(-c2ccc(O)c(O)c2)oc2cc(O)cc(O)c12
REMARK SMILES IDX 5 1 3 2 2 3 1 4 22 5 20 6 19 7 17 8 16 9 15 10 14 11 6 12
REMARK SMILES IDX 7 13 8 14 9 15 13 16 11 17 10 18 12 20 4 22 21 24 18 26
REMARK H PARENT 10 19 12 21 4 23 21 25 18 27
REMARK Flexibility Score: inf
ROOT
ATOM      1  C   UNL     1       7.907  -4.008   0.452  1.00  0.00     0.180 A 
ATOM      2  C   UNL     1       8.380  -5.277   0.078  1.00  0.00     0.208 A 
ATOM      3  C   UNL     1       8.246  -6.347   0.979  1.00  0.00     0.238 A 
ATOM      4  O   UNL     1       8.720  -7.469   0.660  1.00  0.00    -0.285 OA
ATOM      5  C   UNL     1       7.625  -6.136   2.234  1.00  0.00     0.111 A 
ATOM      6  C   UNL     1       7.400  -7.157   3.207  1.00  0.00     0.134 A 
ATOM      7  C   UNL     1       6.897  -6.810   4.467  1.00  0.00     0.093 A 
ATOM      8  C   UNL     1       6.549  -5.489   4.765  1.00  0.00     0.123 A 
ATOM      9  C   UNL     1       6.709  -4.497   3.801  1.00  0.00     0.094 A 
ATOM     10  C   UNL     1       7.244  -4.806   2.547  1.00  0.00     0.146 A 
ATOM     11  O   UNL     1       7.390  -3.829   1.662  1.00  0.00    -0.452 OA
ENDROOT
BRANCH   1  12
ATOM     12  C   UNL     1       7.990  -2.838  -0.453  1.00  0.00     0.025 A 
ATOM     13  C   UNL     1       9.038  -1.919  -0.298  1.00  0.00     0.016 A 
ATOM     14  C   UNL     1       9.123  -0.800  -1.128  1.00  0.00     0.051 A 
ATOM     15  C   UNL     1       8.160  -0.567  -2.115  1.00  0.00     0.157 A 
ATOM     16  C   UNL     1       7.008  -2.595  -1.429  1.00  0.00     0.062 A 
ATOM     17  C   UNL     1       7.085  -1.473  -2.263  1.00  0.00     0.158 A 
BRANCH  15  18
ATOM     18  O   UNL     1       8.308   0.567  -2.916  1.00  0.00    -0.504 OA
ATOM     19  H   UNL     1       8.588   0.541  -3.886  1.00  0.00     0.293 HD
ENDBRANCH  15  18
BRANCH  17  20
ATOM     20  O   UNL     1       6.075  -1.297  -3.212  1.00  0.00    -0.504 OA
ATOM     21  H   UNL     1       5.857  -0.412  -3.647  1.00  0.00     0.293 HD
ENDBRANCH  17  20
ENDBRANCH   1  12
BRANCH   2  22
ATOM     22  O   UNL     1       9.008  -5.458  -1.158  1.00  0.00    -0.502 OA
ATOM     23  H   UNL     1       8.514  -5.795  -1.975  1.00  0.00     0.293 HD
ENDBRANCH   2  22
BRANCH   6  24
ATOM     24  O   UNL     1       7.626  -8.517   2.979  1.00  0.00    -0.507 OA
ATOM     25  H   UNL     1       7.218  -9.049   2.225  1.00  0.00     0.293 HD
ENDBRANCH   6  24
BRANCH   8  26
ATOM     26  O   UNL     1       6.035  -5.155   6.016  1.00  0.00    -0.508 OA
ATOM     27  H   UNL     1       5.488  -5.815   6.557  1.00  0.00     0.293 HD
ENDBRANCH   8  26
TORSDOF 6
ENDMDL
