MODEL 1
REMARK VINA RESULT:    -5.377      0.000      0.000
REMARK INTER + INTRA:         -11.142
REMARK INTER:                  -9.464
REMARK INTRA:                  -1.678
REMARK UNBOUND:                -1.678
REMARK SMILES CCCCCCCCCCCCCCC(=O)[O-]
REMARK SMILES IDX 9 1 10 2 11 3 12 4 13 5 14 6 15 7 16 8 17 9 8 10 7 11 6 12
REMARK SMILES IDX 5 13 4 14 3 15 2 16 1 17
REMARK H PARENT
REMARK Flexibility Score: inf
ROOT
ATOM      1  C   UNL     1     -10.388 -18.599  29.804  1.00  0.00     0.000 C 
ENDROOT
BRANCH   1   2
ATOM      2  C   UNL     1     -10.552 -18.898  31.299  1.00  0.00     0.000 C 
BRANCH   2   3
ATOM      3  C   UNL     1      -9.812 -17.861  32.154  1.00  0.00     0.000 C 
BRANCH   3   4
ATOM      4  C   UNL     1     -10.555 -16.518  32.154  1.00  0.00     0.000 C 
BRANCH   4   5
ATOM      5  C   UNL     1      -9.629 -15.328  31.857  1.00  0.00     0.006 C 
BRANCH   5   6
ATOM      6  C   UNL     1      -8.528 -15.673  30.845  1.00  0.00     0.053 C 
BRANCH   6   7
ATOM      7  C   UNL     1      -7.179 -15.375  31.419  1.00  0.00     0.041 C 
ATOM      8  O   UNL     1      -6.691 -16.116  32.311  1.00  0.00    -0.550 OA
ATOM      9  O   UNL     1      -6.438 -14.305  30.931  1.00  0.00    -0.550 OA
ENDBRANCH   6   7
ENDBRANCH   5   6
ENDBRANCH   4   5
ENDBRANCH   3   4
ENDBRANCH   2   3
ENDBRANCH   1   2
BRANCH   1  10
ATOM     10  C   UNL     1     -11.748 -18.618  29.088  1.00  0.00     0.000 C 
BRANCH  10  11
ATOM     11  C   UNL     1     -12.696 -17.520  29.595  1.00  0.00    -0.000 C 
BRANCH  11  12
ATOM     12  C   UNL     1     -12.486 -16.179  28.874  1.00  0.00    -0.000 C 
BRANCH  12  13
ATOM     13  C   UNL     1     -12.499 -16.318  27.342  1.00  0.00    -0.000 C 
BRANCH  13  14
ATOM     14  C   UNL     1     -11.295 -15.679  26.619  1.00  0.00    -0.000 C 
BRANCH  14  15
ATOM     15  C   UNL     1      -9.985 -15.658  27.427  1.00  0.00    -0.000 C 
BRANCH  15  16
ATOM     16  C   UNL     1      -8.794 -15.127  26.617  1.00  0.00    -0.003 C 
ATOM     17  C   UNL     1      -9.253 -14.132  25.554  1.00  0.00     0.004 C 
ENDBRANCH  15  16
ENDBRANCH  14  15
ENDBRANCH  13  14
ENDBRANCH  12  13
ENDBRANCH  11  12
ENDBRANCH  10  11
ENDBRANCH   1  10
TORSDOF 13
ENDMDL
MODEL 2
REMARK VINA RESULT:    -5.355      2.153      5.030
REMARK INTER + INTRA:         -11.103
REMARK INTER:                  -9.719
REMARK INTRA:                  -1.384
REMARK UNBOUND:                -1.678
REMARK SMILES CCCCCCCCCCCCCCC(=O)[O-]
REMARK SMILES IDX 9 1 10 2 11 3 12 4 13 5 14 6 15 7 16 8 17 9 8 10 7 11 6 12
REMARK SMILES IDX 5 13 4 14 3 15 2 16 1 17
REMARK H PARENT
REMARK Flexibility Score: inf
ROOT
ATOM      1  C   UNL     1     -12.834 -16.132  29.137  1.00  0.00     0.000 C 
ENDROOT
BRANCH   1   2
ATOM      2  C   UNL     1     -13.596 -16.113  27.806  1.00  0.00     0.000 C 
BRANCH   2   3
ATOM      3  C   UNL     1     -12.668 -15.739  26.644  1.00  0.00     0.000 C 
BRANCH   3   4
ATOM      4  C   UNL     1     -11.214 -16.123  26.956  1.00  0.00     0.000 C 
BRANCH   4   5
ATOM      5  C   UNL     1     -10.197 -15.221  26.240  1.00  0.00     0.006 C 
BRANCH   5   6
ATOM      6  C   UNL     1      -8.842 -15.171  26.959  1.00  0.00     0.053 C 
BRANCH   6   7
ATOM      7  C   UNL     1      -7.897 -14.270  26.228  1.00  0.00     0.041 C 
ATOM      8  O   UNL     1      -8.333 -13.279  25.587  1.00  0.00    -0.550 OA
ATOM      9  O   UNL     1      -6.527 -14.497  26.297  1.00  0.00    -0.550 OA
ENDBRANCH   6   7
ENDBRANCH   5   6
ENDBRANCH   4   5
ENDBRANCH   3   4
ENDBRANCH   2   3
ENDBRANCH   1   2
BRANCH   1  10
ATOM     10  C   UNL     1     -13.444 -17.158  30.105  1.00  0.00     0.000 C 
BRANCH  10  11
ATOM     11  C   UNL     1     -12.658 -18.477  30.136  1.00  0.00    -0.000 C 
BRANCH  11  12
ATOM     12  C   UNL     1     -11.211 -18.315  29.639  1.00  0.00    -0.000 C 
BRANCH  12  13
ATOM     13  C   UNL     1     -10.180 -18.941  30.594  1.00  0.00    -0.000 C 
BRANCH  13  14
ATOM     14  C   UNL     1     -10.023 -18.220  31.948  1.00  0.00    -0.000 C 
BRANCH  14  15
ATOM     15  C   UNL     1      -9.021 -17.051  31.952  1.00  0.00    -0.000 C 
BRANCH  15  16
ATOM     16  C   UNL     1      -9.557 -15.806  31.231  1.00  0.00    -0.003 C 
ATOM     17  C   UNL     1     -10.619 -15.100  32.069  1.00  0.00     0.004 C 
ENDBRANCH  15  16
ENDBRANCH  14  15
ENDBRANCH  13  14
ENDBRANCH  12  13
ENDBRANCH  11  12
ENDBRANCH  10  11
ENDBRANCH   1  10
TORSDOF 13
ENDMDL
MODEL 3
REMARK VINA RESULT:    -5.161      1.303      2.012
REMARK INTER + INTRA:         -10.761
REMARK INTER:                  -9.294
REMARK INTRA:                  -1.468
REMARK UNBOUND:                -1.678
REMARK SMILES CCCCCCCCCCCCCCC(=O)[O-]
REMARK SMILES IDX 9 1 10 2 11 3 12 4 13 5 14 6 15 7 16 8 17 9 8 10 7 11 6 12
REMARK SMILES IDX 5 13 4 14 3 15 2 16 1 17
REMARK H PARENT
REMARK Flexibility Score: inf
ROOT
ATOM      1  C   UNL     1     -12.381 -15.995  30.392  1.00  0.00     0.000 C 
ENDROOT
BRANCH   1   2
ATOM      2  C   UNL     1     -12.495 -17.150  31.396  1.00  0.00     0.000 C 
BRANCH   2   3
ATOM      3  C   UNL     1     -11.275 -17.195  32.325  1.00  0.00     0.000 C 
BRANCH   3   4
ATOM      4  C   UNL     1     -10.047 -17.755  31.593  1.00  0.00     0.000 C 
BRANCH   4   5
ATOM      5  C   UNL     1      -8.780 -16.920  31.837  1.00  0.00     0.006 C 
BRANCH   5   6
ATOM      6  C   UNL     1      -8.718 -15.666  30.955  1.00  0.00     0.053 C 
BRANCH   6   7
ATOM      7  C   UNL     1      -7.356 -15.051  31.017  1.00  0.00     0.041 C 
ATOM      8  O   UNL     1      -6.406 -15.668  31.565  1.00  0.00    -0.550 OA
ATOM      9  O   UNL     1      -7.124 -13.816  30.424  1.00  0.00    -0.550 OA
ENDBRANCH   6   7
ENDBRANCH   5   6
ENDBRANCH   4   5
ENDBRANCH   3   4
ENDBRANCH   2   3
ENDBRANCH   1   2
BRANCH   1  10
ATOM     10  C   UNL     1     -12.905 -16.415  29.010  1.00  0.00     0.000 C 
BRANCH  10  11
ATOM     11  C   UNL     1     -11.938 -17.356  28.274  1.00  0.00    -0.000 C 
BRANCH  11  12
ATOM     12  C   UNL     1     -10.652 -16.644  27.821  1.00  0.00    -0.000 C 
BRANCH  12  13
ATOM     13  C   UNL     1     -10.903 -15.617  26.704  1.00  0.00    -0.000 C 
BRANCH  13  14
ATOM     14  C   UNL     1      -9.642 -14.893  26.189  1.00  0.00    -0.000 C 
BRANCH  14  15
ATOM     15  C   UNL     1      -8.388 -15.065  27.065  1.00  0.00    -0.000 C 
BRANCH  15  16
ATOM     16  C   UNL     1      -7.089 -14.736  26.316  1.00  0.00    -0.003 C 
ATOM     17  C   UNL     1      -5.913 -14.616  27.281  1.00  0.00     0.004 C 
ENDBRANCH  15  16
ENDBRANCH  14  15
ENDBRANCH  13  14
ENDBRANCH  12  13
ENDBRANCH  11  12
ENDBRANCH  10  11
ENDBRANCH   1  10
TORSDOF 13
ENDMDL
MODEL 4
REMARK VINA RESULT:    -5.115      1.659      4.700
REMARK INTER + INTRA:         -10.681
REMARK INTER:                  -9.383
REMARK INTRA:                  -1.298
REMARK UNBOUND:                -1.678
REMARK SMILES CCCCCCCCCCCCCCC(=O)[O-]
REMARK SMILES IDX 9 1 10 2 11 3 12 4 13 5 14 6 15 7 16 8 17 9 8 10 7 11 6 12
REMARK SMILES IDX 5 13 4 14 3 15 2 16 1 17
REMARK H PARENT
REMARK Flexibility Score: inf
ROOT
ATOM      1  C   UNL     1     -12.084 -16.471  27.500  1.00  0.00     0.000 C 
ENDROOT
BRANCH   1   2
ATOM      2  C   UNL     1     -11.195 -15.602  26.601  1.00  0.00     0.000 C 
BRANCH   2   3
ATOM      3  C   UNL     1      -9.736 -15.631  27.075  1.00  0.00     0.000 C 
BRANCH   3   4
ATOM      4  C   UNL     1      -8.860 -14.708  26.216  1.00  0.00     0.000 C 
BRANCH   4   5
ATOM      5  C   UNL     1      -7.372 -14.785  26.592  1.00  0.00     0.006 C 
BRANCH   5   6
ATOM      6  C   UNL     1      -7.122 -14.488  28.077  1.00  0.00     0.053 C 
BRANCH   6   7
ATOM      7  C   UNL     1      -5.660 -14.295  28.331  1.00  0.00     0.041 C 
ATOM      8  O   UNL     1      -5.271 -13.632  29.327  1.00  0.00    -0.550 OA
ATOM      9  O   UNL     1      -4.725 -14.892  27.494  1.00  0.00    -0.550 OA
ENDBRANCH   6   7
ENDBRANCH   5   6
ENDBRANCH   4   5
ENDBRANCH   3   4
ENDBRANCH   2   3
ENDBRANCH   1   2
BRANCH   1  10
ATOM     10  C   UNL     1     -11.408 -16.732  28.854  1.00  0.00     0.000 C 
BRANCH  10  11
ATOM     11  C   UNL     1     -11.508 -18.203  29.288  1.00  0.00    -0.000 C 
BRANCH  11  12
ATOM     12  C   UNL     1     -10.175 -18.754  29.820  1.00  0.00    -0.000 C 
BRANCH  12  13
ATOM     13  C   UNL     1     -10.169 -18.924  31.349  1.00  0.00    -0.000 C 
BRANCH  13  14
ATOM     14  C   UNL     1      -9.939 -17.626  32.148  1.00  0.00    -0.000 C 
BRANCH  14  15
ATOM     15  C   UNL     1      -8.645 -16.866  31.803  1.00  0.00    -0.000 C 
BRANCH  15  16
ATOM     16  C   UNL     1      -8.909 -15.442  31.295  1.00  0.00    -0.003 C 
ATOM     17  C   UNL     1      -7.806 -14.487  31.741  1.00  0.00     0.004 C 
ENDBRANCH  15  16
ENDBRANCH  14  15
ENDBRANCH  13  14
ENDBRANCH  12  13
ENDBRANCH  11  12
ENDBRANCH  10  11
ENDBRANCH   1  10
TORSDOF 13
ENDMDL
MODEL 5
REMARK VINA RESULT:    -5.098      2.733      6.203
REMARK INTER + INTRA:         -10.651
REMARK INTER:                  -9.403
REMARK INTRA:                  -1.248
REMARK UNBOUND:                -1.678
REMARK SMILES CCCCCCCCCCCCCCC(=O)[O-]
REMARK SMILES IDX 9 1 10 2 11 3 12 4 13 5 14 6 15 7 16 8 17 9 8 10 7 11 6 12
REMARK SMILES IDX 5 13 4 14 3 15 2 16 1 17
REMARK H PARENT
REMARK Flexibility Score: inf
ROOT
ATOM      1  C   UNL     1      -8.142 -15.230  26.906  1.00  0.00     0.000 C 
ENDROOT
BRANCH   1   2
ATOM      2  C   UNL     1      -9.246 -14.611  26.040  1.00  0.00     0.000 C 
BRANCH   2   3
ATOM      3  C   UNL     1     -10.604 -15.261  26.330  1.00  0.00     0.000 C 
BRANCH   3   4
ATOM      4  C   UNL     1     -10.583 -16.002  27.675  1.00  0.00     0.000 C 
BRANCH   4   5
ATOM      5  C   UNL     1     -11.741 -17.002  27.818  1.00  0.00     0.006 C 
BRANCH   5   6
ATOM      6  C   UNL     1     -12.874 -16.471  28.707  1.00  0.00     0.053 C 
BRANCH   6   7
ATOM      7  C   UNL     1     -13.044 -17.342  29.912  1.00  0.00     0.041 C 
ATOM      8  O   UNL     1     -13.314 -18.564  29.778  1.00  0.00    -0.550 OA
ATOM      9  O   UNL     1     -12.855 -16.814  31.183  1.00  0.00    -0.550 OA
ENDBRANCH   6   7
ENDBRANCH   5   6
ENDBRANCH   4   5
ENDBRANCH   3   4
ENDBRANCH   2   3
ENDBRANCH   1   2
BRANCH   1  10
ATOM     10  C   UNL     1      -6.783 -14.574  26.616  1.00  0.00     0.000 C 
BRANCH  10  11
ATOM     11  C   UNL     1      -5.953 -14.351  27.890  1.00  0.00    -0.000 C 
BRANCH  11  12
ATOM     12  C   UNL     1      -6.828 -14.181  29.143  1.00  0.00    -0.000 C 
BRANCH  12  13
ATOM     13  C   UNL     1      -6.128 -14.660  30.427  1.00  0.00    -0.000 C 
BRANCH  13  14
ATOM     14  C   UNL     1      -7.023 -15.453  31.400  1.00  0.00    -0.000 C 
BRANCH  14  15
ATOM     15  C   UNL     1      -8.524 -15.120  31.325  1.00  0.00    -0.000 C 
BRANCH  15  16
ATOM     16  C   UNL     1      -9.401 -16.363  31.120  1.00  0.00    -0.003 C 
ATOM     17  C   UNL     1      -8.881 -17.542  31.937  1.00  0.00     0.004 C 
ENDBRANCH  15  16
ENDBRANCH  14  15
ENDBRANCH  13  14
ENDBRANCH  12  13
ENDBRANCH  11  12
ENDBRANCH  10  11
ENDBRANCH   1  10
TORSDOF 13
ENDMDL
MODEL 6
REMARK VINA RESULT:    -5.061      2.237      4.712
REMARK INTER + INTRA:         -10.585
REMARK INTER:                  -9.178
REMARK INTRA:                  -1.407
REMARK UNBOUND:                -1.678
REMARK SMILES CCCCCCCCCCCCCCC(=O)[O-]
REMARK SMILES IDX 9 1 10 2 11 3 12 4 13 5 14 6 15 7 16 8 17 9 8 10 7 11 6 12
REMARK SMILES IDX 5 13 4 14 3 15 2 16 1 17
REMARK H PARENT
REMARK Flexibility Score: inf
ROOT
ATOM      1  C   UNL     1     -12.599 -18.492  30.156  1.00  0.00     0.000 C 
ENDROOT
BRANCH   1   2
ATOM      2  C   UNL     1     -13.503 -17.290  29.855  1.00  0.00     0.000 C 
BRANCH   2   3
ATOM      3  C   UNL     1     -12.941 -16.452  28.700  1.00  0.00     0.000 C 
BRANCH   3   4
ATOM      4  C   UNL     1     -11.665 -17.088  28.129  1.00  0.00     0.000 C 
BRANCH   4   5
ATOM      5  C   UNL     1     -10.541 -16.065  27.907  1.00  0.00     0.006 C 
BRANCH   5   6
ATOM      6  C   UNL     1     -10.643 -15.360  26.547  1.00  0.00     0.053 C 
BRANCH   6   7
ATOM      7  C   UNL     1      -9.315 -14.796  26.152  1.00  0.00     0.041 C 
ATOM      8  O   UNL     1      -8.253 -15.289  26.613  1.00  0.00    -0.550 OA
ATOM      9  O   UNL     1      -9.248 -13.756  25.232  1.00  0.00    -0.550 OA
ENDBRANCH   6   7
ENDBRANCH   5   6
ENDBRANCH   4   5
ENDBRANCH   3   4
ENDBRANCH   2   3
ENDBRANCH   1   2
BRANCH   1  10
ATOM     10  C   UNL     1     -12.272 -18.572  31.655  1.00  0.00     0.000 C 
BRANCH  10  11
ATOM     11  C   UNL     1     -10.962 -17.852  32.011  1.00  0.00    -0.000 C 
BRANCH  11  12
ATOM     12  C   UNL     1     -11.189 -16.397  32.455  1.00  0.00    -0.000 C 
BRANCH  12  13
ATOM     13  C   UNL     1     -10.155 -15.425  31.860  1.00  0.00    -0.000 C 
BRANCH  13  14
ATOM     14  C   UNL     1      -8.807 -16.064  31.472  1.00  0.00    -0.000 C 
BRANCH  14  15
ATOM     15  C   UNL     1      -7.824 -15.126  30.748  1.00  0.00    -0.000 C 
BRANCH  15  16
ATOM     16  C   UNL     1      -7.493 -13.868  31.563  1.00  0.00    -0.003 C 
ATOM     17  C   UNL     1      -6.381 -13.060  30.899  1.00  0.00     0.004 C 
ENDBRANCH  15  16
ENDBRANCH  14  15
ENDBRANCH  13  14
ENDBRANCH  12  13
ENDBRANCH  11  12
ENDBRANCH  10  11
ENDBRANCH   1  10
TORSDOF 13
ENDMDL
MODEL 7
REMARK VINA RESULT:    -5.014      1.420      4.566
REMARK INTER + INTRA:         -10.503
REMARK INTER:                  -9.313
REMARK INTRA:                  -1.189
REMARK UNBOUND:                -1.678
REMARK SMILES CCCCCCCCCCCCCCC(=O)[O-]
REMARK SMILES IDX 9 1 10 2 11 3 12 4 13 5 14 6 15 7 16 8 17 9 8 10 7 11 6 12
REMARK SMILES IDX 5 13 4 14 3 15 2 16 1 17
REMARK H PARENT
REMARK Flexibility Score: inf
ROOT
ATOM      1  C   UNL     1      -9.209 -14.394  25.831  1.00  0.00     0.000 C 
ENDROOT
BRANCH   1   2
ATOM      2  C   UNL     1      -8.286 -14.914  26.941  1.00  0.00     0.000 C 
BRANCH   2   3
ATOM      3  C   UNL     1      -6.814 -14.828  26.521  1.00  0.00     0.000 C 
BRANCH   3   4
ATOM      4  C   UNL     1      -5.921 -14.464  27.716  1.00  0.00     0.000 C 
BRANCH   4   5
ATOM      5  C   UNL     1      -6.728 -14.175  28.991  1.00  0.00     0.006 C 
BRANCH   5   6
ATOM      6  C   UNL     1      -6.020 -14.665  30.262  1.00  0.00     0.053 C 
BRANCH   6   7
ATOM      7  C   UNL     1      -7.024 -15.094  31.285  1.00  0.00     0.041 C 
ATOM      8  O   UNL     1      -8.111 -14.472  31.408  1.00  0.00    -0.550 OA
ATOM      9  O   UNL     1      -6.780 -16.214  32.071  1.00  0.00    -0.550 OA
ENDBRANCH   6   7
ENDBRANCH   5   6
ENDBRANCH   4   5
ENDBRANCH   3   4
ENDBRANCH   2   3
ENDBRANCH   1   2
BRANCH   1  10
ATOM     10  C   UNL     1     -10.639 -14.926  26.011  1.00  0.00     0.000 C 
BRANCH  10  11
ATOM     11  C   UNL     1     -10.723 -16.044  27.062  1.00  0.00    -0.000 C 
BRANCH  11  12
ATOM     12  C   UNL     1     -12.166 -16.318  27.519  1.00  0.00    -0.000 C 
BRANCH  12  13
ATOM     13  C   UNL     1     -12.233 -17.085  28.851  1.00  0.00    -0.000 C 
BRANCH  13  14
ATOM     14  C   UNL     1     -11.542 -18.464  28.844  1.00  0.00    -0.000 C 
BRANCH  14  15
ATOM     15  C   UNL     1     -10.514 -18.684  29.969  1.00  0.00    -0.000 C 
BRANCH  15  16
ATOM     16  C   UNL     1     -10.050 -17.372  30.616  1.00  0.00    -0.003 C 
ATOM     17  C   UNL     1     -10.198 -17.426  32.134  1.00  0.00     0.004 C 
ENDBRANCH  15  16
ENDBRANCH  14  15
ENDBRANCH  13  14
ENDBRANCH  12  13
ENDBRANCH  11  12
ENDBRANCH  10  11
ENDBRANCH   1  10
TORSDOF 13
ENDMDL
MODEL 8
REMARK VINA RESULT:    -5.010      1.618      4.668
REMARK INTER + INTRA:         -10.495
REMARK INTER:                  -9.352
REMARK INTRA:                  -1.143
REMARK UNBOUND:                -1.678
REMARK SMILES CCCCCCCCCCCCCCC(=O)[O-]
REMARK SMILES IDX 9 1 10 2 11 3 12 4 13 5 14 6 15 7 16 8 17 9 8 10 7 11 6 12
REMARK SMILES IDX 5 13 4 14 3 15 2 16 1 17
REMARK H PARENT
REMARK Flexibility Score: inf
ROOT
ATOM      1  C   UNL     1     -10.615 -15.250  26.075  1.00  0.00     0.000 C 
ENDROOT
BRANCH   1   2
ATOM      2  C   UNL     1      -9.259 -14.560  25.883  1.00  0.00     0.000 C 
BRANCH   2   3
ATOM      3  C   UNL     1      -8.233 -15.068  26.904  1.00  0.00     0.000 C 
BRANCH   3   4
ATOM      4  C   UNL     1      -6.846 -14.466  26.634  1.00  0.00     0.000 C 
BRANCH   4   5
ATOM      5  C   UNL     1      -5.963 -14.426  27.891  1.00  0.00     0.006 C 
BRANCH   5   6
ATOM      6  C   UNL     1      -6.781 -14.443  29.189  1.00  0.00     0.053 C 
BRANCH   6   7
ATOM      7  C   UNL     1      -6.304 -13.374  30.121  1.00  0.00     0.041 C 
ATOM      8  O   UNL     1      -6.837 -13.235  31.253  1.00  0.00    -0.550 OA
ATOM      9  O   UNL     1      -5.237 -12.562  29.758  1.00  0.00    -0.550 OA
ENDBRANCH   6   7
ENDBRANCH   5   6
ENDBRANCH   4   5
ENDBRANCH   3   4
ENDBRANCH   2   3
ENDBRANCH   1   2
BRANCH   1  10
ATOM     10  C   UNL     1     -10.709 -15.902  27.463  1.00  0.00     0.000 C 
BRANCH  10  11
ATOM     11  C   UNL     1     -11.921 -16.838  27.594  1.00  0.00    -0.000 C 
BRANCH  11  12
ATOM     12  C   UNL     1     -12.924 -16.360  28.657  1.00  0.00    -0.000 C 
BRANCH  12  13
ATOM     13  C   UNL     1     -12.261 -16.079  30.017  1.00  0.00    -0.000 C 
BRANCH  13  14
ATOM     14  C   UNL     1     -12.592 -17.097  31.126  1.00  0.00    -0.000 C 
BRANCH  14  15
ATOM     15  C   UNL     1     -11.395 -17.532  31.991  1.00  0.00    -0.000 C 
BRANCH  15  16
ATOM     16  C   UNL     1     -10.094 -17.660  31.186  1.00  0.00    -0.003 C 
ATOM     17  C   UNL     1     -10.079 -18.948  30.368  1.00  0.00     0.004 C 
ENDBRANCH  15  16
ENDBRANCH  14  15
ENDBRANCH  13  14
ENDBRANCH  12  13
ENDBRANCH  11  12
ENDBRANCH  10  11
ENDBRANCH   1  10
TORSDOF 13
ENDMDL
MODEL 9
REMARK VINA RESULT:    -4.991      2.019      5.086
REMARK INTER + INTRA:         -10.463
REMARK INTER:                  -9.365
REMARK INTRA:                  -1.098
REMARK UNBOUND:                -1.678
REMARK SMILES CCCCCCCCCCCCCCC(=O)[O-]
REMARK SMILES IDX 9 1 10 2 11 3 12 4 13 5 14 6 15 7 16 8 17 9 8 10 7 11 6 12
REMARK SMILES IDX 5 13 4 14 3 15 2 16 1 17
REMARK H PARENT
REMARK Flexibility Score: inf
ROOT
ATOM      1  C   UNL     1     -10.073 -15.631  26.981  1.00  0.00     0.000 C 
ENDROOT
BRANCH   1   2
ATOM      2  C   UNL     1     -11.578 -15.920  26.920  1.00  0.00     0.000 C 
BRANCH   2   3
ATOM      3  C   UNL     1     -11.983 -16.964  27.969  1.00  0.00     0.000 C 
BRANCH   3   4
ATOM      4  C   UNL     1     -12.802 -16.320  29.097  1.00  0.00     0.000 C 
BRANCH   4   5
ATOM      5  C   UNL     1     -12.332 -16.756  30.494  1.00  0.00     0.006 C 
BRANCH   5   6
ATOM      6  C   UNL     1     -10.816 -16.607  30.680  1.00  0.00     0.053 C 
BRANCH   6   7
ATOM      7  C   UNL     1     -10.210 -17.912  31.092  1.00  0.00     0.041 C 
ATOM      8  O   UNL     1      -9.773 -18.067  32.261  1.00  0.00    -0.550 OA
ATOM      9  O   UNL     1     -10.174 -18.974  30.197  1.00  0.00    -0.550 OA
ENDBRANCH   6   7
ENDBRANCH   5   6
ENDBRANCH   4   5
ENDBRANCH   3   4
ENDBRANCH   2   3
ENDBRANCH   1   2
BRANCH   1  10
ATOM     10  C   UNL     1      -9.639 -14.729  25.816  1.00  0.00     0.000 C 
BRANCH  10  11
ATOM     11  C   UNL     1      -8.343 -13.961  26.117  1.00  0.00    -0.000 C 
BRANCH  11  12
ATOM     12  C   UNL     1      -7.141 -14.894  26.338  1.00  0.00    -0.000 C 
BRANCH  12  13
ATOM     13  C   UNL     1      -6.323 -14.525  27.588  1.00  0.00    -0.000 C 
BRANCH  13  14
ATOM     14  C   UNL     1      -7.121 -14.504  28.907  1.00  0.00    -0.000 C 
BRANCH  14  15
ATOM     15  C   UNL     1      -6.304 -14.137  30.159  1.00  0.00    -0.000 C 
BRANCH  15  16
ATOM     16  C   UNL     1      -7.118 -14.251  31.455  1.00  0.00    -0.003 C 
ATOM     17  C   UNL     1      -7.207 -15.701  31.922  1.00  0.00     0.004 C 
ENDBRANCH  15  16
ENDBRANCH  14  15
ENDBRANCH  13  14
ENDBRANCH  12  13
ENDBRANCH  11  12
ENDBRANCH  10  11
ENDBRANCH   1  10
TORSDOF 13
ENDMDL
