MODEL 1
REMARK VINA RESULT:    -4.755      0.000      0.000
REMARK INTER + INTRA:          -7.828
REMARK INTER:                  -7.258
REMARK INTRA:                  -0.570
REMARK UNBOUND:                -0.570
REMARK SMILES CCCCCCCCCCC(=O)[O-]
REMARK SMILES IDX 7 1 8 2 9 3 10 4 11 5 12 6 13 7 6 8 5 9 4 10 3 11 2 12 1 13
REMARK H PARENT
REMARK Flexibility Score: inf
ROOT
ATOM      1  C   UNL     1      18.038 -43.912 -24.985  1.00  0.00     0.000 C 
ENDROOT
BRANCH   1   2
ATOM      2  C   UNL     1      18.348 -42.905 -23.859  1.00  0.00     0.000 C 
BRANCH   2   3
ATOM      3  C   UNL     1      17.587 -41.573 -23.953  1.00  0.00     0.006 C 
BRANCH   3   4
ATOM      4  C   UNL     1      17.108 -41.061 -22.589  1.00  0.00     0.053 C 
BRANCH   4   5
ATOM      5  C   UNL     1      15.725 -41.557 -22.307  1.00  0.00     0.041 C 
ATOM      6  O   UNL     1      15.284 -41.571 -21.128  1.00  0.00    -0.550 OA
ATOM      7  O   UNL     1      14.941 -42.053 -23.341  1.00  0.00    -0.550 OA
ENDBRANCH   4   5
ENDBRANCH   3   4
ENDBRANCH   2   3
ENDBRANCH   1   2
BRANCH   1   8
ATOM      8  C   UNL     1      17.603 -45.305 -24.477  1.00  0.00     0.000 C 
BRANCH   8   9
ATOM      9  C   UNL     1      16.530 -45.218 -23.377  1.00  0.00    -0.000 C 
BRANCH   9  10
ATOM     10  C   UNL     1      16.905 -46.009 -22.110  1.00  0.00    -0.000 C 
BRANCH  10  11
ATOM     11  C   UNL     1      16.531 -47.505 -22.139  1.00  0.00    -0.000 C 
BRANCH  11  12
ATOM     12  C   UNL     1      15.231 -47.866 -21.399  1.00  0.00    -0.003 C 
ATOM     13  C   UNL     1      15.215 -49.305 -20.887  1.00  0.00     0.004 C 
ENDBRANCH  11  12
ENDBRANCH  10  11
ENDBRANCH   9  10
ENDBRANCH   8   9
ENDBRANCH   1   8
TORSDOF 9
ENDMDL
MODEL 2
REMARK VINA RESULT:    -4.633      1.772      2.504
REMARK INTER + INTRA:          -7.640
REMARK INTER:                  -6.298
REMARK INTRA:                  -1.342
REMARK UNBOUND:                -0.570
REMARK SMILES CCCCCCCCCCC(=O)[O-]
REMARK SMILES IDX 7 1 8 2 9 3 10 4 11 5 12 6 13 7 6 8 5 9 4 10 3 11 2 12 1 13
REMARK H PARENT
REMARK Flexibility Score: inf
ROOT
ATOM      1  C   UNL     1      19.416 -43.385 -25.019  1.00  0.00     0.000 C 
ENDROOT
BRANCH   1   2
ATOM      2  C   UNL     1      19.143 -41.998 -24.404  1.00  0.00     0.000 C 
BRANCH   2   3
ATOM      3  C   UNL     1      17.657 -41.651 -24.219  1.00  0.00     0.006 C 
BRANCH   3   4
ATOM      4  C   UNL     1      17.320 -41.206 -22.791  1.00  0.00     0.053 C 
BRANCH   4   5
ATOM      5  C   UNL     1      15.936 -41.643 -22.426  1.00  0.00     0.041 C 
ATOM      6  O   UNL     1      15.588 -41.704 -21.218  1.00  0.00    -0.550 OA
ATOM      7  O   UNL     1      15.046 -42.031 -23.419  1.00  0.00    -0.550 OA
ENDBRANCH   4   5
ENDBRANCH   3   4
ENDBRANCH   2   3
ENDBRANCH   1   2
BRANCH   1   8
ATOM      8  C   UNL     1      18.139 -44.145 -25.443  1.00  0.00     0.000 C 
BRANCH   8   9
ATOM      9  C   UNL     1      17.908 -45.414 -24.605  1.00  0.00    -0.000 C 
BRANCH   9  10
ATOM     10  C   UNL     1      16.877 -45.210 -23.480  1.00  0.00    -0.000 C 
BRANCH  10  11
ATOM     11  C   UNL     1      17.416 -45.423 -22.051  1.00  0.00    -0.000 C 
BRANCH  11  12
ATOM     12  C   UNL     1      18.496 -44.421 -21.605  1.00  0.00    -0.003 C 
ATOM     13  C   UNL     1      19.904 -45.013 -21.622  1.00  0.00     0.004 C 
ENDBRANCH  11  12
ENDBRANCH  10  11
ENDBRANCH   9  10
ENDBRANCH   8   9
ENDBRANCH   1   8
TORSDOF 9
ENDMDL
MODEL 3
REMARK VINA RESULT:    -4.626      2.623      5.105
REMARK INTER + INTRA:          -7.630
REMARK INTER:                  -6.423
REMARK INTRA:                  -1.207
REMARK UNBOUND:                -0.570
REMARK SMILES CCCCCCCCCCC(=O)[O-]
REMARK SMILES IDX 7 1 8 2 9 3 10 4 11 5 12 6 13 7 6 8 5 9 4 10 3 11 2 12 1 13
REMARK H PARENT
REMARK Flexibility Score: inf
ROOT
ATOM      1  C   UNL     1      18.155 -43.930 -25.200  1.00  0.00     0.000 C 
ENDROOT
BRANCH   1   2
ATOM      2  C   UNL     1      18.108 -45.248 -24.402  1.00  0.00     0.000 C 
BRANCH   2   3
ATOM      3  C   UNL     1      18.462 -45.118 -22.912  1.00  0.00     0.006 C 
BRANCH   3   4
ATOM      4  C   UNL     1      17.299 -45.495 -21.986  1.00  0.00     0.053 C 
BRANCH   4   5
ATOM      5  C   UNL     1      17.089 -46.976 -21.996  1.00  0.00     0.041 C 
ATOM      6  O   UNL     1      15.924 -47.451 -21.992  1.00  0.00    -0.550 OA
ATOM      7  O   UNL     1      18.182 -47.832 -21.958  1.00  0.00    -0.550 OA
ENDBRANCH   4   5
ENDBRANCH   3   4
ENDBRANCH   2   3
ENDBRANCH   1   2
BRANCH   1   8
ATOM      8  C   UNL     1      19.426 -43.089 -24.948  1.00  0.00     0.000 C 
BRANCH   8   9
ATOM      9  C   UNL     1      19.099 -41.640 -24.544  1.00  0.00    -0.000 C 
BRANCH   9  10
ATOM     10  C   UNL     1      17.638 -41.460 -24.091  1.00  0.00    -0.000 C 
BRANCH  10  11
ATOM     11  C   UNL     1      17.439 -41.324 -22.568  1.00  0.00    -0.000 C 
BRANCH  11  12
ATOM     12  C   UNL     1      16.087 -41.835 -22.039  1.00  0.00    -0.003 C 
ATOM     13  C   UNL     1      15.139 -42.279 -23.151  1.00  0.00     0.004 C 
ENDBRANCH  11  12
ENDBRANCH  10  11
ENDBRANCH   9  10
ENDBRANCH   8   9
ENDBRANCH   1   8
TORSDOF 9
ENDMDL
MODEL 4
REMARK VINA RESULT:    -4.590      2.810      5.402
REMARK INTER + INTRA:          -7.575
REMARK INTER:                  -6.276
REMARK INTRA:                  -1.299
REMARK UNBOUND:                -0.570
REMARK SMILES CCCCCCCCCCC(=O)[O-]
REMARK SMILES IDX 7 1 8 2 9 3 10 4 11 5 12 6 13 7 6 8 5 9 4 10 3 11 2 12 1 13
REMARK H PARENT
REMARK Flexibility Score: inf
ROOT
ATOM      1  C   UNL     1      16.089 -43.149 -22.751  1.00  0.00     0.000 C 
ENDROOT
BRANCH   1   2
ATOM      2  C   UNL     1      17.200 -43.429 -21.720  1.00  0.00     0.000 C 
BRANCH   2   3
ATOM      3  C   UNL     1      17.804 -44.841 -21.783  1.00  0.00     0.006 C 
BRANCH   3   4
ATOM      4  C   UNL     1      16.989 -45.802 -22.657  1.00  0.00     0.053 C 
BRANCH   4   5
ATOM      5  C   UNL     1      16.933 -47.157 -22.024  1.00  0.00     0.041 C 
ATOM      6  O   UNL     1      15.846 -47.604 -21.577  1.00  0.00    -0.550 OA
ATOM      7  O   UNL     1      18.095 -47.905 -21.884  1.00  0.00    -0.550 OA
ENDBRANCH   4   5
ENDBRANCH   3   4
ENDBRANCH   2   3
ENDBRANCH   1   2
BRANCH   1   8
ATOM      8  C   UNL     1      16.257 -41.810 -23.505  1.00  0.00     0.000 C 
BRANCH   8   9
ATOM      9  C   UNL     1      17.678 -41.235 -23.367  1.00  0.00    -0.000 C 
BRANCH   9  10
ATOM     10  C   UNL     1      18.578 -41.568 -24.570  1.00  0.00    -0.000 C 
BRANCH  10  11
ATOM     11  C   UNL     1      19.801 -42.450 -24.247  1.00  0.00    -0.000 C 
BRANCH  11  12
ATOM     12  C   UNL     1      19.772 -43.857 -24.868  1.00  0.00    -0.003 C 
ATOM     13  C   UNL     1      18.479 -44.151 -25.626  1.00  0.00     0.004 C 
ENDBRANCH  11  12
ENDBRANCH  10  11
ENDBRANCH   9  10
ENDBRANCH   8   9
ENDBRANCH   1   8
TORSDOF 9
ENDMDL
MODEL 5
REMARK VINA RESULT:    -4.559      9.634     11.046
REMARK INTER + INTRA:          -7.528
REMARK INTER:                  -7.239
REMARK INTRA:                  -0.290
REMARK UNBOUND:                -0.570
REMARK SMILES CCCCCCCCCCC(=O)[O-]
REMARK SMILES IDX 7 1 8 2 9 3 10 4 11 5 12 6 13 7 6 8 5 9 4 10 3 11 2 12 1 13
REMARK H PARENT
REMARK Flexibility Score: inf
ROOT
ATOM      1  C   UNL     1      19.820 -48.447 -32.787  1.00  0.00     0.000 C 
ENDROOT
BRANCH   1   2
ATOM      2  C   UNL     1      19.028 -48.597 -31.473  1.00  0.00     0.000 C 
BRANCH   2   3
ATOM      3  C   UNL     1      18.487 -47.283 -30.887  1.00  0.00     0.006 C 
BRANCH   3   4
ATOM      4  C   UNL     1      17.721 -47.484 -29.574  1.00  0.00     0.053 C 
BRANCH   4   5
ATOM      5  C   UNL     1      17.684 -46.207 -28.796  1.00  0.00     0.041 C 
ATOM      6  O   UNL     1      17.955 -46.204 -27.567  1.00  0.00    -0.550 OA
ATOM      7  O   UNL     1      17.300 -45.026 -29.418  1.00  0.00    -0.550 OA
ENDBRANCH   4   5
ENDBRANCH   3   4
ENDBRANCH   2   3
ENDBRANCH   1   2
BRANCH   1   8
ATOM      8  C   UNL     1      20.467 -49.760 -33.283  1.00  0.00     0.000 C 
BRANCH   8   9
ATOM      9  C   UNL     1      19.909 -50.997 -32.557  1.00  0.00    -0.000 C 
BRANCH   9  10
ATOM     10  C   UNL     1      20.484 -52.319 -33.098  1.00  0.00    -0.000 C 
BRANCH  10  11
ATOM     11  C   UNL     1      19.500 -53.505 -33.106  1.00  0.00    -0.000 C 
BRANCH  11  12
ATOM     12  C   UNL     1      19.957 -54.727 -33.923  1.00  0.00    -0.003 C 
ATOM     13  C   UNL     1      21.374 -54.581 -34.474  1.00  0.00     0.004 C 
ENDBRANCH  11  12
ENDBRANCH  10  11
ENDBRANCH   9  10
ENDBRANCH   8   9
ENDBRANCH   1   8
TORSDOF 9
ENDMDL
MODEL 6
REMARK VINA RESULT:    -4.558     10.712     12.764
REMARK INTER + INTRA:          -7.526
REMARK INTER:                  -7.131
REMARK INTRA:                  -0.395
REMARK UNBOUND:                -0.570
REMARK SMILES CCCCCCCCCCC(=O)[O-]
REMARK SMILES IDX 7 1 8 2 9 3 10 4 11 5 12 6 13 7 6 8 5 9 4 10 3 11 2 12 1 13
REMARK H PARENT
REMARK Flexibility Score: inf
ROOT
ATOM      1  C   UNL     1      20.235 -49.545 -31.937  1.00  0.00     0.000 C 
ENDROOT
BRANCH   1   2
ATOM      2  C   UNL     1      20.166 -50.685 -32.973  1.00  0.00     0.000 C 
BRANCH   2   3
ATOM      3  C   UNL     1      20.691 -52.043 -32.480  1.00  0.00     0.006 C 
BRANCH   3   4
ATOM      4  C   UNL     1      21.356 -52.866 -33.590  1.00  0.00     0.053 C 
BRANCH   4   5
ATOM      5  C   UNL     1      20.536 -54.080 -33.895  1.00  0.00     0.041 C 
ATOM      6  O   UNL     1      19.453 -54.283 -33.288  1.00  0.00    -0.550 OA
ATOM      7  O   UNL     1      20.995 -55.013 -34.816  1.00  0.00    -0.550 OA
ENDBRANCH   4   5
ENDBRANCH   3   4
ENDBRANCH   2   3
ENDBRANCH   1   2
BRANCH   1   8
ATOM      8  C   UNL     1      19.839 -48.161 -32.501  1.00  0.00     0.000 C 
BRANCH   8   9
ATOM      9  C   UNL     1      18.931 -47.376 -31.538  1.00  0.00    -0.000 C 
BRANCH   9  10
ATOM     10  C   UNL     1      18.077 -48.290 -30.641  1.00  0.00    -0.000 C 
BRANCH  10  11
ATOM     11  C   UNL     1      17.218 -47.558 -29.590  1.00  0.00    -0.000 C 
BRANCH  11  12
ATOM     12  C   UNL     1      17.368 -46.026 -29.579  1.00  0.00    -0.003 C 
ATOM     13  C   UNL     1      17.578 -45.457 -28.177  1.00  0.00     0.004 C 
ENDBRANCH  11  12
ENDBRANCH  10  11
ENDBRANCH   9  10
ENDBRANCH   8   9
ENDBRANCH   1   8
TORSDOF 9
ENDMDL
MODEL 7
REMARK VINA RESULT:    -4.555      2.690      5.075
REMARK INTER + INTRA:          -7.522
REMARK INTER:                  -6.183
REMARK INTRA:                  -1.339
REMARK UNBOUND:                -0.570
REMARK SMILES CCCCCCCCCCC(=O)[O-]
REMARK SMILES IDX 7 1 8 2 9 3 10 4 11 5 12 6 13 7 6 8 5 9 4 10 3 11 2 12 1 13
REMARK H PARENT
REMARK Flexibility Score: inf
ROOT
ATOM      1  C   UNL     1      18.838 -44.647 -24.080  1.00  0.00     0.000 C 
ENDROOT
BRANCH   1   2
ATOM      2  C   UNL     1      19.017 -44.404 -22.568  1.00  0.00     0.000 C 
BRANCH   2   3
ATOM      3  C   UNL     1      17.902 -44.981 -21.681  1.00  0.00     0.006 C 
BRANCH   3   4
ATOM      4  C   UNL     1      16.836 -45.741 -22.479  1.00  0.00     0.053 C 
BRANCH   4   5
ATOM      5  C   UNL     1      16.783 -47.170 -22.042  1.00  0.00     0.041 C 
ATOM      6  O   UNL     1      17.842 -47.842 -21.939  1.00  0.00    -0.550 OA
ATOM      7  O   UNL     1      15.557 -47.777 -21.797  1.00  0.00    -0.550 OA
ENDBRANCH   4   5
ENDBRANCH   3   4
ENDBRANCH   2   3
ENDBRANCH   1   2
BRANCH   1   8
ATOM      8  C   UNL     1      18.412 -43.390 -24.871  1.00  0.00     0.000 C 
BRANCH   8   9
ATOM      9  C   UNL     1      18.784 -42.086 -24.143  1.00  0.00    -0.000 C 
BRANCH   9  10
ATOM     10  C   UNL     1      17.555 -41.238 -23.768  1.00  0.00    -0.000 C 
BRANCH  10  11
ATOM     11  C   UNL     1      16.221 -42.009 -23.711  1.00  0.00    -0.000 C 
BRANCH  11  12
ATOM     12  C   UNL     1      15.569 -42.084 -22.319  1.00  0.00    -0.003 C 
ATOM     13  C   UNL     1      16.470 -41.549 -21.207  1.00  0.00     0.004 C 
ENDBRANCH  11  12
ENDBRANCH  10  11
ENDBRANCH   9  10
ENDBRANCH   8   9
ENDBRANCH   1   8
TORSDOF 9
ENDMDL
MODEL 8
REMARK VINA RESULT:    -4.487      1.881      2.780
REMARK INTER + INTRA:          -7.419
REMARK INTER:                  -6.055
REMARK INTRA:                  -1.364
REMARK UNBOUND:                -0.570
REMARK SMILES CCCCCCCCCCC(=O)[O-]
REMARK SMILES IDX 7 1 8 2 9 3 10 4 11 5 12 6 13 7 6 8 5 9 4 10 3 11 2 12 1 13
REMARK H PARENT
REMARK Flexibility Score: inf
ROOT
ATOM      1  C   UNL     1      19.711 -42.752 -24.198  1.00  0.00     0.000 C 
ENDROOT
BRANCH   1   2
ATOM      2  C   UNL     1      18.705 -41.641 -24.559  1.00  0.00     0.000 C 
BRANCH   2   3
ATOM      3  C   UNL     1      17.249 -41.929 -24.161  1.00  0.00     0.006 C 
BRANCH   3   4
ATOM      4  C   UNL     1      16.789 -41.116 -22.945  1.00  0.00     0.053 C 
BRANCH   4   5
ATOM      5  C   UNL     1      15.515 -41.678 -22.398  1.00  0.00     0.041 C 
ATOM      6  O   UNL     1      15.266 -41.606 -21.167  1.00  0.00    -0.550 OA
ATOM      7  O   UNL     1      14.623 -42.326 -23.244  1.00  0.00    -0.550 OA
ENDBRANCH   4   5
ENDBRANCH   3   4
ENDBRANCH   2   3
ENDBRANCH   1   2
BRANCH   1   8
ATOM      8  C   UNL     1      20.497 -42.486 -22.894  1.00  0.00     0.000 C 
BRANCH   8   9
ATOM      9  C   UNL     1      19.995 -43.348 -21.722  1.00  0.00    -0.000 C 
BRANCH   9  10
ATOM     10  C   UNL     1      19.192 -44.578 -22.185  1.00  0.00    -0.000 C 
BRANCH  10  11
ATOM     11  C   UNL     1      17.737 -44.637 -21.676  1.00  0.00    -0.000 C 
BRANCH  11  12
ATOM     12  C   UNL     1      16.733 -45.288 -22.644  1.00  0.00    -0.003 C 
ATOM     13  C   UNL     1      17.336 -45.595 -24.013  1.00  0.00     0.004 C 
ENDBRANCH  11  12
ENDBRANCH  10  11
ENDBRANCH   9  10
ENDBRANCH   8   9
ENDBRANCH   1   8
TORSDOF 9
ENDMDL
MODEL 9
REMARK VINA RESULT:    -4.438      2.338      3.638
REMARK INTER + INTRA:          -7.344
REMARK INTER:                  -6.252
REMARK INTRA:                  -1.092
REMARK UNBOUND:                -0.570
REMARK SMILES CCCCCCCCCCC(=O)[O-]
REMARK SMILES IDX 7 1 8 2 9 3 10 4 11 5 12 6 13 7 6 8 5 9 4 10 3 11 2 12 1 13
REMARK H PARENT
REMARK Flexibility Score: inf
ROOT
ATOM      1  C   UNL     1      17.180 -41.668 -23.678  1.00  0.00     0.000 C 
ENDROOT
BRANCH   1   2
ATOM      2  C   UNL     1      16.875 -40.876 -22.391  1.00  0.00     0.000 C 
BRANCH   2   3
ATOM      3  C   UNL     1      16.013 -41.621 -21.359  1.00  0.00     0.006 C 
BRANCH   3   4
ATOM      4  C   UNL     1      16.803 -42.051 -20.117  1.00  0.00     0.053 C 
BRANCH   4   5
ATOM      5  C   UNL     1      16.019 -41.758 -18.878  1.00  0.00     0.041 C 
ATOM      6  O   UNL     1      14.775 -41.577 -18.941  1.00  0.00    -0.550 OA
ATOM      7  O   UNL     1      16.671 -41.633 -17.657  1.00  0.00    -0.550 OA
ENDBRANCH   4   5
ENDBRANCH   3   4
ENDBRANCH   2   3
ENDBRANCH   1   2
BRANCH   1   8
ATOM      8  C   UNL     1      18.657 -41.588 -24.127  1.00  0.00     0.000 C 
BRANCH   8   9
ATOM      9  C   UNL     1      19.552 -42.589 -23.376  1.00  0.00    -0.000 C 
BRANCH   9  10
ATOM     10  C   UNL     1      19.000 -44.026 -23.407  1.00  0.00    -0.000 C 
BRANCH  10  11
ATOM     11  C   UNL     1      18.469 -44.551 -22.057  1.00  0.00    -0.000 C 
BRANCH  11  12
ATOM     12  C   UNL     1      17.306 -45.552 -22.159  1.00  0.00    -0.003 C 
ATOM     13  C   UNL     1      16.137 -45.029 -22.992  1.00  0.00     0.004 C 
ENDBRANCH  11  12
ENDBRANCH  10  11
ENDBRANCH   9  10
ENDBRANCH   8   9
ENDBRANCH   1   8
TORSDOF 9
ENDMDL
