MODEL 1
REMARK VINA RESULT:    -4.951      0.000      0.000
REMARK INTER + INTRA:         -11.033
REMARK INTER:                  -9.004
REMARK INTRA:                  -2.029
REMARK UNBOUND:                -2.029
REMARK SMILES CCCCCCCCCCCCCCCC(=O)[O-]
REMARK SMILES IDX 9 1 10 2 11 3 12 4 13 5 14 6 15 7 16 8 17 9 18 10 8 11 7 12
REMARK SMILES IDX 6 13 5 14 4 15 3 16 2 17 1 18
REMARK H PARENT
REMARK Flexibility Score: inf
ROOT
ATOM      1  C   UNL     1      77.110  12.270  20.243  1.00  0.00     0.000 C 
ENDROOT
BRANCH   1   2
ATOM      2  C   UNL     1      76.668  10.969  19.551  1.00  0.00     0.000 C 
BRANCH   2   3
ATOM      3  C   UNL     1      75.321  11.117  18.822  1.00  0.00     0.000 C 
BRANCH   3   4
ATOM      4  C   UNL     1      74.439  12.220  19.431  1.00  0.00     0.000 C 
BRANCH   4   5
ATOM      5  C   UNL     1      73.782  13.110  18.365  1.00  0.00     0.000 C 
BRANCH   5   6
ATOM      6  C   UNL     1      74.771  13.441  17.241  1.00  0.00     0.006 C 
BRANCH   6   7
ATOM      7  C   UNL     1      75.159  14.922  17.269  1.00  0.00     0.053 C 
BRANCH   7   8
ATOM      8  C   UNL     1      75.519  15.395  15.896  1.00  0.00     0.041 C 
ATOM      9  O   UNL     1      74.812  16.264  15.320  1.00  0.00    -0.550 OA
ATOM     10  O   UNL     1      76.606  14.842  15.232  1.00  0.00    -0.550 OA
ENDBRANCH   7   8
ENDBRANCH   6   7
ENDBRANCH   5   6
ENDBRANCH   4   5
ENDBRANCH   3   4
ENDBRANCH   2   3
ENDBRANCH   1   2
BRANCH   1  11
ATOM     11  C   UNL     1      78.476  12.769  19.750  1.00  0.00     0.000 C 
BRANCH  11  12
ATOM     12  C   UNL     1      78.400  13.217  18.284  1.00  0.00    -0.000 C 
BRANCH  12  13
ATOM     13  C   UNL     1      78.837  14.682  18.134  1.00  0.00    -0.000 C 
BRANCH  13  14
ATOM     14  C   UNL     1      78.696  15.480  19.440  1.00  0.00    -0.000 C 
BRANCH  14  15
ATOM     15  C   UNL     1      79.968  16.274  19.786  1.00  0.00    -0.000 C 
BRANCH  15  16
ATOM     16  C   UNL     1      81.247  15.432  19.637  1.00  0.00    -0.000 C 
BRANCH  16  17
ATOM     17  C   UNL     1      81.529  14.559  20.868  1.00  0.00    -0.003 C 
ATOM     18  C   UNL     1      82.242  13.269  20.474  1.00  0.00     0.004 C 
ENDBRANCH  16  17
ENDBRANCH  15  16
ENDBRANCH  14  15
ENDBRANCH  13  14
ENDBRANCH  12  13
ENDBRANCH  11  12
ENDBRANCH   1  11
TORSDOF 14
ENDMDL
MODEL 2
REMARK VINA RESULT:    -4.895      2.649      5.787
REMARK INTER + INTRA:         -10.932
REMARK INTER:                  -9.097
REMARK INTRA:                  -1.835
REMARK UNBOUND:                -2.029
REMARK SMILES CCCCCCCCCCCCCCCC(=O)[O-]
REMARK SMILES IDX 9 1 10 2 11 3 12 4 13 5 14 6 15 7 16 8 17 9 18 10 8 11 7 12
REMARK SMILES IDX 6 13 5 14 4 15 3 16 2 17 1 18
REMARK H PARENT
REMARK Flexibility Score: inf
ROOT
ATOM      1  C   UNL     1      76.459  11.717  20.423  1.00  0.00     0.000 C 
ENDROOT
BRANCH   1   2
ATOM      2  C   UNL     1      77.720  12.508  20.036  1.00  0.00     0.000 C 
BRANCH   2   3
ATOM      3  C   UNL     1      78.025  12.431  18.530  1.00  0.00     0.000 C 
BRANCH   3   4
ATOM      4  C   UNL     1      78.313  13.811  17.915  1.00  0.00     0.000 C 
BRANCH   4   5
ATOM      5  C   UNL     1      78.109  14.961  18.913  1.00  0.00     0.000 C 
BRANCH   5   6
ATOM      6  C   UNL     1      79.100  16.100  18.648  1.00  0.00     0.006 C 
BRANCH   6   7
ATOM      7  C   UNL     1      79.963  16.376  19.883  1.00  0.00     0.053 C 
BRANCH   7   8
ATOM      8  C   UNL     1      80.891  15.231  20.141  1.00  0.00     0.041 C 
ATOM      9  O   UNL     1      80.769  14.540  21.186  1.00  0.00    -0.550 OA
ATOM     10  O   UNL     1      81.923  14.959  19.253  1.00  0.00    -0.550 OA
ENDBRANCH   7   8
ENDBRANCH   6   7
ENDBRANCH   5   6
ENDBRANCH   4   5
ENDBRANCH   3   4
ENDBRANCH   2   3
ENDBRANCH   1   2
BRANCH   1  11
ATOM     11  C   UNL     1      75.472  11.566  19.256  1.00  0.00     0.000 C 
BRANCH  11  12
ATOM     12  C   UNL     1      74.080  12.084  19.643  1.00  0.00    -0.000 C 
BRANCH  12  13
ATOM     13  C   UNL     1      73.604  13.164  18.661  1.00  0.00    -0.000 C 
BRANCH  13  14
ATOM     14  C   UNL     1      74.599  13.405  17.514  1.00  0.00    -0.000 C 
BRANCH  14  15
ATOM     15  C   UNL     1      74.945  14.894  17.337  1.00  0.00    -0.000 C 
BRANCH  15  16
ATOM     16  C   UNL     1      74.722  15.383  15.895  1.00  0.00    -0.000 C 
BRANCH  16  17
ATOM     17  C   UNL     1      76.005  15.918  15.245  1.00  0.00    -0.003 C 
ATOM     18  C   UNL     1      76.071  17.440  15.330  1.00  0.00     0.004 C 
ENDBRANCH  16  17
ENDBRANCH  15  16
ENDBRANCH  14  15
ENDBRANCH  13  14
ENDBRANCH  12  13
ENDBRANCH  11  12
ENDBRANCH   1  11
TORSDOF 14
ENDMDL
MODEL 3
REMARK VINA RESULT:    -4.840      1.541      3.181
REMARK INTER + INTRA:         -10.831
REMARK INTER:                  -9.688
REMARK INTRA:                  -1.143
REMARK UNBOUND:                -2.029
REMARK SMILES CCCCCCCCCCCCCCCC(=O)[O-]
REMARK SMILES IDX 9 1 10 2 11 3 12 4 13 5 14 6 15 7 16 8 17 9 18 10 8 11 7 12
REMARK SMILES IDX 6 13 5 14 4 15 3 16 2 17 1 18
REMARK H PARENT
REMARK Flexibility Score: inf
ROOT
ATOM      1  C   UNL     1      74.060  12.388  19.372  1.00  0.00     0.000 C 
ENDROOT
BRANCH   1   2
ATOM      2  C   UNL     1      73.800  13.277  18.144  1.00  0.00     0.000 C 
BRANCH   2   3
ATOM      3  C   UNL     1      75.047  13.435  17.256  1.00  0.00     0.000 C 
BRANCH   3   4
ATOM      4  C   UNL     1      75.834  14.719  17.568  1.00  0.00     0.000 C 
BRANCH   4   5
ATOM      5  C   UNL     1      75.109  15.989  17.099  1.00  0.00     0.000 C 
BRANCH   5   6
ATOM      6  C   UNL     1      75.155  16.115  15.572  1.00  0.00     0.006 C 
BRANCH   6   7
ATOM      7  C   UNL     1      75.361  17.571  15.146  1.00  0.00     0.053 C 
BRANCH   7   8
ATOM      8  C   UNL     1      76.809  17.843  14.888  1.00  0.00     0.041 C 
ATOM      9  O   UNL     1      77.184  18.992  14.533  1.00  0.00    -0.550 OA
ATOM     10  O   UNL     1      77.738  16.817  14.991  1.00  0.00    -0.550 OA
ENDBRANCH   7   8
ENDBRANCH   6   7
ENDBRANCH   5   6
ENDBRANCH   4   5
ENDBRANCH   3   4
ENDBRANCH   2   3
ENDBRANCH   1   2
BRANCH   1  11
ATOM     11  C   UNL     1      75.320  11.522  19.222  1.00  0.00     0.000 C 
BRANCH  11  12
ATOM     12  C   UNL     1      76.234  11.667  20.446  1.00  0.00    -0.000 C 
BRANCH  12  13
ATOM     13  C   UNL     1      77.712  11.709  20.027  1.00  0.00    -0.000 C 
BRANCH  13  14
ATOM     14  C   UNL     1      78.168  13.114  19.601  1.00  0.00    -0.000 C 
BRANCH  14  15
ATOM     15  C   UNL     1      79.691  13.299  19.716  1.00  0.00    -0.000 C 
BRANCH  15  16
ATOM     16  C   UNL     1      80.076  14.414  20.704  1.00  0.00    -0.000 C 
BRANCH  16  17
ATOM     17  C   UNL     1      80.814  15.578  20.027  1.00  0.00    -0.003 C 
ATOM     18  C   UNL     1      79.858  16.724  19.707  1.00  0.00     0.004 C 
ENDBRANCH  16  17
ENDBRANCH  15  16
ENDBRANCH  14  15
ENDBRANCH  13  14
ENDBRANCH  12  13
ENDBRANCH  11  12
ENDBRANCH   1  11
TORSDOF 14
ENDMDL
MODEL 4
REMARK VINA RESULT:    -4.833      2.916      5.961
REMARK INTER + INTRA:         -10.818
REMARK INTER:                  -8.522
REMARK INTRA:                  -2.297
REMARK UNBOUND:                -2.029
REMARK SMILES CCCCCCCCCCCCCCCC(=O)[O-]
REMARK SMILES IDX 9 1 10 2 11 3 12 4 13 5 14 6 15 7 16 8 17 9 18 10 8 11 7 12
REMARK SMILES IDX 6 13 5 14 4 15 3 16 2 17 1 18
REMARK H PARENT
REMARK Flexibility Score: inf
ROOT
ATOM      1  C   UNL     1      74.440  13.087  17.185  1.00  0.00     0.000 C 
ENDROOT
BRANCH   1   2
ATOM      2  C   UNL     1      75.280  14.319  16.808  1.00  0.00     0.000 C 
BRANCH   2   3
ATOM      3  C   UNL     1      76.093  14.864  17.995  1.00  0.00     0.000 C 
BRANCH   3   4
ATOM      4  C   UNL     1      77.610  14.775  17.761  1.00  0.00     0.000 C 
BRANCH   4   5
ATOM      5  C   UNL     1      78.426  15.264  18.967  1.00  0.00     0.000 C 
BRANCH   5   6
ATOM      6  C   UNL     1      79.181  14.103  19.625  1.00  0.00     0.006 C 
BRANCH   6   7
ATOM      7  C   UNL     1      80.008  14.591  20.819  1.00  0.00     0.053 C 
BRANCH   7   8
ATOM      8  C   UNL     1      81.467  14.581  20.485  1.00  0.00     0.041 C 
ATOM      9  O   UNL     1      81.913  15.326  19.573  1.00  0.00    -0.550 OA
ATOM     10  O   UNL     1      82.325  13.713  21.146  1.00  0.00    -0.550 OA
ENDBRANCH   7   8
ENDBRANCH   6   7
ENDBRANCH   5   6
ENDBRANCH   4   5
ENDBRANCH   3   4
ENDBRANCH   2   3
ENDBRANCH   1   2
BRANCH   1  11
ATOM     11  C   UNL     1      74.004  13.094  18.658  1.00  0.00     0.000 C 
BRANCH  11  12
ATOM     12  C   UNL     1      74.387  11.778  19.350  1.00  0.00    -0.000 C 
BRANCH  12  13
ATOM     13  C   UNL     1      75.636  11.962  20.225  1.00  0.00    -0.000 C 
BRANCH  13  14
ATOM     14  C   UNL     1      76.889  11.311  19.617  1.00  0.00    -0.000 C 
BRANCH  14  15
ATOM     15  C   UNL     1      76.597   9.931  19.000  1.00  0.00    -0.000 C 
BRANCH  15  16
ATOM     16  C   UNL     1      76.975   9.860  17.511  1.00  0.00    -0.000 C 
BRANCH  16  17
ATOM     17  C   UNL     1      77.644  11.146  17.006  1.00  0.00    -0.003 C 
ATOM     18  C   UNL     1      77.287  11.414  15.547  1.00  0.00     0.004 C 
ENDBRANCH  16  17
ENDBRANCH  15  16
ENDBRANCH  14  15
ENDBRANCH  13  14
ENDBRANCH  12  13
ENDBRANCH  11  12
ENDBRANCH   1  11
TORSDOF 14
ENDMDL
MODEL 5
REMARK VINA RESULT:    -4.771      1.166      2.065
REMARK INTER + INTRA:         -10.705
REMARK INTER:                  -9.294
REMARK INTRA:                  -1.411
REMARK UNBOUND:                -2.029
REMARK SMILES CCCCCCCCCCCCCCCC(=O)[O-]
REMARK SMILES IDX 9 1 10 2 11 3 12 4 13 5 14 6 15 7 16 8 17 9 18 10 8 11 7 12
REMARK SMILES IDX 6 13 5 14 4 15 3 16 2 17 1 18
REMARK H PARENT
REMARK Flexibility Score: inf
ROOT
ATOM      1  C   UNL     1      75.500  12.008  20.135  1.00  0.00     0.000 C 
ENDROOT
BRANCH   1   2
ATOM      2  C   UNL     1      74.425  11.678  19.086  1.00  0.00     0.000 C 
BRANCH   2   3
ATOM      3  C   UNL     1      74.123  12.866  18.157  1.00  0.00     0.000 C 
BRANCH   3   4
ATOM      4  C   UNL     1      75.362  13.333  17.375  1.00  0.00     0.000 C 
BRANCH   4   5
ATOM      5  C   UNL     1      75.226  13.113  15.860  1.00  0.00     0.000 C 
BRANCH   5   6
ATOM      6  C   UNL     1      75.706  14.343  15.082  1.00  0.00     0.006 C 
BRANCH   6   7
ATOM      7  C   UNL     1      76.083  15.483  16.033  1.00  0.00     0.053 C 
BRANCH   7   8
ATOM      8  C   UNL     1      75.152  16.641  15.859  1.00  0.00     0.041 C 
ATOM      9  O   UNL     1      74.571  16.826  14.757  1.00  0.00    -0.550 OA
ATOM     10  O   UNL     1      74.963  17.544  16.896  1.00  0.00    -0.550 OA
ENDBRANCH   7   8
ENDBRANCH   6   7
ENDBRANCH   5   6
ENDBRANCH   4   5
ENDBRANCH   3   4
ENDBRANCH   2   3
ENDBRANCH   1   2
BRANCH   1  11
ATOM     11  C   UNL     1      76.682  11.028  20.102  1.00  0.00     0.000 C 
BRANCH  11  12
ATOM     12  C   UNL     1      77.882  11.640  19.366  1.00  0.00    -0.000 C 
BRANCH  12  13
ATOM     13  C   UNL     1      78.340  12.938  20.049  1.00  0.00    -0.000 C 
BRANCH  13  14
ATOM     14  C   UNL     1      78.628  14.067  19.046  1.00  0.00    -0.000 C 
BRANCH  14  15
ATOM     15  C   UNL     1      79.702  15.046  19.551  1.00  0.00    -0.000 C 
BRANCH  15  16
ATOM     16  C   UNL     1      80.256  14.651  20.931  1.00  0.00    -0.000 C 
BRANCH  16  17
ATOM     17  C   UNL     1      81.776  14.431  20.919  1.00  0.00    -0.003 C 
ATOM     18  C   UNL     1      82.138  13.142  20.188  1.00  0.00     0.004 C 
ENDBRANCH  16  17
ENDBRANCH  15  16
ENDBRANCH  14  15
ENDBRANCH  13  14
ENDBRANCH  12  13
ENDBRANCH  11  12
ENDBRANCH   1  11
TORSDOF 14
ENDMDL
MODEL 6
REMARK VINA RESULT:    -4.762      2.692      5.744
REMARK INTER + INTRA:         -10.689
REMARK INTER:                  -9.332
REMARK INTRA:                  -1.357
REMARK UNBOUND:                -2.029
REMARK SMILES CCCCCCCCCCCCCCCC(=O)[O-]
REMARK SMILES IDX 9 1 10 2 11 3 12 4 13 5 14 6 15 7 16 8 17 9 18 10 8 11 7 12
REMARK SMILES IDX 6 13 5 14 4 15 3 16 2 17 1 18
REMARK H PARENT
REMARK Flexibility Score: inf
ROOT
ATOM      1  C   UNL     1      74.683  12.174  18.537  1.00  0.00     0.000 C 
ENDROOT
BRANCH   1   2
ATOM      2  C   UNL     1      75.046  11.901  20.007  1.00  0.00     0.000 C 
BRANCH   2   3
ATOM      3  C   UNL     1      76.465  11.327  20.166  1.00  0.00     0.000 C 
BRANCH   3   4
ATOM      4  C   UNL     1      77.551  12.416  20.115  1.00  0.00     0.000 C 
BRANCH   4   5
ATOM      5  C   UNL     1      78.627  12.131  19.057  1.00  0.00     0.000 C 
BRANCH   5   6
ATOM      6  C   UNL     1      79.800  13.111  19.191  1.00  0.00     0.006 C 
BRANCH   6   7
ATOM      7  C   UNL     1      79.534  14.139  20.295  1.00  0.00     0.053 C 
BRANCH   7   8
ATOM      8  C   UNL     1      80.492  15.283  20.187  1.00  0.00     0.041 C 
ATOM      9  O   UNL     1      81.734  15.073  20.221  1.00  0.00    -0.550 OA
ATOM     10  O   UNL     1      80.016  16.584  20.102  1.00  0.00    -0.550 OA
ENDBRANCH   7   8
ENDBRANCH   6   7
ENDBRANCH   5   6
ENDBRANCH   4   5
ENDBRANCH   3   4
ENDBRANCH   2   3
ENDBRANCH   1   2
BRANCH   1  11
ATOM     11  C   UNL     1      74.074  13.569  18.327  1.00  0.00     0.000 C 
BRANCH  11  12
ATOM     12  C   UNL     1      75.123  14.550  17.787  1.00  0.00    -0.000 C 
BRANCH  12  13
ATOM     13  C   UNL     1      75.766  14.013  16.500  1.00  0.00    -0.000 C 
BRANCH  13  14
ATOM     14  C   UNL     1      75.621  14.982  15.315  1.00  0.00    -0.000 C 
BRANCH  14  15
ATOM     15  C   UNL     1      74.590  16.092  15.583  1.00  0.00    -0.000 C 
BRANCH  15  16
ATOM     16  C   UNL     1      75.084  17.477  15.132  1.00  0.00    -0.000 C 
BRANCH  16  17
ATOM     17  C   UNL     1      76.373  17.909  15.846  1.00  0.00    -0.003 C 
ATOM     18  C   UNL     1      77.330  18.602  14.881  1.00  0.00     0.004 C 
ENDBRANCH  16  17
ENDBRANCH  15  16
ENDBRANCH  14  15
ENDBRANCH  13  14
ENDBRANCH  12  13
ENDBRANCH  11  12
ENDBRANCH   1  11
TORSDOF 14
ENDMDL
MODEL 7
REMARK VINA RESULT:    -4.743      1.244      2.257
REMARK INTER + INTRA:         -10.653
REMARK INTER:                  -9.129
REMARK INTRA:                  -1.525
REMARK UNBOUND:                -2.029
REMARK SMILES CCCCCCCCCCCCCCCC(=O)[O-]
REMARK SMILES IDX 9 1 10 2 11 3 12 4 13 5 14 6 15 7 16 8 17 9 18 10 8 11 7 12
REMARK SMILES IDX 6 13 5 14 4 15 3 16 2 17 1 18
REMARK H PARENT
REMARK Flexibility Score: inf
ROOT
ATOM      1  C   UNL     1      76.238  11.633  20.320  1.00  0.00     0.000 C 
ENDROOT
BRANCH   1   2
ATOM      2  C   UNL     1      75.178  11.407  19.229  1.00  0.00     0.000 C 
BRANCH   2   3
ATOM      3  C   UNL     1      73.986  12.372  19.356  1.00  0.00     0.000 C 
BRANCH   3   4
ATOM      4  C   UNL     1      73.877  13.335  18.162  1.00  0.00     0.000 C 
BRANCH   4   5
ATOM      5  C   UNL     1      74.974  14.410  18.164  1.00  0.00     0.000 C 
BRANCH   5   6
ATOM      6  C   UNL     1      75.758  14.396  16.846  1.00  0.00     0.006 C 
BRANCH   6   7
ATOM      7  C   UNL     1      75.048  15.230  15.776  1.00  0.00     0.053 C 
BRANCH   7   8
ATOM      8  C   UNL     1      75.493  16.657  15.842  1.00  0.00     0.041 C 
ATOM      9  O   UNL     1      76.612  16.994  15.374  1.00  0.00    -0.550 OA
ATOM     10  O   UNL     1      74.694  17.606  16.467  1.00  0.00    -0.550 OA
ENDBRANCH   7   8
ENDBRANCH   6   7
ENDBRANCH   5   6
ENDBRANCH   4   5
ENDBRANCH   3   4
ENDBRANCH   2   3
ENDBRANCH   1   2
BRANCH   1  11
ATOM     11  C   UNL     1      77.669  11.653  19.762  1.00  0.00     0.000 C 
BRANCH  11  12
ATOM     12  C   UNL     1      78.133  13.090  19.491  1.00  0.00    -0.000 C 
BRANCH  12  13
ATOM     13  C   UNL     1      79.651  13.224  19.685  1.00  0.00    -0.000 C 
BRANCH  13  14
ATOM     14  C   UNL     1      80.026  14.309  20.709  1.00  0.00    -0.000 C 
BRANCH  14  15
ATOM     15  C   UNL     1      81.352  15.010  20.366  1.00  0.00    -0.000 C 
BRANCH  15  16
ATOM     16  C   UNL     1      81.211  15.999  19.197  1.00  0.00    -0.000 C 
BRANCH  16  17
ATOM     17  C   UNL     1      79.932  16.844  19.285  1.00  0.00    -0.003 C 
ATOM     18  C   UNL     1      79.059  16.650  18.049  1.00  0.00     0.004 C 
ENDBRANCH  16  17
ENDBRANCH  15  16
ENDBRANCH  14  15
ENDBRANCH  13  14
ENDBRANCH  12  13
ENDBRANCH  11  12
ENDBRANCH   1  11
TORSDOF 14
ENDMDL
MODEL 8
REMARK VINA RESULT:    -4.742      3.140      5.621
REMARK INTER + INTRA:         -10.653
REMARK INTER:                  -8.440
REMARK INTRA:                  -2.213
REMARK UNBOUND:                -2.029
REMARK SMILES CCCCCCCCCCCCCCCC(=O)[O-]
REMARK SMILES IDX 9 1 10 2 11 3 12 4 13 5 14 6 15 7 16 8 17 9 18 10 8 11 7 12
REMARK SMILES IDX 6 13 5 14 4 15 3 16 2 17 1 18
REMARK H PARENT
REMARK Flexibility Score: inf
ROOT
ATOM      1  C   UNL     1      74.426  11.906  19.065  1.00  0.00     0.000 C 
ENDROOT
BRANCH   1   2
ATOM      2  C   UNL     1      75.540  11.946  20.125  1.00  0.00     0.000 C 
BRANCH   2   3
ATOM      3  C   UNL     1      76.647  10.912  19.857  1.00  0.00     0.000 C 
BRANCH   3   4
ATOM      4  C   UNL     1      78.028  11.560  19.671  1.00  0.00     0.000 C 
BRANCH   4   5
ATOM      5  C   UNL     1      78.010  13.077  19.913  1.00  0.00     0.000 C 
BRANCH   5   6
ATOM      6  C   UNL     1      79.333  13.718  19.476  1.00  0.00     0.006 C 
BRANCH   6   7
ATOM      7  C   UNL     1      79.953  14.531  20.617  1.00  0.00     0.053 C 
BRANCH   7   8
ATOM      8  C   UNL     1      81.443  14.554  20.494  1.00  0.00     0.041 C 
ATOM      9  O   UNL     1      82.160  14.030  21.387  1.00  0.00    -0.550 OA
ATOM     10  O   UNL     1      82.043  15.198  19.420  1.00  0.00    -0.550 OA
ENDBRANCH   7   8
ENDBRANCH   6   7
ENDBRANCH   5   6
ENDBRANCH   4   5
ENDBRANCH   3   4
ENDBRANCH   2   3
ENDBRANCH   1   2
BRANCH   1  11
ATOM     11  C   UNL     1      73.923  13.306  18.681  1.00  0.00     0.000 C 
BRANCH  11  12
ATOM     12  C   UNL     1      75.051  14.145  18.066  1.00  0.00    -0.000 C 
BRANCH  12  13
ATOM     13  C   UNL     1      75.495  13.563  16.715  1.00  0.00    -0.000 C 
BRANCH  13  14
ATOM     14  C   UNL     1      76.983  13.815  16.420  1.00  0.00    -0.000 C 
BRANCH  14  15
ATOM     15  C   UNL     1      77.775  12.511  16.226  1.00  0.00    -0.000 C 
BRANCH  15  16
ATOM     16  C   UNL     1      76.886  11.344  15.764  1.00  0.00    -0.000 C 
BRANCH  16  17
ATOM     17  C   UNL     1      77.674  10.043  15.556  1.00  0.00    -0.003 C 
ATOM     18  C   UNL     1      77.639   9.173  16.809  1.00  0.00     0.004 C 
ENDBRANCH  16  17
ENDBRANCH  15  16
ENDBRANCH  14  15
ENDBRANCH  13  14
ENDBRANCH  12  13
ENDBRANCH  11  12
ENDBRANCH   1  11
TORSDOF 14
ENDMDL
MODEL 9
REMARK VINA RESULT:    -4.717      2.634      4.734
REMARK INTER + INTRA:         -10.606
REMARK INTER:                  -9.124
REMARK INTRA:                  -1.482
REMARK UNBOUND:                -2.029
REMARK SMILES CCCCCCCCCCCCCCCC(=O)[O-]
REMARK SMILES IDX 9 1 10 2 11 3 12 4 13 5 14 6 15 7 16 8 17 9 18 10 8 11 7 12
REMARK SMILES IDX 6 13 5 14 4 15 3 16 2 17 1 18
REMARK H PARENT
REMARK Flexibility Score: inf
ROOT
ATOM      1  C   UNL     1      74.794  16.606  15.221  1.00  0.00     0.000 C 
ENDROOT
BRANCH   1   2
ATOM      2  C   UNL     1      75.069  15.139  15.594  1.00  0.00     0.000 C 
BRANCH   2   3
ATOM      3  C   UNL     1      75.006  14.895  17.112  1.00  0.00     0.000 C 
BRANCH   3   4
ATOM      4  C   UNL     1      74.845  13.407  17.465  1.00  0.00     0.000 C 
BRANCH   4   5
ATOM      5  C   UNL     1      73.849  13.173  18.610  1.00  0.00     0.000 C 
BRANCH   5   6
ATOM      6  C   UNL     1      74.336  12.055  19.540  1.00  0.00     0.006 C 
BRANCH   6   7
ATOM      7  C   UNL     1      75.550  11.335  18.946  1.00  0.00     0.053 C 
BRANCH   7   8
ATOM      8  C   UNL     1      76.680  11.317  19.925  1.00  0.00     0.041 C 
ATOM      9  O   UNL     1      77.283  12.384  20.215  1.00  0.00    -0.550 OA
ATOM     10  O   UNL     1      77.102  10.116  20.479  1.00  0.00    -0.550 OA
ENDBRANCH   7   8
ENDBRANCH   6   7
ENDBRANCH   5   6
ENDBRANCH   4   5
ENDBRANCH   3   4
ENDBRANCH   2   3
ENDBRANCH   1   2
BRANCH   1  11
ATOM     11  C   UNL     1      75.640  17.594  16.037  1.00  0.00     0.000 C 
BRANCH  11  12
ATOM     12  C   UNL     1      76.728  18.235  15.165  1.00  0.00    -0.000 C 
BRANCH  12  13
ATOM     13  C   UNL     1      78.076  17.525  15.359  1.00  0.00    -0.000 C 
BRANCH  13  14
ATOM     14  C   UNL     1      78.383  17.225  16.836  1.00  0.00    -0.000 C 
BRANCH  14  15
ATOM     15  C   UNL     1      78.585  15.724  17.103  1.00  0.00    -0.000 C 
BRANCH  15  16
ATOM     16  C   UNL     1      78.491  15.374  18.598  1.00  0.00    -0.000 C 
BRANCH  16  17
ATOM     17  C   UNL     1      79.636  15.980  19.422  1.00  0.00    -0.003 C 
ATOM     18  C   UNL     1      80.052  15.046  20.554  1.00  0.00     0.004 C 
ENDBRANCH  16  17
ENDBRANCH  15  16
ENDBRANCH  14  15
ENDBRANCH  13  14
ENDBRANCH  12  13
ENDBRANCH  11  12
ENDBRANCH   1  11
TORSDOF 14
ENDMDL
