MODEL 1
REMARK VINA RESULT:    -6.451      0.000      0.000
REMARK INTER + INTRA:         -13.736
REMARK INTER:                 -11.165
REMARK INTRA:                  -2.571
REMARK UNBOUND:                -2.571
REMARK SMILES OC[C@@H]1O[C@H](O[C@H]2[C@@H](O)[C@H](O)[C@H](O[C@@H]3[C@@H](O)[C@H](O)[C@H](O)O[C@@H]3CO)O[C@H]2CO)[C@H](O)[C@H](O)[C@H]1O
REMARK SMILES IDX 7 1 26 2 25 3 12 4 10 5 8 6 6 7 5 8 3 9 33 10 4 11 31 12
REMARK SMILES IDX 29 13 2 14 1 15 34 17 32 19 30 21 27 23 28 24 9 26 11 28
REMARK SMILES IDX 13 30 14 31 22 32 15 33 21 34 17 35 19 36 23 37 24 38 16 40
REMARK SMILES IDX 18 42 20 44
REMARK H PARENT 1 16 34 18 32 20 30 22 28 25 9 27 11 29 24 39 16 41 18 43
REMARK H PARENT 20 45
REMARK Flexibility Score: inf
ROOT
ATOM      1  C   UNL     1      37.555   2.949  45.395  1.00  0.00     0.184 C 
ATOM      2  C   UNL     1      38.662   1.935  44.985  1.00  0.00     0.178 C 
ATOM      3  O   UNL     1      38.384   1.381  43.707  1.00  0.00    -0.341 OA
ATOM      4  C   UNL     1      37.206   0.588  43.723  1.00  0.00     0.282 C 
ATOM      5  C   UNL     1      35.976   1.432  44.135  1.00  0.00     0.202 C 
ATOM      6  C   UNL     1      36.236   2.150  45.470  1.00  0.00     0.180 C 
ENDROOT
BRANCH   1   7
ATOM      7  O   UNL     1      37.401   3.978  44.425  1.00  0.00    -0.341 OA
BRANCH   7   8
ATOM      8  C   UNL     1      37.563   5.293  44.945  1.00  0.00     0.282 C 
ATOM      9  C   UNL     1      38.948   6.046  43.142  1.00  0.00     0.178 C 
ATOM     10  C   UNL     1      37.813   6.924  42.544  1.00  0.00     0.177 C 
ATOM     11  O   UNL     1      38.822   5.821  44.546  1.00  0.00    -0.341 OA
ATOM     12  C   UNL     1      36.419   6.464  42.995  1.00  0.00     0.179 C 
ATOM     13  C   UNL     1      36.424   6.241  44.518  1.00  0.00     0.202 C 
BRANCH   9  14
ATOM     14  C   UNL     1      39.214   4.757  42.339  1.00  0.00     0.191 C 
BRANCH  14  15
ATOM     15  O   UNL     1      39.508   5.075  41.007  1.00  0.00    -0.394 OA
ATOM     16  H   UNL     1      39.080   5.953  40.832  1.00  0.00     0.210 HD
ENDBRANCH  14  15
ENDBRANCH   9  14
BRANCH  10  17
ATOM     17  O   UNL     1      37.995   8.261  42.941  1.00  0.00    -0.387 OA
ATOM     18  H   UNL     1      38.490   8.244  43.802  1.00  0.00     0.211 HD
ENDBRANCH  10  17
BRANCH  12  19
ATOM     19  O   UNL     1      36.064   5.282  42.317  1.00  0.00    -0.387 OA
ATOM     20  H   UNL     1      35.238   4.929  42.739  1.00  0.00     0.211 HD
ENDBRANCH  12  19
BRANCH  13  21
ATOM     21  O   UNL     1      35.177   5.816  45.008  1.00  0.00    -0.385 OA
ATOM     22  H   UNL     1      34.963   6.348  45.813  1.00  0.00     0.211 HD
ENDBRANCH  13  21
ENDBRANCH   7   8
ENDBRANCH   1   7
BRANCH   2  23
ATOM     23  C   UNL     1      40.082   2.515  44.989  1.00  0.00     0.191 C 
BRANCH  23  24
ATOM     24  O   UNL     1      40.124   3.725  45.692  1.00  0.00    -0.394 OA
ATOM     25  H   UNL     1      40.251   4.436  45.011  1.00  0.00     0.210 HD
ENDBRANCH  23  24
ENDBRANCH   2  23
BRANCH   6  26
ATOM     26  O   UNL     1      35.156   3.000  45.753  1.00  0.00    -0.387 OA
ATOM     27  H   UNL     1      34.472   2.837  45.051  1.00  0.00     0.211 HD
ENDBRANCH   6  26
BRANCH   5  28
ATOM     28  O   UNL     1      34.838   0.618  44.259  1.00  0.00    -0.385 OA
ATOM     29  H   UNL     1      34.056   1.183  44.029  1.00  0.00     0.211 HD
ENDBRANCH   5  28
BRANCH   4  30
ATOM     30  O   UNL     1      37.378  -0.519  44.601  1.00  0.00    -0.341 OA
BRANCH  30  31
ATOM     31  C   UNL     1      37.794  -1.698  43.927  1.00  0.00     0.184 C 
ATOM     32  C   UNL     1      39.125  -2.270  44.521  1.00  0.00     0.178 C 
ATOM     33  C   UNL     1      36.654  -2.732  44.009  1.00  0.00     0.180 C 
ATOM     34  O   UNL     1      39.087  -3.672  44.754  1.00  0.00    -0.342 OA
ATOM     35  C   UNL     1      36.669  -3.431  45.373  1.00  0.00     0.201 C 
ATOM     36  C   UNL     1      38.047  -4.099  45.629  1.00  0.00     0.279 C 
BRANCH  32  37
ATOM     37  C   UNL     1      39.749  -1.498  45.709  1.00  0.00     0.191 C 
BRANCH  37  38
ATOM     38  O   UNL     1      38.819  -1.271  46.731  1.00  0.00    -0.394 OA
ATOM     39  H   UNL     1      38.034  -1.841  46.523  1.00  0.00     0.210 HD
ENDBRANCH  37  38
ENDBRANCH  32  37
BRANCH  33  40
ATOM     40  O   UNL     1      36.795  -3.697  42.995  1.00  0.00    -0.387 OA
ATOM     41  H   UNL     1      36.773  -4.586  43.437  1.00  0.00     0.211 HD
ENDBRANCH  33  40
BRANCH  35  42
ATOM     42  O   UNL     1      36.362  -2.515  46.394  1.00  0.00    -0.385 OA
ATOM     43  H   UNL     1      36.952  -2.729  47.163  1.00  0.00     0.211 HD
ENDBRANCH  35  42
BRANCH  36  44
ATOM     44  O   UNL     1      38.441  -3.967  46.971  1.00  0.00    -0.366 OA
ATOM     45  H   UNL     1      38.004  -4.708  47.467  1.00  0.00     0.213 HD
ENDBRANCH  36  44
ENDBRANCH  30  31
ENDBRANCH   4  30
TORSDOF 18
ENDMDL
MODEL 2
REMARK VINA RESULT:    -6.278      1.682      8.085
REMARK INTER + INTRA:         -13.437
REMARK INTER:                 -11.154
REMARK INTRA:                  -2.283
REMARK UNBOUND:                -2.571
REMARK SMILES OC[C@@H]1O[C@H](O[C@H]2[C@@H](O)[C@H](O)[C@H](O[C@@H]3[C@@H](O)[C@H](O)[C@H](O)O[C@@H]3CO)O[C@H]2CO)[C@H](O)[C@H](O)[C@H]1O
REMARK SMILES IDX 7 1 26 2 25 3 12 4 10 5 8 6 6 7 5 8 3 9 33 10 4 11 31 12
REMARK SMILES IDX 29 13 2 14 1 15 34 17 32 19 30 21 27 23 28 24 9 26 11 28
REMARK SMILES IDX 13 30 14 31 22 32 15 33 21 34 17 35 19 36 23 37 24 38 16 40
REMARK SMILES IDX 18 42 20 44
REMARK H PARENT 1 16 34 18 32 20 30 22 28 25 9 27 11 29 24 39 16 41 18 43
REMARK H PARENT 20 45
REMARK Flexibility Score: inf
ROOT
ATOM      1  C   UNL     1      37.741   1.177  43.175  1.00  0.00     0.184 C 
ATOM      2  C   UNL     1      38.926   1.963  42.543  1.00  0.00     0.178 C 
ATOM      3  O   UNL     1      39.747   2.527  43.555  1.00  0.00    -0.341 OA
ATOM      4  C   UNL     1      39.056   3.522  44.298  1.00  0.00     0.282 C 
ATOM      5  C   UNL     1      37.811   2.925  44.997  1.00  0.00     0.202 C 
ATOM      6  C   UNL     1      36.913   2.204  43.978  1.00  0.00     0.180 C 
ENDROOT
BRANCH   1   7
ATOM      7  O   UNL     1      38.197   0.170  44.071  1.00  0.00    -0.341 OA
BRANCH   7   8
ATOM      8  C   UNL     1      38.004  -1.158  43.597  1.00  0.00     0.282 C 
ATOM      9  C   UNL     1      39.455  -2.158  45.218  1.00  0.00     0.178 C 
ATOM     10  C   UNL     1      38.264  -2.765  46.013  1.00  0.00     0.177 C 
ATOM     11  O   UNL     1      39.170  -1.934  43.837  1.00  0.00    -0.341 OA
ATOM     12  C   UNL     1      36.945  -2.026  45.743  1.00  0.00     0.179 C 
ATOM     13  C   UNL     1      36.769  -1.835  44.226  1.00  0.00     0.202 C 
BRANCH   9  14
ATOM     14  C   UNL     1      40.099  -0.941  45.912  1.00  0.00     0.191 C 
BRANCH  14  15
ATOM     15  O   UNL     1      39.624  -0.832  47.226  1.00  0.00    -0.394 OA
ATOM     16  H   UNL     1      38.687  -1.158  47.207  1.00  0.00     0.210 HD
ENDBRANCH  14  15
ENDBRANCH   9  14
BRANCH  10  17
ATOM     17  O   UNL     1      38.104  -4.116  45.658  1.00  0.00    -0.387 OA
ATOM     18  H   UNL     1      37.131  -4.275  45.548  1.00  0.00     0.211 HD
ENDBRANCH  10  17
BRANCH  12  19
ATOM     19  O   UNL     1      36.948  -0.785  46.408  1.00  0.00    -0.387 OA
ATOM     20  H   UNL     1      37.103  -0.079  45.728  1.00  0.00     0.211 HD
ENDBRANCH  12  19
BRANCH  13  21
ATOM     21  O   UNL     1      35.578  -1.163  43.899  1.00  0.00    -0.385 OA
ATOM     22  H   UNL     1      35.516  -0.353  44.460  1.00  0.00     0.211 HD
ENDBRANCH  13  21
ENDBRANCH   7   8
ENDBRANCH   1   7
BRANCH   2  23
ATOM     23  C   UNL     1      39.794   1.134  41.588  1.00  0.00     0.191 C 
BRANCH  23  24
ATOM     24  O   UNL     1      39.055   0.723  40.473  1.00  0.00    -0.394 OA
ATOM     25  H   UNL     1      39.693   0.702  39.712  1.00  0.00     0.210 HD
ENDBRANCH  23  24
ENDBRANCH   2  23
BRANCH   6  26
ATOM     26  O   UNL     1      35.862   1.571  44.658  1.00  0.00    -0.387 OA
ATOM     27  H   UNL     1      35.308   2.290  45.062  1.00  0.00     0.211 HD
ENDBRANCH   6  26
BRANCH   5  28
ATOM     28  O   UNL     1      37.072   3.935  45.634  1.00  0.00    -0.385 OA
ATOM     29  H   UNL     1      36.218   4.021  45.137  1.00  0.00     0.211 HD
ENDBRANCH   5  28
BRANCH   4  30
ATOM     30  O   UNL     1      38.690   4.599  43.444  1.00  0.00    -0.341 OA
BRANCH  30  31
ATOM     31  C   UNL     1      39.514   5.744  43.616  1.00  0.00     0.184 C 
ATOM     32  C   UNL     1      40.124   6.231  42.258  1.00  0.00     0.178 C 
ATOM     33  C   UNL     1      38.675   6.850  44.283  1.00  0.00     0.180 C 
ATOM     34  O   UNL     1      40.014   7.634  42.058  1.00  0.00    -0.342 OA
ATOM     35  C   UNL     1      37.803   7.558  43.239  1.00  0.00     0.201 C 
ATOM     36  C   UNL     1      38.680   8.136  42.096  1.00  0.00     0.279 C 
BRANCH  32  37
ATOM     37  C   UNL     1      39.740   5.429  40.991  1.00  0.00     0.191 C 
BRANCH  37  38
ATOM     38  O   UNL     1      39.996   6.150  39.818  1.00  0.00    -0.394 OA
ATOM     39  H   UNL     1      39.404   5.766  39.122  1.00  0.00     0.210 HD
ENDBRANCH  37  38
ENDBRANCH  32  37
BRANCH  33  40
ATOM     40  O   UNL     1      39.515   7.797  44.899  1.00  0.00    -0.387 OA
ATOM     41  H   UNL     1      40.253   7.291  45.330  1.00  0.00     0.211 HD
ENDBRANCH  33  40
BRANCH  35  42
ATOM     42  O   UNL     1      36.839   6.671  42.728  1.00  0.00    -0.385 OA
ATOM     43  H   UNL     1      37.011   5.785  43.140  1.00  0.00     0.211 HD
ENDBRANCH  35  42
BRANCH  36  44
ATOM     44  O   UNL     1      38.058   7.988  40.846  1.00  0.00    -0.366 OA
ATOM     45  H   UNL     1      38.199   8.841  40.357  1.00  0.00     0.213 HD
ENDBRANCH  36  44
ENDBRANCH  30  31
ENDBRANCH   4  30
TORSDOF 18
ENDMDL
MODEL 3
REMARK VINA RESULT:    -6.066      1.524      7.902
REMARK INTER + INTRA:         -13.071
REMARK INTER:                 -11.964
REMARK INTRA:                  -1.107
REMARK UNBOUND:                -2.571
REMARK SMILES OC[C@@H]1O[C@H](O[C@H]2[C@@H](O)[C@H](O)[C@H](O[C@@H]3[C@@H](O)[C@H](O)[C@H](O)O[C@@H]3CO)O[C@H]2CO)[C@H](O)[C@H](O)[C@H]1O
REMARK SMILES IDX 7 1 26 2 25 3 12 4 10 5 8 6 6 7 5 8 3 9 33 10 4 11 31 12
REMARK SMILES IDX 29 13 2 14 1 15 34 17 32 19 30 21 27 23 28 24 9 26 11 28
REMARK SMILES IDX 13 30 14 31 22 32 15 33 21 34 17 35 19 36 23 37 24 38 16 40
REMARK SMILES IDX 18 42 20 44
REMARK H PARENT 1 16 34 18 32 20 30 22 28 25 9 27 11 29 24 39 16 41 18 43
REMARK H PARENT 20 45
REMARK Flexibility Score: inf
ROOT
ATOM      1  C   UNL     1      36.580   0.796  45.917  1.00  0.00     0.184 C 
ATOM      2  C   UNL     1      35.664   1.584  44.938  1.00  0.00     0.178 C 
ATOM      3  O   UNL     1      36.403   2.029  43.810  1.00  0.00    -0.341 OA
ATOM      4  C   UNL     1      37.390   2.984  44.172  1.00  0.00     0.282 C 
ATOM      5  C   UNL     1      38.402   2.381  45.175  1.00  0.00     0.202 C 
ATOM      6  C   UNL     1      37.669   1.783  46.388  1.00  0.00     0.180 C 
ENDROOT
BRANCH   1   7
ATOM      7  O   UNL     1      37.218  -0.300  45.271  1.00  0.00    -0.341 OA
BRANCH   7   8
ATOM      8  C   UNL     1      36.335  -1.117  44.510  1.00  0.00     0.282 C 
ATOM      9  C   UNL     1      38.014  -1.821  42.953  1.00  0.00     0.178 C 
ATOM     10  C   UNL     1      38.073  -3.253  43.556  1.00  0.00     0.177 C 
ATOM     11  O   UNL     1      36.763  -1.163  43.155  1.00  0.00    -0.341 OA
ATOM     12  C   UNL     1      37.550  -3.300  45.000  1.00  0.00     0.179 C 
ATOM     13  C   UNL     1      36.212  -2.544  45.083  1.00  0.00     0.202 C 
BRANCH   9  14
ATOM     14  C   UNL     1      39.228  -0.947  43.326  1.00  0.00     0.191 C 
BRANCH  14  15
ATOM     15  O   UNL     1      39.077   0.338  42.787  1.00  0.00    -0.394 OA
ATOM     16  H   UNL     1      39.517   0.318  41.899  1.00  0.00     0.210 HD
ENDBRANCH  14  15
ENDBRANCH   9  14
BRANCH  10  17
ATOM     17  O   UNL     1      37.300  -4.125  42.769  1.00  0.00    -0.387 OA
ATOM     18  H   UNL     1      37.589  -5.049  42.989  1.00  0.00     0.211 HD
ENDBRANCH  10  17
BRANCH  12  19
ATOM     19  O   UNL     1      38.501  -2.735  45.871  1.00  0.00    -0.387 OA
ATOM     20  H   UNL     1      38.100  -2.709  46.778  1.00  0.00     0.211 HD
ENDBRANCH  12  19
BRANCH  13  21
ATOM     21  O   UNL     1      35.669  -2.544  46.379  1.00  0.00    -0.385 OA
ATOM     22  H   UNL     1      35.315  -3.448  46.566  1.00  0.00     0.211 HD
ENDBRANCH  13  21
ENDBRANCH   7   8
ENDBRANCH   1   7
BRANCH   2  23
ATOM     23  C   UNL     1      34.431   0.806  44.461  1.00  0.00     0.191 C 
BRANCH  23  24
ATOM     24  O   UNL     1      33.287   1.612  44.500  1.00  0.00    -0.394 OA
ATOM     25  H   UNL     1      33.609   2.550  44.461  1.00  0.00     0.210 HD
ENDBRANCH  23  24
ENDBRANCH   2  23
BRANCH   6  26
ATOM     26  O   UNL     1      38.600   1.138  47.216  1.00  0.00    -0.387 OA
ATOM     27  H   UNL     1      39.226   1.836  47.542  1.00  0.00     0.211 HD
ENDBRANCH   6  26
BRANCH   5  28
ATOM     28  O   UNL     1      39.305   3.362  45.615  1.00  0.00    -0.385 OA
ATOM     29  H   UNL     1      38.802   3.960  46.227  1.00  0.00     0.211 HD
ENDBRANCH   5  28
BRANCH   4  30
ATOM     30  O   UNL     1      36.768   4.144  44.715  1.00  0.00    -0.341 OA
BRANCH  30  31
ATOM     31  C   UNL     1      36.459   5.118  43.728  1.00  0.00     0.184 C 
ATOM     32  C   UNL     1      35.616   6.297  44.318  1.00  0.00     0.178 C 
ATOM     33  C   UNL     1      37.780   5.624  43.116  1.00  0.00     0.180 C 
ATOM     34  O   UNL     1      36.092   7.582  43.937  1.00  0.00    -0.342 OA
ATOM     35  C   UNL     1      38.425   6.668  44.034  1.00  0.00     0.201 C 
ATOM     36  C   UNL     1      37.445   7.844  44.297  1.00  0.00     0.279 C 
BRANCH  32  37
ATOM     37  C   UNL     1      35.273   6.227  45.826  1.00  0.00     0.191 C 
BRANCH  37  38
ATOM     38  O   UNL     1      34.898   7.475  46.336  1.00  0.00    -0.394 OA
ATOM     39  H   UNL     1      35.440   8.148  45.849  1.00  0.00     0.210 HD
ENDBRANCH  37  38
ENDBRANCH  32  37
BRANCH  33  40
ATOM     40  O   UNL     1      37.544   6.202  41.855  1.00  0.00    -0.387 OA
ATOM     41  H   UNL     1      36.649   6.629  41.895  1.00  0.00     0.211 HD
ENDBRANCH  33  40
BRANCH  35  42
ATOM     42  O   UNL     1      38.825   6.073  45.244  1.00  0.00    -0.385 OA
ATOM     43  H   UNL     1      38.960   5.107  45.062  1.00  0.00     0.211 HD
ENDBRANCH  35  42
BRANCH  36  44
ATOM     44  O   UNL     1      37.528   8.295  45.624  1.00  0.00    -0.366 OA
ATOM     45  H   UNL     1      37.643   9.280  45.581  1.00  0.00     0.213 HD
ENDBRANCH  36  44
ENDBRANCH  30  31
ENDBRANCH   4  30
TORSDOF 18
ENDMDL
MODEL 4
REMARK VINA RESULT:    -6.040      1.580      7.893
REMARK INTER + INTRA:         -13.025
REMARK INTER:                 -10.565
REMARK INTRA:                  -2.460
REMARK UNBOUND:                -2.571
REMARK SMILES OC[C@@H]1O[C@H](O[C@H]2[C@@H](O)[C@H](O)[C@H](O[C@@H]3[C@@H](O)[C@H](O)[C@H](O)O[C@@H]3CO)O[C@H]2CO)[C@H](O)[C@H](O)[C@H]1O
REMARK SMILES IDX 7 1 26 2 25 3 12 4 10 5 8 6 6 7 5 8 3 9 33 10 4 11 31 12
REMARK SMILES IDX 29 13 2 14 1 15 34 17 32 19 30 21 27 23 28 24 9 26 11 28
REMARK SMILES IDX 13 30 14 31 22 32 15 33 21 34 17 35 19 36 23 37 24 38 16 40
REMARK SMILES IDX 18 42 20 44
REMARK H PARENT 1 16 34 18 32 20 30 22 28 25 9 27 11 29 24 39 16 41 18 43
REMARK H PARENT 20 45
REMARK Flexibility Score: inf
ROOT
ATOM      1  C   UNL     1      39.136   0.762  44.837  1.00  0.00     0.184 C 
ATOM      2  C   UNL     1      38.430   1.872  45.667  1.00  0.00     0.178 C 
ATOM      3  O   UNL     1      37.265   2.334  44.998  1.00  0.00    -0.341 OA
ATOM      4  C   UNL     1      37.585   2.992  43.780  1.00  0.00     0.282 C 
ATOM      5  C   UNL     1      38.324   2.037  42.812  1.00  0.00     0.202 C 
ATOM      6  C   UNL     1      39.551   1.413  43.500  1.00  0.00     0.180 C 
ENDROOT
BRANCH   1   7
ATOM      7  O   UNL     1      38.257  -0.321  44.554  1.00  0.00    -0.341 OA
BRANCH   7   8
ATOM      8  C   UNL     1      38.191  -1.297  45.587  1.00  0.00     0.282 C 
ATOM      9  C   UNL     1      35.818  -1.587  45.430  1.00  0.00     0.178 C 
ATOM     10  C   UNL     1      35.963  -2.982  44.759  1.00  0.00     0.177 C 
ATOM     11  O   UNL     1      36.933  -1.223  46.245  1.00  0.00    -0.341 OA
ATOM     12  C   UNL     1      37.333  -3.170  44.091  1.00  0.00     0.179 C 
ATOM     13  C   UNL     1      38.440  -2.727  45.065  1.00  0.00     0.202 C 
BRANCH   9  14
ATOM     14  C   UNL     1      35.392  -0.476  44.450  1.00  0.00     0.191 C 
BRANCH  14  15
ATOM     15  O   UNL     1      35.050   0.683  45.160  1.00  0.00    -0.394 OA
ATOM     16  H   UNL     1      35.904   1.064  45.493  1.00  0.00     0.210 HD
ENDBRANCH  14  15
ENDBRANCH   9  14
BRANCH  10  17
ATOM     17  O   UNL     1      35.793  -3.988  45.727  1.00  0.00    -0.387 OA
ATOM     18  H   UNL     1      35.542  -4.818  45.244  1.00  0.00     0.211 HD
ENDBRANCH  10  17
BRANCH  12  19
ATOM     19  O   UNL     1      37.388  -2.426  42.897  1.00  0.00    -0.387 OA
ATOM     20  H   UNL     1      38.088  -2.831  42.322  1.00  0.00     0.211 HD
ENDBRANCH  12  19
BRANCH  13  21
ATOM     21  O   UNL     1      39.729  -2.870  44.522  1.00  0.00    -0.385 OA
ATOM     22  H   UNL     1      40.369  -2.972  45.268  1.00  0.00     0.211 HD
ENDBRANCH  13  21
ENDBRANCH   7   8
ENDBRANCH   1   7
BRANCH   2  23
ATOM     23  C   UNL     1      38.061   1.453  47.096  1.00  0.00     0.191 C 
BRANCH  23  24
ATOM     24  O   UNL     1      36.673   1.473  47.278  1.00  0.00    -0.394 OA
ATOM     25  H   UNL     1      36.468   2.324  47.746  1.00  0.00     0.210 HD
ENDBRANCH  23  24
ENDBRANCH   2  23
BRANCH   6  26
ATOM     26  O   UNL     1      40.125   0.463  42.642  1.00  0.00    -0.387 OA
ATOM     27  H   UNL     1      39.755   0.635  41.736  1.00  0.00     0.211 HD
ENDBRANCH   6  26
BRANCH   5  28
ATOM     28  O   UNL     1      38.737   2.725  41.660  1.00  0.00    -0.385 OA
ATOM     29  H   UNL     1      38.148   2.425  40.921  1.00  0.00     0.211 HD
ENDBRANCH   5  28
BRANCH   4  30
ATOM     30  O   UNL     1      38.369   4.150  44.046  1.00  0.00    -0.341 OA
BRANCH  30  31
ATOM     31  C   UNL     1      37.584   5.324  44.201  1.00  0.00     0.184 C 
ATOM     32  C   UNL     1      38.431   6.522  44.747  1.00  0.00     0.178 C 
ATOM     33  C   UNL     1      36.944   5.663  42.842  1.00  0.00     0.180 C 
ATOM     34  O   UNL     1      38.220   7.736  44.038  1.00  0.00    -0.342 OA
ATOM     35  C   UNL     1      37.955   6.383  41.943  1.00  0.00     0.201 C 
ATOM     36  C   UNL     1      38.492   7.662  42.641  1.00  0.00     0.279 C 
BRANCH  32  37
ATOM     37  C   UNL     1      39.933   6.255  45.011  1.00  0.00     0.191 C 
BRANCH  37  38
ATOM     38  O   UNL     1      40.125   5.271  45.988  1.00  0.00    -0.394 OA
ATOM     39  H   UNL     1      41.105   5.135  46.055  1.00  0.00     0.210 HD
ENDBRANCH  37  38
ENDBRANCH  32  37
BRANCH  33  40
ATOM     40  O   UNL     1      35.819   6.489  43.023  1.00  0.00    -0.387 OA
ATOM     41  H   UNL     1      36.123   7.424  42.890  1.00  0.00     0.211 HD
ENDBRANCH  33  40
BRANCH  35  42
ATOM     42  O   UNL     1      39.012   5.518  41.607  1.00  0.00    -0.385 OA
ATOM     43  H   UNL     1      38.613   4.628  41.427  1.00  0.00     0.211 HD
ENDBRANCH  35  42
BRANCH  36  44
ATOM     44  O   UNL     1      39.862   7.847  42.391  1.00  0.00    -0.366 OA
ATOM     45  H   UNL     1      40.335   7.633  43.238  1.00  0.00     0.213 HD
ENDBRANCH  36  44
ENDBRANCH  30  31
ENDBRANCH   4  30
TORSDOF 18
ENDMDL
MODEL 5
REMARK VINA RESULT:    -5.818      1.507      3.729
REMARK INTER + INTRA:         -12.641
REMARK INTER:                 -10.421
REMARK INTRA:                  -2.220
REMARK UNBOUND:                -2.571
REMARK SMILES OC[C@@H]1O[C@H](O[C@H]2[C@@H](O)[C@H](O)[C@H](O[C@@H]3[C@@H](O)[C@H](O)[C@H](O)O[C@@H]3CO)O[C@H]2CO)[C@H](O)[C@H](O)[C@H]1O
REMARK SMILES IDX 7 1 26 2 25 3 12 4 10 5 8 6 6 7 5 8 3 9 33 10 4 11 31 12
REMARK SMILES IDX 29 13 2 14 1 15 34 17 32 19 30 21 27 23 28 24 9 26 11 28
REMARK SMILES IDX 13 30 14 31 22 32 15 33 21 34 17 35 19 36 23 37 24 38 16 40
REMARK SMILES IDX 18 42 20 44
REMARK H PARENT 1 16 34 18 32 20 30 22 28 25 9 27 11 29 24 39 16 41 18 43
REMARK H PARENT 20 45
REMARK Flexibility Score: inf
ROOT
ATOM      1  C   UNL     1      36.547   2.954  43.364  1.00  0.00     0.184 C 
ATOM      2  C   UNL     1      35.778   2.102  44.415  1.00  0.00     0.178 C 
ATOM      3  O   UNL     1      36.513   2.019  45.627  1.00  0.00    -0.341 OA
ATOM      4  C   UNL     1      37.729   1.304  45.455  1.00  0.00     0.282 C 
ATOM      5  C   UNL     1      38.638   1.999  44.413  1.00  0.00     0.202 C 
ATOM      6  C   UNL     1      37.877   2.218  43.094  1.00  0.00     0.180 C 
ENDROOT
BRANCH   1   7
ATOM      7  O   UNL     1      36.846   4.254  43.861  1.00  0.00    -0.341 OA
BRANCH   7   8
ATOM      8  C   UNL     1      36.639   5.297  42.915  1.00  0.00     0.282 C 
ATOM      9  C   UNL     1      35.485   6.727  44.450  1.00  0.00     0.178 C 
ATOM     10  C   UNL     1      36.693   7.700  44.561  1.00  0.00     0.177 C 
ATOM     11  O   UNL     1      35.443   6.000  43.222  1.00  0.00    -0.341 OA
ATOM     12  C   UNL     1      38.018   7.032  44.166  1.00  0.00     0.179 C 
ATOM     13  C   UNL     1      37.832   6.271  42.841  1.00  0.00     0.202 C 
BRANCH   9  14
ATOM     14  C   UNL     1      35.300   5.833  45.693  1.00  0.00     0.191 C 
BRANCH  14  15
ATOM     15  O   UNL     1      34.936   6.617  46.796  1.00  0.00    -0.394 OA
ATOM     16  H   UNL     1      33.967   6.808  46.690  1.00  0.00     0.210 HD
ENDBRANCH  14  15
ENDBRANCH   9  14
BRANCH  10  17
ATOM     17  O   UNL     1      36.480   8.808  43.722  1.00  0.00    -0.387 OA
ATOM     18  H   UNL     1      35.500   8.890  43.590  1.00  0.00     0.211 HD
ENDBRANCH  10  17
BRANCH  12  19
ATOM     19  O   UNL     1      38.437   6.161  45.190  1.00  0.00    -0.387 OA
ATOM     20  H   UNL     1      39.340   6.451  45.482  1.00  0.00     0.211 HD
ENDBRANCH  12  19
BRANCH  13  21
ATOM     21  O   UNL     1      39.008   5.632  42.413  1.00  0.00    -0.385 OA
ATOM     22  H   UNL     1      39.749   6.283  42.459  1.00  0.00     0.211 HD
ENDBRANCH  13  21
ENDBRANCH   7   8
ENDBRANCH   1   7
BRANCH   2  23
ATOM     23  C   UNL     1      34.359   2.602  44.716  1.00  0.00     0.191 C 
BRANCH  23  24
ATOM     24  O   UNL     1      33.868   3.376  43.657  1.00  0.00    -0.394 OA
ATOM     25  H   UNL     1      33.801   2.765  42.877  1.00  0.00     0.210 HD
ENDBRANCH  23  24
ENDBRANCH   2  23
BRANCH   6  26
ATOM     26  O   UNL     1      38.684   2.958  42.216  1.00  0.00    -0.387 OA
ATOM     27  H   UNL     1      38.148   3.109  41.394  1.00  0.00     0.211 HD
ENDBRANCH   6  26
BRANCH   5  28
ATOM     28  O   UNL     1      39.784   1.227  44.165  1.00  0.00    -0.385 OA
ATOM     29  H   UNL     1      40.494   1.855  43.873  1.00  0.00     0.211 HD
ENDBRANCH   5  28
BRANCH   4  30
ATOM     30  O   UNL     1      37.453  -0.039  45.071  1.00  0.00    -0.341 OA
BRANCH  30  31
ATOM     31  C   UNL     1      37.820  -0.984  46.066  1.00  0.00     0.184 C 
ATOM     32  C   UNL     1      36.954  -2.286  45.980  1.00  0.00     0.178 C 
ATOM     33  C   UNL     1      39.320  -1.297  45.907  1.00  0.00     0.180 C 
ATOM     34  O   UNL     1      37.719  -3.482  46.049  1.00  0.00    -0.342 OA
ATOM     35  C   UNL     1      39.534  -2.310  44.777  1.00  0.00     0.201 C 
ATOM     36  C   UNL     1      38.719  -3.605  45.042  1.00  0.00     0.279 C 
BRANCH  32  37
ATOM     37  C   UNL     1      35.883  -2.341  44.864  1.00  0.00     0.191 C 
BRANCH  37  38
ATOM     38  O   UNL     1      35.201  -3.563  44.855  1.00  0.00    -0.394 OA
ATOM     39  H   UNL     1      35.120  -3.829  43.902  1.00  0.00     0.210 HD
ENDBRANCH  37  38
ENDBRANCH  32  37
BRANCH  33  40
ATOM     40  O   UNL     1      39.839  -1.826  47.104  1.00  0.00    -0.387 OA
ATOM     41  H   UNL     1      39.196  -1.594  47.824  1.00  0.00     0.211 HD
ENDBRANCH  33  40
BRANCH  35  42
ATOM     42  O   UNL     1      39.180  -1.743  43.540  1.00  0.00    -0.385 OA
ATOM     43  H   UNL     1      39.765  -2.156  42.852  1.00  0.00     0.211 HD
ENDBRANCH  35  42
BRANCH  36  44
ATOM     44  O   UNL     1      38.170  -4.118  43.856  1.00  0.00    -0.366 OA
ATOM     45  H   UNL     1      37.998  -3.340  43.264  1.00  0.00     0.213 HD
ENDBRANCH  36  44
ENDBRANCH  30  31
ENDBRANCH   4  30
TORSDOF 18
ENDMDL
MODEL 6
REMARK VINA RESULT:    -5.750      1.553      8.146
REMARK INTER + INTRA:         -12.523
REMARK INTER:                 -12.238
REMARK INTRA:                  -0.285
REMARK UNBOUND:                -2.571
REMARK SMILES OC[C@@H]1O[C@H](O[C@H]2[C@@H](O)[C@H](O)[C@H](O[C@@H]3[C@@H](O)[C@H](O)[C@H](O)O[C@@H]3CO)O[C@H]2CO)[C@H](O)[C@H](O)[C@H]1O
REMARK SMILES IDX 7 1 26 2 25 3 12 4 10 5 8 6 6 7 5 8 3 9 33 10 4 11 31 12
REMARK SMILES IDX 29 13 2 14 1 15 34 17 32 19 30 21 27 23 28 24 9 26 11 28
REMARK SMILES IDX 13 30 14 31 22 32 15 33 21 34 17 35 19 36 23 37 24 38 16 40
REMARK SMILES IDX 18 42 20 44
REMARK H PARENT 1 16 34 18 32 20 30 22 28 25 9 27 11 29 24 39 16 41 18 43
REMARK H PARENT 20 45
REMARK Flexibility Score: inf
ROOT
ATOM      1  C   UNL     1      36.470   0.731  45.634  1.00  0.00     0.184 C 
ATOM      2  C   UNL     1      35.503   1.589  44.770  1.00  0.00     0.178 C 
ATOM      3  O   UNL     1      36.172   2.095  43.624  1.00  0.00    -0.341 OA
ATOM      4  C   UNL     1      37.197   3.014  43.976  1.00  0.00     0.282 C 
ATOM      5  C   UNL     1      38.263   2.337  44.870  1.00  0.00     0.202 C 
ATOM      6  C   UNL     1      37.604   1.674  46.091  1.00  0.00     0.180 C 
ENDROOT
BRANCH   1   7
ATOM      7  O   UNL     1      37.046  -0.330  44.881  1.00  0.00    -0.341 OA
BRANCH   7   8
ATOM      8  C   UNL     1      38.314  -0.761  45.363  1.00  0.00     0.282 C 
ATOM      9  C   UNL     1      37.590  -2.992  45.848  1.00  0.00     0.178 C 
ATOM     10  C   UNL     1      38.370  -3.583  44.638  1.00  0.00     0.177 C 
ATOM     11  O   UNL     1      38.141  -1.773  46.346  1.00  0.00    -0.341 OA
ATOM     12  C   UNL     1      38.666  -2.527  43.563  1.00  0.00     0.179 C 
ATOM     13  C   UNL     1      39.236  -1.263  44.232  1.00  0.00     0.202 C 
BRANCH   9  14
ATOM     14  C   UNL     1      36.066  -2.925  45.622  1.00  0.00     0.191 C 
BRANCH  14  15
ATOM     15  O   UNL     1      35.406  -3.715  46.573  1.00  0.00    -0.394 OA
ATOM     16  H   UNL     1      34.787  -3.107  47.054  1.00  0.00     0.210 HD
ENDBRANCH  14  15
ENDBRANCH   9  14
BRANCH  10  17
ATOM     17  O   UNL     1      39.588  -4.124  45.085  1.00  0.00    -0.387 OA
ATOM     18  H   UNL     1      40.261  -3.952  44.377  1.00  0.00     0.211 HD
ENDBRANCH  10  17
BRANCH  12  19
ATOM     19  O   UNL     1      37.490  -2.230  42.848  1.00  0.00    -0.387 OA
ATOM     20  H   UNL     1      37.044  -1.469  43.305  1.00  0.00     0.211 HD
ENDBRANCH  12  19
BRANCH  13  21
ATOM     21  O   UNL     1      39.533  -0.247  43.308  1.00  0.00    -0.385 OA
ATOM     22  H   UNL     1      40.256   0.312  43.685  1.00  0.00     0.211 HD
ENDBRANCH  13  21
ENDBRANCH   7   8
ENDBRANCH   1   7
BRANCH   2  23
ATOM     23  C   UNL     1      34.229   0.856  44.331  1.00  0.00     0.191 C 
BRANCH  23  24
ATOM     24  O   UNL     1      33.093   1.629  44.597  1.00  0.00    -0.394 OA
ATOM     25  H   UNL     1      32.373   1.271  44.015  1.00  0.00     0.210 HD
ENDBRANCH  23  24
ENDBRANCH   2  23
BRANCH   6  26
ATOM     26  O   UNL     1      38.578   0.967  46.812  1.00  0.00    -0.387 OA
ATOM     27  H   UNL     1      39.401   1.523  46.802  1.00  0.00     0.211 HD
ENDBRANCH   6  26
BRANCH   5  28
ATOM     28  O   UNL     1      39.209   3.279  45.307  1.00  0.00    -0.385 OA
ATOM     29  H   UNL     1      38.788   4.172  45.212  1.00  0.00     0.211 HD
ENDBRANCH   5  28
BRANCH   4  30
ATOM     30  O   UNL     1      36.631   4.144  44.630  1.00  0.00    -0.341 OA
BRANCH  30  31
ATOM     31  C   UNL     1      36.285   5.187  43.729  1.00  0.00     0.184 C 
ATOM     32  C   UNL     1      35.477   6.326  44.439  1.00  0.00     0.178 C 
ATOM     33  C   UNL     1      37.579   5.729  43.094  1.00  0.00     0.180 C 
ATOM     34  O   UNL     1      35.945   7.632  44.127  1.00  0.00    -0.342 OA
ATOM     35  C   UNL     1      38.273   6.703  44.053  1.00  0.00     0.201 C 
ATOM     36  C   UNL     1      37.315   7.862  44.442  1.00  0.00     0.279 C 
BRANCH  32  37
ATOM     37  C   UNL     1      35.203   6.150  45.952  1.00  0.00     0.191 C 
BRANCH  37  38
ATOM     38  O   UNL     1      34.884   7.365  46.570  1.00  0.00    -0.394 OA
ATOM     39  H   UNL     1      35.746   7.773  46.842  1.00  0.00     0.210 HD
ENDBRANCH  37  38
ENDBRANCH  32  37
BRANCH  33  40
ATOM     40  O   UNL     1      37.291   6.396  41.889  1.00  0.00    -0.387 OA
ATOM     41  H   UNL     1      37.844   5.968  41.183  1.00  0.00     0.211 HD
ENDBRANCH  33  40
BRANCH  35  42
ATOM     42  O   UNL     1      38.724   6.023  45.198  1.00  0.00    -0.385 OA
ATOM     43  H   UNL     1      38.271   6.436  45.979  1.00  0.00     0.211 HD
ENDBRANCH  35  42
BRANCH  36  44
ATOM     44  O   UNL     1      37.462   8.218  45.793  1.00  0.00    -0.366 OA
ATOM     45  H   UNL     1      37.685   7.383  46.282  1.00  0.00     0.213 HD
ENDBRANCH  36  44
ENDBRANCH  30  31
ENDBRANCH   4  30
TORSDOF 18
ENDMDL
MODEL 7
REMARK VINA RESULT:    -5.712     15.593     17.536
REMARK INTER + INTRA:         -12.457
REMARK INTER:                 -10.048
REMARK INTRA:                  -2.409
REMARK UNBOUND:                -2.571
REMARK SMILES OC[C@@H]1O[C@H](O[C@H]2[C@@H](O)[C@H](O)[C@H](O[C@@H]3[C@@H](O)[C@H](O)[C@H](O)O[C@@H]3CO)O[C@H]2CO)[C@H](O)[C@H](O)[C@H]1O
REMARK SMILES IDX 7 1 26 2 25 3 12 4 10 5 8 6 6 7 5 8 3 9 33 10 4 11 31 12
REMARK SMILES IDX 29 13 2 14 1 15 34 17 32 19 30 21 27 23 28 24 9 26 11 28
REMARK SMILES IDX 13 30 14 31 22 32 15 33 21 34 17 35 19 36 23 37 24 38 16 40
REMARK SMILES IDX 18 42 20 44
REMARK H PARENT 1 16 34 18 32 20 30 22 28 25 9 27 11 29 24 39 16 41 18 43
REMARK H PARENT 20 45
REMARK Flexibility Score: inf
ROOT
ATOM      1  C   UNL     1      21.170   2.486  36.423  1.00  0.00     0.184 C 
ATOM      2  C   UNL     1      22.091   1.563  37.271  1.00  0.00     0.178 C 
ATOM      3  O   UNL     1      23.354   1.402  36.641  1.00  0.00    -0.341 OA
ATOM      4  C   UNL     1      23.241   0.705  35.407  1.00  0.00     0.282 C 
ATOM      5  C   UNL     1      22.329   1.472  34.420  1.00  0.00     0.202 C 
ATOM      6  C   UNL     1      20.967   1.776  35.067  1.00  0.00     0.180 C 
ENDROOT
BRANCH   1   7
ATOM      7  O   UNL     1      21.775   3.751  36.180  1.00  0.00    -0.341 OA
BRANCH   7   8
ATOM      8  C   UNL     1      21.016   4.857  36.658  1.00  0.00     0.282 C 
ATOM      9  C   UNL     1      22.930   6.136  37.318  1.00  0.00     0.178 C 
ATOM     10  C   UNL     1      22.762   7.129  36.132  1.00  0.00     0.177 C 
ATOM     11  O   UNL     1      21.713   5.503  37.714  1.00  0.00    -0.341 OA
ATOM     12  C   UNL     1      21.947   6.528  34.978  1.00  0.00     0.179 C 
ATOM     13  C   UNL     1      20.677   5.865  35.541  1.00  0.00     0.202 C 
BRANCH   9  14
ATOM     14  C   UNL     1      24.097   5.147  37.128  1.00  0.00     0.191 C 
BRANCH  14  15
ATOM     15  O   UNL     1      25.276   5.690  37.658  1.00  0.00    -0.394 OA
ATOM     16  H   UNL     1      25.060   5.962  38.587  1.00  0.00     0.210 HD
ENDBRANCH  14  15
ENDBRANCH   9  14
BRANCH  10  17
ATOM     17  O   UNL     1      22.113   8.292  36.584  1.00  0.00    -0.387 OA
ATOM     18  H   UNL     1      21.722   8.081  37.472  1.00  0.00     0.211 HD
ENDBRANCH  10  17
BRANCH  12  19
ATOM     19  O   UNL     1      22.731   5.593  34.276  1.00  0.00    -0.387 OA
ATOM     20  H   UNL     1      22.522   5.689  33.310  1.00  0.00     0.211 HD
ENDBRANCH  12  19
BRANCH  13  21
ATOM     21  O   UNL     1      19.876   5.290  34.540  1.00  0.00    -0.385 OA
ATOM     22  H   UNL     1      18.933   5.342  34.831  1.00  0.00     0.211 HD
ENDBRANCH  13  21
ENDBRANCH   7   8
ENDBRANCH   1   7
BRANCH   2  23
ATOM     23  C   UNL     1      22.302   2.035  38.715  1.00  0.00     0.191 C 
BRANCH  23  24
ATOM     24  O   UNL     1      23.666   2.155  39.006  1.00  0.00    -0.394 OA
ATOM     25  H   UNL     1      24.149   1.817  38.207  1.00  0.00     0.210 HD
ENDBRANCH  23  24
ENDBRANCH   2  23
BRANCH   6  26
ATOM     26  O   UNL     1      20.212   2.576  34.196  1.00  0.00    -0.387 OA
ATOM     27  H   UNL     1      20.012   3.418  34.682  1.00  0.00     0.211 HD
ENDBRANCH   6  26
BRANCH   5  28
ATOM     28  O   UNL     1      22.130   0.723  33.249  1.00  0.00    -0.385 OA
ATOM     29  H   UNL     1      22.523  -0.173  33.413  1.00  0.00     0.211 HD
ENDBRANCH   5  28
BRANCH   4  30
ATOM     30  O   UNL     1      22.747  -0.610  35.637  1.00  0.00    -0.341 OA
BRANCH  30  31
ATOM     31  C   UNL     1      23.756  -1.511  36.070  1.00  0.00     0.184 C 
ATOM     32  C   UNL     1      23.249  -2.992  36.079  1.00  0.00     0.178 C 
ATOM     33  C   UNL     1      24.982  -1.344  35.152  1.00  0.00     0.180 C 
ATOM     34  O   UNL     1      24.157  -3.907  35.479  1.00  0.00    -0.342 OA
ATOM     35  C   UNL     1      24.773  -2.110  33.842  1.00  0.00     0.201 C 
ATOM     36  C   UNL     1      24.489  -3.610  34.125  1.00  0.00     0.279 C 
BRANCH  32  37
ATOM     37  C   UNL     1      21.790  -3.235  35.623  1.00  0.00     0.191 C 
BRANCH  37  38
ATOM     38  O   UNL     1      21.449  -2.444  34.519  1.00  0.00    -0.394 OA
ATOM     39  H   UNL     1      20.753  -2.947  34.022  1.00  0.00     0.210 HD
ENDBRANCH  37  38
ENDBRANCH  32  37
BRANCH  33  40
ATOM     40  O   UNL     1      26.140  -1.828  35.789  1.00  0.00    -0.387 OA
ATOM     41  H   UNL     1      26.237  -1.319  36.636  1.00  0.00     0.211 HD
ENDBRANCH  33  40
BRANCH  35  42
ATOM     42  O   UNL     1      23.724  -1.536  33.102  1.00  0.00    -0.385 OA
ATOM     43  H   UNL     1      23.554  -2.132  32.327  1.00  0.00     0.211 HD
ENDBRANCH  35  42
BRANCH  36  44
ATOM     44  O   UNL     1      23.518  -4.124  33.251  1.00  0.00    -0.366 OA
ATOM     45  H   UNL     1      23.518  -5.110  33.377  1.00  0.00     0.213 HD
ENDBRANCH  36  44
ENDBRANCH  30  31
ENDBRANCH   4  30
TORSDOF 18
ENDMDL
MODEL 8
REMARK VINA RESULT:    -5.475      1.853      8.045
REMARK INTER + INTRA:         -12.047
REMARK INTER:                 -10.720
REMARK INTRA:                  -1.328
REMARK UNBOUND:                -2.571
REMARK SMILES OC[C@@H]1O[C@H](O[C@H]2[C@@H](O)[C@H](O)[C@H](O[C@@H]3[C@@H](O)[C@H](O)[C@H](O)O[C@@H]3CO)O[C@H]2CO)[C@H](O)[C@H](O)[C@H]1O
REMARK SMILES IDX 7 1 26 2 25 3 12 4 10 5 8 6 6 7 5 8 3 9 33 10 4 11 31 12
REMARK SMILES IDX 29 13 2 14 1 15 34 17 32 19 30 21 27 23 28 24 9 26 11 28
REMARK SMILES IDX 13 30 14 31 22 32 15 33 21 34 17 35 19 36 23 37 24 38 16 40
REMARK SMILES IDX 18 42 20 44
REMARK H PARENT 1 16 34 18 32 20 30 22 28 25 9 27 11 29 24 39 16 41 18 43
REMARK H PARENT 20 45
REMARK Flexibility Score: inf
ROOT
ATOM      1  C   UNL     1      37.879   1.238  42.949  1.00  0.00     0.184 C 
ATOM      2  C   UNL     1      39.065   2.127  42.476  1.00  0.00     0.178 C 
ATOM      3  O   UNL     1      39.767   2.659  43.590  1.00  0.00    -0.341 OA
ATOM      4  C   UNL     1      38.962   3.560  44.338  1.00  0.00     0.282 C 
ATOM      5  C   UNL     1      37.700   2.851  44.885  1.00  0.00     0.202 C 
ATOM      6  C   UNL     1      36.932   2.160  43.746  1.00  0.00     0.180 C 
ENDROOT
BRANCH   1   7
ATOM      7  O   UNL     1      38.318   0.193  43.810  1.00  0.00    -0.341 OA
BRANCH   7   8
ATOM      8  C   UNL     1      37.321  -0.783  44.090  1.00  0.00     0.282 C 
ATOM      9  C   UNL     1      38.702  -2.648  43.499  1.00  0.00     0.178 C 
ATOM     10  C   UNL     1      38.879  -3.077  44.983  1.00  0.00     0.177 C 
ATOM     11  O   UNL     1      37.502  -1.916  43.251  1.00  0.00    -0.341 OA
ATOM     12  C   UNL     1      38.620  -1.921  45.960  1.00  0.00     0.179 C 
ATOM     13  C   UNL     1      37.312  -1.208  45.573  1.00  0.00     0.202 C 
BRANCH   9  14
ATOM     14  C   UNL     1      39.957  -1.981  42.900  1.00  0.00     0.191 C 
BRANCH  14  15
ATOM     15  O   UNL     1      39.712  -1.609  41.571  1.00  0.00    -0.394 OA
ATOM     16  H   UNL     1      38.727  -1.524  41.485  1.00  0.00     0.210 HD
ENDBRANCH  14  15
ENDBRANCH   9  14
BRANCH  10  17
ATOM     17  O   UNL     1      37.986  -4.123  45.277  1.00  0.00    -0.387 OA
ATOM     18  H   UNL     1      38.506  -4.968  45.244  1.00  0.00     0.211 HD
ENDBRANCH  10  17
BRANCH  12  19
ATOM     19  O   UNL     1      39.706  -1.025  45.937  1.00  0.00    -0.387 OA
ATOM     20  H   UNL     1      40.509  -1.531  45.649  1.00  0.00     0.211 HD
ENDBRANCH  12  19
BRANCH  13  21
ATOM     21  O   UNL     1      37.007  -0.134  46.426  1.00  0.00    -0.385 OA
ATOM     22  H   UNL     1      36.417  -0.467  47.145  1.00  0.00     0.211 HD
ENDBRANCH  13  21
ENDBRANCH   7   8
ENDBRANCH   1   7
BRANCH   2  23
ATOM     23  C   UNL     1      40.056   1.416  41.545  1.00  0.00     0.191 C 
BRANCH  23  24
ATOM     24  O   UNL     1      39.481   1.186  40.289  1.00  0.00    -0.394 OA
ATOM     25  H   UNL     1      39.250   2.080  39.924  1.00  0.00     0.210 HD
ENDBRANCH  23  24
ENDBRANCH   2  23
BRANCH   6  26
ATOM     26  O   UNL     1      35.866   1.426  44.289  1.00  0.00    -0.387 OA
ATOM     27  H   UNL     1      36.114   0.467  44.220  1.00  0.00     0.211 HD
ENDBRANCH   6  26
BRANCH   5  28
ATOM     28  O   UNL     1      36.854   3.773  45.523  1.00  0.00    -0.385 OA
ATOM     29  H   UNL     1      36.110   3.960  44.895  1.00  0.00     0.211 HD
ENDBRANCH   5  28
BRANCH   4  30
ATOM     30  O   UNL     1      38.606   4.676  43.530  1.00  0.00    -0.341 OA
BRANCH  30  31
ATOM     31  C   UNL     1      39.477   5.785  43.707  1.00  0.00     0.184 C 
ATOM     32  C   UNL     1      40.121   6.240  42.354  1.00  0.00     0.178 C 
ATOM     33  C   UNL     1      38.680   6.929  44.361  1.00  0.00     0.180 C 
ATOM     34  O   UNL     1      40.073   7.646  42.148  1.00  0.00    -0.342 OA
ATOM     35  C   UNL     1      37.850   7.669  43.307  1.00  0.00     0.201 C 
ATOM     36  C   UNL     1      38.763   8.205  42.171  1.00  0.00     0.279 C 
BRANCH  32  37
ATOM     37  C   UNL     1      39.715   5.451  41.085  1.00  0.00     0.191 C 
BRANCH  37  38
ATOM     38  O   UNL     1      39.988   6.168  39.914  1.00  0.00    -0.394 OA
ATOM     39  H   UNL     1      40.243   5.495  39.231  1.00  0.00     0.210 HD
ENDBRANCH  37  38
ENDBRANCH  32  37
BRANCH  33  40
ATOM     40  O   UNL     1      39.554   7.840  44.983  1.00  0.00    -0.387 OA
ATOM     41  H   UNL     1      40.423   7.777  44.508  1.00  0.00     0.211 HD
ENDBRANCH  33  40
BRANCH  35  42
ATOM     42  O   UNL     1      36.853   6.824  42.789  1.00  0.00    -0.385 OA
ATOM     43  H   UNL     1      36.899   5.974  43.299  1.00  0.00     0.211 HD
ENDBRANCH  35  42
BRANCH  36  44
ATOM     44  O   UNL     1      38.147   8.080  40.915  1.00  0.00    -0.366 OA
ATOM     45  H   UNL     1      38.564   7.295  40.472  1.00  0.00     0.213 HD
ENDBRANCH  36  44
ENDBRANCH  30  31
ENDBRANCH   4  30
TORSDOF 18
ENDMDL
MODEL 9
REMARK VINA RESULT:    -5.297     15.632     17.461
REMARK INTER + INTRA:         -11.739
REMARK INTER:                  -9.534
REMARK INTRA:                  -2.204
REMARK UNBOUND:                -2.571
REMARK SMILES OC[C@@H]1O[C@H](O[C@H]2[C@@H](O)[C@H](O)[C@H](O[C@@H]3[C@@H](O)[C@H](O)[C@H](O)O[C@@H]3CO)O[C@H]2CO)[C@H](O)[C@H](O)[C@H]1O
REMARK SMILES IDX 7 1 26 2 25 3 12 4 10 5 8 6 6 7 5 8 3 9 33 10 4 11 31 12
REMARK SMILES IDX 29 13 2 14 1 15 34 17 32 19 30 21 27 23 28 24 9 26 11 28
REMARK SMILES IDX 13 30 14 31 22 32 15 33 21 34 17 35 19 36 23 37 24 38 16 40
REMARK SMILES IDX 18 42 20 44
REMARK H PARENT 1 16 34 18 32 20 30 22 28 25 9 27 11 29 24 39 16 41 18 43
REMARK H PARENT 20 45
REMARK Flexibility Score: inf
ROOT
ATOM      1  C   UNL     1      22.924   2.940  36.843  1.00  0.00     0.184 C 
ATOM      2  C   UNL     1      23.843   2.238  35.802  1.00  0.00     0.178 C 
ATOM      3  O   UNL     1      23.131   1.977  34.602  1.00  0.00    -0.341 OA
ATOM      4  C   UNL     1      22.088   1.032  34.805  1.00  0.00     0.282 C 
ATOM      5  C   UNL     1      21.065   1.552  35.843  1.00  0.00     0.202 C 
ATOM      6  C   UNL     1      21.775   1.954  37.147  1.00  0.00     0.180 C 
ENDROOT
BRANCH   1   7
ATOM      7  O   UNL     1      22.361   4.138  36.323  1.00  0.00    -0.341 OA
BRANCH   7   8
ATOM      8  C   UNL     1      23.255   5.245  36.320  1.00  0.00     0.282 C 
ATOM      9  C   UNL     1      22.144   6.391  34.535  1.00  0.00     0.178 C 
ATOM     10  C   UNL     1      21.557   7.463  35.495  1.00  0.00     0.177 C 
ATOM     11  O   UNL     1      23.349   5.791  35.012  1.00  0.00    -0.341 OA
ATOM     12  C   UNL     1      21.497   6.975  36.950  1.00  0.00     0.179 C 
ATOM     13  C   UNL     1      22.845   6.337  37.330  1.00  0.00     0.202 C 
BRANCH   9  14
ATOM     14  C   UNL     1      21.102   5.363  34.052  1.00  0.00     0.191 C 
BRANCH  14  15
ATOM     15  O   UNL     1      21.746   4.288  33.424  1.00  0.00    -0.394 OA
ATOM     16  H   UNL     1      21.584   4.400  32.451  1.00  0.00     0.210 HD
ENDBRANCH  14  15
ENDBRANCH   9  14
BRANCH  10  17
ATOM     17  O   UNL     1      22.349   8.624  35.443  1.00  0.00    -0.387 OA
ATOM     18  H   UNL     1      23.253   8.374  35.767  1.00  0.00     0.211 HD
ENDBRANCH  10  17
BRANCH  12  19
ATOM     19  O   UNL     1      20.445   6.051  37.101  1.00  0.00    -0.387 OA
ATOM     20  H   UNL     1      19.829   6.167  36.330  1.00  0.00     0.211 HD
ENDBRANCH  12  19
BRANCH  13  21
ATOM     21  O   UNL     1      22.868   5.864  38.653  1.00  0.00    -0.385 OA
ATOM     22  H   UNL     1      22.681   6.624  39.257  1.00  0.00     0.211 HD
ENDBRANCH  13  21
ENDBRANCH   7   8
ENDBRANCH   1   7
BRANCH   2  23
ATOM     23  C   UNL     1      25.127   3.010  35.472  1.00  0.00     0.191 C 
BRANCH  23  24
ATOM     24  O   UNL     1      26.229   2.149  35.429  1.00  0.00    -0.394 OA
ATOM     25  H   UNL     1      26.102   1.501  36.171  1.00  0.00     0.210 HD
ENDBRANCH  23  24
ENDBRANCH   2  23
BRANCH   6  26
ATOM     26  O   UNL     1      20.841   2.534  38.018  1.00  0.00    -0.387 OA
ATOM     27  H   UNL     1      20.242   1.803  38.325  1.00  0.00     0.211 HD
ENDBRANCH   6  26
BRANCH   5  28
ATOM     28  O   UNL     1      20.103   0.568  36.122  1.00  0.00    -0.385 OA
ATOM     29  H   UNL     1      20.596  -0.230  36.446  1.00  0.00     0.211 HD
ENDBRANCH   5  28
BRANCH   4  30
ATOM     30  O   UNL     1      22.637  -0.215  35.215  1.00  0.00    -0.341 OA
BRANCH  30  31
ATOM     31  C   UNL     1      22.463  -1.239  34.246  1.00  0.00     0.184 C 
ATOM     32  C   UNL     1      23.827  -1.689  33.623  1.00  0.00     0.178 C 
ATOM     33  C   UNL     1      21.735  -2.421  34.914  1.00  0.00     0.180 C 
ATOM     34  O   UNL     1      23.984  -3.101  33.558  1.00  0.00    -0.342 OA
ATOM     35  C   UNL     1      22.726  -3.267  35.722  1.00  0.00     0.201 C 
ATOM     36  C   UNL     1      23.884  -3.766  34.815  1.00  0.00     0.279 C 
BRANCH  32  37
ATOM     37  C   UNL     1      25.102  -0.984  34.147  1.00  0.00     0.191 C 
BRANCH  37  38
ATOM     38  O   UNL     1      25.131  -0.927  35.545  1.00  0.00    -0.394 OA
ATOM     39  H   UNL     1      24.323  -1.411  35.859  1.00  0.00     0.210 HD
ENDBRANCH  37  38
ENDBRANCH  32  37
BRANCH  33  40
ATOM     40  O   UNL     1      21.123  -3.233  33.941  1.00  0.00    -0.387 OA
ATOM     41  H   UNL     1      20.249  -3.522  34.314  1.00  0.00     0.211 HD
ENDBRANCH  33  40
BRANCH  35  42
ATOM     42  O   UNL     1      23.227  -2.528  36.808  1.00  0.00    -0.385 OA
ATOM     43  H   UNL     1      23.587  -3.181  37.463  1.00  0.00     0.211 HD
ENDBRANCH  35  42
BRANCH  36  44
ATOM     44  O   UNL     1      25.114  -3.740  35.491  1.00  0.00    -0.366 OA
ATOM     45  H   UNL     1      25.358  -4.686  35.671  1.00  0.00     0.213 HD
ENDBRANCH  36  44
ENDBRANCH  30  31
ENDBRANCH   4  30
TORSDOF 18
ENDMDL
