MODEL 1
REMARK VINA RESULT:    -4.241      0.000      0.000
REMARK INTER + INTRA:          -8.160
REMARK INTER:                  -7.463
REMARK INTRA:                  -0.696
REMARK UNBOUND:                -0.696
REMARK SMILES CCCCCCC=CCCCCCCCC(=O)[O-]
REMARK SMILES IDX 10 1 11 2 12 3 13 4 14 5 15 6 16 7 17 8 18 9 9 10 8 11 7 12
REMARK SMILES IDX 6 13 5 14 4 15 3 16 2 17 1 18
REMARK H PARENT
REMARK Flexibility Score: inf
ROOT
ATOM      1  C   UNL     1      17.648  -2.041  -3.858  1.00  0.00     0.004 C 
ENDROOT
BRANCH   1   2
ATOM      2  C   UNL     1      18.296  -1.680  -5.207  1.00  0.00     0.000 C 
BRANCH   2   3
ATOM      3  C   UNL     1      18.964  -0.291  -5.257  1.00  0.00     0.000 C 
BRANCH   3   4
ATOM      4  C   UNL     1      20.498  -0.294  -5.099  1.00  0.00     0.000 C 
BRANCH   4   5
ATOM      5  C   UNL     1      21.052   0.757  -4.123  1.00  0.00     0.006 C 
BRANCH   5   6
ATOM      6  C   UNL     1      20.462   2.154  -4.355  1.00  0.00     0.053 C 
BRANCH   6   7
ATOM      7  C   UNL     1      20.951   3.106  -3.310  1.00  0.00     0.041 C 
ATOM      8  O   UNL     1      21.153   2.705  -2.132  1.00  0.00    -0.550 OA
ATOM      9  O   UNL     1      21.230   4.424  -3.645  1.00  0.00    -0.550 OA
ENDBRANCH   6   7
ENDBRANCH   5   6
ENDBRANCH   4   5
ENDBRANCH   3   4
ENDBRANCH   2   3
ENDBRANCH   1   2
BRANCH   1  10
ATOM     10  C   UNL     1      16.430  -2.963  -4.012  1.00  0.00     0.027 C 
BRANCH  10  11
ATOM     11  C   UNL     1      16.187  -3.754  -2.756  1.00  0.00    -0.031 C 
ATOM     12  C   UNL     1      17.096  -3.807  -1.772  1.00  0.00    -0.031 C 
BRANCH  12  13
ATOM     13  C   UNL     1      16.852  -4.599  -0.516  1.00  0.00     0.027 C 
BRANCH  13  14
ATOM     14  C   UNL     1      15.353  -4.871  -0.315  1.00  0.00     0.004 C 
BRANCH  14  15
ATOM     15  C   UNL     1      14.973  -5.041   1.164  1.00  0.00     0.000 C 
BRANCH  15  16
ATOM     16  C   UNL     1      14.147  -3.860   1.700  1.00  0.00    -0.000 C 
BRANCH  16  17
ATOM     17  C   UNL     1      15.009  -2.622   1.989  1.00  0.00    -0.003 C 
ATOM     18  C   UNL     1      14.649  -1.945   3.313  1.00  0.00     0.004 C 
ENDBRANCH  16  17
ENDBRANCH  15  16
ENDBRANCH  14  15
ENDBRANCH  13  14
ENDBRANCH  12  13
ENDBRANCH  10  11
ENDBRANCH   1  10
TORSDOF 13
ENDMDL
MODEL 2
REMARK VINA RESULT:    -4.229      4.066      8.513
REMARK INTER + INTRA:          -8.139
REMARK INTER:                  -7.526
REMARK INTRA:                  -0.613
REMARK UNBOUND:                -0.696
REMARK SMILES CCCCCCC=CCCCCCCCC(=O)[O-]
REMARK SMILES IDX 10 1 11 2 12 3 13 4 14 5 15 6 16 7 17 8 18 9 9 10 8 11 7 12
REMARK SMILES IDX 6 13 5 14 4 15 3 16 2 17 1 18
REMARK H PARENT
REMARK Flexibility Score: inf
ROOT
ATOM      1  C   UNL     1      14.599  -2.063   2.783  1.00  0.00     0.004 C 
ENDROOT
BRANCH   1   2
ATOM      2  C   UNL     1      13.960  -1.012   3.708  1.00  0.00     0.000 C 
BRANCH   2   3
ATOM      3  C   UNL     1      13.963  -1.376   5.207  1.00  0.00     0.000 C 
BRANCH   3   4
ATOM      4  C   UNL     1      14.259  -0.204   6.165  1.00  0.00     0.000 C 
BRANCH   4   5
ATOM      5  C   UNL     1      15.552   0.571   5.862  1.00  0.00     0.006 C 
BRANCH   5   6
ATOM      6  C   UNL     1      15.943   1.538   6.987  1.00  0.00     0.053 C 
BRANCH   6   7
ATOM      7  C   UNL     1      16.263   2.888   6.427  1.00  0.00     0.041 C 
ATOM      8  O   UNL     1      16.058   3.132   5.208  1.00  0.00    -0.550 OA
ATOM      9  O   UNL     1      16.740   3.892   7.259  1.00  0.00    -0.550 OA
ENDBRANCH   6   7
ENDBRANCH   5   6
ENDBRANCH   4   5
ENDBRANCH   3   4
ENDBRANCH   2   3
ENDBRANCH   1   2
BRANCH   1  10
ATOM     10  C   UNL     1      13.913  -3.434   2.875  1.00  0.00     0.027 C 
BRANCH  10  11
ATOM     11  C   UNL     1      13.936  -4.142   1.549  1.00  0.00    -0.031 C 
ATOM     12  C   UNL     1      14.984  -4.887   1.167  1.00  0.00    -0.031 C 
BRANCH  12  13
ATOM     13  C   UNL     1      15.005  -5.594  -0.161  1.00  0.00     0.027 C 
BRANCH  13  14
ATOM     14  C   UNL     1      16.023  -4.951  -1.114  1.00  0.00     0.004 C 
BRANCH  14  15
ATOM     15  C   UNL     1      15.496  -3.662  -1.765  1.00  0.00     0.000 C 
BRANCH  15  16
ATOM     16  C   UNL     1      15.819  -3.585  -3.266  1.00  0.00    -0.000 C 
BRANCH  16  17
ATOM     17  C   UNL     1      17.331  -3.550  -3.541  1.00  0.00    -0.003 C 
ATOM     18  C   UNL     1      17.832  -2.156  -3.918  1.00  0.00     0.004 C 
ENDBRANCH  16  17
ENDBRANCH  15  16
ENDBRANCH  14  15
ENDBRANCH  13  14
ENDBRANCH  12  13
ENDBRANCH  10  11
ENDBRANCH   1  10
TORSDOF 13
ENDMDL
MODEL 3
REMARK VINA RESULT:    -4.144      2.290      3.401
REMARK INTER + INTRA:          -7.990
REMARK INTER:                  -6.841
REMARK INTRA:                  -1.149
REMARK UNBOUND:                -0.696
REMARK SMILES CCCCCCC=CCCCCCCCC(=O)[O-]
REMARK SMILES IDX 10 1 11 2 12 3 13 4 14 5 15 6 16 7 17 8 18 9 9 10 8 11 7 12
REMARK SMILES IDX 6 13 5 14 4 15 3 16 2 17 1 18
REMARK H PARENT
REMARK Flexibility Score: inf
ROOT
ATOM      1  C   UNL     1      17.906  -1.848  -4.691  1.00  0.00     0.004 C 
ENDROOT
BRANCH   1   2
ATOM      2  C   UNL     1      19.380  -1.496  -4.961  1.00  0.00     0.000 C 
BRANCH   2   3
ATOM      3  C   UNL     1      19.604  -0.391  -6.013  1.00  0.00     0.000 C 
BRANCH   3   4
ATOM      4  C   UNL     1      20.918   0.402  -5.862  1.00  0.00     0.000 C 
BRANCH   4   5
ATOM      5  C   UNL     1      21.369   0.640  -4.411  1.00  0.00     0.006 C 
BRANCH   5   6
ATOM      6  C   UNL     1      21.113   2.076  -3.936  1.00  0.00     0.053 C 
BRANCH   6   7
ATOM      7  C   UNL     1      21.367   2.192  -2.467  1.00  0.00     0.041 C 
ATOM      8  O   UNL     1      21.241   3.304  -1.888  1.00  0.00    -0.550 OA
ATOM      9  O   UNL     1      21.697   1.065  -1.726  1.00  0.00    -0.550 OA
ENDBRANCH   6   7
ENDBRANCH   5   6
ENDBRANCH   4   5
ENDBRANCH   3   4
ENDBRANCH   2   3
ENDBRANCH   1   2
BRANCH   1  10
ATOM     10  C   UNL     1      16.946  -1.206  -5.703  1.00  0.00     0.027 C 
BRANCH  10  11
ATOM     11  C   UNL     1      15.706  -2.038  -5.877  1.00  0.00    -0.031 C 
ATOM     12  C   UNL     1      15.366  -2.986  -4.992  1.00  0.00    -0.031 C 
BRANCH  12  13
ATOM     13  C   UNL     1      14.124  -3.819  -5.167  1.00  0.00     0.027 C 
BRANCH  13  14
ATOM     14  C   UNL     1      14.260  -5.171  -4.453  1.00  0.00     0.004 C 
BRANCH  14  15
ATOM     15  C   UNL     1      15.616  -5.338  -3.749  1.00  0.00     0.000 C 
BRANCH  15  16
ATOM     16  C   UNL     1      15.480  -5.962  -2.350  1.00  0.00    -0.000 C 
BRANCH  16  17
ATOM     17  C   UNL     1      16.289  -5.203  -1.287  1.00  0.00    -0.003 C 
ATOM     18  C   UNL     1      17.190  -4.123  -1.886  1.00  0.00     0.004 C 
ENDBRANCH  16  17
ENDBRANCH  15  16
ENDBRANCH  14  15
ENDBRANCH  13  14
ENDBRANCH  12  13
ENDBRANCH  10  11
ENDBRANCH   1  10
TORSDOF 13
ENDMDL
MODEL 4
REMARK VINA RESULT:    -4.123      3.554      8.479
REMARK INTER + INTRA:          -7.953
REMARK INTER:                  -7.127
REMARK INTRA:                  -0.826
REMARK UNBOUND:                -0.696
REMARK SMILES CCCCCCC=CCCCCCCCC(=O)[O-]
REMARK SMILES IDX 10 1 11 2 12 3 13 4 14 5 15 6 16 7 17 8 18 9 9 10 8 11 7 12
REMARK SMILES IDX 6 13 5 14 4 15 3 16 2 17 1 18
REMARK H PARENT
REMARK Flexibility Score: inf
ROOT
ATOM      1  C   UNL     1      18.060  -2.667  -4.158  1.00  0.00     0.004 C 
ENDROOT
BRANCH   1   2
ATOM      2  C   UNL     1      17.173  -3.160  -3.001  1.00  0.00     0.000 C 
BRANCH   2   3
ATOM      3  C   UNL     1      15.686  -3.356  -3.358  1.00  0.00     0.000 C 
BRANCH   3   4
ATOM      4  C   UNL     1      14.725  -3.411  -2.153  1.00  0.00     0.000 C 
BRANCH   4   5
ATOM      5  C   UNL     1      15.241  -2.722  -0.879  1.00  0.00     0.006 C 
BRANCH   5   6
ATOM      6  C   UNL     1      15.195  -3.637   0.352  1.00  0.00     0.053 C 
BRANCH   6   7
ATOM      7  C   UNL     1      15.873  -4.937   0.062  1.00  0.00     0.041 C 
ATOM      8  O   UNL     1      17.097  -4.961  -0.236  1.00  0.00    -0.550 OA
ATOM      9  O   UNL     1      15.167  -6.129   0.166  1.00  0.00    -0.550 OA
ENDBRANCH   6   7
ENDBRANCH   5   6
ENDBRANCH   4   5
ENDBRANCH   3   4
ENDBRANCH   2   3
ENDBRANCH   1   2
BRANCH   1  10
ATOM     10  C   UNL     1      17.397  -1.555  -4.984  1.00  0.00     0.027 C 
BRANCH  10  11
ATOM     11  C   UNL     1      18.379  -0.466  -5.316  1.00  0.00    -0.031 C 
ATOM     12  C   UNL     1      19.669  -0.550  -4.957  1.00  0.00    -0.031 C 
BRANCH  12  13
ATOM     13  C   UNL     1      20.651   0.540  -5.290  1.00  0.00     0.027 C 
BRANCH  13  14
ATOM     14  C   UNL     1      20.389   1.797  -4.447  1.00  0.00     0.004 C 
BRANCH  14  15
ATOM     15  C   UNL     1      20.590   3.097  -5.242  1.00  0.00     0.000 C 
BRANCH  15  16
ATOM     16  C   UNL     1      21.316   4.180  -4.426  1.00  0.00    -0.000 C 
BRANCH  16  17
ATOM     17  C   UNL     1      21.104   4.018  -2.913  1.00  0.00    -0.003 C 
ATOM     18  C   UNL     1      21.099   5.353  -2.168  1.00  0.00     0.004 C 
ENDBRANCH  16  17
ENDBRANCH  15  16
ENDBRANCH  14  15
ENDBRANCH  13  14
ENDBRANCH  12  13
ENDBRANCH  10  11
ENDBRANCH   1  10
TORSDOF 13
ENDMDL
MODEL 5
REMARK VINA RESULT:    -4.109      9.741     13.010
REMARK INTER + INTRA:          -7.928
REMARK INTER:                  -5.882
REMARK INTRA:                  -2.046
REMARK UNBOUND:                -0.696
REMARK SMILES CCCCCCC=CCCCCCCCC(=O)[O-]
REMARK SMILES IDX 10 1 11 2 12 3 13 4 14 5 15 6 16 7 17 8 18 9 9 10 8 11 7 12
REMARK SMILES IDX 6 13 5 14 4 15 3 16 2 17 1 18
REMARK H PARENT
REMARK Flexibility Score: inf
ROOT
ATOM      1  C   UNL     1      29.967   0.913  -2.665  1.00  0.00     0.004 C 
ENDROOT
BRANCH   1   2
ATOM      2  C   UNL     1      28.938  -0.126  -3.146  1.00  0.00     0.000 C 
BRANCH   2   3
ATOM      3  C   UNL     1      27.464   0.274  -2.941  1.00  0.00     0.000 C 
BRANCH   3   4
ATOM      4  C   UNL     1      27.203   1.239  -1.766  1.00  0.00     0.000 C 
BRANCH   4   5
ATOM      5  C   UNL     1      26.669   0.574  -0.487  1.00  0.00     0.006 C 
BRANCH   5   6
ATOM      6  C   UNL     1      25.970  -0.764  -0.758  1.00  0.00     0.053 C 
BRANCH   6   7
ATOM      7  C   UNL     1      25.489  -1.370   0.522  1.00  0.00     0.041 C 
ATOM      8  O   UNL     1      24.520  -0.856   1.142  1.00  0.00    -0.550 OA
ATOM      9  O   UNL     1      26.078  -2.531   1.006  1.00  0.00    -0.550 OA
ENDBRANCH   6   7
ENDBRANCH   5   6
ENDBRANCH   4   5
ENDBRANCH   3   4
ENDBRANCH   2   3
ENDBRANCH   1   2
BRANCH   1  10
ATOM     10  C   UNL     1      30.834   0.398  -1.506  1.00  0.00     0.027 C 
BRANCH  10  11
ATOM     11  C   UNL     1      30.329  -0.924  -0.996  1.00  0.00    -0.031 C 
ATOM     12  C   UNL     1      29.971  -1.093   0.285  1.00  0.00    -0.031 C 
BRANCH  12  13
ATOM     13  C   UNL     1      29.466  -2.416   0.794  1.00  0.00     0.027 C 
BRANCH  13  14
ATOM     14  C   UNL     1      30.477  -3.538   0.515  1.00  0.00     0.004 C 
BRANCH  14  15
ATOM     15  C   UNL     1      31.413  -3.803   1.704  1.00  0.00     0.000 C 
BRANCH  15  16
ATOM     16  C   UNL     1      32.894  -3.593   1.346  1.00  0.00    -0.000 C 
BRANCH  16  17
ATOM     17  C   UNL     1      33.094  -3.213  -0.129  1.00  0.00    -0.003 C 
ATOM     18  C   UNL     1      33.869  -1.907  -0.304  1.00  0.00     0.004 C 
ENDBRANCH  16  17
ENDBRANCH  15  16
ENDBRANCH  14  15
ENDBRANCH  13  14
ENDBRANCH  12  13
ENDBRANCH  10  11
ENDBRANCH   1  10
TORSDOF 13
ENDMDL
MODEL 6
REMARK VINA RESULT:    -4.055      6.992      9.826
REMARK INTER + INTRA:          -7.834
REMARK INTER:                  -5.771
REMARK INTRA:                  -2.063
REMARK UNBOUND:                -0.696
REMARK SMILES CCCCCCC=CCCCCCCCC(=O)[O-]
REMARK SMILES IDX 10 1 11 2 12 3 13 4 14 5 15 6 16 7 17 8 18 9 9 10 8 11 7 12
REMARK SMILES IDX 6 13 5 14 4 15 3 16 2 17 1 18
REMARK H PARENT
REMARK Flexibility Score: inf
ROOT
ATOM      1  C   UNL     1      26.610   2.011  -3.280  1.00  0.00     0.004 C 
ENDROOT
BRANCH   1   2
ATOM      2  C   UNL     1      26.412   2.713  -1.925  1.00  0.00     0.000 C 
BRANCH   2   3
ATOM      3  C   UNL     1      27.586   2.567  -0.937  1.00  0.00     0.000 C 
BRANCH   3   4
ATOM      4  C   UNL     1      28.567   1.419  -1.251  1.00  0.00     0.000 C 
BRANCH   4   5
ATOM      5  C   UNL     1      28.540   0.251  -0.251  1.00  0.00     0.006 C 
BRANCH   5   6
ATOM      6  C   UNL     1      27.672  -0.921  -0.728  1.00  0.00     0.053 C 
BRANCH   6   7
ATOM      7  C   UNL     1      26.502  -1.108   0.184  1.00  0.00     0.041 C 
ATOM      8  O   UNL     1      26.486  -2.062   1.007  1.00  0.00    -0.550 OA
ATOM      9  O   UNL     1      25.450  -0.203   0.160  1.00  0.00    -0.550 OA
ENDBRANCH   6   7
ENDBRANCH   5   6
ENDBRANCH   4   5
ENDBRANCH   3   4
ENDBRANCH   2   3
ENDBRANCH   1   2
BRANCH   1  10
ATOM     10  C   UNL     1      25.556   0.925  -3.546  1.00  0.00     0.027 C 
BRANCH  10  11
ATOM     11  C   UNL     1      24.293   1.194  -2.776  1.00  0.00    -0.031 C 
ATOM     12  C   UNL     1      23.088   1.144  -3.362  1.00  0.00    -0.031 C 
BRANCH  12  13
ATOM     13  C   UNL     1      21.825   1.414  -2.589  1.00  0.00     0.027 C 
BRANCH  13  14
ATOM     14  C   UNL     1      21.088   2.642  -3.145  1.00  0.00     0.004 C 
BRANCH  14  15
ATOM     15  C   UNL     1      21.139   3.847  -2.192  1.00  0.00     0.000 C 
BRANCH  15  16
ATOM     16  C   UNL     1      21.908   5.037  -2.787  1.00  0.00    -0.000 C 
BRANCH  16  17
ATOM     17  C   UNL     1      23.431   4.831  -2.751  1.00  0.00    -0.003 C 
ATOM     18  C   UNL     1      24.047   4.720  -4.146  1.00  0.00     0.004 C 
ENDBRANCH  16  17
ENDBRANCH  15  16
ENDBRANCH  14  15
ENDBRANCH  13  14
ENDBRANCH  12  13
ENDBRANCH  10  11
ENDBRANCH   1  10
TORSDOF 13
ENDMDL
MODEL 7
REMARK VINA RESULT:    -4.055     10.197     13.435
REMARK INTER + INTRA:          -7.834
REMARK INTER:                  -6.196
REMARK INTRA:                  -1.638
REMARK UNBOUND:                -0.696
REMARK SMILES CCCCCCC=CCCCCCCCC(=O)[O-]
REMARK SMILES IDX 10 1 11 2 12 3 13 4 14 5 15 6 16 7 17 8 18 9 9 10 8 11 7 12
REMARK SMILES IDX 6 13 5 14 4 15 3 16 2 17 1 18
REMARK H PARENT
REMARK Flexibility Score: inf
ROOT
ATOM      1  C   UNL     1      30.611   0.507  -2.627  1.00  0.00     0.004 C 
ENDROOT
BRANCH   1   2
ATOM      2  C   UNL     1      29.145   0.196  -2.977  1.00  0.00     0.000 C 
BRANCH   2   3
ATOM      3  C   UNL     1      28.675  -1.226  -2.611  1.00  0.00     0.000 C 
BRANCH   3   4
ATOM      4  C   UNL     1      28.372  -1.451  -1.116  1.00  0.00     0.000 C 
BRANCH   4   5
ATOM      5  C   UNL     1      27.495  -0.371  -0.461  1.00  0.00     0.006 C 
BRANCH   5   6
ATOM      6  C   UNL     1      25.994  -0.654  -0.608  1.00  0.00     0.053 C 
BRANCH   6   7
ATOM      7  C   UNL     1      25.482  -1.387   0.591  1.00  0.00     0.041 C 
ATOM      8  O   UNL     1      24.473  -0.960   1.212  1.00  0.00    -0.550 OA
ATOM      9  O   UNL     1      26.089  -2.569   0.995  1.00  0.00    -0.550 OA
ENDBRANCH   6   7
ENDBRANCH   5   6
ENDBRANCH   4   5
ENDBRANCH   3   4
ENDBRANCH   2   3
ENDBRANCH   1   2
BRANCH   1  10
ATOM     10  C   UNL     1      30.751   1.358  -1.356  1.00  0.00     0.027 C 
BRANCH  10  11
ATOM     11  C   UNL     1      31.361   0.562  -0.235  1.00  0.00    -0.031 C 
ATOM     12  C   UNL     1      32.230  -0.432  -0.470  1.00  0.00    -0.031 C 
BRANCH  12  13
ATOM     13  C   UNL     1      32.839  -1.228   0.653  1.00  0.00     0.027 C 
BRANCH  13  14
ATOM     14  C   UNL     1      33.732  -2.355   0.111  1.00  0.00     0.004 C 
BRANCH  14  15
ATOM     15  C   UNL     1      33.049  -3.731   0.165  1.00  0.00     0.000 C 
BRANCH  15  16
ATOM     16  C   UNL     1      32.114  -3.878   1.376  1.00  0.00    -0.000 C 
BRANCH  16  17
ATOM     17  C   UNL     1      30.652  -4.119   0.966  1.00  0.00    -0.003 C 
ATOM     18  C   UNL     1      29.668  -3.234   1.731  1.00  0.00     0.004 C 
ENDBRANCH  16  17
ENDBRANCH  15  16
ENDBRANCH  14  15
ENDBRANCH  13  14
ENDBRANCH  12  13
ENDBRANCH  10  11
ENDBRANCH   1  10
TORSDOF 13
ENDMDL
MODEL 8
REMARK VINA RESULT:    -4.033      9.945     13.141
REMARK INTER + INTRA:          -7.794
REMARK INTER:                  -5.606
REMARK INTRA:                  -2.187
REMARK UNBOUND:                -0.696
REMARK SMILES CCCCCCC=CCCCCCCCC(=O)[O-]
REMARK SMILES IDX 10 1 11 2 12 3 13 4 14 5 15 6 16 7 17 8 18 9 9 10 8 11 7 12
REMARK SMILES IDX 6 13 5 14 4 15 3 16 2 17 1 18
REMARK H PARENT
REMARK Flexibility Score: inf
ROOT
ATOM      1  C   UNL     1      32.161   0.539  -1.869  1.00  0.00     0.004 C 
ENDROOT
BRANCH   1   2
ATOM      2  C   UNL     1      32.619  -0.872  -1.459  1.00  0.00     0.000 C 
BRANCH   2   3
ATOM      3  C   UNL     1      32.283  -1.270  -0.008  1.00  0.00     0.000 C 
BRANCH   3   4
ATOM      4  C   UNL     1      31.944  -2.760   0.201  1.00  0.00     0.000 C 
BRANCH   4   5
ATOM      5  C   UNL     1      30.494  -3.149  -0.133  1.00  0.00     0.006 C 
BRANCH   5   6
ATOM      6  C   UNL     1      29.485  -2.051   0.229  1.00  0.00     0.053 C 
BRANCH   6   7
ATOM      7  C   UNL     1      28.613  -2.496   1.360  1.00  0.00     0.041 C 
ATOM      8  O   UNL     1      29.105  -3.144   2.323  1.00  0.00    -0.550 OA
ATOM      9  O   UNL     1      27.267  -2.156   1.377  1.00  0.00    -0.550 OA
ENDBRANCH   6   7
ENDBRANCH   5   6
ENDBRANCH   4   5
ENDBRANCH   3   4
ENDBRANCH   2   3
ENDBRANCH   1   2
BRANCH   1  10
ATOM     10  C   UNL     1      31.072   1.103  -0.944  1.00  0.00     0.027 C 
BRANCH  10  11
ATOM     11  C   UNL     1      29.762   1.240  -1.669  1.00  0.00    -0.031 C 
ATOM     12  C   UNL     1      28.601   1.360  -1.008  1.00  0.00    -0.031 C 
BRANCH  12  13
ATOM     13  C   UNL     1      27.291   1.496  -1.735  1.00  0.00     0.027 C 
BRANCH  13  14
ATOM     14  C   UNL     1      26.248   0.511  -1.185  1.00  0.00     0.004 C 
BRANCH  14  15
ATOM     15  C   UNL     1      26.458  -0.923  -1.696  1.00  0.00     0.000 C 
BRANCH  15  16
ATOM     16  C   UNL     1      26.925  -0.963  -3.160  1.00  0.00    -0.000 C 
BRANCH  16  17
ATOM     17  C   UNL     1      27.958  -2.072  -3.418  1.00  0.00    -0.003 C 
ATOM     18  C   UNL     1      29.353  -1.523  -3.718  1.00  0.00     0.004 C 
ENDBRANCH  16  17
ENDBRANCH  15  16
ENDBRANCH  14  15
ENDBRANCH  13  14
ENDBRANCH  12  13
ENDBRANCH  10  11
ENDBRANCH   1  10
TORSDOF 13
ENDMDL
MODEL 9
REMARK VINA RESULT:    -4.017      8.979     12.189
REMARK INTER + INTRA:          -7.767
REMARK INTER:                  -5.366
REMARK INTRA:                  -2.401
REMARK UNBOUND:                -0.696
REMARK SMILES CCCCCCC=CCCCCCCCC(=O)[O-]
REMARK SMILES IDX 10 1 11 2 12 3 13 4 14 5 15 6 16 7 17 8 18 9 9 10 8 11 7 12
REMARK SMILES IDX 6 13 5 14 4 15 3 16 2 17 1 18
REMARK H PARENT
REMARK Flexibility Score: inf
ROOT
ATOM      1  C   UNL     1      29.406  -2.217  -4.408  1.00  0.00     0.004 C 
ENDROOT
BRANCH   1   2
ATOM      2  C   UNL     1      28.002  -2.398  -3.804  1.00  0.00     0.000 C 
BRANCH   2   3
ATOM      3  C   UNL     1      26.983  -1.305  -4.186  1.00  0.00     0.000 C 
BRANCH   3   4
ATOM      4  C   UNL     1      26.371  -0.535  -2.999  1.00  0.00     0.000 C 
BRANCH   4   5
ATOM      5  C   UNL     1      26.517  -1.227  -1.633  1.00  0.00     0.006 C 
BRANCH   5   6
ATOM      6  C   UNL     1      25.932  -0.399  -0.481  1.00  0.00     0.053 C 
BRANCH   6   7
ATOM      7  C   UNL     1      25.430  -1.298   0.604  1.00  0.00     0.041 C 
ATOM      8  O   UNL     1      24.372  -1.011   1.226  1.00  0.00    -0.550 OA
ATOM      9  O   UNL     1      26.102  -2.477   0.897  1.00  0.00    -0.550 OA
ENDBRANCH   6   7
ENDBRANCH   5   6
ENDBRANCH   4   5
ENDBRANCH   3   4
ENDBRANCH   2   3
ENDBRANCH   1   2
BRANCH   1  10
ATOM     10  C   UNL     1      29.902  -0.765  -4.337  1.00  0.00     0.027 C 
BRANCH  10  11
ATOM     11  C   UNL     1      30.322  -0.404  -2.939  1.00  0.00    -0.031 C 
ATOM     12  C   UNL     1      29.848   0.689  -2.323  1.00  0.00    -0.031 C 
BRANCH  12  13
ATOM     13  C   UNL     1      30.269   1.050  -0.924  1.00  0.00     0.027 C 
BRANCH  13  14
ATOM     14  C   UNL     1      30.671  -0.200  -0.127  1.00  0.00     0.004 C 
BRANCH  14  15
ATOM     15  C   UNL     1      29.478  -0.865   0.576  1.00  0.00     0.000 C 
BRANCH  15  16
ATOM     16  C   UNL     1      29.550  -2.401   0.533  1.00  0.00    -0.000 C 
BRANCH  16  17
ATOM     17  C   UNL     1      30.909  -2.912   0.029  1.00  0.00    -0.003 C 
ATOM     18  C   UNL     1      30.800  -3.690  -1.282  1.00  0.00     0.004 C 
ENDBRANCH  16  17
ENDBRANCH  15  16
ENDBRANCH  14  15
ENDBRANCH  13  14
ENDBRANCH  12  13
ENDBRANCH  10  11
ENDBRANCH   1  10
TORSDOF 13
ENDMDL
