MODEL 1
REMARK VINA RESULT:    -3.881      0.000      0.000
REMARK INTER + INTRA:          -4.494
REMARK INTER:                  -4.449
REMARK INTRA:                  -0.045
REMARK UNBOUND:                -0.045
REMARK SMILES O=C([O-])c1cc(O)c(O)c(O)c1
REMARK SMILES IDX 4 1 5 2 12 3 6 4 10 5 8 6 2 7 1 8 3 9 7 10 11 12 9 14
REMARK H PARENT 7 11 11 13 9 15
REMARK Flexibility Score: inf
ROOT
ATOM      1  C   UNL     1      -5.105   3.045  16.545  1.00  0.00     0.005 A 
ATOM      2  C   UNL     1      -4.548   3.848  17.553  1.00  0.00     0.060 A 
ATOM      3  C   UNL     1      -4.911   1.656  16.598  1.00  0.00     0.060 A 
ATOM      4  C   UNL     1      -3.811   3.279  18.595  1.00  0.00     0.162 A 
ATOM      5  C   UNL     1      -4.176   1.070  17.634  1.00  0.00     0.162 A 
ATOM      6  C   UNL     1      -3.618   1.886  18.647  1.00  0.00     0.200 A 
ENDROOT
BRANCH   1   7
ATOM      7  C   UNL     1      -5.884   3.650  15.442  1.00  0.00     0.072 C 
ATOM      8  O   UNL     1      -7.032   4.125  15.653  1.00  0.00    -0.545 OA
ATOM      9  O   UNL     1      -5.360   3.703  14.155  1.00  0.00    -0.545 OA
ENDBRANCH   1   7
BRANCH   4  10
ATOM     10  O   UNL     1      -3.278   4.117  19.573  1.00  0.00    -0.504 OA
ATOM     11  H   UNL     1      -3.751   4.957  19.885  1.00  0.00     0.293 HD
ENDBRANCH   4  10
BRANCH   5  12
ATOM     12  O   UNL     1      -4.027  -0.319  17.618  1.00  0.00    -0.504 OA
ATOM     13  H   UNL     1      -3.439  -0.820  16.967  1.00  0.00     0.293 HD
ENDBRANCH   5  12
BRANCH   6  14
ATOM     14  O   UNL     1      -2.875   1.357  19.706  1.00  0.00    -0.502 OA
ATOM     15  H   UNL     1      -2.141   1.853  20.188  1.00  0.00     0.293 HD
ENDBRANCH   6  14
TORSDOF 4
ENDMDL
MODEL 2
REMARK VINA RESULT:    -3.817      0.244      2.619
REMARK INTER + INTRA:          -4.420
REMARK INTER:                  -4.375
REMARK INTRA:                  -0.045
REMARK UNBOUND:                -0.045
REMARK SMILES O=C([O-])c1cc(O)c(O)c(O)c1
REMARK SMILES IDX 4 1 5 2 12 3 6 4 10 5 8 6 2 7 1 8 3 9 7 10 11 12 9 14
REMARK H PARENT 7 11 11 13 9 15
REMARK Flexibility Score: inf
ROOT
ATOM      1  C   UNL     1      -4.910   2.975  16.582  1.00  0.00     0.005 A 
ATOM      2  C   UNL     1      -4.725   1.586  16.669  1.00  0.00     0.060 A 
ATOM      3  C   UNL     1      -4.406   3.793  17.605  1.00  0.00     0.060 A 
ATOM      4  C   UNL     1      -4.050   1.022  17.755  1.00  0.00     0.162 A 
ATOM      5  C   UNL     1      -3.728   3.245  18.699  1.00  0.00     0.162 A 
ATOM      6  C   UNL     1      -3.544   1.844  18.779  1.00  0.00     0.200 A 
ENDROOT
BRANCH   1   7
ATOM      7  C   UNL     1      -5.626   3.570  15.431  1.00  0.00     0.072 C 
ATOM      8  O   UNL     1      -5.003   3.884  14.382  1.00  0.00    -0.545 OA
ATOM      9  O   UNL     1      -6.997   3.791  15.493  1.00  0.00    -0.545 OA
ENDBRANCH   1   7
BRANCH   4  10
ATOM     10  O   UNL     1      -3.889  -0.362  17.798  1.00  0.00    -0.504 OA
ATOM     11  H   UNL     1      -3.197  -0.810  18.386  1.00  0.00     0.293 HD
ENDBRANCH   4  10
BRANCH   5  12
ATOM     12  O   UNL     1      -3.256   4.125  19.676  1.00  0.00    -0.504 OA
ATOM     13  H   UNL     1      -3.378   3.989  20.669  1.00  0.00     0.293 HD
ENDBRANCH   5  12
BRANCH   6  14
ATOM     14  O   UNL     1      -2.876   1.240  19.848  1.00  0.00    -0.502 OA
ATOM     15  H   UNL     1      -3.216   0.432  20.347  1.00  0.00     0.293 HD
ENDBRANCH   6  14
TORSDOF 4
ENDMDL
MODEL 3
REMARK VINA RESULT:    -3.767      1.176      4.545
REMARK INTER + INTRA:          -4.363
REMARK INTER:                  -4.314
REMARK INTRA:                  -0.049
REMARK UNBOUND:                -0.045
REMARK SMILES O=C([O-])c1cc(O)c(O)c(O)c1
REMARK SMILES IDX 4 1 5 2 12 3 6 4 10 5 8 6 2 7 1 8 3 9 7 10 11 12 9 14
REMARK H PARENT 7 11 11 13 9 15
REMARK Flexibility Score: inf
ROOT
ATOM      1  C   UNL     1      -4.069   2.589  18.396  1.00  0.00     0.005 A 
ATOM      2  C   UNL     1      -3.856   1.388  17.701  1.00  0.00     0.060 A 
ATOM      3  C   UNL     1      -5.073   3.462  17.951  1.00  0.00     0.060 A 
ATOM      4  C   UNL     1      -4.629   1.062  16.584  1.00  0.00     0.162 A 
ATOM      5  C   UNL     1      -5.856   3.152  16.834  1.00  0.00     0.162 A 
ATOM      6  C   UNL     1      -5.635   1.938  16.139  1.00  0.00     0.200 A 
ENDROOT
BRANCH   1   7
ATOM      7  C   UNL     1      -3.249   2.932  19.580  1.00  0.00     0.072 C 
ATOM      8  O   UNL     1      -2.877   4.118  19.779  1.00  0.00    -0.545 OA
ATOM      9  O   UNL     1      -2.876   1.947  20.488  1.00  0.00    -0.545 OA
ENDBRANCH   1   7
BRANCH   4  10
ATOM     10  O   UNL     1      -4.381  -0.143  15.926  1.00  0.00    -0.504 OA
ATOM     11  H   UNL     1      -3.667  -0.792  16.235  1.00  0.00     0.293 HD
ENDBRANCH   4  10
BRANCH   5  12
ATOM     12  O   UNL     1      -6.835   4.072  16.453  1.00  0.00    -0.504 OA
ATOM     13  H   UNL     1      -6.859   4.538  15.557  1.00  0.00     0.293 HD
ENDBRANCH   5  12
BRANCH   6  14
ATOM     14  O   UNL     1      -6.386   1.575  15.017  1.00  0.00    -0.502 OA
ATOM     15  H   UNL     1      -6.568   0.622  14.740  1.00  0.00     0.293 HD
ENDBRANCH   6  14
TORSDOF 4
ENDMDL
MODEL 4
REMARK VINA RESULT:    -3.685      1.161      4.035
REMARK INTER + INTRA:          -4.269
REMARK INTER:                  -4.220
REMARK INTRA:                  -0.049
REMARK UNBOUND:                -0.045
REMARK SMILES O=C([O-])c1cc(O)c(O)c(O)c1
REMARK SMILES IDX 4 1 5 2 12 3 6 4 10 5 8 6 2 7 1 8 3 9 7 10 11 12 9 14
REMARK H PARENT 7 11 11 13 9 15
REMARK Flexibility Score: inf
ROOT
ATOM      1  C   UNL     1      -4.069   2.567  18.282  1.00  0.00     0.005 A 
ATOM      2  C   UNL     1      -5.104   3.417  17.863  1.00  0.00     0.060 A 
ATOM      3  C   UNL     1      -3.812   1.397  17.551  1.00  0.00     0.060 A 
ATOM      4  C   UNL     1      -5.870   3.108  16.736  1.00  0.00     0.162 A 
ATOM      5  C   UNL     1      -4.569   1.072  16.420  1.00  0.00     0.162 A 
ATOM      6  C   UNL     1      -5.611   1.935  16.003  1.00  0.00     0.200 A 
ENDROOT
BRANCH   1   7
ATOM      7  C   UNL     1      -3.260   2.896  19.477  1.00  0.00     0.072 C 
ATOM      8  O   UNL     1      -2.906   4.083  19.705  1.00  0.00    -0.545 OA
ATOM      9  O   UNL     1      -2.878   1.897  20.366  1.00  0.00    -0.545 OA
ENDBRANCH   1   7
BRANCH   4  10
ATOM     10  O   UNL     1      -6.887   3.983  16.357  1.00  0.00    -0.504 OA
ATOM     11  H   UNL     1      -7.862   3.807  16.571  1.00  0.00     0.293 HD
ENDBRANCH   4  10
BRANCH   5  12
ATOM     12  O   UNL     1      -4.252  -0.109  15.746  1.00  0.00    -0.504 OA
ATOM     13  H   UNL     1      -4.897  -0.874  15.606  1.00  0.00     0.293 HD
ENDBRANCH   5  12
BRANCH   6  14
ATOM     14  O   UNL     1      -6.400   1.663  14.882  1.00  0.00    -0.502 OA
ATOM     15  H   UNL     1      -6.745   2.366  14.246  1.00  0.00     0.293 HD
ENDBRANCH   6  14
TORSDOF 4
ENDMDL
MODEL 5
REMARK VINA RESULT:    -3.130      1.539      4.288
REMARK INTER + INTRA:          -3.632
REMARK INTER:                  -3.580
REMARK INTRA:                  -0.052
REMARK UNBOUND:                -0.045
REMARK SMILES O=C([O-])c1cc(O)c(O)c(O)c1
REMARK SMILES IDX 4 1 5 2 12 3 6 4 10 5 8 6 2 7 1 8 3 9 7 10 11 12 9 14
REMARK H PARENT 7 11 11 13 9 15
REMARK Flexibility Score: inf
ROOT
ATOM      1  C   UNL     1      -4.087   1.170  17.626  1.00  0.00     0.005 A 
ATOM      2  C   UNL     1      -4.786   2.371  17.829  1.00  0.00     0.060 A 
ATOM      3  C   UNL     1      -4.193   0.524  16.384  1.00  0.00     0.060 A 
ATOM      4  C   UNL     1      -5.574   2.919  16.814  1.00  0.00     0.162 A 
ATOM      5  C   UNL     1      -4.978   1.059  15.357  1.00  0.00     0.162 A 
ATOM      6  C   UNL     1      -5.678   2.272  15.569  1.00  0.00     0.200 A 
ENDROOT
BRANCH   1   7
ATOM      7  C   UNL     1      -3.254   0.591  18.703  1.00  0.00     0.072 C 
ATOM      8  O   UNL     1      -2.875   1.301  19.672  1.00  0.00    -0.545 OA
ATOM      9  O   UNL     1      -2.875  -0.746  18.659  1.00  0.00    -0.545 OA
ENDBRANCH   1   7
BRANCH   4  10
ATOM     10  O   UNL     1      -6.248   4.115  17.061  1.00  0.00    -0.504 OA
ATOM     11  H   UNL     1      -5.762   4.979  17.267  1.00  0.00     0.293 HD
ENDBRANCH   4  10
BRANCH   5  12
ATOM     12  O   UNL     1      -5.032   0.358  14.151  1.00  0.00    -0.504 OA
ATOM     13  H   UNL     1      -5.861  -0.095  13.794  1.00  0.00     0.293 HD
ENDBRANCH   5  12
BRANCH   6  14
ATOM     14  O   UNL     1      -6.477   2.853  14.581  1.00  0.00    -0.502 OA
ATOM     15  H   UNL     1      -7.424   2.571  14.378  1.00  0.00     0.293 HD
ENDBRANCH   6  14
TORSDOF 4
ENDMDL
MODEL 6
REMARK VINA RESULT:    -2.724      1.848      3.260
REMARK INTER + INTRA:          -3.167
REMARK INTER:                  -3.115
REMARK INTRA:                  -0.052
REMARK UNBOUND:                -0.045
REMARK SMILES O=C([O-])c1cc(O)c(O)c(O)c1
REMARK SMILES IDX 4 1 5 2 12 3 6 4 10 5 8 6 2 7 1 8 3 9 7 10 11 12 9 14
REMARK H PARENT 7 11 11 13 9 15
REMARK Flexibility Score: inf
ROOT
ATOM      1  C   UNL     1      -4.291   0.856  16.812  1.00  0.00     0.005 A 
ATOM      2  C   UNL     1      -3.810  -0.090  17.731  1.00  0.00     0.060 A 
ATOM      3  C   UNL     1      -4.297   2.212  17.173  1.00  0.00     0.060 A 
ATOM      4  C   UNL     1      -3.344   0.307  18.986  1.00  0.00     0.162 A 
ATOM      5  C   UNL     1      -3.834   2.626  18.427  1.00  0.00     0.162 A 
ATOM      6  C   UNL     1      -3.350   1.666  19.348  1.00  0.00     0.200 A 
ENDROOT
BRANCH   1   7
ATOM      7  C   UNL     1      -4.785   0.433  15.482  1.00  0.00     0.072 C 
ATOM      8  O   UNL     1      -4.536  -0.721  15.043  1.00  0.00    -0.545 OA
ATOM      9  O   UNL     1      -5.532   1.306  14.698  1.00  0.00    -0.545 OA
ENDBRANCH   1   7
BRANCH   4  10
ATOM     10  O   UNL     1      -2.875  -0.669  19.866  1.00  0.00    -0.504 OA
ATOM     11  H   UNL     1      -1.962  -0.613  20.302  1.00  0.00     0.293 HD
ENDBRANCH   4  10
BRANCH   5  12
ATOM     12  O   UNL     1      -3.873   3.993  18.712  1.00  0.00    -0.504 OA
ATOM     13  H   UNL     1      -4.708   4.495  18.975  1.00  0.00     0.293 HD
ENDBRANCH   5  12
BRANCH   6  14
ATOM     14  O   UNL     1      -2.875   2.021  20.613  1.00  0.00    -0.502 OA
ATOM     15  H   UNL     1      -3.191   2.826  21.133  1.00  0.00     0.293 HD
ENDBRANCH   6  14
TORSDOF 4
ENDMDL
MODEL 7
REMARK VINA RESULT:    -2.595      2.041      4.651
REMARK INTER + INTRA:          -3.019
REMARK INTER:                  -2.967
REMARK INTRA:                  -0.052
REMARK UNBOUND:                -0.045
REMARK SMILES O=C([O-])c1cc(O)c(O)c(O)c1
REMARK SMILES IDX 4 1 5 2 12 3 6 4 10 5 8 6 2 7 1 8 3 9 7 10 11 12 9 14
REMARK H PARENT 7 11 11 13 9 15
REMARK Flexibility Score: inf
ROOT
ATOM      1  C   UNL     1      -3.190   0.560  19.353  1.00  0.00     0.005 A 
ATOM      2  C   UNL     1      -3.009   1.952  19.374  1.00  0.00     0.060 A 
ATOM      3  C   UNL     1      -3.582  -0.056  18.155  1.00  0.00     0.060 A 
ATOM      4  C   UNL     1      -3.214   2.717  18.223  1.00  0.00     0.162 A 
ATOM      5  C   UNL     1      -3.791   0.694  16.993  1.00  0.00     0.162 A 
ATOM      6  C   UNL     1      -3.606   2.098  17.022  1.00  0.00     0.200 A 
ENDROOT
BRANCH   1   7
ATOM      7  C   UNL     1      -2.973  -0.247  20.574  1.00  0.00     0.072 C 
ATOM      8  O   UNL     1      -2.875  -1.501  20.505  1.00  0.00    -0.545 OA
ATOM      9  O   UNL     1      -2.875   0.368  21.817  1.00  0.00    -0.545 OA
ENDBRANCH   1   7
BRANCH   4  10
ATOM     10  O   UNL     1      -3.021   4.096  18.292  1.00  0.00    -0.504 OA
ATOM     11  H   UNL     1      -2.100   4.513  18.354  1.00  0.00     0.293 HD
ENDBRANCH   4  10
BRANCH   5  12
ATOM     12  O   UNL     1      -4.180   0.009  15.840  1.00  0.00    -0.504 OA
ATOM     13  H   UNL     1      -3.699  -0.799  15.470  1.00  0.00     0.293 HD
ENDBRANCH   5  12
BRANCH   6  14
ATOM     14  O   UNL     1      -3.800   2.899  15.893  1.00  0.00    -0.502 OA
ATOM     15  H   UNL     1      -3.158   2.952  15.117  1.00  0.00     0.293 HD
ENDBRANCH   6  14
TORSDOF 4
ENDMDL
MODEL 8
REMARK VINA RESULT:    -2.448      1.894      5.161
REMARK INTER + INTRA:          -2.851
REMARK INTER:                  -2.798
REMARK INTRA:                  -0.053
REMARK UNBOUND:                -0.045
REMARK SMILES O=C([O-])c1cc(O)c(O)c(O)c1
REMARK SMILES IDX 4 1 5 2 12 3 6 4 10 5 8 6 2 7 1 8 3 9 7 10 11 12 9 14
REMARK H PARENT 7 11 11 13 9 15
REMARK Flexibility Score: inf
ROOT
ATOM      1  C   UNL     1      -3.331   0.544  18.969  1.00  0.00     0.005 A 
ATOM      2  C   UNL     1      -3.737  -0.120  17.801  1.00  0.00     0.060 A 
ATOM      3  C   UNL     1      -3.204   1.941  18.947  1.00  0.00     0.060 A 
ATOM      4  C   UNL     1      -4.011   0.593  16.632  1.00  0.00     0.162 A 
ATOM      5  C   UNL     1      -3.474   2.672  17.784  1.00  0.00     0.162 A 
ATOM      6  C   UNL     1      -3.883   1.994  16.611  1.00  0.00     0.200 A 
ENDROOT
BRANCH   1   7
ATOM      7  C   UNL     1      -3.041  -0.214  20.207  1.00  0.00     0.072 C 
ATOM      8  O   UNL     1      -2.941  -1.470  20.180  1.00  0.00    -0.545 OA
ATOM      9  O   UNL     1      -2.875   0.450  21.417  1.00  0.00    -0.545 OA
ENDBRANCH   1   7
BRANCH   4  10
ATOM     10  O   UNL     1      -4.412  -0.110  15.496  1.00  0.00    -0.504 OA
ATOM     11  H   UNL     1      -4.202   0.210  14.558  1.00  0.00     0.293 HD
ENDBRANCH   4  10
BRANCH   5  12
ATOM     12  O   UNL     1      -3.323   4.059  17.841  1.00  0.00    -0.504 OA
ATOM     13  H   UNL     1      -3.524   4.619  18.657  1.00  0.00     0.293 HD
ENDBRANCH   5  12
BRANCH   6  14
ATOM     14  O   UNL     1      -4.167   2.670  15.421  1.00  0.00    -0.502 OA
ATOM     15  H   UNL     1      -4.306   3.667  15.353  1.00  0.00     0.293 HD
ENDBRANCH   6  14
TORSDOF 4
ENDMDL
