MODEL 1
REMARK VINA RESULT:    -4.634      0.000      0.000
REMARK INTER + INTRA:          -9.119
REMARK INTER:                  -8.427
REMARK INTRA:                  -0.692
REMARK UNBOUND:                -0.692
REMARK SMILES CCCCCCCCCCCCCC[C@H](C)C(=O)[O-]
REMARK SMILES IDX 9 1 10 2 11 3 12 4 13 5 14 6 15 7 16 8 17 9 18 10 19 11 8 12
REMARK SMILES IDX 7 13 6 14 5 15 4 16 3 17 2 18 1 19
REMARK H PARENT
REMARK Flexibility Score: inf
ROOT
ATOM      1  C   UNL     1      31.961  24.316  69.526  1.00  0.00     0.000 C 
ENDROOT
BRANCH   1   2
ATOM      2  C   UNL     1      30.494  23.932  69.293  1.00  0.00     0.000 C 
BRANCH   2   3
ATOM      3  C   UNL     1      30.163  23.878  67.797  1.00  0.00     0.000 C 
BRANCH   3   4
ATOM      4  C   UNL     1      31.411  24.167  66.955  1.00  0.00     0.000 C 
BRANCH   4   5
ATOM      5  C   UNL     1      31.074  24.245  65.461  1.00  0.00     0.001 C 
BRANCH   5   6
ATOM      6  C   UNL     1      31.923  25.325  64.769  1.00  0.00     0.009 C 
BRANCH   6   7
ATOM      7  C   UNL     1      31.485  25.645  63.322  1.00  0.00     0.032 C 
ATOM      8  C   UNL     1      31.910  27.056  62.884  1.00  0.00     0.014 C 
BRANCH   7   9
ATOM      9  C   UNL     1      30.009  25.403  63.123  1.00  0.00     0.044 C 
ATOM     10  O   UNL     1      29.622  24.342  62.569  1.00  0.00    -0.550 OA
ATOM     11  O   UNL     1      29.062  26.325  63.562  1.00  0.00    -0.550 OA
ENDBRANCH   7   9
ENDBRANCH   6   7
ENDBRANCH   5   6
ENDBRANCH   4   5
ENDBRANCH   3   4
ENDBRANCH   2   3
ENDBRANCH   1   2
BRANCH   1  12
ATOM     12  C   UNL     1      32.072  25.394  70.613  1.00  0.00     0.000 C 
BRANCH  12  13
ATOM     13  C   UNL     1      33.523  25.873  70.775  1.00  0.00    -0.000 C 
BRANCH  13  14
ATOM     14  C   UNL     1      34.509  25.032  69.949  1.00  0.00    -0.000 C 
BRANCH  14  15
ATOM     15  C   UNL     1      35.843  24.797  70.682  1.00  0.00    -0.000 C 
BRANCH  15  16
ATOM     16  C   UNL     1      36.945  24.271  69.737  1.00  0.00    -0.000 C 
BRANCH  16  17
ATOM     17  C   UNL     1      38.296  24.034  70.439  1.00  0.00    -0.000 C 
BRANCH  17  18
ATOM     18  C   UNL     1      38.218  23.949  71.973  1.00  0.00    -0.003 C 
ATOM     19  C   UNL     1      39.448  24.539  72.660  1.00  0.00     0.004 C 
ENDBRANCH  17  18
ENDBRANCH  16  17
ENDBRANCH  15  16
ENDBRANCH  14  15
ENDBRANCH  13  14
ENDBRANCH  12  13
ENDBRANCH   1  12
TORSDOF 14
ENDMDL
MODEL 2
REMARK VINA RESULT:    -4.608      4.080     10.000
REMARK INTER + INTRA:          -9.072
REMARK INTER:                  -8.173
REMARK INTRA:                  -0.899
REMARK UNBOUND:                -0.692
REMARK SMILES CCCCCCCCCCCCCC[C@H](C)C(=O)[O-]
REMARK SMILES IDX 9 1 10 2 11 3 12 4 13 5 14 6 15 7 16 8 17 9 18 10 19 11 8 12
REMARK SMILES IDX 7 13 6 14 5 15 4 16 3 17 2 18 1 19
REMARK H PARENT
REMARK Flexibility Score: inf
ROOT
ATOM      1  C   UNL     1      30.731  26.950  63.030  1.00  0.00     0.000 C 
ENDROOT
BRANCH   1   2
ATOM      2  C   UNL     1      32.172  26.425  63.082  1.00  0.00     0.000 C 
BRANCH   2   3
ATOM      3  C   UNL     1      32.206  24.903  63.258  1.00  0.00     0.000 C 
BRANCH   3   4
ATOM      4  C   UNL     1      33.177  24.509  64.378  1.00  0.00     0.000 C 
BRANCH   4   5
ATOM      5  C   UNL     1      32.479  24.492  65.744  1.00  0.00     0.001 C 
BRANCH   5   6
ATOM      6  C   UNL     1      33.482  24.155  66.861  1.00  0.00     0.009 C 
BRANCH   6   7
ATOM      7  C   UNL     1      32.840  23.960  68.253  1.00  0.00     0.032 C 
ATOM      8  C   UNL     1      31.412  24.524  68.318  1.00  0.00     0.014 C 
BRANCH   7   9
ATOM      9  C   UNL     1      33.720  24.501  69.351  1.00  0.00     0.044 C 
ATOM     10  O   UNL     1      33.439  24.255  70.553  1.00  0.00    -0.550 OA
ATOM     11  O   UNL     1      34.857  25.253  69.060  1.00  0.00    -0.550 OA
ENDBRANCH   7   9
ENDBRANCH   6   7
ENDBRANCH   5   6
ENDBRANCH   4   5
ENDBRANCH   3   4
ENDBRANCH   2   3
ENDBRANCH   1   2
BRANCH   1  12
ATOM     12  C   UNL     1      29.744  25.865  63.479  1.00  0.00     0.000 C 
BRANCH  12  13
ATOM     13  C   UNL     1      28.541  25.779  62.526  1.00  0.00    -0.000 C 
BRANCH  13  14
ATOM     14  C   UNL     1      28.324  24.356  61.988  1.00  0.00    -0.000 C 
BRANCH  14  15
ATOM     15  C   UNL     1      26.835  24.023  61.782  1.00  0.00    -0.000 C 
BRANCH  15  16
ATOM     16  C   UNL     1      25.915  25.212  62.139  1.00  0.00    -0.000 C 
BRANCH  16  17
ATOM     17  C   UNL     1      24.435  24.971  61.787  1.00  0.00    -0.000 C 
BRANCH  17  18
ATOM     18  C   UNL     1      23.643  24.181  62.842  1.00  0.00    -0.003 C 
ATOM     19  C   UNL     1      23.236  25.039  64.039  1.00  0.00     0.004 C 
ENDBRANCH  17  18
ENDBRANCH  16  17
ENDBRANCH  15  16
ENDBRANCH  14  15
ENDBRANCH  13  14
ENDBRANCH  12  13
ENDBRANCH   1  12
TORSDOF 14
ENDMDL
MODEL 3
REMARK VINA RESULT:    -4.333      3.307      8.119
REMARK INTER + INTRA:          -8.571
REMARK INTER:                  -7.358
REMARK INTRA:                  -1.212
REMARK UNBOUND:                -0.692
REMARK SMILES CCCCCCCCCCCCCC[C@H](C)C(=O)[O-]
REMARK SMILES IDX 9 1 10 2 11 3 12 4 13 5 14 6 15 7 16 8 17 9 18 10 19 11 8 12
REMARK SMILES IDX 7 13 6 14 5 15 4 16 3 17 2 18 1 19
REMARK H PARENT
REMARK Flexibility Score: inf
ROOT
ATOM      1  C   UNL     1      32.660  24.532  65.950  1.00  0.00     0.000 C 
ENDROOT
BRANCH   1   2
ATOM      2  C   UNL     1      33.208  24.174  67.338  1.00  0.00     0.000 C 
BRANCH   2   3
ATOM      3  C   UNL     1      34.710  23.878  67.286  1.00  0.00     0.000 C 
BRANCH   3   4
ATOM      4  C   UNL     1      35.480  24.816  68.224  1.00  0.00     0.000 C 
BRANCH   4   5
ATOM      5  C   UNL     1      35.881  24.105  69.522  1.00  0.00     0.001 C 
BRANCH   5   6
ATOM      6  C   UNL     1      34.897  24.446  70.654  1.00  0.00     0.009 C 
BRANCH   6   7
ATOM      7  C   UNL     1      34.118  25.763  70.442  1.00  0.00     0.032 C 
ATOM      8  C   UNL     1      34.755  26.943  71.192  1.00  0.00     0.014 C 
BRANCH   7   9
ATOM      9  C   UNL     1      32.654  25.600  70.768  1.00  0.00     0.044 C 
ATOM     10  O   UNL     1      31.973  26.607  71.093  1.00  0.00    -0.550 OA
ATOM     11  O   UNL     1      32.033  24.355  70.695  1.00  0.00    -0.550 OA
ENDBRANCH   7   9
ENDBRANCH   6   7
ENDBRANCH   5   6
ENDBRANCH   4   5
ENDBRANCH   3   4
ENDBRANCH   2   3
ENDBRANCH   1   2
BRANCH   1  12
ATOM     12  C   UNL     1      31.238  23.984  65.771  1.00  0.00     0.000 C 
BRANCH  12  13
ATOM     13  C   UNL     1      30.707  24.267  64.358  1.00  0.00    -0.000 C 
BRANCH  13  14
ATOM     14  C   UNL     1      29.769  25.483  64.321  1.00  0.00    -0.000 C 
BRANCH  14  15
ATOM     15  C   UNL     1      29.339  25.855  62.890  1.00  0.00    -0.000 C 
BRANCH  15  16
ATOM     16  C   UNL     1      29.769  27.286  62.502  1.00  0.00    -0.000 C 
BRANCH  16  17
ATOM     17  C   UNL     1      31.094  27.728  63.154  1.00  0.00    -0.000 C 
BRANCH  17  18
ATOM     18  C   UNL     1      32.343  27.514  62.282  1.00  0.00    -0.003 C 
ATOM     19  C   UNL     1      32.963  26.129  62.469  1.00  0.00     0.004 C 
ENDBRANCH  17  18
ENDBRANCH  16  17
ENDBRANCH  15  16
ENDBRANCH  14  15
ENDBRANCH  13  14
ENDBRANCH  12  13
ENDBRANCH   1  12
TORSDOF 14
ENDMDL
MODEL 4
REMARK VINA RESULT:    -4.088      2.323      4.906
REMARK INTER + INTRA:          -8.126
REMARK INTER:                  -7.136
REMARK INTRA:                  -0.990
REMARK UNBOUND:                -0.692
REMARK SMILES CCCCCCCCCCCCCC[C@H](C)C(=O)[O-]
REMARK SMILES IDX 9 1 10 2 11 3 12 4 13 5 14 6 15 7 16 8 17 9 18 10 19 11 8 12
REMARK SMILES IDX 7 13 6 14 5 15 4 16 3 17 2 18 1 19
REMARK H PARENT
REMARK Flexibility Score: inf
ROOT
ATOM      1  C   UNL     1      36.123  24.746  70.484  1.00  0.00     0.000 C 
ENDROOT
BRANCH   1   2
ATOM      2  C   UNL     1      35.095  25.409  71.410  1.00  0.00     0.000 C 
BRANCH   2   3
ATOM      3  C   UNL     1      34.253  26.446  70.658  1.00  0.00     0.000 C 
BRANCH   3   4
ATOM      4  C   UNL     1      32.758  26.146  70.816  1.00  0.00     0.000 C 
BRANCH   4   5
ATOM      5  C   UNL     1      32.406  24.754  70.278  1.00  0.00     0.001 C 
BRANCH   5   6
ATOM      6  C   UNL     1      31.623  24.864  68.958  1.00  0.00     0.009 C 
BRANCH   6   7
ATOM      7  C   UNL     1      32.237  24.064  67.787  1.00  0.00     0.032 C 
ATOM      8  C   UNL     1      33.748  24.305  67.648  1.00  0.00     0.014 C 
BRANCH   7   9
ATOM      9  C   UNL     1      31.496  24.313  66.497  1.00  0.00     0.044 C 
ATOM     10  O   UNL     1      32.134  24.666  65.472  1.00  0.00    -0.550 OA
ATOM     11  O   UNL     1      30.117  24.134  66.411  1.00  0.00    -0.550 OA
ENDBRANCH   7   9
ENDBRANCH   6   7
ENDBRANCH   5   6
ENDBRANCH   4   5
ENDBRANCH   3   4
ENDBRANCH   2   3
ENDBRANCH   1   2
BRANCH   1  12
ATOM     12  C   UNL     1      37.096  23.875  71.291  1.00  0.00     0.000 C 
BRANCH  12  13
ATOM     13  C   UNL     1      38.535  24.028  70.777  1.00  0.00    -0.000 C 
BRANCH  13  14
ATOM     14  C   UNL     1      39.573  23.903  71.904  1.00  0.00    -0.000 C 
BRANCH  14  15
ATOM     15  C   UNL     1      39.100  24.553  73.217  1.00  0.00    -0.000 C 
BRANCH  15  16
ATOM     16  C   UNL     1      39.944  25.790  73.594  1.00  0.00    -0.000 C 
BRANCH  16  17
ATOM     17  C   UNL     1      39.712  26.275  75.038  1.00  0.00    -0.000 C 
BRANCH  17  18
ATOM     18  C   UNL     1      39.591  27.800  75.193  1.00  0.00    -0.003 C 
ATOM     19  C   UNL     1      39.908  28.277  76.610  1.00  0.00     0.004 C 
ENDBRANCH  17  18
ENDBRANCH  16  17
ENDBRANCH  15  16
ENDBRANCH  14  15
ENDBRANCH  13  14
ENDBRANCH  12  13
ENDBRANCH   1  12
TORSDOF 14
ENDMDL
MODEL 5
REMARK VINA RESULT:    -4.069      2.983      7.727
REMARK INTER + INTRA:          -8.091
REMARK INTER:                  -7.167
REMARK INTRA:                  -0.924
REMARK UNBOUND:                -0.692
REMARK SMILES CCCCCCCCCCCCCC[C@H](C)C(=O)[O-]
REMARK SMILES IDX 9 1 10 2 11 3 12 4 13 5 14 6 15 7 16 8 17 9 18 10 19 11 8 12
REMARK SMILES IDX 7 13 6 14 5 15 4 16 3 17 2 18 1 19
REMARK H PARENT
REMARK Flexibility Score: inf
ROOT
ATOM      1  C   UNL     1      31.987  24.437  69.120  1.00  0.00     0.000 C 
ENDROOT
BRANCH   1   2
ATOM      2  C   UNL     1      31.363  24.803  70.473  1.00  0.00     0.000 C 
BRANCH   2   3
ATOM      3  C   UNL     1      32.053  26.022  71.094  1.00  0.00     0.000 C 
BRANCH   3   4
ATOM      4  C   UNL     1      33.426  26.254  70.452  1.00  0.00     0.000 C 
BRANCH   4   5
ATOM      5  C   UNL     1      34.555  25.705  71.331  1.00  0.00     0.001 C 
BRANCH   5   6
ATOM      6  C   UNL     1      34.772  24.205  71.062  1.00  0.00     0.009 C 
BRANCH   6   7
ATOM      7  C   UNL     1      36.092  23.876  70.330  1.00  0.00     0.032 C 
ATOM      8  C   UNL     1      37.328  24.249  71.164  1.00  0.00     0.014 C 
BRANCH   7   9
ATOM      9  C   UNL     1      36.127  24.483  68.950  1.00  0.00     0.044 C 
ATOM     10  O   UNL     1      37.022  25.320  68.661  1.00  0.00    -0.550 OA
ATOM     11  O   UNL     1      35.199  24.118  67.977  1.00  0.00    -0.550 OA
ENDBRANCH   7   9
ENDBRANCH   6   7
ENDBRANCH   5   6
ENDBRANCH   4   5
ENDBRANCH   3   4
ENDBRANCH   2   3
ENDBRANCH   1   2
BRANCH   1  12
ATOM     12  C   UNL     1      30.897  24.217  68.063  1.00  0.00     0.000 C 
BRANCH  12  13
ATOM     13  C   UNL     1      31.420  24.527  66.652  1.00  0.00    -0.000 C 
BRANCH  13  14
ATOM     14  C   UNL     1      30.434  24.093  65.556  1.00  0.00    -0.000 C 
BRANCH  14  15
ATOM     15  C   UNL     1      30.720  24.771  64.203  1.00  0.00    -0.000 C 
BRANCH  15  16
ATOM     16  C   UNL     1      32.072  24.330  63.602  1.00  0.00    -0.000 C 
BRANCH  16  17
ATOM     17  C   UNL     1      32.882  25.491  62.993  1.00  0.00    -0.000 C 
BRANCH  17  18
ATOM     18  C   UNL     1      32.226  26.875  63.131  1.00  0.00    -0.003 C 
ATOM     19  C   UNL     1      32.240  27.667  61.825  1.00  0.00     0.004 C 
ENDBRANCH  17  18
ENDBRANCH  16  17
ENDBRANCH  15  16
ENDBRANCH  14  15
ENDBRANCH  13  14
ENDBRANCH  12  13
ENDBRANCH   1  12
TORSDOF 14
ENDMDL
MODEL 6
REMARK VINA RESULT:    -4.050      3.504      9.441
REMARK INTER + INTRA:          -8.058
REMARK INTER:                  -7.433
REMARK INTRA:                  -0.625
REMARK UNBOUND:                -0.692
REMARK SMILES CCCCCCCCCCCCCC[C@H](C)C(=O)[O-]
REMARK SMILES IDX 9 1 10 2 11 3 12 4 13 5 14 6 15 7 16 8 17 9 18 10 19 11 8 12
REMARK SMILES IDX 7 13 6 14 5 15 4 16 3 17 2 18 1 19
REMARK H PARENT
REMARK Flexibility Score: inf
ROOT
ATOM      1  C   UNL     1      32.615  25.100  64.160  1.00  0.00     0.000 C 
ENDROOT
BRANCH   1   2
ATOM      2  C   UNL     1      31.359  24.761  64.973  1.00  0.00     0.000 C 
BRANCH   2   3
ATOM      3  C   UNL     1      31.714  24.369  66.412  1.00  0.00     0.000 C 
BRANCH   3   4
ATOM      4  C   UNL     1      33.235  24.346  66.608  1.00  0.00     0.000 C 
BRANCH   4   5
ATOM      5  C   UNL     1      33.608  24.323  68.095  1.00  0.00     0.001 C 
BRANCH   5   6
ATOM      6  C   UNL     1      35.091  24.688  68.287  1.00  0.00     0.009 C 
BRANCH   6   7
ATOM      7  C   UNL     1      35.459  25.103  69.730  1.00  0.00     0.032 C 
ATOM      8  C   UNL     1      36.097  23.950  70.521  1.00  0.00     0.014 C 
BRANCH   7   9
ATOM      9  C   UNL     1      34.282  25.710  70.450  1.00  0.00     0.044 C 
ATOM     10  O   UNL     1      34.220  26.958  70.601  1.00  0.00    -0.550 OA
ATOM     11  O   UNL     1      33.244  24.916  70.934  1.00  0.00    -0.550 OA
ENDBRANCH   7   9
ENDBRANCH   6   7
ENDBRANCH   5   6
ENDBRANCH   4   5
ENDBRANCH   3   4
ENDBRANCH   2   3
ENDBRANCH   1   2
BRANCH   1  12
ATOM     12  C   UNL     1      32.274  26.060  63.013  1.00  0.00     0.000 C 
BRANCH  12  13
ATOM     13  C   UNL     1      31.172  27.048  63.424  1.00  0.00    -0.000 C 
BRANCH  13  14
ATOM     14  C   UNL     1      30.024  27.099  62.403  1.00  0.00    -0.000 C 
BRANCH  14  15
ATOM     15  C   UNL     1      28.697  26.572  62.980  1.00  0.00    -0.000 C 
BRANCH  15  16
ATOM     16  C   UNL     1      28.506  25.061  62.721  1.00  0.00    -0.000 C 
BRANCH  16  17
ATOM     17  C   UNL     1      27.329  24.742  61.779  1.00  0.00    -0.000 C 
BRANCH  17  18
ATOM     18  C   UNL     1      25.942  25.090  62.343  1.00  0.00    -0.003 C 
ATOM     19  C   UNL     1      24.895  25.296  61.248  1.00  0.00     0.004 C 
ENDBRANCH  17  18
ENDBRANCH  16  17
ENDBRANCH  15  16
ENDBRANCH  14  15
ENDBRANCH  13  14
ENDBRANCH  12  13
ENDBRANCH   1  12
TORSDOF 14
ENDMDL
MODEL 7
REMARK VINA RESULT:    -3.993      1.997      4.000
REMARK INTER + INTRA:          -7.954
REMARK INTER:                  -7.494
REMARK INTRA:                  -0.460
REMARK UNBOUND:                -0.692
REMARK SMILES CCCCCCCCCCCCCC[C@H](C)C(=O)[O-]
REMARK SMILES IDX 9 1 10 2 11 3 12 4 13 5 14 6 15 7 16 8 17 9 18 10 19 11 8 12
REMARK SMILES IDX 7 13 6 14 5 15 4 16 3 17 2 18 1 19
REMARK H PARENT
REMARK Flexibility Score: inf
ROOT
ATOM      1  C   UNL     1      34.428  24.493  67.929  1.00  0.00     0.000 C 
ENDROOT
BRANCH   1   2
ATOM      2  C   UNL     1      34.443  23.875  66.524  1.00  0.00     0.000 C 
BRANCH   2   3
ATOM      3  C   UNL     1      33.082  24.021  65.836  1.00  0.00     0.000 C 
BRANCH   3   4
ATOM      4  C   UNL     1      33.258  24.209  64.324  1.00  0.00     0.000 C 
BRANCH   4   5
ATOM      5  C   UNL     1      32.724  25.570  63.863  1.00  0.00     0.001 C 
BRANCH   5   6
ATOM      6  C   UNL     1      31.248  25.460  63.442  1.00  0.00     0.009 C 
BRANCH   6   7
ATOM      7  C   UNL     1      30.709  26.698  62.689  1.00  0.00     0.032 C 
ATOM      8  C   UNL     1      31.545  27.957  62.968  1.00  0.00     0.014 C 
BRANCH   7   9
ATOM      9  C   UNL     1      29.240  26.914  62.957  1.00  0.00     0.044 C 
ATOM     10  O   UNL     1      28.485  25.921  63.121  1.00  0.00    -0.550 OA
ATOM     11  O   UNL     1      28.705  28.197  63.050  1.00  0.00    -0.550 OA
ENDBRANCH   7   9
ENDBRANCH   6   7
ENDBRANCH   5   6
ENDBRANCH   4   5
ENDBRANCH   3   4
ENDBRANCH   2   3
ENDBRANCH   1   2
BRANCH   1  12
ATOM     12  C   UNL     1      35.556  23.907  68.790  1.00  0.00     0.000 C 
BRANCH  12  13
ATOM     13  C   UNL     1      35.220  24.004  70.286  1.00  0.00    -0.000 C 
BRANCH  13  14
ATOM     14  C   UNL     1      35.710  25.321  70.908  1.00  0.00    -0.000 C 
BRANCH  14  15
ATOM     15  C   UNL     1      34.591  26.373  71.021  1.00  0.00    -0.000 C 
BRANCH  15  16
ATOM     16  C   UNL     1      33.224  25.825  70.559  1.00  0.00    -0.000 C 
BRANCH  16  17
ATOM     17  C   UNL     1      32.024  26.507  71.244  1.00  0.00    -0.000 C 
BRANCH  17  18
ATOM     18  C   UNL     1      30.913  25.548  71.702  1.00  0.00    -0.003 C 
ATOM     19  C   UNL     1      30.903  24.238  70.914  1.00  0.00     0.004 C 
ENDBRANCH  17  18
ENDBRANCH  16  17
ENDBRANCH  15  16
ENDBRANCH  14  15
ENDBRANCH  13  14
ENDBRANCH  12  13
ENDBRANCH   1  12
TORSDOF 14
ENDMDL
MODEL 8
REMARK VINA RESULT:    -3.957      3.629      6.290
REMARK INTER + INTRA:          -7.888
REMARK INTER:                  -7.048
REMARK INTRA:                  -0.840
REMARK UNBOUND:                -0.692
REMARK SMILES CCCCCCCCCCCCCC[C@H](C)C(=O)[O-]
REMARK SMILES IDX 9 1 10 2 11 3 12 4 13 5 14 6 15 7 16 8 17 9 18 10 19 11 8 12
REMARK SMILES IDX 7 13 6 14 5 15 4 16 3 17 2 18 1 19
REMARK H PARENT
REMARK Flexibility Score: inf
ROOT
ATOM      1  C   UNL     1      31.128  26.601  63.432  1.00  0.00     0.000 C 
ENDROOT
BRANCH   1   2
ATOM      2  C   UNL     1      29.754  26.083  63.875  1.00  0.00     0.000 C 
BRANCH   2   3
ATOM      3  C   UNL     1      28.823  25.875  62.675  1.00  0.00     0.000 C 
BRANCH   3   4
ATOM      4  C   UNL     1      28.685  24.382  62.349  1.00  0.00     0.000 C 
BRANCH   4   5
ATOM      5  C   UNL     1      27.347  24.079  61.666  1.00  0.00     0.001 C 
BRANCH   5   6
ATOM      6  C   UNL     1      26.240  25.001  62.208  1.00  0.00     0.009 C 
BRANCH   6   7
ATOM      7  C   UNL     1      24.864  24.804  61.533  1.00  0.00     0.032 C 
ATOM      8  C   UNL     1      24.484  25.989  60.631  1.00  0.00     0.014 C 
BRANCH   7   9
ATOM      9  C   UNL     1      23.791  24.486  62.544  1.00  0.00     0.044 C 
ATOM     10  O   UNL     1      22.753  23.876  62.179  1.00  0.00    -0.550 OA
ATOM     11  O   UNL     1      23.937  24.836  63.885  1.00  0.00    -0.550 OA
ENDBRANCH   7   9
ENDBRANCH   6   7
ENDBRANCH   5   6
ENDBRANCH   4   5
ENDBRANCH   3   4
ENDBRANCH   2   3
ENDBRANCH   1   2
BRANCH   1  12
ATOM     12  C   UNL     1      32.203  25.524  63.630  1.00  0.00     0.000 C 
BRANCH  12  13
ATOM     13  C   UNL     1      31.748  24.467  64.648  1.00  0.00    -0.000 C 
BRANCH  13  14
ATOM     14  C   UNL     1      32.513  24.570  65.977  1.00  0.00    -0.000 C 
BRANCH  14  15
ATOM     15  C   UNL     1      31.600  24.371  67.201  1.00  0.00    -0.000 C 
BRANCH  15  16
ATOM     16  C   UNL     1      32.402  24.241  68.514  1.00  0.00    -0.000 C 
BRANCH  16  17
ATOM     17  C   UNL     1      31.603  24.648  69.766  1.00  0.00    -0.000 C 
BRANCH  17  18
ATOM     18  C   UNL     1      32.302  25.679  70.669  1.00  0.00    -0.003 C 
ATOM     19  C   UNL     1      31.314  26.570  71.422  1.00  0.00     0.004 C 
ENDBRANCH  17  18
ENDBRANCH  16  17
ENDBRANCH  15  16
ENDBRANCH  14  15
ENDBRANCH  13  14
ENDBRANCH  12  13
ENDBRANCH   1  12
TORSDOF 14
ENDMDL
