MODEL 1
REMARK VINA RESULT:    -3.837      0.000      0.000
REMARK INTER + INTRA:          -7.119
REMARK INTER:                  -5.855
REMARK INTRA:                  -1.263
REMARK UNBOUND:                -1.263
REMARK SMILES OC[C@@H]1O[C@H](O[C@@]2(CO)O[C@H](CO)[C@H](O)[C@H]2O)[C@H](O)[C@@H](O)[C@@H]1O
REMARK SMILES IDX 6 1 5 2 3 3 22 4 4 5 20 6 18 7 2 8 1 9 23 11 21 13 19 15
REMARK SMILES IDX 7 17 16 18 10 19 14 20 11 21 8 22 9 23 17 25 15 27 12 29
REMARK SMILES IDX 13 30
REMARK H PARENT 1 10 23 12 21 14 19 16 9 24 17 26 15 28 13 31
REMARK Flexibility Score: inf
ROOT
ATOM      1  O   UNL     1     -32.946  10.640 -39.276  1.00  0.00    -0.313 OA
ENDROOT
BRANCH   1   2
ATOM      2  C   UNL     1     -33.880   9.693 -39.783  1.00  0.00     0.285 C 
ATOM      3  C   UNL     1     -35.634  11.055 -40.682  1.00  0.00     0.178 C 
ATOM      4  C   UNL     1     -35.669  10.303 -42.020  1.00  0.00     0.177 C 
ATOM      5  O   UNL     1     -35.204  10.194 -39.639  1.00  0.00    -0.341 OA
ATOM      6  C   UNL     1     -34.269   9.831 -42.409  1.00  0.00     0.179 C 
ATOM      7  C   UNL     1     -33.479   9.214 -41.217  1.00  0.00     0.202 C 
BRANCH   3   8
ATOM      8  C   UNL     1     -34.892  12.412 -40.721  1.00  0.00     0.191 C 
BRANCH   8   9
ATOM      9  O   UNL     1     -34.789  12.995 -39.444  1.00  0.00    -0.394 OA
ATOM     10  H   UNL     1     -33.840  12.876 -39.146  1.00  0.00     0.210 HD
ENDBRANCH   8   9
ENDBRANCH   3   8
BRANCH   4  11
ATOM     11  O   UNL     1     -36.196  11.102 -43.058  1.00  0.00    -0.387 OA
ATOM     12  H   UNL     1     -35.565  11.050 -43.831  1.00  0.00     0.211 HD
ENDBRANCH   4  11
BRANCH   6  13
ATOM     13  O   UNL     1     -34.410   8.875 -43.431  1.00  0.00    -0.387 OA
ATOM     14  H   UNL     1     -33.621   8.969 -44.029  1.00  0.00     0.211 HD
ENDBRANCH   6  13
BRANCH   7  15
ATOM     15  O   UNL     1     -32.100   9.447 -41.399  1.00  0.00    -0.385 OA
ATOM     16  H   UNL     1     -31.997  10.232 -42.003  1.00  0.00     0.211 HD
ENDBRANCH   7  15
ENDBRANCH   1   2
BRANCH   1  17
ATOM     17  C   UNL     1     -32.772  10.572 -37.854  1.00  0.00     0.224 C 
ATOM     18  C   UNL     1     -31.497   9.786 -37.434  1.00  0.00     0.208 C 
ATOM     19  O   UNL     1     -33.905   9.996 -37.222  1.00  0.00    -0.337 OA
ATOM     20  C   UNL     1     -31.963   8.952 -36.259  1.00  0.00     0.180 C 
ATOM     21  C   UNL     1     -33.478   8.898 -36.446  1.00  0.00     0.179 C 
BRANCH  17  22
ATOM     22  C   UNL     1     -32.650  12.023 -37.339  1.00  0.00     0.225 C 
BRANCH  22  23
ATOM     23  O   UNL     1     -33.875  12.478 -36.843  1.00  0.00    -0.391 OA
ATOM     24  H   UNL     1     -34.398  12.772 -37.638  1.00  0.00     0.210 HD
ENDBRANCH  22  23
ENDBRANCH  17  22
BRANCH  18  25
ATOM     25  O   UNL     1     -31.046   8.948 -38.467  1.00  0.00    -0.385 OA
ATOM     26  H   UNL     1     -30.147   8.624 -38.192  1.00  0.00     0.211 HD
ENDBRANCH  18  25
BRANCH  20  27
ATOM     27  O   UNL     1     -31.618   9.582 -35.052  1.00  0.00    -0.387 OA
ATOM     28  H   UNL     1     -31.522  10.547 -35.253  1.00  0.00     0.211 HD
ENDBRANCH  20  27
BRANCH  21  29
ATOM     29  C   UNL     1     -34.265   8.875 -35.128  1.00  0.00     0.191 C 
BRANCH  29  30
ATOM     30  O   UNL     1     -34.588  10.181 -34.737  1.00  0.00    -0.394 OA
ATOM     31  H   UNL     1     -34.509  10.748 -35.550  1.00  0.00     0.210 HD
ENDBRANCH  29  30
ENDBRANCH  21  29
ENDBRANCH   1  17
TORSDOF 13
ENDMDL
MODEL 2
REMARK VINA RESULT:    -3.447      1.222      1.965
REMARK INTER + INTRA:          -6.523
REMARK INTER:                  -7.715
REMARK INTRA:                   1.192
REMARK UNBOUND:                -1.263
REMARK SMILES OC[C@@H]1O[C@H](O[C@@]2(CO)O[C@H](CO)[C@H](O)[C@H]2O)[C@H](O)[C@@H](O)[C@@H]1O
REMARK SMILES IDX 6 1 5 2 3 3 22 4 4 5 20 6 18 7 2 8 1 9 23 11 21 13 19 15
REMARK SMILES IDX 7 17 16 18 10 19 14 20 11 21 8 22 9 23 17 25 15 27 12 29
REMARK SMILES IDX 13 30
REMARK H PARENT 1 10 23 12 21 14 19 16 9 24 17 26 15 28 13 31
REMARK Flexibility Score: inf
ROOT
ATOM      1  O   UNL     1     -32.840  10.641 -38.720  1.00  0.00    -0.313 OA
ENDROOT
BRANCH   1   2
ATOM      2  C   UNL     1     -33.863   9.771 -39.191  1.00  0.00     0.285 C 
ATOM      3  C   UNL     1     -35.482  11.263 -40.137  1.00  0.00     0.178 C 
ATOM      4  C   UNL     1     -35.595  10.469 -41.447  1.00  0.00     0.177 C 
ATOM      5  O   UNL     1     -35.133  10.403 -39.064  1.00  0.00    -0.341 OA
ATOM      6  C   UNL     1     -34.249   9.849 -41.819  1.00  0.00     0.179 C 
ATOM      7  C   UNL     1     -33.517   9.203 -40.606  1.00  0.00     0.202 C 
BRANCH   3   8
ATOM      8  C   UNL     1     -34.611  12.539 -40.228  1.00  0.00     0.191 C 
BRANCH   8   9
ATOM      9  O   UNL     1     -34.365  13.101 -38.960  1.00  0.00    -0.394 OA
ATOM     10  H   UNL     1     -33.384  13.005 -38.786  1.00  0.00     0.210 HD
ENDBRANCH   8   9
ENDBRANCH   3   8
BRANCH   4  11
ATOM     11  O   UNL     1     -36.047  11.278 -42.513  1.00  0.00    -0.387 OA
ATOM     12  H   UNL     1     -35.965  12.231 -42.226  1.00  0.00     0.211 HD
ENDBRANCH   4  11
BRANCH   6  13
ATOM     13  O   UNL     1     -34.487   8.875 -42.805  1.00  0.00    -0.387 OA
ATOM     14  H   UNL     1     -34.985   8.133 -42.368  1.00  0.00     0.211 HD
ENDBRANCH   6  13
BRANCH   7  15
ATOM     15  O   UNL     1     -32.124   9.294 -40.798  1.00  0.00    -0.385 OA
ATOM     16  H   UNL     1     -31.709   9.559 -39.933  1.00  0.00     0.211 HD
ENDBRANCH   7  15
ENDBRANCH   1   2
BRANCH   1  17
ATOM     17  C   UNL     1     -32.599  10.536 -37.310  1.00  0.00     0.224 C 
ATOM     18  C   UNL     1     -33.376   9.363 -36.645  1.00  0.00     0.208 C 
ATOM     19  O   UNL     1     -32.917  11.746 -36.640  1.00  0.00    -0.337 OA
ATOM     20  C   UNL     1     -33.879   9.960 -35.347  1.00  0.00     0.180 C 
ATOM     21  C   UNL     1     -33.844  11.463 -35.614  1.00  0.00     0.179 C 
BRANCH  17  22
ATOM     22  C   UNL     1     -31.085  10.293 -37.121  1.00  0.00     0.225 C 
BRANCH  22  23
ATOM     23  O   UNL     1     -30.597   9.423 -38.100  1.00  0.00    -0.391 OA
ATOM     24  H   UNL     1     -30.292  10.002 -38.851  1.00  0.00     0.210 HD
ENDBRANCH  22  23
ENDBRANCH  17  22
BRANCH  18  25
ATOM     25  O   UNL     1     -34.462   8.953 -37.436  1.00  0.00    -0.385 OA
ATOM     26  H   UNL     1     -35.233   8.843 -36.817  1.00  0.00     0.211 HD
ENDBRANCH  18  25
BRANCH  20  27
ATOM     27  O   UNL     1     -33.025   9.607 -34.290  1.00  0.00    -0.387 OA
ATOM     28  H   UNL     1     -32.169   9.323 -34.699  1.00  0.00     0.211 HD
ENDBRANCH  20  27
BRANCH  21  29
ATOM     29  C   UNL     1     -33.500  12.304 -34.377  1.00  0.00     0.191 C 
BRANCH  29  30
ATOM     30  O   UNL     1     -34.668  12.631 -33.677  1.00  0.00    -0.394 OA
ATOM     31  H   UNL     1     -34.408  13.296 -32.985  1.00  0.00     0.210 HD
ENDBRANCH  29  30
ENDBRANCH  21  29
ENDBRANCH   1  17
TORSDOF 13
ENDMDL
MODEL 3
REMARK VINA RESULT:    -3.443      2.501      3.848
REMARK INTER + INTRA:          -6.518
REMARK INTER:                  -6.092
REMARK INTRA:                  -0.426
REMARK UNBOUND:                -1.263
REMARK SMILES OC[C@@H]1O[C@H](O[C@@]2(CO)O[C@H](CO)[C@H](O)[C@H]2O)[C@H](O)[C@@H](O)[C@@H]1O
REMARK SMILES IDX 6 1 5 2 3 3 22 4 4 5 20 6 18 7 2 8 1 9 23 11 21 13 19 15
REMARK SMILES IDX 7 17 16 18 10 19 14 20 11 21 8 22 9 23 17 25 15 27 12 29
REMARK SMILES IDX 13 30
REMARK H PARENT 1 10 23 12 21 14 19 16 9 24 17 26 15 28 13 31
REMARK Flexibility Score: inf
ROOT
ATOM      1  O   UNL     1     -32.422  11.125 -36.357  1.00  0.00    -0.313 OA
ENDROOT
BRANCH   1   2
ATOM      2  C   UNL     1     -32.876   9.959 -37.035  1.00  0.00     0.285 C 
ATOM      3  C   UNL     1     -34.404  10.815 -38.670  1.00  0.00     0.178 C 
ATOM      4  C   UNL     1     -33.774  10.020 -39.822  1.00  0.00     0.177 C 
ATOM      5  O   UNL     1     -34.230  10.131 -37.439  1.00  0.00    -0.341 OA
ATOM      6  C   UNL     1     -32.266   9.884 -39.621  1.00  0.00     0.179 C 
ATOM      7  C   UNL     1     -31.874   9.529 -38.156  1.00  0.00     0.202 C 
BRANCH   3   8
ATOM      8  C   UNL     1     -34.002  12.309 -38.619  1.00  0.00     0.191 C 
BRANCH   8   9
ATOM      9  O   UNL     1     -34.689  13.073 -39.581  1.00  0.00    -0.394 OA
ATOM     10  H   UNL     1     -35.663  13.022 -39.350  1.00  0.00     0.210 HD
ENDBRANCH   8   9
ENDBRANCH   3   8
BRANCH   4  11
ATOM     11  O   UNL     1     -34.025  10.622 -41.074  1.00  0.00    -0.387 OA
ATOM     12  H   UNL     1     -33.335  11.330 -41.214  1.00  0.00     0.211 HD
ENDBRANCH   4  11
BRANCH   6  13
ATOM     13  O   UNL     1     -31.809   8.879 -40.491  1.00  0.00    -0.387 OA
ATOM     14  H   UNL     1     -32.406   8.092 -40.369  1.00  0.00     0.211 HD
ENDBRANCH   6  13
BRANCH   7  15
ATOM     15  O   UNL     1     -30.609  10.081 -37.864  1.00  0.00    -0.385 OA
ATOM     16  H   UNL     1     -30.710  11.069 -37.800  1.00  0.00     0.211 HD
ENDBRANCH   7  15
ENDBRANCH   1   2
BRANCH   1  17
ATOM     17  C   UNL     1     -32.989  11.288 -35.050  1.00  0.00     0.224 C 
ATOM     18  C   UNL     1     -33.987  12.479 -34.964  1.00  0.00     0.208 C 
ATOM     19  O   UNL     1     -31.980  11.451 -34.065  1.00  0.00    -0.337 OA
ATOM     20  C   UNL     1     -33.649  13.130 -33.638  1.00  0.00     0.180 C 
ATOM     21  C   UNL     1     -32.226  12.650 -33.363  1.00  0.00     0.179 C 
BRANCH  17  22
ATOM     22  C   UNL     1     -33.747   9.984 -34.715  1.00  0.00     0.225 C 
BRANCH  22  23
ATOM     23  O   UNL     1     -35.124  10.215 -34.647  1.00  0.00    -0.391 OA
ATOM     24  H   UNL     1     -35.515   9.765 -35.445  1.00  0.00     0.210 HD
ENDBRANCH  22  23
ENDBRANCH  17  22
BRANCH  18  25
ATOM     25  O   UNL     1     -33.788  13.393 -36.011  1.00  0.00    -0.385 OA
ATOM     26  H   UNL     1     -33.768  14.296 -35.594  1.00  0.00     0.211 HD
ENDBRANCH  18  25
BRANCH  20  27
ATOM     27  O   UNL     1     -34.540  12.693 -32.644  1.00  0.00    -0.387 OA
ATOM     28  H   UNL     1     -34.038  12.059 -32.073  1.00  0.00     0.211 HD
ENDBRANCH  20  27
BRANCH  21  29
ATOM     29  C   UNL     1     -31.922  12.435 -31.874  1.00  0.00     0.191 C 
BRANCH  29  30
ATOM     30  O   UNL     1     -32.462  13.482 -31.116  1.00  0.00    -0.394 OA
ATOM     31  H   UNL     1     -32.827  13.073 -30.286  1.00  0.00     0.210 HD
ENDBRANCH  29  30
ENDBRANCH  21  29
ENDBRANCH   1  17
TORSDOF 13
ENDMDL
MODEL 4
REMARK VINA RESULT:    -3.411      1.321      6.036
REMARK INTER + INTRA:          -6.468
REMARK INTER:                  -6.872
REMARK INTRA:                   0.404
REMARK UNBOUND:                -1.263
REMARK SMILES OC[C@@H]1O[C@H](O[C@@]2(CO)O[C@H](CO)[C@H](O)[C@H]2O)[C@H](O)[C@@H](O)[C@@H]1O
REMARK SMILES IDX 6 1 5 2 3 3 22 4 4 5 20 6 18 7 2 8 1 9 23 11 21 13 19 15
REMARK SMILES IDX 7 17 16 18 10 19 14 20 11 21 8 22 9 23 17 25 15 27 12 29
REMARK SMILES IDX 13 30
REMARK H PARENT 1 10 23 12 21 14 19 16 9 24 17 26 15 28 13 31
REMARK Flexibility Score: inf
ROOT
ATOM      1  O   UNL     1     -34.274   9.756 -39.055  1.00  0.00    -0.313 OA
ENDROOT
BRANCH   1   2
ATOM      2  C   UNL     1     -33.354  10.719 -38.555  1.00  0.00     0.285 C 
ATOM      3  C   UNL     1     -33.801  10.762 -36.202  1.00  0.00     0.178 C 
ATOM      4  C   UNL     1     -32.322  10.624 -35.816  1.00  0.00     0.177 C 
ATOM      5  O   UNL     1     -33.930  11.415 -37.455  1.00  0.00    -0.341 OA
ATOM      6  C   UNL     1     -31.580   9.752 -36.828  1.00  0.00     0.179 C 
ATOM      7  C   UNL     1     -31.948  10.082 -38.305  1.00  0.00     0.202 C 
BRANCH   3   8
ATOM      8  C   UNL     1     -34.624   9.455 -36.088  1.00  0.00     0.191 C 
BRANCH   8   9
ATOM      9  O   UNL     1     -35.011   9.190 -34.761  1.00  0.00    -0.394 OA
ATOM     10  H   UNL     1     -34.219   9.393 -34.181  1.00  0.00     0.210 HD
ENDBRANCH   8   9
ENDBRANCH   3   8
BRANCH   4  11
ATOM     11  O   UNL     1     -32.165  10.075 -34.524  1.00  0.00    -0.387 OA
ATOM     12  H   UNL     1     -31.191   9.903 -34.384  1.00  0.00     0.211 HD
ENDBRANCH   4  11
BRANCH   6  13
ATOM     13  O   UNL     1     -30.202   9.944 -36.626  1.00  0.00    -0.387 OA
ATOM     14  H   UNL     1     -29.993   9.622 -35.708  1.00  0.00     0.211 HD
ENDBRANCH   6  13
BRANCH   7  15
ATOM     15  O   UNL     1     -31.838   8.914 -39.086  1.00  0.00    -0.385 OA
ATOM     16  H   UNL     1     -32.067   9.148 -40.026  1.00  0.00     0.211 HD
ENDBRANCH   7  15
ENDBRANCH   1   2
BRANCH   1  17
ATOM     17  C   UNL     1     -34.596   9.933 -40.441  1.00  0.00     0.224 C 
ATOM     18  C   UNL     1     -34.925  11.409 -40.806  1.00  0.00     0.208 C 
ATOM     19  O   UNL     1     -35.679   9.102 -40.831  1.00  0.00    -0.337 OA
ATOM     20  C   UNL     1     -36.118  11.289 -41.732  1.00  0.00     0.180 C 
ATOM     21  C   UNL     1     -36.686   9.912 -41.397  1.00  0.00     0.179 C 
BRANCH  17  22
ATOM     22  C   UNL     1     -33.362   9.487 -41.257  1.00  0.00     0.225 C 
BRANCH  22  23
ATOM     23  O   UNL     1     -33.753   8.875 -42.452  1.00  0.00    -0.391 OA
ATOM     24  H   UNL     1     -33.450   9.483 -43.181  1.00  0.00     0.210 HD
ENDBRANCH  22  23
ENDBRANCH  17  22
BRANCH  18  25
ATOM     25  O   UNL     1     -35.276  12.153 -39.668  1.00  0.00    -0.385 OA
ATOM     26  H   UNL     1     -36.122  12.626 -39.892  1.00  0.00     0.211 HD
ENDBRANCH  18  25
BRANCH  20  27
ATOM     27  O   UNL     1     -35.699  11.358 -43.071  1.00  0.00    -0.387 OA
ATOM     28  H   UNL     1     -36.166  12.132 -43.475  1.00  0.00     0.211 HD
ENDBRANCH  20  27
BRANCH  21  29
ATOM     29  C   UNL     1     -37.300   9.185 -42.601  1.00  0.00     0.191 C 
BRANCH  29  30
ATOM     30  O   UNL     1     -38.122  10.060 -43.324  1.00  0.00    -0.394 OA
ATOM     31  H   UNL     1     -38.561  10.652 -42.658  1.00  0.00     0.210 HD
ENDBRANCH  29  30
ENDBRANCH  21  29
ENDBRANCH   1  17
TORSDOF 13
ENDMDL
MODEL 5
REMARK VINA RESULT:    -2.956      1.320      6.040
REMARK INTER + INTRA:          -5.775
REMARK INTER:                  -5.421
REMARK INTRA:                  -0.354
REMARK UNBOUND:                -1.263
REMARK SMILES OC[C@@H]1O[C@H](O[C@@]2(CO)O[C@H](CO)[C@H](O)[C@H]2O)[C@H](O)[C@@H](O)[C@@H]1O
REMARK SMILES IDX 6 1 5 2 3 3 22 4 4 5 20 6 18 7 2 8 1 9 23 11 21 13 19 15
REMARK SMILES IDX 7 17 16 18 10 19 14 20 11 21 8 22 9 23 17 25 15 27 12 29
REMARK SMILES IDX 13 30
REMARK H PARENT 1 10 23 12 21 14 19 16 9 24 17 26 15 28 13 31
REMARK Flexibility Score: inf
ROOT
ATOM      1  O   UNL     1     -33.352  10.388 -38.893  1.00  0.00    -0.313 OA
ENDROOT
BRANCH   1   2
ATOM      2  C   UNL     1     -34.291  10.314 -37.827  1.00  0.00     0.285 C 
ATOM      3  C   UNL     1     -33.225   8.878 -36.233  1.00  0.00     0.178 C 
ATOM      4  C   UNL     1     -33.477   9.832 -35.055  1.00  0.00     0.177 C 
ATOM      5  O   UNL     1     -34.234   9.028 -37.219  1.00  0.00    -0.341 OA
ATOM      6  C   UNL     1     -33.409  11.286 -35.516  1.00  0.00     0.179 C 
ATOM      7  C   UNL     1     -34.150  11.537 -36.863  1.00  0.00     0.202 C 
BRANCH   3   8
ATOM      8  C   UNL     1     -31.785   8.916 -36.798  1.00  0.00     0.191 C 
BRANCH   8   9
ATOM      9  O   UNL     1     -31.002   9.911 -36.181  1.00  0.00    -0.394 OA
ATOM     10  H   UNL     1     -30.056   9.757 -36.472  1.00  0.00     0.210 HD
ENDBRANCH   8   9
ENDBRANCH   3   8
BRANCH   4  11
ATOM     11  O   UNL     1     -32.552   9.630 -34.009  1.00  0.00    -0.387 OA
ATOM     12  H   UNL     1     -31.741  10.176 -34.212  1.00  0.00     0.211 HD
ENDBRANCH   4  11
BRANCH   6  13
ATOM     13  O   UNL     1     -33.978  12.081 -34.505  1.00  0.00    -0.387 OA
ATOM     14  H   UNL     1     -33.516  11.848 -33.655  1.00  0.00     0.211 HD
ENDBRANCH   6  13
BRANCH   7  15
ATOM     15  O   UNL     1     -33.515  12.586 -37.557  1.00  0.00    -0.385 OA
ATOM     16  H   UNL     1     -33.647  13.425 -37.038  1.00  0.00     0.211 HD
ENDBRANCH   7  15
ENDBRANCH   1   2
BRANCH   1  17
ATOM     17  C   UNL     1     -33.930  10.157 -40.186  1.00  0.00     0.224 C 
ATOM     18  C   UNL     1     -34.367  11.469 -40.900  1.00  0.00     0.208 C 
ATOM     19  O   UNL     1     -35.040   9.276 -40.106  1.00  0.00    -0.337 OA
ATOM     20  C   UNL     1     -35.705  11.111 -41.512  1.00  0.00     0.180 C 
ATOM     21  C   UNL     1     -36.159   9.908 -40.688  1.00  0.00     0.179 C 
BRANCH  17  22
ATOM     22  C   UNL     1     -32.855   9.460 -41.049  1.00  0.00     0.225 C 
BRANCH  22  23
ATOM     23  O   UNL     1     -31.781   9.040 -40.260  1.00  0.00    -0.391 OA
ATOM     24  H   UNL     1     -32.046   8.155 -39.888  1.00  0.00     0.210 HD
ENDBRANCH  22  23
ENDBRANCH  17  22
BRANCH  18  25
ATOM     25  O   UNL     1     -34.524  12.523 -39.986  1.00  0.00    -0.385 OA
ATOM     26  H   UNL     1     -34.553  12.108 -39.082  1.00  0.00     0.211 HD
ENDBRANCH  18  25
BRANCH  20  27
ATOM     27  O   UNL     1     -35.543  10.774 -42.865  1.00  0.00    -0.387 OA
ATOM     28  H   UNL     1     -35.648   9.791 -42.927  1.00  0.00     0.211 HD
ENDBRANCH  20  27
BRANCH  21  29
ATOM     29  C   UNL     1     -36.962   8.875 -41.490  1.00  0.00     0.191 C 
BRANCH  29  30
ATOM     30  O   UNL     1     -38.004   9.506 -42.182  1.00  0.00    -0.394 OA
ATOM     31  H   UNL     1     -37.863   9.312 -43.147  1.00  0.00     0.210 HD
ENDBRANCH  29  30
ENDBRANCH  21  29
ENDBRANCH   1  17
TORSDOF 13
ENDMDL
MODEL 6
REMARK VINA RESULT:    -2.632      1.414      6.012
REMARK INTER + INTRA:          -5.281
REMARK INTER:                  -4.052
REMARK INTRA:                  -1.228
REMARK UNBOUND:                -1.263
REMARK SMILES OC[C@@H]1O[C@H](O[C@@]2(CO)O[C@H](CO)[C@H](O)[C@H]2O)[C@H](O)[C@@H](O)[C@@H]1O
REMARK SMILES IDX 6 1 5 2 3 3 22 4 4 5 20 6 18 7 2 8 1 9 23 11 21 13 19 15
REMARK SMILES IDX 7 17 16 18 10 19 14 20 11 21 8 22 9 23 17 25 15 27 12 29
REMARK SMILES IDX 13 30
REMARK H PARENT 1 10 23 12 21 14 19 16 9 24 17 26 15 28 13 31
REMARK Flexibility Score: inf
ROOT
ATOM      1  O   UNL     1     -34.644  10.320 -38.936  1.00  0.00    -0.313 OA
ENDROOT
BRANCH   1   2
ATOM      2  C   UNL     1     -33.551   9.655 -38.312  1.00  0.00     0.285 C 
ATOM      3  C   UNL     1     -32.370  11.422 -37.207  1.00  0.00     0.178 C 
ATOM      4  C   UNL     1     -32.290  10.669 -35.871  1.00  0.00     0.177 C 
ATOM      5  O   UNL     1     -32.412  10.509 -38.291  1.00  0.00    -0.341 OA
ATOM      6  C   UNL     1     -33.538   9.815 -35.659  1.00  0.00     0.179 C 
ATOM      7  C   UNL     1     -33.974   9.040 -36.938  1.00  0.00     0.202 C 
BRANCH   3   8
ATOM      8  C   UNL     1     -33.461  12.518 -37.266  1.00  0.00     0.191 C 
BRANCH   8   9
ATOM      9  O   UNL     1     -33.472  13.185 -38.506  1.00  0.00    -0.394 OA
ATOM     10  H   UNL     1     -32.526  13.456 -38.698  1.00  0.00     0.210 HD
ENDBRANCH   8   9
ENDBRANCH   3   8
BRANCH   4  11
ATOM     11  O   UNL     1     -32.138  11.551 -34.779  1.00  0.00    -0.387 OA
ATOM     12  H   UNL     1     -31.771  12.410 -35.132  1.00  0.00     0.211 HD
ENDBRANCH   4  11
BRANCH   6  13
ATOM     13  O   UNL     1     -33.261   8.905 -34.623  1.00  0.00    -0.387 OA
ATOM     14  H   UNL     1     -33.693   8.043 -34.868  1.00  0.00     0.211 HD
ENDBRANCH   6  13
BRANCH   7  15
ATOM     15  O   UNL     1     -35.374   8.875 -36.930  1.00  0.00    -0.385 OA
ATOM     16  H   UNL     1     -35.601   8.132 -37.553  1.00  0.00     0.211 HD
ENDBRANCH   7  15
ENDBRANCH   1   2
BRANCH   1  17
ATOM     17  C   UNL     1     -34.829   9.957 -40.311  1.00  0.00     0.224 C 
ATOM     18  C   UNL     1     -34.676  11.161 -41.285  1.00  0.00     0.208 C 
ATOM     19  O   UNL     1     -36.093   9.345 -40.519  1.00  0.00    -0.337 OA
ATOM     20  C   UNL     1     -35.802  10.960 -42.278  1.00  0.00     0.180 C 
ATOM     21  C   UNL     1     -36.777  10.057 -41.526  1.00  0.00     0.179 C 
BRANCH  17  22
ATOM     22  C   UNL     1     -33.750   8.905 -40.655  1.00  0.00     0.225 C 
BRANCH  22  23
ATOM     23  O   UNL     1     -32.678   9.497 -41.328  1.00  0.00    -0.391 OA
ATOM     24  H   UNL     1     -33.054  10.297 -41.788  1.00  0.00     0.210 HD
ENDBRANCH  22  23
ENDBRANCH  17  22
BRANCH  18  25
ATOM     25  O   UNL     1     -34.839  12.385 -40.617  1.00  0.00    -0.385 OA
ATOM     26  H   UNL     1     -34.132  12.420 -39.918  1.00  0.00     0.211 HD
ENDBRANCH  18  25
BRANCH  20  27
ATOM     27  O   UNL     1     -35.317  10.336 -43.438  1.00  0.00    -0.387 OA
ATOM     28  H   UNL     1     -34.376  10.089 -43.255  1.00  0.00     0.211 HD
ENDBRANCH  20  27
BRANCH  21  29
ATOM     29  C   UNL     1     -37.523   9.064 -42.427  1.00  0.00     0.191 C 
BRANCH  29  30
ATOM     30  O   UNL     1     -38.144   9.745 -43.483  1.00  0.00    -0.394 OA
ATOM     31  H   UNL     1     -37.543  10.499 -43.727  1.00  0.00     0.210 HD
ENDBRANCH  29  30
ENDBRANCH  21  29
ENDBRANCH   1  17
TORSDOF 13
ENDMDL
MODEL 7
REMARK VINA RESULT:    -2.454      2.017      6.360
REMARK INTER + INTRA:          -5.008
REMARK INTER:                  -4.768
REMARK INTRA:                  -0.240
REMARK UNBOUND:                -1.263
REMARK SMILES OC[C@@H]1O[C@H](O[C@@]2(CO)O[C@H](CO)[C@H](O)[C@H]2O)[C@H](O)[C@@H](O)[C@@H]1O
REMARK SMILES IDX 6 1 5 2 3 3 22 4 4 5 20 6 18 7 2 8 1 9 23 11 21 13 19 15
REMARK SMILES IDX 7 17 16 18 10 19 14 20 11 21 8 22 9 23 17 25 15 27 12 29
REMARK SMILES IDX 13 30
REMARK H PARENT 1 10 23 12 21 14 19 16 9 24 17 26 15 28 13 31
REMARK Flexibility Score: inf
ROOT
ATOM      1  O   UNL     1     -35.153  11.003 -41.321  1.00  0.00    -0.313 OA
ENDROOT
BRANCH   1   2
ATOM      2  C   UNL     1     -35.148  10.784 -39.915  1.00  0.00     0.285 C 
ATOM      3  C   UNL     1     -33.343   9.242 -39.588  1.00  0.00     0.178 C 
ATOM      4  C   UNL     1     -32.716  10.062 -38.451  1.00  0.00     0.177 C 
ATOM      5  O   UNL     1     -34.746   9.447 -39.634  1.00  0.00    -0.341 OA
ATOM      6  C   UNL     1     -32.920  11.557 -38.689  1.00  0.00     0.179 C 
ATOM      7  C   UNL     1     -34.359  11.909 -39.169  1.00  0.00     0.202 C 
BRANCH   3   8
ATOM      8  C   UNL     1     -32.642   9.397 -40.959  1.00  0.00     0.191 C 
BRANCH   8   9
ATOM      9  O   UNL     1     -31.290   9.009 -40.907  1.00  0.00    -0.394 OA
ATOM     10  H   UNL     1     -30.792   9.749 -40.451  1.00  0.00     0.210 HD
ENDBRANCH   8   9
ENDBRANCH   3   8
BRANCH   4  11
ATOM     11  O   UNL     1     -31.336   9.796 -38.312  1.00  0.00    -0.387 OA
ATOM     12  H   UNL     1     -31.213   9.264 -37.476  1.00  0.00     0.211 HD
ENDBRANCH   4  11
BRANCH   6  13
ATOM     13  O   UNL     1     -32.645  12.222 -37.481  1.00  0.00    -0.387 OA
ATOM     14  H   UNL     1     -32.304  11.540 -36.843  1.00  0.00     0.211 HD
ENDBRANCH   6  13
BRANCH   7  15
ATOM     15  O   UNL     1     -34.310  13.048 -39.998  1.00  0.00    -0.385 OA
ATOM     16  H   UNL     1     -35.245  13.318 -40.209  1.00  0.00     0.211 HD
ENDBRANCH   7  15
ENDBRANCH   1   2
BRANCH   1  17
ATOM     17  C   UNL     1     -36.184  10.284 -42.012  1.00  0.00     0.224 C 
ATOM     18  C   UNL     1     -36.604  10.957 -43.349  1.00  0.00     0.208 C 
ATOM     19  O   UNL     1     -37.331  10.112 -41.193  1.00  0.00    -0.337 OA
ATOM     20  C   UNL     1     -38.114  10.833 -43.351  1.00  0.00     0.180 C 
ATOM     21  C   UNL     1     -38.452  10.632 -41.875  1.00  0.00     0.179 C 
BRANCH  17  22
ATOM     22  C   UNL     1     -35.630   8.875 -42.321  1.00  0.00     0.225 C 
BRANCH  22  23
ATOM     23  O   UNL     1     -34.810   8.903 -43.453  1.00  0.00    -0.391 OA
ATOM     24  H   UNL     1     -35.421   8.812 -44.234  1.00  0.00     0.210 HD
ENDBRANCH  22  23
ENDBRANCH  17  22
BRANCH  18  25
ATOM     25  O   UNL     1     -36.235  12.311 -43.381  1.00  0.00    -0.385 OA
ATOM     26  H   UNL     1     -36.493  12.692 -42.499  1.00  0.00     0.211 HD
ENDBRANCH  18  25
BRANCH  20  27
ATOM     27  O   UNL     1     -38.507   9.728 -44.122  1.00  0.00    -0.387 OA
ATOM     28  H   UNL     1     -39.495   9.687 -44.077  1.00  0.00     0.211 HD
ENDBRANCH  20  27
BRANCH  21  29
ATOM     29  C   UNL     1     -39.659   9.714 -41.636  1.00  0.00     0.191 C 
BRANCH  29  30
ATOM     30  O   UNL     1     -40.018   9.735 -40.282  1.00  0.00    -0.394 OA
ATOM     31  H   UNL     1     -40.987   9.511 -40.242  1.00  0.00     0.210 HD
ENDBRANCH  29  30
ENDBRANCH  21  29
ENDBRANCH   1  17
TORSDOF 13
ENDMDL
MODEL 8
REMARK VINA RESULT:    -2.431      1.710      3.209
REMARK INTER + INTRA:          -4.973
REMARK INTER:                  -4.618
REMARK INTRA:                  -0.355
REMARK UNBOUND:                -1.263
REMARK SMILES OC[C@@H]1O[C@H](O[C@@]2(CO)O[C@H](CO)[C@H](O)[C@H]2O)[C@H](O)[C@@H](O)[C@@H]1O
REMARK SMILES IDX 6 1 5 2 3 3 22 4 4 5 20 6 18 7 2 8 1 9 23 11 21 13 19 15
REMARK SMILES IDX 7 17 16 18 10 19 14 20 11 21 8 22 9 23 17 25 15 27 12 29
REMARK SMILES IDX 13 30
REMARK H PARENT 1 10 23 12 21 14 19 16 9 24 17 26 15 28 13 31
REMARK Flexibility Score: inf
ROOT
ATOM      1  O   UNL     1     -33.763   9.735 -38.003  1.00  0.00    -0.313 OA
ENDROOT
BRANCH   1   2
ATOM      2  C   UNL     1     -33.217  10.539 -39.042  1.00  0.00     0.285 C 
ATOM      3  C   UNL     1     -34.259   9.686 -41.023  1.00  0.00     0.178 C 
ATOM      4  C   UNL     1     -34.666  11.078 -41.529  1.00  0.00     0.177 C 
ATOM      5  O   UNL     1     -33.084   9.769 -40.232  1.00  0.00    -0.341 OA
ATOM      6  C   UNL     1     -35.006  11.998 -40.358  1.00  0.00     0.179 C 
ATOM      7  C   UNL     1     -33.993  11.889 -39.180  1.00  0.00     0.202 C 
BRANCH   3   8
ATOM      8  C   UNL     1     -35.403   8.877 -40.367  1.00  0.00     0.191 C 
BRANCH   8   9
ATOM      9  O   UNL     1     -36.572   8.885 -41.151  1.00  0.00    -0.394 OA
ATOM     10  H   UNL     1     -36.295   9.125 -42.083  1.00  0.00     0.210 HD
ENDBRANCH   8   9
ENDBRANCH   3   8
BRANCH   4  11
ATOM     11  O   UNL     1     -35.769  11.015 -42.408  1.00  0.00    -0.387 OA
ATOM     12  H   UNL     1     -35.414  11.047 -43.342  1.00  0.00     0.211 HD
ENDBRANCH   4  11
BRANCH   6  13
ATOM     13  O   UNL     1     -35.029  13.317 -40.845  1.00  0.00    -0.387 OA
ATOM     14  H   UNL     1     -34.148  13.485 -41.275  1.00  0.00     0.211 HD
ENDBRANCH   6  13
BRANCH   7  15
ATOM     15  O   UNL     1     -34.659  12.152 -37.966  1.00  0.00    -0.385 OA
ATOM     16  H   UNL     1     -34.686  11.307 -37.439  1.00  0.00     0.211 HD
ENDBRANCH   7  15
ENDBRANCH   1   2
BRANCH   1  17
ATOM     17  C   UNL     1     -33.055   9.842 -36.760  1.00  0.00     0.224 C 
ATOM     18  C   UNL     1     -33.807   9.178 -35.571  1.00  0.00     0.208 C 
ATOM     19  O   UNL     1     -32.776  11.197 -36.439  1.00  0.00    -0.337 OA
ATOM     20  C   UNL     1     -33.621  10.164 -34.437  1.00  0.00     0.180 C 
ATOM     21  C   UNL     1     -33.298  11.471 -35.157  1.00  0.00     0.179 C 
BRANCH  17  22
ATOM     22  C   UNL     1     -31.697   9.128 -36.945  1.00  0.00     0.225 C 
BRANCH  22  23
ATOM     23  O   UNL     1     -30.641   9.969 -36.579  1.00  0.00    -0.391 OA
ATOM     24  H   UNL     1     -30.560  10.638 -37.312  1.00  0.00     0.210 HD
ENDBRANCH  22  23
ENDBRANCH  17  22
BRANCH  18  25
ATOM     25  O   UNL     1     -35.174   9.022 -35.851  1.00  0.00    -0.385 OA
ATOM     26  H   UNL     1     -35.648   9.096 -34.980  1.00  0.00     0.211 HD
ENDBRANCH  18  25
BRANCH  20  27
ATOM     27  O   UNL     1     -32.559   9.757 -33.612  1.00  0.00    -0.387 OA
ATOM     28  H   UNL     1     -32.779  10.061 -32.696  1.00  0.00     0.211 HD
ENDBRANCH  20  27
BRANCH  21  29
ATOM     29  C   UNL     1     -32.316  12.372 -34.395  1.00  0.00     0.191 C 
BRANCH  29  30
ATOM     30  O   UNL     1     -32.543  12.274 -33.016  1.00  0.00    -0.394 OA
ATOM     31  H   UNL     1     -32.742  13.194 -32.696  1.00  0.00     0.210 HD
ENDBRANCH  29  30
ENDBRANCH  21  29
ENDBRANCH   1  17
TORSDOF 13
ENDMDL
MODEL 9
REMARK VINA RESULT:    -2.075      1.498      6.162
REMARK INTER + INTRA:          -4.430
REMARK INTER:                  -3.184
REMARK INTRA:                  -1.246
REMARK UNBOUND:                -1.263
REMARK SMILES OC[C@@H]1O[C@H](O[C@@]2(CO)O[C@H](CO)[C@H](O)[C@H]2O)[C@H](O)[C@@H](O)[C@@H]1O
REMARK SMILES IDX 6 1 5 2 3 3 22 4 4 5 20 6 18 7 2 8 1 9 23 11 21 13 19 15
REMARK SMILES IDX 7 17 16 18 10 19 14 20 11 21 8 22 9 23 17 25 15 27 12 29
REMARK SMILES IDX 13 30
REMARK H PARENT 1 10 23 12 21 14 19 16 9 24 17 26 15 28 13 31
REMARK Flexibility Score: inf
ROOT
ATOM      1  O   UNL     1     -33.735   9.940 -39.950  1.00  0.00    -0.313 OA
ENDROOT
BRANCH   1   2
ATOM      2  C   UNL     1     -34.298  10.024 -38.646  1.00  0.00     0.285 C 
ATOM      3  C   UNL     1     -32.592   9.111 -37.233  1.00  0.00     0.178 C 
ATOM      4  C   UNL     1     -32.646  10.283 -36.241  1.00  0.00     0.177 C 
ATOM      5  O   UNL     1     -33.854   8.927 -37.854  1.00  0.00    -0.341 OA
ATOM      6  C   UNL     1     -32.957  11.590 -36.968  1.00  0.00     0.179 C 
ATOM      7  C   UNL     1     -34.088  11.446 -38.029  1.00  0.00     0.202 C 
BRANCH   3   8
ATOM      8  C   UNL     1     -31.405   9.158 -38.225  1.00  0.00     0.191 C 
BRANCH   8   9
ATOM      9  O   UNL     1     -30.209   9.553 -37.597  1.00  0.00    -0.394 OA
ATOM     10  H   UNL     1     -29.759   8.717 -37.276  1.00  0.00     0.210 HD
ENDBRANCH   8   9
ENDBRANCH   3   8
BRANCH   4  11
ATOM     11  O   UNL     1     -31.436  10.422 -35.527  1.00  0.00    -0.387 OA
ATOM     12  H   UNL     1     -30.706  10.038 -36.090  1.00  0.00     0.211 HD
ENDBRANCH   4  11
BRANCH   6  13
ATOM     13  O   UNL     1     -33.332  12.537 -35.999  1.00  0.00    -0.387 OA
ATOM     14  H   UNL     1     -34.067  13.081 -36.391  1.00  0.00     0.211 HD
ENDBRANCH   6  13
BRANCH   7  15
ATOM     15  O   UNL     1     -33.865  12.362 -39.077  1.00  0.00    -0.385 OA
ATOM     16  H   UNL     1     -34.501  13.121 -38.965  1.00  0.00     0.211 HD
ENDBRANCH   7  15
ENDBRANCH   1   2
BRANCH   1  17
ATOM     17  C   UNL     1     -34.704   9.702 -40.981  1.00  0.00     0.224 C 
ATOM     18  C   UNL     1     -34.136   8.875 -42.170  1.00  0.00     0.208 C 
ATOM     19  O   UNL     1     -35.245  10.918 -41.473  1.00  0.00    -0.337 OA
ATOM     20  C   UNL     1     -34.709   9.567 -43.389  1.00  0.00     0.180 C 
ATOM     21  C   UNL     1     -35.061  10.960 -42.871  1.00  0.00     0.179 C 
BRANCH  17  22
ATOM     22  C   UNL     1     -35.866   8.911 -40.341  1.00  0.00     0.225 C 
BRANCH  22  23
ATOM     23  O   UNL     1     -36.976   8.886 -41.191  1.00  0.00    -0.391 OA
ATOM     24  H   UNL     1     -37.655   9.480 -40.769  1.00  0.00     0.210 HD
ENDBRANCH  22  23
ENDBRANCH  17  22
BRANCH  18  25
ATOM     25  O   UNL     1     -32.733   8.924 -42.207  1.00  0.00    -0.385 OA
ATOM     26  H   UNL     1     -32.445   9.334 -41.347  1.00  0.00     0.211 HD
ENDBRANCH  18  25
BRANCH  20  27
ATOM     27  O   UNL     1     -35.851   8.885 -43.840  1.00  0.00    -0.387 OA
ATOM     28  H   UNL     1     -35.529   8.089 -44.334  1.00  0.00     0.211 HD
ENDBRANCH  20  27
BRANCH  21  29
ATOM     29  C   UNL     1     -36.308  11.568 -43.526  1.00  0.00     0.191 C 
BRANCH  29  30
ATOM     30  O   UNL     1     -37.464  10.959 -43.020  1.00  0.00    -0.394 OA
ATOM     31  H   UNL     1     -37.775  10.319 -43.715  1.00  0.00     0.210 HD
ENDBRANCH  29  30
ENDBRANCH  21  29
ENDBRANCH   1  17
TORSDOF 13
ENDMDL
