MODEL 1
REMARK VINA RESULT:    -4.405      0.000      0.000
REMARK INTER + INTRA:          -5.069
REMARK INTER:                  -5.049
REMARK INTRA:                  -0.020
REMARK UNBOUND:                -0.020
REMARK SMILES O=C([O-])C=Cc1ccc(O)cc1
REMARK SMILES IDX 6 1 7 2 12 3 8 4 11 5 9 6 5 7 4 8 2 9 1 10 3 11 10 12
REMARK H PARENT 10 13
REMARK Flexibility Score: inf
ROOT
ATOM      1  C   UNL     1     -11.497  82.459 -10.287  1.00  0.00    -0.025 A 
ATOM      2  C   UNL     1     -11.338  81.741 -11.481  1.00  0.00     0.012 A 
ATOM      3  C   UNL     1     -12.655  83.234 -10.099  1.00  0.00     0.012 A 
ATOM      4  C   UNL     1     -12.344  81.754 -12.451  1.00  0.00     0.047 A 
ATOM      5  C   UNL     1     -13.660  83.245 -11.070  1.00  0.00     0.047 A 
ATOM      6  C   UNL     1     -13.509  82.502 -12.249  1.00  0.00     0.115 A 
ENDROOT
BRANCH   1   7
ATOM      7  C   UNL     1     -10.398  82.474  -9.299  1.00  0.00     0.010 C 
ATOM      8  C   UNL     1     -10.515  82.156  -8.000  1.00  0.00     0.025 C 
BRANCH   8   9
ATOM      9  C   UNL     1     -11.707  81.569  -7.359  1.00  0.00     0.064 C 
ATOM     10  O   UNL     1     -11.815  80.325  -7.184  1.00  0.00    -0.545 OA
ATOM     11  O   UNL     1     -12.700  82.409  -6.875  1.00  0.00    -0.545 OA
ENDBRANCH   8   9
ENDBRANCH   1   7
BRANCH   6  12
ATOM     12  O   UNL     1     -14.504  82.503 -13.224  1.00  0.00    -0.508 OA
ATOM     13  H   UNL     1     -15.223  83.217 -13.243  1.00  0.00     0.293 HD
ENDBRANCH   6  12
TORSDOF 3
ENDMDL
MODEL 2
REMARK VINA RESULT:    -4.246      2.826      4.350
REMARK INTER + INTRA:          -4.886
REMARK INTER:                  -4.602
REMARK INTRA:                  -0.284
REMARK UNBOUND:                -0.020
REMARK SMILES O=C([O-])C=Cc1ccc(O)cc1
REMARK SMILES IDX 6 1 7 2 12 3 8 4 11 5 9 6 5 7 4 8 2 9 1 10 3 11 10 12
REMARK H PARENT 10 13
REMARK Flexibility Score: inf
ROOT
ATOM      1  C   UNL     1     -13.016  83.645  -9.802  1.00  0.00    -0.025 A 
ATOM      2  C   UNL     1     -11.882  84.363  -9.395  1.00  0.00     0.012 A 
ATOM      3  C   UNL     1     -14.168  84.346 -10.201  1.00  0.00     0.012 A 
ATOM      4  C   UNL     1     -11.880  85.761  -9.435  1.00  0.00     0.047 A 
ATOM      5  C   UNL     1     -14.164  85.744 -10.240  1.00  0.00     0.047 A 
ATOM      6  C   UNL     1     -13.018  86.455  -9.860  1.00  0.00     0.115 A 
ENDROOT
BRANCH   1   7
ATOM      7  C   UNL     1     -13.014  82.171  -9.702  1.00  0.00     0.010 C 
ATOM      8  C   UNL     1     -12.827  81.321 -10.724  1.00  0.00     0.025 C 
BRANCH   8   9
ATOM      9  C   UNL     1     -12.416  81.693 -12.091  1.00  0.00     0.064 C 
ATOM     10  O   UNL     1     -11.202  81.720 -12.429  1.00  0.00    -0.545 OA
ATOM     11  O   UNL     1     -13.390  81.952 -13.045  1.00  0.00    -0.545 OA
ENDBRANCH   8   9
ENDBRANCH   1   7
BRANCH   6  12
ATOM     12  O   UNL     1     -13.000  87.847  -9.897  1.00  0.00    -0.508 OA
ATOM     13  H   UNL     1     -12.471  88.351 -10.599  1.00  0.00     0.293 HD
ENDBRANCH   6  12
TORSDOF 3
ENDMDL
MODEL 3
REMARK VINA RESULT:    -4.120      1.677      2.073
REMARK INTER + INTRA:          -4.742
REMARK INTER:                  -4.926
REMARK INTRA:                   0.184
REMARK UNBOUND:                -0.020
REMARK SMILES O=C([O-])C=Cc1ccc(O)cc1
REMARK SMILES IDX 6 1 7 2 12 3 8 4 11 5 9 6 5 7 4 8 2 9 1 10 3 11 10 12
REMARK H PARENT 10 13
REMARK Flexibility Score: inf
ROOT
ATOM      1  C   UNL     1     -11.485  82.220 -10.239  1.00  0.00    -0.025 A 
ATOM      2  C   UNL     1     -11.283  81.769 -11.552  1.00  0.00     0.012 A 
ATOM      3  C   UNL     1     -12.701  82.841  -9.905  1.00  0.00     0.012 A 
ATOM      4  C   UNL     1     -12.300  81.889 -12.503  1.00  0.00     0.047 A 
ATOM      5  C   UNL     1     -13.717  82.960 -10.858  1.00  0.00     0.047 A 
ATOM      6  C   UNL     1     -13.520  82.481 -12.160  1.00  0.00     0.115 A 
ENDROOT
BRANCH   1   7
ATOM      7  C   UNL     1     -10.378  82.132  -9.265  1.00  0.00     0.010 C 
ATOM      8  C   UNL     1      -9.930  83.142  -8.503  1.00  0.00     0.025 C 
BRANCH   8   9
ATOM      9  C   UNL     1     -10.565  84.467  -8.364  1.00  0.00     0.064 C 
ATOM     10  O   UNL     1     -10.339  85.394  -9.188  1.00  0.00    -0.545 OA
ATOM     11  O   UNL     1     -11.483  84.675  -7.346  1.00  0.00    -0.545 OA
ENDBRANCH   8   9
ENDBRANCH   1   7
BRANCH   6  12
ATOM     12  O   UNL     1     -14.525  82.591 -13.119  1.00  0.00    -0.508 OA
ATOM     13  H   UNL     1     -14.995  81.773 -13.489  1.00  0.00     0.293 HD
ENDBRANCH   6  12
TORSDOF 3
ENDMDL
MODEL 4
REMARK VINA RESULT:    -4.073      7.836      9.292
REMARK INTER + INTRA:          -4.688
REMARK INTER:                  -4.618
REMARK INTRA:                  -0.071
REMARK UNBOUND:                -0.020
REMARK SMILES O=C([O-])C=Cc1ccc(O)cc1
REMARK SMILES IDX 6 1 7 2 12 3 8 4 11 5 9 6 5 7 4 8 2 9 1 10 3 11 10 12
REMARK H PARENT 10 13
REMARK Flexibility Score: inf
ROOT
ATOM      1  C   UNL     1      -4.700  83.114  -9.098  1.00  0.00    -0.025 A 
ATOM      2  C   UNL     1      -3.647  82.416  -9.708  1.00  0.00     0.012 A 
ATOM      3  C   UNL     1      -4.985  82.878  -7.741  1.00  0.00     0.012 A 
ATOM      4  C   UNL     1      -2.858  81.536  -8.963  1.00  0.00     0.047 A 
ATOM      5  C   UNL     1      -4.194  81.997  -6.998  1.00  0.00     0.047 A 
ATOM      6  C   UNL     1      -3.126  81.326  -7.606  1.00  0.00     0.115 A 
ENDROOT
BRANCH   1   7
ATOM      7  C   UNL     1      -5.554  83.998  -9.917  1.00  0.00     0.010 C 
ATOM      8  C   UNL     1      -5.580  85.339  -9.845  1.00  0.00     0.025 C 
BRANCH   8   9
ATOM      9  C   UNL     1      -4.647  86.181  -9.073  1.00  0.00     0.064 C 
ATOM     10  O   UNL     1      -3.400  86.005  -9.130  1.00  0.00    -0.545 OA
ATOM     11  O   UNL     1      -5.148  87.234  -8.321  1.00  0.00    -0.545 OA
ENDBRANCH   8   9
ENDBRANCH   1   7
BRANCH   6  12
ATOM     12  O   UNL     1      -2.329  80.447  -6.876  1.00  0.00    -0.508 OA
ATOM     13  H   UNL     1      -1.927  80.715  -5.984  1.00  0.00     0.293 HD
ENDBRANCH   6  12
TORSDOF 3
ENDMDL
MODEL 5
REMARK VINA RESULT:    -3.999      2.306      2.892
REMARK INTER + INTRA:          -4.603
REMARK INTER:                  -4.373
REMARK INTRA:                  -0.230
REMARK UNBOUND:                -0.020
REMARK SMILES O=C([O-])C=Cc1ccc(O)cc1
REMARK SMILES IDX 6 1 7 2 12 3 8 4 11 5 9 6 5 7 4 8 2 9 1 10 3 11 10 12
REMARK H PARENT 10 13
REMARK Flexibility Score: inf
ROOT
ATOM      1  C   UNL     1     -12.873  82.632  -8.901  1.00  0.00    -0.025 A 
ATOM      2  C   UNL     1     -11.488  82.408  -8.875  1.00  0.00     0.012 A 
ATOM      3  C   UNL     1     -13.559  82.561 -10.126  1.00  0.00     0.012 A 
ATOM      4  C   UNL     1     -10.808  82.066 -10.047  1.00  0.00     0.047 A 
ATOM      5  C   UNL     1     -12.876  82.218 -11.297  1.00  0.00     0.047 A 
ATOM      6  C   UNL     1     -11.498  81.966 -11.260  1.00  0.00     0.115 A 
ENDROOT
BRANCH   1   7
ATOM      7  C   UNL     1     -13.563  83.045  -7.661  1.00  0.00     0.010 C 
ATOM      8  C   UNL     1     -14.410  82.283  -6.952  1.00  0.00     0.025 C 
BRANCH   8   9
ATOM      9  C   UNL     1     -14.672  80.847  -7.173  1.00  0.00     0.064 C 
ATOM     10  O   UNL     1     -13.819  79.969  -6.876  1.00  0.00    -0.545 OA
ATOM     11  O   UNL     1     -15.912  80.452  -7.655  1.00  0.00    -0.545 OA
ENDBRANCH   8   9
ENDBRANCH   1   7
BRANCH   6  12
ATOM     12  O   UNL     1     -10.806  81.622 -12.419  1.00  0.00    -0.508 OA
ATOM     13  H   UNL     1      -9.884  81.996 -12.615  1.00  0.00     0.293 HD
ENDBRANCH   6  12
TORSDOF 3
ENDMDL
MODEL 6
REMARK VINA RESULT:    -3.915      2.412      3.312
REMARK INTER + INTRA:          -4.508
REMARK INTER:                  -4.211
REMARK INTRA:                  -0.296
REMARK UNBOUND:                -0.020
REMARK SMILES O=C([O-])C=Cc1ccc(O)cc1
REMARK SMILES IDX 6 1 7 2 12 3 8 4 11 5 9 6 5 7 4 8 2 9 1 10 3 11 10 12
REMARK H PARENT 10 13
REMARK Flexibility Score: inf
ROOT
ATOM      1  C   UNL     1     -12.720  82.175  -8.764  1.00  0.00    -0.025 A 
ATOM      2  C   UNL     1     -13.481  81.901  -9.911  1.00  0.00     0.012 A 
ATOM      3  C   UNL     1     -11.321  82.265  -8.872  1.00  0.00     0.012 A 
ATOM      4  C   UNL     1     -12.858  81.771 -11.155  1.00  0.00     0.047 A 
ATOM      5  C   UNL     1     -10.701  82.135 -10.118  1.00  0.00     0.047 A 
ATOM      6  C   UNL     1     -11.469  81.891 -11.265  1.00  0.00     0.115 A 
ENDROOT
BRANCH   1   7
ATOM      7  C   UNL     1     -13.393  82.255  -7.451  1.00  0.00     0.010 C 
ATOM      8  C   UNL     1     -13.843  83.381  -6.875  1.00  0.00     0.025 C 
BRANCH   8   9
ATOM      9  C   UNL     1     -13.910  84.710  -7.513  1.00  0.00     0.064 C 
ATOM     10  O   UNL     1     -12.960  85.533  -7.422  1.00  0.00    -0.545 OA
ATOM     11  O   UNL     1     -15.015  85.034  -8.289  1.00  0.00    -0.545 OA
ENDBRANCH   8   9
ENDBRANCH   1   7
BRANCH   6  12
ATOM     12  O   UNL     1     -10.863  81.761 -12.512  1.00  0.00    -0.508 OA
ATOM     13  H   UNL     1     -10.023  82.277 -12.749  1.00  0.00     0.293 HD
ENDBRANCH   6  12
TORSDOF 3
ENDMDL
MODEL 7
REMARK VINA RESULT:    -3.857      6.175      8.089
REMARK INTER + INTRA:          -4.441
REMARK INTER:                  -4.205
REMARK INTRA:                  -0.236
REMARK UNBOUND:                -0.020
REMARK SMILES O=C([O-])C=Cc1ccc(O)cc1
REMARK SMILES IDX 6 1 7 2 12 3 8 4 11 5 9 6 5 7 4 8 2 9 1 10 3 11 10 12
REMARK H PARENT 10 13
REMARK Flexibility Score: inf
ROOT
ATOM      1  C   UNL     1      -5.494  84.984  -9.818  1.00  0.00    -0.025 A 
ATOM      2  C   UNL     1      -4.406  85.617  -9.199  1.00  0.00     0.012 A 
ATOM      3  C   UNL     1      -5.429  83.604 -10.078  1.00  0.00     0.012 A 
ATOM      4  C   UNL     1      -3.292  84.874  -8.799  1.00  0.00     0.047 A 
ATOM      5  C   UNL     1      -4.313  82.863  -9.678  1.00  0.00     0.047 A 
ATOM      6  C   UNL     1      -3.242  83.496  -9.033  1.00  0.00     0.115 A 
ENDROOT
BRANCH   1   7
ATOM      7  C   UNL     1      -6.638  85.796 -10.279  1.00  0.00     0.010 C 
ATOM      8  C   UNL     1      -7.873  85.772  -9.753  1.00  0.00     0.025 C 
BRANCH   8   9
ATOM      9  C   UNL     1      -8.270  85.072  -8.516  1.00  0.00     0.064 C 
ATOM     10  O   UNL     1      -8.253  85.651  -7.397  1.00  0.00    -0.545 OA
ATOM     11  O   UNL     1      -8.740  83.769  -8.597  1.00  0.00    -0.545 OA
ENDBRANCH   8   9
ENDBRANCH   1   7
BRANCH   6  12
ATOM     12  O   UNL     1      -2.126  82.769  -8.627  1.00  0.00    -0.508 OA
ATOM     13  H   UNL     1      -1.213  82.928  -9.038  1.00  0.00     0.293 HD
ENDBRANCH   6  12
TORSDOF 3
ENDMDL
MODEL 8
REMARK VINA RESULT:    -3.827     12.256     12.914
REMARK INTER + INTRA:          -4.406
REMARK INTER:                  -4.108
REMARK INTRA:                  -0.298
REMARK UNBOUND:                -0.020
REMARK SMILES O=C([O-])C=Cc1ccc(O)cc1
REMARK SMILES IDX 6 1 7 2 12 3 8 4 11 5 9 6 5 7 4 8 2 9 1 10 3 11 10 12
REMARK H PARENT 10 13
REMARK Flexibility Score: inf
ROOT
ATOM      1  C   UNL     1      -5.205  90.560 -15.473  1.00  0.00    -0.025 A 
ATOM      2  C   UNL     1      -5.591  91.129 -16.696  1.00  0.00     0.012 A 
ATOM      3  C   UNL     1      -3.989  90.952 -14.886  1.00  0.00     0.012 A 
ATOM      4  C   UNL     1      -4.801  92.113 -17.297  1.00  0.00     0.047 A 
ATOM      5  C   UNL     1      -3.200  91.936 -15.489  1.00  0.00     0.047 A 
ATOM      6  C   UNL     1      -3.606  92.522 -16.695  1.00  0.00     0.115 A 
ENDROOT
BRANCH   1   7
ATOM      7  C   UNL     1      -6.028  89.484 -14.883  1.00  0.00     0.010 C 
ATOM      8  C   UNL     1      -6.978  89.654 -13.950  1.00  0.00     0.025 C 
BRANCH   8   9
ATOM      9  C   UNL     1      -7.497  90.951 -13.473  1.00  0.00     0.064 C 
ATOM     10  O   UNL     1      -7.089  91.467 -12.399  1.00  0.00    -0.545 OA
ATOM     11  O   UNL     1      -8.402  91.649 -14.260  1.00  0.00    -0.545 OA
ENDBRANCH   8   9
ENDBRANCH   1   7
BRANCH   6  12
ATOM     12  O   UNL     1      -2.830  93.506 -17.305  1.00  0.00    -0.508 OA
ATOM     13  H   UNL     1      -3.211  94.419 -17.524  1.00  0.00     0.293 HD
ENDBRANCH   6  12
TORSDOF 3
ENDMDL
MODEL 9
REMARK VINA RESULT:    -3.796      7.785      9.530
REMARK INTER + INTRA:          -4.371
REMARK INTER:                  -4.211
REMARK INTRA:                  -0.160
REMARK UNBOUND:                -0.020
REMARK SMILES O=C([O-])C=Cc1ccc(O)cc1
REMARK SMILES IDX 6 1 7 2 12 3 8 4 11 5 9 6 5 7 4 8 2 9 1 10 3 11 10 12
REMARK H PARENT 10 13
REMARK Flexibility Score: inf
ROOT
ATOM      1  C   UNL     1      -4.549  86.080  -9.244  1.00  0.00    -0.025 A 
ATOM      2  C   UNL     1      -5.159  87.317  -8.983  1.00  0.00     0.012 A 
ATOM      3  C   UNL     1      -3.246  85.842  -8.772  1.00  0.00     0.012 A 
ATOM      4  C   UNL     1      -4.498  88.281  -8.217  1.00  0.00     0.047 A 
ATOM      5  C   UNL     1      -2.587  86.808  -8.006  1.00  0.00     0.047 A 
ATOM      6  C   UNL     1      -3.213  88.030  -7.723  1.00  0.00     0.115 A 
ENDROOT
BRANCH   1   7
ATOM      7  C   UNL     1      -5.244  85.097 -10.100  1.00  0.00     0.010 C 
ATOM      8  C   UNL     1      -5.581  83.849  -9.737  1.00  0.00     0.025 C 
BRANCH   8   9
ATOM      9  C   UNL     1      -5.482  83.291  -8.374  1.00  0.00     0.064 C 
ATOM     10  O   UNL     1      -4.539  82.523  -8.045  1.00  0.00    -0.545 OA
ATOM     11  O   UNL     1      -6.409  83.675  -7.416  1.00  0.00    -0.545 OA
ENDBRANCH   8   9
ENDBRANCH   1   7
BRANCH   6  12
ATOM     12  O   UNL     1      -2.568  89.000  -6.959  1.00  0.00    -0.508 OA
ATOM     13  H   UNL     1      -1.557  89.037  -6.896  1.00  0.00     0.293 HD
ENDBRANCH   6  12
TORSDOF 3
ENDMDL
