MODEL 1
REMARK VINA RESULT:    -3.535      0.000      0.000
REMARK INTER + INTRA:          -8.424
REMARK INTER:                  -6.221
REMARK INTRA:                  -2.202
REMARK UNBOUND:                -2.202
REMARK SMILES CCCCCCCCCCCCCCC(=O)[O-]
REMARK SMILES IDX 9 1 10 2 11 3 12 4 13 5 14 6 15 7 16 8 17 9 8 10 7 11 6 12
REMARK SMILES IDX 5 13 4 14 3 15 2 16 1 17
REMARK H PARENT
REMARK Flexibility Score: inf
ROOT
ATOM      1  C   UNL     1       3.190  25.504 113.222  1.00  0.00     0.000 C 
ENDROOT
BRANCH   1   2
ATOM      2  C   UNL     1       2.403  25.942 111.977  1.00  0.00     0.000 C 
BRANCH   2   3
ATOM      3  C   UNL     1       3.280  25.863 110.718  1.00  0.00     0.000 C 
BRANCH   3   4
ATOM      4  C   UNL     1       4.557  26.709 110.830  1.00  0.00     0.000 C 
BRANCH   4   5
ATOM      5  C   UNL     1       5.838  25.858 110.773  1.00  0.00     0.006 C 
BRANCH   5   6
ATOM      6  C   UNL     1       6.680  25.993 112.049  1.00  0.00     0.053 C 
BRANCH   6   7
ATOM      7  C   UNL     1       7.900  25.125 112.007  1.00  0.00     0.041 C 
ATOM      8  O   UNL     1       7.914  24.022 112.615  1.00  0.00    -0.550 OA
ATOM      9  O   UNL     1       9.010  25.520 111.272  1.00  0.00    -0.550 OA
ENDBRANCH   6   7
ENDBRANCH   5   6
ENDBRANCH   4   5
ENDBRANCH   3   4
ENDBRANCH   2   3
ENDBRANCH   1   2
BRANCH   1  10
ATOM     10  C   UNL     1       3.023  26.477 114.399  1.00  0.00     0.000 C 
BRANCH  10  11
ATOM     11  C   UNL     1       2.813  27.931 113.939  1.00  0.00    -0.000 C 
BRANCH  11  12
ATOM     12  C   UNL     1       4.104  28.762 114.005  1.00  0.00    -0.000 C 
BRANCH  12  13
ATOM     13  C   UNL     1       4.254  29.716 112.807  1.00  0.00    -0.000 C 
BRANCH  13  14
ATOM     14  C   UNL     1       2.888  30.213 112.286  1.00  0.00    -0.000 C 
BRANCH  14  15
ATOM     15  C   UNL     1       2.720  30.069 110.764  1.00  0.00    -0.000 C 
BRANCH  15  16
ATOM     16  C   UNL     1       1.492  29.234 110.375  1.00  0.00    -0.003 C 
ATOM     17  C   UNL     1       0.396  29.343 111.431  1.00  0.00     0.004 C 
ENDBRANCH  15  16
ENDBRANCH  14  15
ENDBRANCH  13  14
ENDBRANCH  12  13
ENDBRANCH  11  12
ENDBRANCH  10  11
ENDBRANCH   1  10
TORSDOF 13
ENDMDL
MODEL 2
REMARK VINA RESULT:    -3.452      1.894      3.659
REMARK INTER + INTRA:          -8.278
REMARK INTER:                  -6.195
REMARK INTRA:                  -2.083
REMARK UNBOUND:                -2.202
REMARK SMILES CCCCCCCCCCCCCCC(=O)[O-]
REMARK SMILES IDX 9 1 10 2 11 3 12 4 13 5 14 6 15 7 16 8 17 9 8 10 7 11 6 12
REMARK SMILES IDX 5 13 4 14 3 15 2 16 1 17
REMARK H PARENT
REMARK Flexibility Score: inf
ROOT
ATOM      1  C   UNL     1       3.539  27.371 110.730  1.00  0.00     0.000 C 
ENDROOT
BRANCH   1   2
ATOM      2  C   UNL     1       3.506  25.846 110.544  1.00  0.00     0.000 C 
BRANCH   2   3
ATOM      3  C   UNL     1       4.560  25.163 111.428  1.00  0.00     0.000 C 
BRANCH   3   4
ATOM      4  C   UNL     1       5.501  26.166 112.113  1.00  0.00     0.000 C 
BRANCH   4   5
ATOM      5  C   UNL     1       6.982  25.906 111.786  1.00  0.00     0.006 C 
BRANCH   5   6
ATOM      6  C   UNL     1       7.502  26.837 110.681  1.00  0.00     0.053 C 
BRANCH   6   7
ATOM      7  C   UNL     1       7.207  26.300 109.314  1.00  0.00     0.041 C 
ATOM      8  O   UNL     1       6.347  26.861 108.585  1.00  0.00    -0.550 OA
ATOM      9  O   UNL     1       7.904  25.199 108.833  1.00  0.00    -0.550 OA
ENDBRANCH   6   7
ENDBRANCH   5   6
ENDBRANCH   4   5
ENDBRANCH   3   4
ENDBRANCH   2   3
ENDBRANCH   1   2
BRANCH   1  10
ATOM     10  C   UNL     1       2.199  28.038 110.383  1.00  0.00     0.000 C 
BRANCH  10  11
ATOM     11  C   UNL     1       1.526  28.683 111.607  1.00  0.00    -0.000 C 
BRANCH  11  12
ATOM     12  C   UNL     1       2.356  28.521 112.890  1.00  0.00    -0.000 C 
BRANCH  12  13
ATOM     13  C   UNL     1       1.675  27.604 113.922  1.00  0.00    -0.000 C 
BRANCH  13  14
ATOM     14  C   UNL     1       2.667  26.603 114.553  1.00  0.00    -0.000 C 
BRANCH  14  15
ATOM     15  C   UNL     1       2.369  25.136 114.199  1.00  0.00    -0.000 C 
BRANCH  15  16
ATOM     16  C   UNL     1       1.160  24.979 113.267  1.00  0.00    -0.003 C 
ATOM     17  C   UNL     1       0.252  23.843 113.729  1.00  0.00     0.004 C 
ENDBRANCH  15  16
ENDBRANCH  14  15
ENDBRANCH  13  14
ENDBRANCH  12  13
ENDBRANCH  11  12
ENDBRANCH  10  11
ENDBRANCH   1  10
TORSDOF 13
ENDMDL
MODEL 3
REMARK VINA RESULT:    -3.442      2.729      5.293
REMARK INTER + INTRA:          -8.261
REMARK INTER:                  -6.372
REMARK INTRA:                  -1.889
REMARK UNBOUND:                -2.202
REMARK SMILES CCCCCCCCCCCCCCC(=O)[O-]
REMARK SMILES IDX 9 1 10 2 11 3 12 4 13 5 14 6 15 7 16 8 17 9 8 10 7 11 6 12
REMARK SMILES IDX 5 13 4 14 3 15 2 16 1 17
REMARK H PARENT
REMARK Flexibility Score: inf
ROOT
ATOM      1  C   UNL     1       1.134  25.323 113.448  1.00  0.00     0.000 C 
ENDROOT
BRANCH   1   2
ATOM      2  C   UNL     1       2.025  25.610 112.230  1.00  0.00     0.000 C 
BRANCH   2   3
ATOM      3  C   UNL     1       2.522  27.064 112.245  1.00  0.00     0.000 C 
BRANCH   3   4
ATOM      4  C   UNL     1       3.948  27.209 111.693  1.00  0.00     0.000 C 
BRANCH   4   5
ATOM      5  C   UNL     1       4.522  25.878 111.178  1.00  0.00     0.006 C 
BRANCH   5   6
ATOM      6  C   UNL     1       5.911  26.052 110.547  1.00  0.00     0.053 C 
BRANCH   6   7
ATOM      7  C   UNL     1       6.876  26.700 111.492  1.00  0.00     0.041 C 
ATOM      8  O   UNL     1       7.481  27.753 111.156  1.00  0.00    -0.550 OA
ATOM      9  O   UNL     1       7.084  26.159 112.754  1.00  0.00    -0.550 OA
ENDBRANCH   6   7
ENDBRANCH   5   6
ENDBRANCH   4   5
ENDBRANCH   3   4
ENDBRANCH   2   3
ENDBRANCH   1   2
BRANCH   1  10
ATOM     10  C   UNL     1       0.508  23.920 113.405  1.00  0.00     0.000 C 
BRANCH  10  11
ATOM     11  C   UNL     1       0.344  23.303 114.805  1.00  0.00    -0.000 C 
BRANCH  11  12
ATOM     12  C   UNL     1       1.035  21.936 114.931  1.00  0.00    -0.000 C 
BRANCH  12  13
ATOM     13  C   UNL     1       1.874  21.582 113.689  1.00  0.00    -0.000 C 
BRANCH  13  14
ATOM     14  C   UNL     1       3.390  21.636 113.978  1.00  0.00    -0.000 C 
BRANCH  14  15
ATOM     15  C   UNL     1       4.090  22.861 113.368  1.00  0.00    -0.000 C 
BRANCH  15  16
ATOM     16  C   UNL     1       4.496  23.902 114.420  1.00  0.00    -0.003 C 
ATOM     17  C   UNL     1       4.446  23.312 115.826  1.00  0.00     0.004 C 
ENDBRANCH  15  16
ENDBRANCH  14  15
ENDBRANCH  13  14
ENDBRANCH  12  13
ENDBRANCH  11  12
ENDBRANCH  10  11
ENDBRANCH   1  10
TORSDOF 13
ENDMDL
MODEL 4
REMARK VINA RESULT:    -3.433      2.407      4.692
REMARK INTER + INTRA:          -8.244
REMARK INTER:                  -6.406
REMARK INTRA:                  -1.838
REMARK UNBOUND:                -2.202
REMARK SMILES CCCCCCCCCCCCCCC(=O)[O-]
REMARK SMILES IDX 9 1 10 2 11 3 12 4 13 5 14 6 15 7 16 8 17 9 8 10 7 11 6 12
REMARK SMILES IDX 5 13 4 14 3 15 2 16 1 17
REMARK H PARENT
REMARK Flexibility Score: inf
ROOT
ATOM      1  C   UNL     1       1.996  25.650 112.693  1.00  0.00     0.000 C 
ENDROOT
BRANCH   1   2
ATOM      2  C   UNL     1       2.538  26.636 111.646  1.00  0.00     0.000 C 
BRANCH   2   3
ATOM      3  C   UNL     1       3.313  25.895 110.545  1.00  0.00     0.000 C 
BRANCH   3   4
ATOM      4  C   UNL     1       4.738  26.436 110.356  1.00  0.00     0.000 C 
BRANCH   4   5
ATOM      5  C   UNL     1       5.458  26.690 111.692  1.00  0.00     0.006 C 
BRANCH   5   6
ATOM      6  C   UNL     1       6.940  26.294 111.635  1.00  0.00     0.053 C 
BRANCH   6   7
ATOM      7  C   UNL     1       7.247  25.145 112.546  1.00  0.00     0.041 C 
ATOM      8  O   UNL     1       7.351  23.979 112.082  1.00  0.00    -0.550 OA
ATOM      9  O   UNL     1       7.447  25.366 113.903  1.00  0.00    -0.550 OA
ENDBRANCH   6   7
ENDBRANCH   5   6
ENDBRANCH   4   5
ENDBRANCH   3   4
ENDBRANCH   2   3
ENDBRANCH   1   2
BRANCH   1  10
ATOM     10  C   UNL     1       2.690  25.794 114.056  1.00  0.00     0.000 C 
BRANCH  10  11
ATOM     11  C   UNL     1       3.758  24.711 114.293  1.00  0.00    -0.000 C 
BRANCH  11  12
ATOM     12  C   UNL     1       3.642  23.543 113.301  1.00  0.00    -0.000 C 
BRANCH  12  13
ATOM     13  C   UNL     1       3.853  22.175 113.974  1.00  0.00    -0.000 C 
BRANCH  13  14
ATOM     14  C   UNL     1       2.566  21.655 114.649  1.00  0.00    -0.000 C 
BRANCH  14  15
ATOM     15  C   UNL     1       1.275  22.203 114.017  1.00  0.00    -0.000 C 
BRANCH  15  16
ATOM     16  C   UNL     1       0.262  22.697 115.059  1.00  0.00    -0.003 C 
ATOM     17  C   UNL     1      -0.588  23.836 114.502  1.00  0.00     0.004 C 
ENDBRANCH  15  16
ENDBRANCH  14  15
ENDBRANCH  13  14
ENDBRANCH  12  13
ENDBRANCH  11  12
ENDBRANCH  10  11
ENDBRANCH   1  10
TORSDOF 13
ENDMDL
MODEL 5
REMARK VINA RESULT:    -3.427      2.877      5.270
REMARK INTER + INTRA:          -8.233
REMARK INTER:                  -6.624
REMARK INTRA:                  -1.609
REMARK UNBOUND:                -2.202
REMARK SMILES CCCCCCCCCCCCCCC(=O)[O-]
REMARK SMILES IDX 9 1 10 2 11 3 12 4 13 5 14 6 15 7 16 8 17 9 8 10 7 11 6 12
REMARK SMILES IDX 5 13 4 14 3 15 2 16 1 17
REMARK H PARENT
REMARK Flexibility Score: inf
ROOT
ATOM      1  C   UNL     1       4.038  25.172 112.158  1.00  0.00     0.000 C 
ENDROOT
BRANCH   1   2
ATOM      2  C   UNL     1       3.430  25.659 110.834  1.00  0.00     0.000 C 
BRANCH   2   3
ATOM      3  C   UNL     1       3.348  27.193 110.799  1.00  0.00     0.000 C 
BRANCH   3   4
ATOM      4  C   UNL     1       3.341  27.818 112.203  1.00  0.00     0.000 C 
BRANCH   4   5
ATOM      5  C   UNL     1       4.494  28.816 112.411  1.00  0.00     0.006 C 
BRANCH   5   6
ATOM      6  C   UNL     1       4.285  29.689 113.657  1.00  0.00     0.053 C 
BRANCH   6   7
ATOM      7  C   UNL     1       4.829  29.038 114.892  1.00  0.00     0.041 C 
ATOM      8  O   UNL     1       4.084  28.847 115.889  1.00  0.00    -0.550 OA
ATOM      9  O   UNL     1       6.152  28.614 114.930  1.00  0.00    -0.550 OA
ENDBRANCH   6   7
ENDBRANCH   5   6
ENDBRANCH   4   5
ENDBRANCH   3   4
ENDBRANCH   2   3
ENDBRANCH   1   2
BRANCH   1  10
ATOM     10  C   UNL     1       4.968  23.963 111.972  1.00  0.00     0.000 C 
BRANCH  10  11
ATOM     11  C   UNL     1       6.440  24.374 111.785  1.00  0.00    -0.000 C 
BRANCH  11  12
ATOM     12  C   UNL     1       6.730  25.786 112.317  1.00  0.00    -0.000 C 
BRANCH  12  13
ATOM     13  C   UNL     1       7.262  26.731 111.225  1.00  0.00    -0.000 C 
BRANCH  13  14
ATOM     14  C   UNL     1       7.040  26.163 109.807  1.00  0.00    -0.000 C 
BRANCH  14  15
ATOM     15  C   UNL     1       8.344  25.783 109.085  1.00  0.00    -0.000 C 
BRANCH  15  16
ATOM     16  C   UNL     1       8.166  25.640 107.567  1.00  0.00    -0.003 C 
ATOM     17  C   UNL     1       6.861  26.281 107.103  1.00  0.00     0.004 C 
ENDBRANCH  15  16
ENDBRANCH  14  15
ENDBRANCH  13  14
ENDBRANCH  12  13
ENDBRANCH  11  12
ENDBRANCH  10  11
ENDBRANCH   1  10
TORSDOF 13
ENDMDL
MODEL 6
REMARK VINA RESULT:    -3.421      2.508      3.984
REMARK INTER + INTRA:          -8.223
REMARK INTER:                  -6.438
REMARK INTRA:                  -1.785
REMARK UNBOUND:                -2.202
REMARK SMILES CCCCCCCCCCCCCCC(=O)[O-]
REMARK SMILES IDX 9 1 10 2 11 3 12 4 13 5 14 6 15 7 16 8 17 9 8 10 7 11 6 12
REMARK SMILES IDX 5 13 4 14 3 15 2 16 1 17
REMARK H PARENT
REMARK Flexibility Score: inf
ROOT
ATOM      1  C   UNL     1       6.751  25.259 113.499  1.00  0.00     0.000 C 
ENDROOT
BRANCH   1   2
ATOM      2  C   UNL     1       6.386  26.655 112.972  1.00  0.00     0.000 C 
BRANCH   2   3
ATOM      3  C   UNL     1       6.926  26.863 111.549  1.00  0.00     0.000 C 
BRANCH   3   4
ATOM      4  C   UNL     1       7.949  25.791 111.140  1.00  0.00     0.000 C 
BRANCH   4   5
ATOM      5  C   UNL     1       7.569  25.082 109.828  1.00  0.00     0.006 C 
BRANCH   5   6
ATOM      6  C   UNL     1       8.179  25.772 108.600  1.00  0.00     0.053 C 
BRANCH   6   7
ATOM      7  C   UNL     1       7.132  26.166 107.603  1.00  0.00     0.041 C 
ATOM      8  O   UNL     1       7.259  25.848 106.392  1.00  0.00    -0.550 OA
ATOM      9  O   UNL     1       6.000  26.856 108.019  1.00  0.00    -0.550 OA
ENDBRANCH   6   7
ENDBRANCH   5   6
ENDBRANCH   4   5
ENDBRANCH   3   4
ENDBRANCH   2   3
ENDBRANCH   1   2
BRANCH   1  10
ATOM     10  C   UNL     1       5.515  24.416 113.847  1.00  0.00     0.000 C 
BRANCH  10  11
ATOM     11  C   UNL     1       4.552  24.259 112.657  1.00  0.00    -0.000 C 
BRANCH  11  12
ATOM     12  C   UNL     1       3.089  24.527 113.043  1.00  0.00    -0.000 C 
BRANCH  12  13
ATOM     13  C   UNL     1       2.944  25.703 114.026  1.00  0.00    -0.000 C 
BRANCH  13  14
ATOM     14  C   UNL     1       2.774  27.052 113.295  1.00  0.00    -0.000 C 
BRANCH  14  15
ATOM     15  C   UNL     1       1.602  27.071 112.300  1.00  0.00    -0.000 C 
BRANCH  15  16
ATOM     16  C   UNL     1       1.983  27.670 110.939  1.00  0.00    -0.003 C 
ATOM     17  C   UNL     1       3.451  27.407 110.614  1.00  0.00     0.004 C 
ENDBRANCH  15  16
ENDBRANCH  14  15
ENDBRANCH  13  14
ENDBRANCH  12  13
ENDBRANCH  11  12
ENDBRANCH  10  11
ENDBRANCH   1  10
TORSDOF 13
ENDMDL
MODEL 7
REMARK VINA RESULT:    -3.401      2.372      3.653
REMARK INTER + INTRA:          -8.188
REMARK INTER:                  -6.461
REMARK INTRA:                  -1.727
REMARK UNBOUND:                -2.202
REMARK SMILES CCCCCCCCCCCCCCC(=O)[O-]
REMARK SMILES IDX 9 1 10 2 11 3 12 4 13 5 14 6 15 7 16 8 17 9 8 10 7 11 6 12
REMARK SMILES IDX 5 13 4 14 3 15 2 16 1 17
REMARK H PARENT
REMARK Flexibility Score: inf
ROOT
ATOM      1  C   UNL     1       2.558  22.591 114.546  1.00  0.00     0.000 C 
ENDROOT
BRANCH   1   2
ATOM      2  C   UNL     1       3.753  22.421 113.595  1.00  0.00     0.000 C 
BRANCH   2   3
ATOM      3  C   UNL     1       4.544  23.732 113.469  1.00  0.00     0.000 C 
BRANCH   3   4
ATOM      4  C   UNL     1       5.265  23.864 112.120  1.00  0.00     0.000 C 
BRANCH   4   5
ATOM      5  C   UNL     1       6.602  24.618 112.234  1.00  0.00     0.006 C 
BRANCH   5   6
ATOM      6  C   UNL     1       6.402  26.135 112.354  1.00  0.00     0.053 C 
BRANCH   6   7
ATOM      7  C   UNL     1       6.725  26.844 111.075  1.00  0.00     0.041 C 
ATOM      8  O   UNL     1       7.653  27.695 111.038  1.00  0.00    -0.550 OA
ATOM      9  O   UNL     1       6.022  26.542 109.915  1.00  0.00    -0.550 OA
ENDBRANCH   6   7
ENDBRANCH   5   6
ENDBRANCH   4   5
ENDBRANCH   3   4
ENDBRANCH   2   3
ENDBRANCH   1   2
BRANCH   1  10
ATOM     10  C   UNL     1       1.209  22.561 113.811  1.00  0.00     0.000 C 
BRANCH  10  11
ATOM     11  C   UNL     1       0.645  23.970 113.552  1.00  0.00    -0.000 C 
BRANCH  11  12
ATOM     12  C   UNL     1       0.883  24.925 114.732  1.00  0.00    -0.000 C 
BRANCH  12  13
ATOM     13  C   UNL     1       1.624  26.207 114.314  1.00  0.00    -0.000 C 
BRANCH  13  14
ATOM     14  C   UNL     1       0.755  27.112 113.413  1.00  0.00    -0.000 C 
BRANCH  14  15
ATOM     15  C   UNL     1       1.508  27.672 112.195  1.00  0.00    -0.000 C 
BRANCH  15  16
ATOM     16  C   UNL     1       2.861  26.985 111.961  1.00  0.00    -0.003 C 
ATOM     17  C   UNL     1       2.795  26.031 110.771  1.00  0.00     0.004 C 
ENDBRANCH  15  16
ENDBRANCH  14  15
ENDBRANCH  13  14
ENDBRANCH  12  13
ENDBRANCH  11  12
ENDBRANCH  10  11
ENDBRANCH   1  10
TORSDOF 13
ENDMDL
MODEL 8
REMARK VINA RESULT:    -3.396      3.519      5.912
REMARK INTER + INTRA:          -8.178
REMARK INTER:                  -6.955
REMARK INTRA:                  -1.224
REMARK UNBOUND:                -2.202
REMARK SMILES CCCCCCCCCCCCCCC(=O)[O-]
REMARK SMILES IDX 9 1 10 2 11 3 12 4 13 5 14 6 15 7 16 8 17 9 8 10 7 11 6 12
REMARK SMILES IDX 5 13 4 14 3 15 2 16 1 17
REMARK H PARENT
REMARK Flexibility Score: inf
ROOT
ATOM      1  C   UNL     1       4.725  25.120 113.943  1.00  0.00     0.000 C 
ENDROOT
BRANCH   1   2
ATOM      2  C   UNL     1       3.325  25.344 114.534  1.00  0.00     0.000 C 
BRANCH   2   3
ATOM      3  C   UNL     1       2.239  24.797 113.595  1.00  0.00     0.000 C 
BRANCH   3   4
ATOM      4  C   UNL     1       1.528  25.905 112.802  1.00  0.00     0.000 C 
BRANCH   4   5
ATOM      5  C   UNL     1       2.351  26.393 111.598  1.00  0.00     0.006 C 
BRANCH   5   6
ATOM      6  C   UNL     1       2.565  27.913 111.621  1.00  0.00     0.053 C 
BRANCH   6   7
ATOM      7  C   UNL     1       1.580  28.629 110.748  1.00  0.00     0.041 C 
ATOM      8  O   UNL     1       0.401  28.821 111.148  1.00  0.00    -0.550 OA
ATOM      9  O   UNL     1       1.972  29.111 109.506  1.00  0.00    -0.550 OA
ENDBRANCH   6   7
ENDBRANCH   5   6
ENDBRANCH   4   5
ENDBRANCH   3   4
ENDBRANCH   2   3
ENDBRANCH   1   2
BRANCH   1  10
ATOM     10  C   UNL     1       4.808  23.850 113.083  1.00  0.00     0.000 C 
BRANCH  10  11
ATOM     11  C   UNL     1       5.719  24.026 111.855  1.00  0.00    -0.000 C 
BRANCH  11  12
ATOM     12  C   UNL     1       6.347  25.427 111.783  1.00  0.00    -0.000 C 
BRANCH  12  13
ATOM     13  C   UNL     1       7.869  25.381 111.555  1.00  0.00    -0.000 C 
BRANCH  13  14
ATOM     14  C   UNL     1       8.293  26.184 110.307  1.00  0.00    -0.000 C 
BRANCH  14  15
ATOM     15  C   UNL     1       7.264  26.138 109.165  1.00  0.00    -0.000 C 
BRANCH  15  16
ATOM     16  C   UNL     1       7.782  25.398 107.924  1.00  0.00    -0.003 C 
ATOM     17  C   UNL     1       7.334  26.095 106.642  1.00  0.00     0.004 C 
ENDBRANCH  15  16
ENDBRANCH  14  15
ENDBRANCH  13  14
ENDBRANCH  12  13
ENDBRANCH  11  12
ENDBRANCH  10  11
ENDBRANCH   1  10
TORSDOF 13
ENDMDL
MODEL 9
REMARK VINA RESULT:    -3.384      2.323      3.224
REMARK INTER + INTRA:          -8.158
REMARK INTER:                  -6.301
REMARK INTRA:                  -1.857
REMARK UNBOUND:                -2.202
REMARK SMILES CCCCCCCCCCCCCCC(=O)[O-]
REMARK SMILES IDX 9 1 10 2 11 3 12 4 13 5 14 6 15 7 16 8 17 9 8 10 7 11 6 12
REMARK SMILES IDX 5 13 4 14 3 15 2 16 1 17
REMARK H PARENT
REMARK Flexibility Score: inf
ROOT
ATOM      1  C   UNL     1       5.846  24.624 114.044  1.00  0.00     0.000 C 
ENDROOT
BRANCH   1   2
ATOM      2  C   UNL     1       5.083  24.439 112.724  1.00  0.00     0.000 C 
BRANCH   2   3
ATOM      3  C   UNL     1       6.033  23.999 111.599  1.00  0.00     0.000 C 
BRANCH   3   4
ATOM      4  C   UNL     1       7.425  24.638 111.714  1.00  0.00     0.000 C 
BRANCH   4   5
ATOM      5  C   UNL     1       7.521  25.984 110.974  1.00  0.00     0.006 C 
BRANCH   5   6
ATOM      6  C   UNL     1       8.325  25.872 109.671  1.00  0.00     0.053 C 
BRANCH   6   7
ATOM      7  C   UNL     1       7.458  26.056 108.463  1.00  0.00     0.041 C 
ATOM      8  O   UNL     1       6.362  26.667 108.557  1.00  0.00    -0.550 OA
ATOM      9  O   UNL     1       7.876  25.578 107.227  1.00  0.00    -0.550 OA
ENDBRANCH   6   7
ENDBRANCH   5   6
ENDBRANCH   4   5
ENDBRANCH   3   4
ENDBRANCH   2   3
ENDBRANCH   1   2
BRANCH   1  10
ATOM     10  C   UNL     1       6.042  26.103 114.412  1.00  0.00     0.000 C 
BRANCH  10  11
ATOM     11  C   UNL     1       4.788  26.952 114.133  1.00  0.00    -0.000 C 
BRANCH  11  12
ATOM     12  C   UNL     1       5.108  28.237 113.354  1.00  0.00    -0.000 C 
BRANCH  12  13
ATOM     13  C   UNL     1       4.095  28.512 112.228  1.00  0.00    -0.000 C 
BRANCH  13  14
ATOM     14  C   UNL     1       4.077  27.382 111.175  1.00  0.00    -0.000 C 
BRANCH  14  15
ATOM     15  C   UNL     1       2.681  26.780 110.943  1.00  0.00    -0.000 C 
BRANCH  15  16
ATOM     16  C   UNL     1       1.746  26.957 112.147  1.00  0.00    -0.003 C 
ATOM     17  C   UNL     1       1.530  25.633 112.874  1.00  0.00     0.004 C 
ENDBRANCH  15  16
ENDBRANCH  14  15
ENDBRANCH  13  14
ENDBRANCH  12  13
ENDBRANCH  11  12
ENDBRANCH  10  11
ENDBRANCH   1  10
TORSDOF 13
ENDMDL
