MODEL 1
REMARK VINA RESULT:    -3.939      0.000      0.000
REMARK INTER + INTRA:          -8.894
REMARK INTER:                  -7.393
REMARK INTRA:                  -1.502
REMARK UNBOUND:                -1.502
REMARK SMILES O=C([O-])CCCCCCCCCCCCCCC(=O)[O-]
REMARK SMILES IDX 10 1 9 2 8 3 7 4 6 5 5 6 4 7 2 8 1 9 3 10 11 11 12 12 13 13
REMARK SMILES IDX 14 14 15 15 16 16 17 17 18 18 19 19 20 20
REMARK H PARENT
REMARK Flexibility Score: inf
ROOT
ATOM      1  C   UNL     1     119.831  54.262  55.609  1.00  0.00     0.000 C 
ENDROOT
BRANCH   1   2
ATOM      2  C   UNL     1     119.102  53.926  54.296  1.00  0.00     0.000 C 
BRANCH   2   3
ATOM      3  C   UNL     1     119.291  52.460  53.874  1.00  0.00     0.000 C 
BRANCH   3   4
ATOM      4  C   UNL     1     117.991  51.644  53.985  1.00  0.00     0.000 C 
BRANCH   4   5
ATOM      5  C   UNL     1     116.804  52.484  54.483  1.00  0.00     0.000 C 
BRANCH   5   6
ATOM      6  C   UNL     1     115.590  52.407  53.541  1.00  0.00     0.006 C 
BRANCH   6   7
ATOM      7  C   UNL     1     115.482  53.639  52.634  1.00  0.00     0.053 C 
BRANCH   7   8
ATOM      8  C   UNL     1     115.639  53.279  51.188  1.00  0.00     0.041 C 
ATOM      9  O   UNL     1     116.452  52.383  50.840  1.00  0.00    -0.550 OA
ATOM     10  O   UNL     1     114.905  53.954  50.221  1.00  0.00    -0.550 OA
ENDBRANCH   7   8
ENDBRANCH   6   7
ENDBRANCH   5   6
ENDBRANCH   4   5
ENDBRANCH   3   4
ENDBRANCH   2   3
ENDBRANCH   1   2
BRANCH   1  11
ATOM     11  C   UNL     1     120.861  53.180  55.996  1.00  0.00     0.000 C 
BRANCH  11  12
ATOM     12  C   UNL     1     122.301  53.528  55.583  1.00  0.00     0.000 C 
BRANCH  12  13
ATOM     13  C   UNL     1     122.807  52.677  54.406  1.00  0.00     0.000 C 
BRANCH  13  14
ATOM     14  C   UNL     1     123.607  53.497  53.381  1.00  0.00     0.000 C 
BRANCH  14  15
ATOM     15  C   UNL     1     123.152  54.964  53.315  1.00  0.00     0.000 C 
BRANCH  15  16
ATOM     16  C   UNL     1     122.542  55.343  51.952  1.00  0.00     0.006 C 
BRANCH  16  17
ATOM     17  C   UNL     1     123.512  56.092  51.020  1.00  0.00     0.053 C 
BRANCH  17  18
ATOM     18  C   UNL     1     123.937  57.417  51.574  1.00  0.00     0.041 C 
ATOM     19  O   UNL     1     123.137  58.390  51.570  1.00  0.00    -0.550 OA
ATOM     20  O   UNL     1     125.204  57.571  52.122  1.00  0.00    -0.550 OA
ENDBRANCH  17  18
ENDBRANCH  16  17
ENDBRANCH  15  16
ENDBRANCH  14  15
ENDBRANCH  13  14
ENDBRANCH  12  13
ENDBRANCH  11  12
ENDBRANCH   1  11
TORSDOF 15
ENDMDL
MODEL 2
REMARK VINA RESULT:    -3.843      1.785      6.676
REMARK INTER + INTRA:          -8.714
REMARK INTER:                  -7.155
REMARK INTRA:                  -1.559
REMARK UNBOUND:                -1.502
REMARK SMILES O=C([O-])CCCCCCCCCCCCCCC(=O)[O-]
REMARK SMILES IDX 10 1 9 2 8 3 7 4 6 5 5 6 4 7 2 8 1 9 3 10 11 11 12 12 13 13
REMARK SMILES IDX 14 14 15 15 16 16 17 17 18 18 19 19 20 20
REMARK H PARENT
REMARK Flexibility Score: inf
ROOT
ATOM      1  C   UNL     1     119.350  52.693  53.795  1.00  0.00     0.000 C 
ENDROOT
BRANCH   1   2
ATOM      2  C   UNL     1     119.421  53.879  54.773  1.00  0.00     0.000 C 
BRANCH   2   3
ATOM      3  C   UNL     1     120.399  53.632  55.932  1.00  0.00     0.000 C 
BRANCH   3   4
ATOM      4  C   UNL     1     121.778  53.150  55.445  1.00  0.00     0.000 C 
BRANCH   4   5
ATOM      5  C   UNL     1     122.588  54.264  54.764  1.00  0.00     0.000 C 
BRANCH   5   6
ATOM      6  C   UNL     1     122.951  53.925  53.308  1.00  0.00     0.006 C 
BRANCH   6   7
ATOM      7  C   UNL     1     124.221  54.648  52.845  1.00  0.00     0.053 C 
BRANCH   7   8
ATOM      8  C   UNL     1     123.918  56.012  52.302  1.00  0.00     0.041 C 
ATOM      9  O   UNL     1     122.832  56.231  51.705  1.00  0.00    -0.550 OA
ATOM     10  O   UNL     1     124.849  57.034  52.434  1.00  0.00    -0.550 OA
ENDBRANCH   7   8
ENDBRANCH   6   7
ENDBRANCH   5   6
ENDBRANCH   4   5
ENDBRANCH   3   4
ENDBRANCH   2   3
ENDBRANCH   1   2
BRANCH   1  11
ATOM     11  C   UNL     1     118.045  51.885  53.952  1.00  0.00     0.000 C 
BRANCH  11  12
ATOM     12  C   UNL     1     116.897  52.692  54.582  1.00  0.00     0.000 C 
BRANCH  12  13
ATOM     13  C   UNL     1     115.599  52.627  53.758  1.00  0.00     0.000 C 
BRANCH  13  14
ATOM     14  C   UNL     1     115.743  51.771  52.490  1.00  0.00     0.000 C 
BRANCH  14  15
ATOM     15  C   UNL     1     115.522  52.584  51.203  1.00  0.00     0.000 C 
BRANCH  15  16
ATOM     16  C   UNL     1     115.955  54.056  51.341  1.00  0.00     0.006 C 
BRANCH  16  17
ATOM     17  C   UNL     1     117.441  54.303  51.027  1.00  0.00     0.053 C 
BRANCH  17  18
ATOM     18  C   UNL     1     117.795  55.758  51.018  1.00  0.00     0.041 C 
ATOM     19  O   UNL     1     117.375  56.505  50.096  1.00  0.00    -0.550 OA
ATOM     20  O   UNL     1     118.565  56.296  52.041  1.00  0.00    -0.550 OA
ENDBRANCH  17  18
ENDBRANCH  16  17
ENDBRANCH  15  16
ENDBRANCH  14  15
ENDBRANCH  13  14
ENDBRANCH  12  13
ENDBRANCH  11  12
ENDBRANCH   1  11
TORSDOF 15
ENDMDL
MODEL 3
REMARK VINA RESULT:    -3.809      8.172     11.854
REMARK INTER + INTRA:          -8.651
REMARK INTER:                  -6.055
REMARK INTRA:                  -2.596
REMARK UNBOUND:                -1.502
REMARK SMILES O=C([O-])CCCCCCCCCCCCCCC(=O)[O-]
REMARK SMILES IDX 10 1 9 2 8 3 7 4 6 5 5 6 4 7 2 8 1 9 3 10 11 11 12 12 13 13
REMARK SMILES IDX 14 14 15 15 16 16 17 17 18 18 19 19 20 20
REMARK H PARENT
REMARK Flexibility Score: inf
ROOT
ATOM      1  C   UNL     1     124.958  55.872  44.001  1.00  0.00     0.000 C 
ENDROOT
BRANCH   1   2
ATOM      2  C   UNL     1     125.770  55.175  42.895  1.00  0.00     0.000 C 
BRANCH   2   3
ATOM      3  C   UNL     1     126.217  53.760  43.293  1.00  0.00     0.000 C 
BRANCH   3   4
ATOM      4  C   UNL     1     126.465  53.625  44.806  1.00  0.00     0.000 C 
BRANCH   4   5
ATOM      5  C   UNL     1     125.950  52.293  45.374  1.00  0.00     0.000 C 
BRANCH   5   6
ATOM      6  C   UNL     1     124.933  52.489  46.511  1.00  0.00     0.006 C 
BRANCH   6   7
ATOM      7  C   UNL     1     125.163  53.800  47.274  1.00  0.00     0.053 C 
BRANCH   7   8
ATOM      8  C   UNL     1     125.760  53.558  48.627  1.00  0.00     0.041 C 
ATOM      9  O   UNL     1     125.360  54.215  49.624  1.00  0.00    -0.550 OA
ATOM     10  O   UNL     1     126.777  52.626  48.781  1.00  0.00    -0.550 OA
ENDBRANCH   7   8
ENDBRANCH   6   7
ENDBRANCH   5   6
ENDBRANCH   4   5
ENDBRANCH   3   4
ENDBRANCH   2   3
ENDBRANCH   1   2
BRANCH   1  11
ATOM     11  C   UNL     1     123.439  55.802  43.741  1.00  0.00     0.000 C 
BRANCH  11  12
ATOM     12  C   UNL     1     122.768  54.561  44.355  1.00  0.00     0.000 C 
BRANCH  12  13
ATOM     13  C   UNL     1     122.229  53.586  43.294  1.00  0.00     0.000 C 
BRANCH  13  14
ATOM     14  C   UNL     1     122.849  52.184  43.406  1.00  0.00     0.000 C 
BRANCH  14  15
ATOM     15  C   UNL     1     123.421  51.685  42.068  1.00  0.00     0.000 C 
BRANCH  15  16
ATOM     16  C   UNL     1     124.184  50.353  42.201  1.00  0.00     0.006 C 
BRANCH  16  17
ATOM     17  C   UNL     1     123.978  49.647  43.554  1.00  0.00     0.053 C 
BRANCH  17  18
ATOM     18  C   UNL     1     123.155  48.402  43.435  1.00  0.00     0.041 C 
ATOM     19  O   UNL     1     123.406  47.405  44.163  1.00  0.00    -0.550 OA
ATOM     20  O   UNL     1     122.093  48.349  42.541  1.00  0.00    -0.550 OA
ENDBRANCH  17  18
ENDBRANCH  16  17
ENDBRANCH  15  16
ENDBRANCH  14  15
ENDBRANCH  13  14
ENDBRANCH  12  13
ENDBRANCH  11  12
ENDBRANCH   1  11
TORSDOF 15
ENDMDL
MODEL 4
REMARK VINA RESULT:    -3.802      2.599      5.384
REMARK INTER + INTRA:          -8.638
REMARK INTER:                  -6.647
REMARK INTRA:                  -1.991
REMARK UNBOUND:                -1.502
REMARK SMILES O=C([O-])CCCCCCCCCCCCCCC(=O)[O-]
REMARK SMILES IDX 10 1 9 2 8 3 7 4 6 5 5 6 4 7 2 8 1 9 3 10 11 11 12 12 13 13
REMARK SMILES IDX 14 14 15 15 16 16 17 17 18 18 19 19 20 20
REMARK H PARENT
REMARK Flexibility Score: inf
ROOT
ATOM      1  C   UNL     1     115.272  53.503  52.832  1.00  0.00     0.000 C 
ENDROOT
BRANCH   1   2
ATOM      2  C   UNL     1     115.672  53.843  51.386  1.00  0.00     0.000 C 
BRANCH   2   3
ATOM      3  C   UNL     1     117.195  53.898  51.192  1.00  0.00     0.000 C 
BRANCH   3   4
ATOM      4  C   UNL     1     117.740  55.337  51.221  1.00  0.00     0.000 C 
BRANCH   4   5
ATOM      5  C   UNL     1     118.837  55.534  52.279  1.00  0.00     0.000 C 
BRANCH   5   6
ATOM      6  C   UNL     1     120.021  54.571  52.088  1.00  0.00     0.006 C 
BRANCH   6   7
ATOM      7  C   UNL     1     120.706  54.758  50.728  1.00  0.00     0.053 C 
BRANCH   7   8
ATOM      8  C   UNL     1     121.267  56.139  50.573  1.00  0.00     0.041 C 
ATOM      9  O   UNL     1     122.247  56.508  51.271  1.00  0.00    -0.550 OA
ATOM     10  O   UNL     1     120.689  57.027  49.676  1.00  0.00    -0.550 OA
ENDBRANCH   7   8
ENDBRANCH   6   7
ENDBRANCH   5   6
ENDBRANCH   4   5
ENDBRANCH   3   4
ENDBRANCH   2   3
ENDBRANCH   1   2
BRANCH   1  11
ATOM     11  C   UNL     1     115.864  52.156  53.299  1.00  0.00     0.000 C 
BRANCH  11  12
ATOM     12  C   UNL     1     116.503  52.219  54.697  1.00  0.00     0.000 C 
BRANCH  12  13
ATOM     13  C   UNL     1     117.862  52.940  54.700  1.00  0.00     0.000 C 
BRANCH  13  14
ATOM     14  C   UNL     1     117.976  53.988  55.819  1.00  0.00     0.000 C 
BRANCH  14  15
ATOM     15  C   UNL     1     119.411  54.515  55.989  1.00  0.00     0.000 C 
BRANCH  15  16
ATOM     16  C   UNL     1     120.481  53.439  55.723  1.00  0.00     0.006 C 
BRANCH  16  17
ATOM     17  C   UNL     1     121.926  53.940  55.897  1.00  0.00     0.053 C 
BRANCH  17  18
ATOM     18  C   UNL     1     122.753  53.755  54.662  1.00  0.00     0.041 C 
ATOM     19  O   UNL     1     123.081  54.751  53.965  1.00  0.00    -0.550 OA
ATOM     20  O   UNL     1     123.186  52.487  54.294  1.00  0.00    -0.550 OA
ENDBRANCH  17  18
ENDBRANCH  16  17
ENDBRANCH  15  16
ENDBRANCH  14  15
ENDBRANCH  13  14
ENDBRANCH  12  13
ENDBRANCH  11  12
ENDBRANCH   1  11
TORSDOF 15
ENDMDL
MODEL 5
REMARK VINA RESULT:    -3.768      6.752     10.051
REMARK INTER + INTRA:          -8.574
REMARK INTER:                  -6.935
REMARK INTRA:                  -1.639
REMARK UNBOUND:                -1.502
REMARK SMILES O=C([O-])CCCCCCCCCCCCCCC(=O)[O-]
REMARK SMILES IDX 10 1 9 2 8 3 7 4 6 5 5 6 4 7 2 8 1 9 3 10 11 11 12 12 13 13
REMARK SMILES IDX 14 14 15 15 16 16 17 17 18 18 19 19 20 20
REMARK H PARENT
REMARK Flexibility Score: inf
ROOT
ATOM      1  C   UNL     1     125.883  55.554  42.992  1.00  0.00     0.000 C 
ENDROOT
BRANCH   1   2
ATOM      2  C   UNL     1     126.403  54.231  43.580  1.00  0.00     0.000 C 
BRANCH   2   3
ATOM      3  C   UNL     1     125.412  53.071  43.393  1.00  0.00     0.000 C 
BRANCH   3   4
ATOM      4  C   UNL     1     124.923  52.493  44.733  1.00  0.00     0.000 C 
BRANCH   4   5
ATOM      5  C   UNL     1     126.067  51.925  45.586  1.00  0.00     0.000 C 
BRANCH   5   6
ATOM      6  C   UNL     1     125.829  52.112  47.094  1.00  0.00     0.006 C 
BRANCH   6   7
ATOM      7  C   UNL     1     127.092  51.830  47.919  1.00  0.00     0.053 C 
BRANCH   7   8
ATOM      8  C   UNL     1     126.896  52.162  49.367  1.00  0.00     0.041 C 
ATOM      9  O   UNL     1     125.768  52.012  49.906  1.00  0.00    -0.550 OA
ATOM     10  O   UNL     1     127.954  52.664  50.114  1.00  0.00    -0.550 OA
ENDBRANCH   7   8
ENDBRANCH   6   7
ENDBRANCH   5   6
ENDBRANCH   4   5
ENDBRANCH   3   4
ENDBRANCH   2   3
ENDBRANCH   1   2
BRANCH   1  11
ATOM     11  C   UNL     1     124.558  56.001  43.645  1.00  0.00     0.000 C 
BRANCH  11  12
ATOM     12  C   UNL     1     124.733  57.121  44.684  1.00  0.00     0.000 C 
BRANCH  12  13
ATOM     13  C   UNL     1     124.136  56.763  46.055  1.00  0.00     0.000 C 
BRANCH  13  14
ATOM     14  C   UNL     1     124.813  55.543  46.698  1.00  0.00     0.000 C 
BRANCH  14  15
ATOM     15  C   UNL     1     125.411  55.860  48.080  1.00  0.00     0.000 C 
BRANCH  15  16
ATOM     16  C   UNL     1     124.585  55.275  49.240  1.00  0.00     0.006 C 
BRANCH  16  17
ATOM     17  C   UNL     1     123.917  56.340  50.130  1.00  0.00     0.053 C 
BRANCH  17  18
ATOM     18  C   UNL     1     124.726  56.664  51.348  1.00  0.00     0.041 C 
ATOM     19  O   UNL     1     125.312  55.746  51.981  1.00  0.00    -0.550 OA
ATOM     20  O   UNL     1     124.858  57.981  51.769  1.00  0.00    -0.550 OA
ENDBRANCH  17  18
ENDBRANCH  16  17
ENDBRANCH  15  16
ENDBRANCH  14  15
ENDBRANCH  13  14
ENDBRANCH  12  13
ENDBRANCH  11  12
ENDBRANCH   1  11
TORSDOF 15
ENDMDL
MODEL 6
REMARK VINA RESULT:    -3.768      4.313      6.760
REMARK INTER + INTRA:          -8.574
REMARK INTER:                  -6.144
REMARK INTRA:                  -2.430
REMARK UNBOUND:                -1.502
REMARK SMILES O=C([O-])CCCCCCCCCCCCCCC(=O)[O-]
REMARK SMILES IDX 10 1 9 2 8 3 7 4 6 5 5 6 4 7 2 8 1 9 3 10 11 11 12 12 13 13
REMARK SMILES IDX 14 14 15 15 16 16 17 17 18 18 19 19 20 20
REMARK H PARENT
REMARK Flexibility Score: inf
ROOT
ATOM      1  C   UNL     1     119.298  52.737  53.941  1.00  0.00     0.000 C 
ENDROOT
BRANCH   1   2
ATOM      2  C   UNL     1     118.984  54.222  53.690  1.00  0.00     0.000 C 
BRANCH   2   3
ATOM      3  C   UNL     1     119.320  54.662  52.256  1.00  0.00     0.000 C 
BRANCH   3   4
ATOM      4  C   UNL     1     118.416  55.807  51.765  1.00  0.00     0.000 C 
BRANCH   4   5
ATOM      5  C   UNL     1     118.117  55.721  50.260  1.00  0.00     0.000 C 
BRANCH   5   6
ATOM      6  C   UNL     1     116.972  56.655  49.831  1.00  0.00     0.006 C 
BRANCH   6   7
ATOM      7  C   UNL     1     116.003  55.973  48.857  1.00  0.00     0.053 C 
BRANCH   7   8
ATOM      8  C   UNL     1     114.606  56.492  49.008  1.00  0.00     0.041 C 
ATOM      9  O   UNL     1     113.801  55.931  49.797  1.00  0.00    -0.550 OA
ATOM     10  O   UNL     1     114.184  57.582  48.256  1.00  0.00    -0.550 OA
ENDBRANCH   7   8
ENDBRANCH   6   7
ENDBRANCH   5   6
ENDBRANCH   4   5
ENDBRANCH   3   4
ENDBRANCH   2   3
ENDBRANCH   1   2
BRANCH   1  11
ATOM     11  C   UNL     1     118.021  51.873  54.005  1.00  0.00     0.000 C 
BRANCH  11  12
ATOM     12  C   UNL     1     116.780  52.649  54.481  1.00  0.00     0.000 C 
BRANCH  12  13
ATOM     13  C   UNL     1     115.583  52.504  53.525  1.00  0.00     0.000 C 
BRANCH  13  14
ATOM     14  C   UNL     1     115.540  53.607  52.456  1.00  0.00     0.000 C 
BRANCH  14  15
ATOM     15  C   UNL     1     115.524  53.041  51.026  1.00  0.00     0.000 C 
BRANCH  15  16
ATOM     16  C   UNL     1     116.827  52.309  50.655  1.00  0.00     0.006 C 
BRANCH  16  17
ATOM     17  C   UNL     1     116.607  50.915  50.038  1.00  0.00     0.053 C 
BRANCH  17  18
ATOM     18  C   UNL     1     116.324  49.867  51.069  1.00  0.00     0.041 C 
ATOM     19  O   UNL     1     115.135  49.549  51.339  1.00  0.00    -0.550 OA
ATOM     20  O   UNL     1     117.371  49.220  51.714  1.00  0.00    -0.550 OA
ENDBRANCH  17  18
ENDBRANCH  16  17
ENDBRANCH  15  16
ENDBRANCH  14  15
ENDBRANCH  13  14
ENDBRANCH  12  13
ENDBRANCH  11  12
ENDBRANCH   1  11
TORSDOF 15
ENDMDL
MODEL 7
REMARK VINA RESULT:    -3.763      2.510      7.329
REMARK INTER + INTRA:          -8.564
REMARK INTER:                  -6.690
REMARK INTRA:                  -1.874
REMARK UNBOUND:                -1.502
REMARK SMILES O=C([O-])CCCCCCCCCCCCCCC(=O)[O-]
REMARK SMILES IDX 10 1 9 2 8 3 7 4 6 5 5 6 4 7 2 8 1 9 3 10 11 11 12 12 13 13
REMARK SMILES IDX 14 14 15 15 16 16 17 17 18 18 19 19 20 20
REMARK H PARENT
REMARK Flexibility Score: inf
ROOT
ATOM      1  C   UNL     1     118.531  51.423  53.399  1.00  0.00     0.000 C 
ENDROOT
BRANCH   1   2
ATOM      2  C   UNL     1     119.367  52.529  52.730  1.00  0.00     0.000 C 
BRANCH   2   3
ATOM      3  C   UNL     1     119.255  53.877  53.459  1.00  0.00     0.000 C 
BRANCH   3   4
ATOM      4  C   UNL     1     118.594  53.744  54.843  1.00  0.00     0.000 C 
BRANCH   4   5
ATOM      5  C   UNL     1     119.495  54.252  55.980  1.00  0.00     0.000 C 
BRANCH   5   6
ATOM      6  C   UNL     1     120.786  53.428  56.123  1.00  0.00     0.006 C 
BRANCH   6   7
ATOM      7  C   UNL     1     122.042  54.273  55.877  1.00  0.00     0.053 C 
BRANCH   7   8
ATOM      8  C   UNL     1     122.743  53.873  54.614  1.00  0.00     0.041 C 
ATOM      9  O   UNL     1     123.161  54.750  53.814  1.00  0.00    -0.550 OA
ATOM     10  O   UNL     1     122.909  52.528  54.308  1.00  0.00    -0.550 OA
ENDBRANCH   7   8
ENDBRANCH   6   7
ENDBRANCH   5   6
ENDBRANCH   4   5
ENDBRANCH   3   4
ENDBRANCH   2   3
ENDBRANCH   1   2
BRANCH   1  11
ATOM     11  C   UNL     1     117.687  50.633  52.377  1.00  0.00     0.000 C 
BRANCH  11  12
ATOM     12  C   UNL     1     116.271  51.204  52.180  1.00  0.00     0.000 C 
BRANCH  12  13
ATOM     13  C   UNL     1     115.787  52.029  53.384  1.00  0.00     0.000 C 
BRANCH  13  14
ATOM     14  C   UNL     1     115.332  53.444  52.991  1.00  0.00     0.000 C 
BRANCH  14  15
ATOM     15  C   UNL     1     115.987  53.932  51.687  1.00  0.00     0.000 C 
BRANCH  15  16
ATOM     16  C   UNL     1     114.959  54.315  50.606  1.00  0.00     0.006 C 
BRANCH  16  17
ATOM     17  C   UNL     1     115.193  53.626  49.249  1.00  0.00     0.053 C 
BRANCH  17  18
ATOM     18  C   UNL     1     114.910  54.528  48.088  1.00  0.00     0.041 C 
ATOM     19  O   UNL     1     115.856  54.967  47.382  1.00  0.00    -0.550 OA
ATOM     20  O   UNL     1     113.601  54.862  47.766  1.00  0.00    -0.550 OA
ENDBRANCH  17  18
ENDBRANCH  16  17
ENDBRANCH  15  16
ENDBRANCH  14  15
ENDBRANCH  13  14
ENDBRANCH  12  13
ENDBRANCH  11  12
ENDBRANCH   1  11
TORSDOF 15
ENDMDL
MODEL 8
REMARK VINA RESULT:    -3.757      6.637      9.926
REMARK INTER + INTRA:          -8.554
REMARK INTER:                  -6.771
REMARK INTRA:                  -1.783
REMARK UNBOUND:                -1.502
REMARK SMILES O=C([O-])CCCCCCCCCCCCCCC(=O)[O-]
REMARK SMILES IDX 10 1 9 2 8 3 7 4 6 5 5 6 4 7 2 8 1 9 3 10 11 11 12 12 13 13
REMARK SMILES IDX 14 14 15 15 16 16 17 17 18 18 19 19 20 20
REMARK H PARENT
REMARK Flexibility Score: inf
ROOT
ATOM      1  C   UNL     1     124.306  57.208  45.492  1.00  0.00     0.000 C 
ENDROOT
BRANCH   1   2
ATOM      2  C   UNL     1     123.300  56.073  45.753  1.00  0.00     0.000 C 
BRANCH   2   3
ATOM      3  C   UNL     1     123.485  55.425  47.135  1.00  0.00     0.000 C 
BRANCH   3   4
ATOM      4  C   UNL     1     124.861  55.737  47.750  1.00  0.00     0.000 C 
BRANCH   4   5
ATOM      5  C   UNL     1     125.073  55.045  49.106  1.00  0.00     0.000 C 
BRANCH   5   6
ATOM      6  C   UNL     1     123.933  55.329  50.099  1.00  0.00     0.006 C 
BRANCH   6   7
ATOM      7  C   UNL     1     123.894  56.800  50.531  1.00  0.00     0.053 C 
BRANCH   7   8
ATOM      8  C   UNL     1     124.797  57.061  51.698  1.00  0.00     0.041 C 
ATOM      9  O   UNL     1     125.384  56.107  52.273  1.00  0.00    -0.550 OA
ATOM     10  O   UNL     1     124.968  58.356  52.168  1.00  0.00    -0.550 OA
ENDBRANCH   7   8
ENDBRANCH   6   7
ENDBRANCH   5   6
ENDBRANCH   4   5
ENDBRANCH   3   4
ENDBRANCH   2   3
ENDBRANCH   1   2
BRANCH   1  11
ATOM     11  C   UNL     1     124.986  57.077  44.113  1.00  0.00     0.000 C 
BRANCH  11  12
ATOM     12  C   UNL     1     124.769  55.706  43.450  1.00  0.00     0.000 C 
BRANCH  12  13
ATOM     13  C   UNL     1     126.086  55.031  43.030  1.00  0.00     0.000 C 
BRANCH  13  14
ATOM     14  C   UNL     1     126.220  53.600  43.576  1.00  0.00     0.000 C 
BRANCH  14  15
ATOM     15  C   UNL     1     126.252  53.557  45.113  1.00  0.00     0.000 C 
BRANCH  15  16
ATOM     16  C   UNL     1     125.329  52.474  45.703  1.00  0.00     0.006 C 
BRANCH  16  17
ATOM     17  C   UNL     1     126.071  51.213  46.182  1.00  0.00     0.053 C 
BRANCH  17  18
ATOM     18  C   UNL     1     127.005  51.491  47.319  1.00  0.00     0.041 C 
ATOM     19  O   UNL     1     128.245  51.325  47.175  1.00  0.00    -0.550 OA
ATOM     20  O   UNL     1     126.511  51.962  48.530  1.00  0.00    -0.550 OA
ENDBRANCH  17  18
ENDBRANCH  16  17
ENDBRANCH  15  16
ENDBRANCH  14  15
ENDBRANCH  13  14
ENDBRANCH  12  13
ENDBRANCH  11  12
ENDBRANCH   1  11
TORSDOF 15
ENDMDL
MODEL 9
REMARK VINA RESULT:    -3.740      1.018      7.319
REMARK INTER + INTRA:          -8.521
REMARK INTER:                  -7.418
REMARK INTRA:                  -1.103
REMARK UNBOUND:                -1.502
REMARK SMILES O=C([O-])CCCCCCCCCCCCCCC(=O)[O-]
REMARK SMILES IDX 10 1 9 2 8 3 7 4 6 5 5 6 4 7 2 8 1 9 3 10 11 11 12 12 13 13
REMARK SMILES IDX 14 14 15 15 16 16 17 17 18 18 19 19 20 20
REMARK H PARENT
REMARK Flexibility Score: inf
ROOT
ATOM      1  C   UNL     1     121.226  53.641  56.124  1.00  0.00     0.000 C 
ENDROOT
BRANCH   1   2
ATOM      2  C   UNL     1     122.279  54.189  55.144  1.00  0.00     0.000 C 
BRANCH   2   3
ATOM      3  C   UNL     1     122.933  53.083  54.301  1.00  0.00     0.000 C 
BRANCH   3   4
ATOM      4  C   UNL     1     123.446  53.602  52.946  1.00  0.00     0.000 C 
BRANCH   4   5
ATOM      5  C   UNL     1     123.573  55.133  52.908  1.00  0.00     0.000 C 
BRANCH   5   6
ATOM      6  C   UNL     1     123.299  55.713  51.510  1.00  0.00     0.006 C 
BRANCH   6   7
ATOM      7  C   UNL     1     124.462  56.577  51.004  1.00  0.00     0.053 C 
BRANCH   7   8
ATOM      8  C   UNL     1     124.415  57.961  51.573  1.00  0.00     0.041 C 
ATOM      9  O   UNL     1     123.323  58.587  51.634  1.00  0.00    -0.550 OA
ATOM     10  O   UNL     1     125.582  58.572  52.013  1.00  0.00    -0.550 OA
ENDBRANCH   7   8
ENDBRANCH   6   7
ENDBRANCH   5   6
ENDBRANCH   4   5
ENDBRANCH   3   4
ENDBRANCH   2   3
ENDBRANCH   1   2
BRANCH   1  11
ATOM     11  C   UNL     1     119.818  54.204  55.839  1.00  0.00     0.000 C 
BRANCH  11  12
ATOM     12  C   UNL     1     119.296  53.868  54.432  1.00  0.00     0.000 C 
BRANCH  12  13
ATOM     13  C   UNL     1     118.413  52.609  54.407  1.00  0.00     0.000 C 
BRANCH  13  14
ATOM     14  C   UNL     1     116.925  52.921  54.626  1.00  0.00     0.000 C 
BRANCH  14  15
ATOM     15  C   UNL     1     116.001  51.885  53.963  1.00  0.00     0.000 C 
BRANCH  15  16
ATOM     16  C   UNL     1     115.583  52.280  52.534  1.00  0.00     0.006 C 
BRANCH  16  17
ATOM     17  C   UNL     1     115.664  53.792  52.255  1.00  0.00     0.053 C 
BRANCH  17  18
ATOM     18  C   UNL     1     116.705  54.134  51.233  1.00  0.00     0.041 C 
ATOM     19  O   UNL     1     117.462  55.125  51.408  1.00  0.00    -0.550 OA
ATOM     20  O   UNL     1     116.859  53.343  50.101  1.00  0.00    -0.550 OA
ENDBRANCH  17  18
ENDBRANCH  16  17
ENDBRANCH  15  16
ENDBRANCH  14  15
ENDBRANCH  13  14
ENDBRANCH  12  13
ENDBRANCH  11  12
ENDBRANCH   1  11
TORSDOF 15
ENDMDL
