MODEL 1
REMARK VINA RESULT:    -4.072      0.000      0.000
REMARK INTER + INTRA:          -5.589
REMARK INTER:                  -5.381
REMARK INTRA:                  -0.208
REMARK UNBOUND:                -0.208
REMARK SMILES C=C[C@H](O)CCCCC
REMARK SMILES IDX 6 1 7 2 8 3 9 4 5 5 3 6 2 7 1 8 4 9
REMARK H PARENT 4 10
REMARK Flexibility Score: inf
ROOT
ATOM      1  C   UNL     1      -1.715  16.603  48.030  1.00  0.00     0.003 C 
ENDROOT
BRANCH   1   2
ATOM      2  C   UNL     1      -1.179  17.163  46.703  1.00  0.00    -0.000 C 
BRANCH   2   3
ATOM      3  C   UNL     1      -1.543  16.283  45.499  1.00  0.00    -0.003 C 
ATOM      4  C   UNL     1      -0.325  16.030  44.615  1.00  0.00     0.004 C 
ENDBRANCH   2   3
ENDBRANCH   1   2
BRANCH   1   5
ATOM      5  C   UNL     1      -2.723  17.547  48.706  1.00  0.00     0.036 C 
BRANCH   5   6
ATOM      6  C   UNL     1      -2.506  19.013  48.275  1.00  0.00     0.136 C 
BRANCH   6   7
ATOM      7  C   UNL     1      -1.986  19.849  49.422  1.00  0.00    -0.004 C 
ATOM      8  C   UNL     1      -2.381  21.113  49.607  1.00  0.00     0.007 C 
ENDBRANCH   6   7
BRANCH   6   9
ATOM      9  O   UNL     1      -3.696  19.573  47.774  1.00  0.00    -0.389 OA
ATOM     10  H   UNL     1      -3.486  20.488  47.449  1.00  0.00     0.211 HD
ENDBRANCH   6   9
ENDBRANCH   5   6
ENDBRANCH   1   5
TORSDOF 6
ENDMDL
MODEL 2
REMARK VINA RESULT:    -4.060      1.830      4.616
REMARK INTER + INTRA:          -5.573
REMARK INTER:                  -5.251
REMARK INTRA:                  -0.321
REMARK UNBOUND:                -0.208
REMARK SMILES C=C[C@H](O)CCCCC
REMARK SMILES IDX 6 1 7 2 8 3 9 4 5 5 3 6 2 7 1 8 4 9
REMARK H PARENT 4 10
REMARK Flexibility Score: inf
ROOT
ATOM      1  C   UNL     1      -0.856  16.986  48.105  1.00  0.00     0.003 C 
ENDROOT
BRANCH   1   2
ATOM      2  C   UNL     1      -2.015  17.200  49.091  1.00  0.00    -0.000 C 
BRANCH   2   3
ATOM      3  C   UNL     1      -3.293  17.702  48.403  1.00  0.00    -0.003 C 
ATOM      4  C   UNL     1      -3.245  19.212  48.189  1.00  0.00     0.004 C 
ENDBRANCH   2   3
ENDBRANCH   1   2
BRANCH   1   5
ATOM      5  C   UNL     1      -1.249  16.097  46.913  1.00  0.00     0.036 C 
BRANCH   5   6
ATOM      6  C   UNL     1      -0.940  16.784  45.566  1.00  0.00     0.136 C 
BRANCH   6   7
ATOM      7  C   UNL     1       0.104  16.018  44.788  1.00  0.00    -0.004 C 
ATOM      8  C   UNL     1       1.354  15.875  45.241  1.00  0.00     0.007 C 
ENDBRANCH   6   7
BRANCH   6   9
ATOM      9  O   UNL     1      -0.515  18.111  45.762  1.00  0.00    -0.389 OA
ATOM     10  H   UNL     1      -0.533  18.292  46.740  1.00  0.00     0.211 HD
ENDBRANCH   6   9
ENDBRANCH   5   6
ENDBRANCH   1   5
TORSDOF 6
ENDMDL
MODEL 3
REMARK VINA RESULT:    -3.990      1.808      3.834
REMARK INTER + INTRA:          -5.481
REMARK INTER:                  -4.882
REMARK INTRA:                  -0.599
REMARK UNBOUND:                -0.208
REMARK SMILES C=C[C@H](O)CCCCC
REMARK SMILES IDX 6 1 7 2 8 3 9 4 5 5 3 6 2 7 1 8 4 9
REMARK H PARENT 4 10
REMARK Flexibility Score: inf
ROOT
ATOM      1  C   UNL     1      -1.846  16.986  48.555  1.00  0.00     0.003 C 
ENDROOT
BRANCH   1   2
ATOM      2  C   UNL     1      -3.175  17.725  48.777  1.00  0.00    -0.000 C 
BRANCH   2   3
ATOM      3  C   UNL     1      -3.117  19.194  48.329  1.00  0.00    -0.003 C 
ATOM      4  C   UNL     1      -2.326  20.040  49.322  1.00  0.00     0.004 C 
ENDBRANCH   2   3
ENDBRANCH   1   2
BRANCH   1   5
ATOM      5  C   UNL     1      -1.643  16.560  47.091  1.00  0.00     0.036 C 
BRANCH   5   6
ATOM      6  C   UNL     1      -0.465  17.315  46.439  1.00  0.00     0.136 C 
BRANCH   6   7
ATOM      7  C   UNL     1       0.426  17.945  47.484  1.00  0.00    -0.004 C 
ATOM      8  C   UNL     1       0.885  19.194  47.357  1.00  0.00     0.007 C 
ENDBRANCH   6   7
BRANCH   6   9
ATOM      9  O   UNL     1      -0.929  18.299  45.546  1.00  0.00    -0.389 OA
ATOM     10  H   UNL     1      -1.013  17.877  44.650  1.00  0.00     0.211 HD
ENDBRANCH   6   9
ENDBRANCH   5   6
ENDBRANCH   1   5
TORSDOF 6
ENDMDL
MODEL 4
REMARK VINA RESULT:    -3.962      2.119      2.462
REMARK INTER + INTRA:          -5.443
REMARK INTER:                  -5.024
REMARK INTRA:                  -0.420
REMARK UNBOUND:                -0.208
REMARK SMILES C=C[C@H](O)CCCCC
REMARK SMILES IDX 6 1 7 2 8 3 9 4 5 5 3 6 2 7 1 8 4 9
REMARK H PARENT 4 10
REMARK Flexibility Score: inf
ROOT
ATOM      1  C   UNL     1       0.003  17.110  47.737  1.00  0.00     0.003 C 
ENDROOT
BRANCH   1   2
ATOM      2  C   UNL     1      -0.073  17.709  46.324  1.00  0.00    -0.000 C 
BRANCH   2   3
ATOM      3  C   UNL     1      -0.886  16.837  45.355  1.00  0.00    -0.003 C 
ATOM      4  C   UNL     1       0.028  15.954  44.511  1.00  0.00     0.004 C 
ENDBRANCH   2   3
ENDBRANCH   1   2
BRANCH   1   5
ATOM      5  C   UNL     1      -1.178  16.175  48.048  1.00  0.00     0.036 C 
BRANCH   5   6
ATOM      6  C   UNL     1      -1.974  16.656  49.280  1.00  0.00     0.136 C 
BRANCH   6   7
ATOM      7  C   UNL     1      -2.540  18.039  49.059  1.00  0.00    -0.004 C 
ATOM      8  C   UNL     1      -3.454  18.282  48.114  1.00  0.00     0.007 C 
ENDBRANCH   6   7
BRANCH   6   9
ATOM      9  O   UNL     1      -1.170  16.644  50.435  1.00  0.00    -0.389 OA
ATOM     10  H   UNL     1      -0.429  16.000  50.281  1.00  0.00     0.211 HD
ENDBRANCH   6   9
ENDBRANCH   5   6
ENDBRANCH   1   5
TORSDOF 6
ENDMDL
MODEL 5
REMARK VINA RESULT:    -3.906      2.083      4.414
REMARK INTER + INTRA:          -5.370
REMARK INTER:                  -4.874
REMARK INTRA:                  -0.496
REMARK UNBOUND:                -0.208
REMARK SMILES C=C[C@H](O)CCCCC
REMARK SMILES IDX 6 1 7 2 8 3 9 4 5 5 3 6 2 7 1 8 4 9
REMARK H PARENT 4 10
REMARK Flexibility Score: inf
ROOT
ATOM      1  C   UNL     1      -1.973  17.113  49.295  1.00  0.00     0.003 C 
ENDROOT
BRANCH   1   2
ATOM      2  C   UNL     1      -1.365  18.512  49.478  1.00  0.00    -0.000 C 
BRANCH   2   3
ATOM      3  C   UNL     1      -2.387  19.636  49.254  1.00  0.00    -0.003 C 
ATOM      4  C   UNL     1      -3.361  19.279  48.136  1.00  0.00     0.004 C 
ENDBRANCH   2   3
ENDBRANCH   1   2
BRANCH   1   5
ATOM      5  C   UNL     1      -1.236  16.281  48.233  1.00  0.00     0.036 C 
BRANCH   5   6
ATOM      6  C   UNL     1      -0.269  17.150  47.401  1.00  0.00     0.136 C 
BRANCH   6   7
ATOM      7  C   UNL     1      -0.691  17.201  45.951  1.00  0.00    -0.004 C 
ATOM      8  C   UNL     1      -1.592  16.350  45.450  1.00  0.00     0.007 C 
ENDBRANCH   6   7
BRANCH   6   9
ATOM      9  O   UNL     1       1.051  16.673  47.501  1.00  0.00    -0.389 OA
ATOM     10  H   UNL     1       1.503  17.186  48.223  1.00  0.00     0.211 HD
ENDBRANCH   6   9
ENDBRANCH   5   6
ENDBRANCH   1   5
TORSDOF 6
ENDMDL
MODEL 6
REMARK VINA RESULT:    -3.833      1.803      2.572
REMARK INTER + INTRA:          -5.273
REMARK INTER:                  -4.705
REMARK INTRA:                  -0.567
REMARK UNBOUND:                -0.208
REMARK SMILES C=C[C@H](O)CCCCC
REMARK SMILES IDX 6 1 7 2 8 3 9 4 5 5 3 6 2 7 1 8 4 9
REMARK H PARENT 4 10
REMARK Flexibility Score: inf
ROOT
ATOM      1  C   UNL     1      -1.639  16.587  46.796  1.00  0.00     0.003 C 
ENDROOT
BRANCH   1   2
ATOM      2  C   UNL     1      -0.416  17.158  46.062  1.00  0.00    -0.000 C 
BRANCH   2   3
ATOM      3  C   UNL     1       0.635  17.735  47.022  1.00  0.00    -0.003 C 
ATOM      4  C   UNL     1       0.559  19.258  47.069  1.00  0.00     0.004 C 
ENDBRANCH   2   3
ENDBRANCH   1   2
BRANCH   1   5
ATOM      5  C   UNL     1      -1.364  16.321  48.286  1.00  0.00     0.036 C 
BRANCH   5   6
ATOM      6  C   UNL     1      -2.337  17.104  49.192  1.00  0.00     0.136 C 
BRANCH   6   7
ATOM      7  C   UNL     1      -3.019  18.216  48.429  1.00  0.00    -0.004 C 
ATOM      8  C   UNL     1      -2.890  19.497  48.789  1.00  0.00     0.007 C 
ENDBRANCH   6   7
BRANCH   6   9
ATOM      9  O   UNL     1      -1.670  17.629  50.314  1.00  0.00    -0.389 OA
ATOM     10  H   UNL     1      -2.135  17.295  51.126  1.00  0.00     0.211 HD
ENDBRANCH   6   9
ENDBRANCH   5   6
ENDBRANCH   1   5
TORSDOF 6
ENDMDL
MODEL 7
REMARK VINA RESULT:    -3.832      1.265      2.080
REMARK INTER + INTRA:          -5.272
REMARK INTER:                  -4.908
REMARK INTRA:                  -0.364
REMARK UNBOUND:                -0.208
REMARK SMILES C=C[C@H](O)CCCCC
REMARK SMILES IDX 6 1 7 2 8 3 9 4 5 5 3 6 2 7 1 8 4 9
REMARK H PARENT 4 10
REMARK Flexibility Score: inf
ROOT
ATOM      1  C   UNL     1      -0.485  19.014  46.451  1.00  0.00     0.003 C 
ENDROOT
BRANCH   1   2
ATOM      2  C   UNL     1      -0.171  17.512  46.362  1.00  0.00    -0.000 C 
BRANCH   2   3
ATOM      3  C   UNL     1      -0.965  16.806  45.253  1.00  0.00    -0.003 C 
ATOM      4  C   UNL     1      -0.068  15.877  44.441  1.00  0.00     0.004 C 
ENDBRANCH   2   3
ENDBRANCH   1   2
BRANCH   1   5
ATOM      5  C   UNL     1      -0.413  19.548  47.891  1.00  0.00     0.036 C 
BRANCH   5   6
ATOM      6  C   UNL     1      -1.820  19.782  48.481  1.00  0.00     0.136 C 
BRANCH   6   7
ATOM      7  C   UNL     1      -2.285  18.585  49.278  1.00  0.00    -0.004 C 
ATOM      8  C   UNL     1      -3.131  17.685  48.766  1.00  0.00     0.007 C 
ENDBRANCH   6   7
BRANCH   6   9
ATOM      9  O   UNL     1      -2.750  20.074  47.467  1.00  0.00    -0.389 OA
ATOM     10  H   UNL     1      -3.586  19.576  47.671  1.00  0.00     0.211 HD
ENDBRANCH   6   9
ENDBRANCH   5   6
ENDBRANCH   1   5
TORSDOF 6
ENDMDL
MODEL 8
REMARK VINA RESULT:    -3.827      1.760      3.939
REMARK INTER + INTRA:          -5.266
REMARK INTER:                  -4.669
REMARK INTRA:                  -0.597
REMARK UNBOUND:                -0.208
REMARK SMILES C=C[C@H](O)CCCCC
REMARK SMILES IDX 6 1 7 2 8 3 9 4 5 5 3 6 2 7 1 8 4 9
REMARK H PARENT 4 10
REMARK Flexibility Score: inf
ROOT
ATOM      1  C   UNL     1      -3.177  19.103  48.293  1.00  0.00     0.003 C 
ENDROOT
BRANCH   1   2
ATOM      2  C   UNL     1      -2.586  20.205  49.185  1.00  0.00    -0.000 C 
BRANCH   2   3
ATOM      3  C   UNL     1      -1.571  21.088  48.443  1.00  0.00    -0.003 C 
ATOM      4  C   UNL     1      -1.643  20.858  46.936  1.00  0.00     0.004 C 
ENDBRANCH   2   3
ENDBRANCH   1   2
BRANCH   1   5
ATOM      5  C   UNL     1      -2.866  17.689  48.814  1.00  0.00     0.036 C 
BRANCH   5   6
ATOM      6  C   UNL     1      -1.965  16.909  47.834  1.00  0.00     0.136 C 
BRANCH   6   7
ATOM      7  C   UNL     1      -0.514  17.299  47.997  1.00  0.00    -0.004 C 
ATOM      8  C   UNL     1       0.260  17.586  46.945  1.00  0.00     0.007 C 
ENDBRANCH   6   7
BRANCH   6   9
ATOM      9  O   UNL     1      -2.371  17.115  46.502  1.00  0.00    -0.389 OA
ATOM     10  H   UNL     1      -3.329  16.857  46.436  1.00  0.00     0.211 HD
ENDBRANCH   6   9
ENDBRANCH   5   6
ENDBRANCH   1   5
TORSDOF 6
ENDMDL
MODEL 9
REMARK VINA RESULT:    -3.803      1.525      1.702
REMARK INTER + INTRA:          -5.233
REMARK INTER:                  -4.631
REMARK INTRA:                  -0.602
REMARK UNBOUND:                -0.208
REMARK SMILES C=C[C@H](O)CCCCC
REMARK SMILES IDX 6 1 7 2 8 3 9 4 5 5 3 6 2 7 1 8 4 9
REMARK H PARENT 4 10
REMARK Flexibility Score: inf
ROOT
ATOM      1  C   UNL     1      -1.636  16.529  48.909  1.00  0.00     0.003 C 
ENDROOT
BRANCH   1   2
ATOM      2  C   UNL     1      -0.941  16.114  47.603  1.00  0.00    -0.000 C 
BRANCH   2   3
ATOM      3  C   UNL     1      -1.739  16.516  46.354  1.00  0.00    -0.003 C 
ATOM      4  C   UNL     1      -0.809  16.876  45.200  1.00  0.00     0.004 C 
ENDBRANCH   2   3
ENDBRANCH   1   2
BRANCH   1   5
ATOM      5  C   UNL     1      -2.814  17.489  48.673  1.00  0.00     0.036 C 
BRANCH   5   6
ATOM      6  C   UNL     1      -2.480  18.923  49.138  1.00  0.00     0.136 C 
BRANCH   6   7
ATOM      7  C   UNL     1      -2.175  19.821  47.961  1.00  0.00    -0.004 C 
ATOM      8  C   UNL     1      -0.922  20.050  47.558  1.00  0.00     0.007 C 
ENDBRANCH   6   7
BRANCH   6   9
ATOM      9  O   UNL     1      -1.397  18.923  50.036  1.00  0.00    -0.389 OA
ATOM     10  H   UNL     1      -0.687  19.504  49.652  1.00  0.00     0.211 HD
ENDBRANCH   6   9
ENDBRANCH   5   6
ENDBRANCH   1   5
TORSDOF 6
ENDMDL
