MODEL 1
REMARK VINA RESULT:    -4.226      0.000      0.000
REMARK INTER + INTRA:         -10.497
REMARK INTER:                  -7.931
REMARK INTRA:                  -2.566
REMARK UNBOUND:                -2.566
REMARK SMILES O=C([O-])CCCCCCCCCCCCCCC(=O)[O-]
REMARK SMILES IDX 10 1 9 2 8 3 7 4 6 5 5 6 4 7 2 8 1 9 3 10 11 11 12 12 13 13
REMARK SMILES IDX 14 14 15 15 16 16 17 17 18 18 19 19 20 20
REMARK H PARENT
REMARK Flexibility Score: inf
ROOT
ATOM      1  C   UNL     1      16.322   2.082  -1.412  1.00  0.00     0.000 C 
ENDROOT
BRANCH   1   2
ATOM      2  C   UNL     1      15.367   3.282  -1.535  1.00  0.00     0.000 C 
BRANCH   2   3
ATOM      3  C   UNL     1      15.201   4.043  -0.210  1.00  0.00     0.000 C 
BRANCH   3   4
ATOM      4  C   UNL     1      15.336   3.127   1.020  1.00  0.00     0.000 C 
BRANCH   4   5
ATOM      5  C   UNL     1      14.199   3.329   2.034  1.00  0.00     0.000 C 
BRANCH   5   6
ATOM      6  C   UNL     1      13.859   2.045   2.811  1.00  0.00     0.006 C 
BRANCH   6   7
ATOM      7  C   UNL     1      15.104   1.403   3.437  1.00  0.00     0.053 C 
BRANCH   7   8
ATOM      8  C   UNL     1      15.261   1.780   4.878  1.00  0.00     0.041 C 
ATOM      9  O   UNL     1      14.254   1.836   5.632  1.00  0.00    -0.550 OA
ATOM     10  O   UNL     1      16.523   2.039   5.397  1.00  0.00    -0.550 OA
ENDBRANCH   7   8
ENDBRANCH   6   7
ENDBRANCH   5   6
ENDBRANCH   4   5
ENDBRANCH   3   4
ENDBRANCH   2   3
ENDBRANCH   1   2
BRANCH   1  11
ATOM     11  C   UNL     1      15.758   0.805  -2.060  1.00  0.00     0.000 C 
BRANCH  11  12
ATOM     12  C   UNL     1      14.221   0.686  -2.035  1.00  0.00     0.000 C 
BRANCH  12  13
ATOM     13  C   UNL     1      13.660   0.144  -0.704  1.00  0.00     0.000 C 
BRANCH  13  14
ATOM     14  C   UNL     1      12.330   0.814  -0.316  1.00  0.00     0.000 C 
BRANCH  14  15
ATOM     15  C   UNL     1      11.932   1.954  -1.271  1.00  0.00     0.000 C 
BRANCH  15  16
ATOM     16  C   UNL     1      11.531   3.270  -0.580  1.00  0.00     0.006 C 
BRANCH  16  17
ATOM     17  C   UNL     1      10.762   3.046   0.728  1.00  0.00     0.053 C 
BRANCH  17  18
ATOM     18  C   UNL     1      10.311   4.353   1.300  1.00  0.00     0.041 C 
ATOM     19  O   UNL     1      11.155   5.168   1.759  1.00  0.00    -0.550 OA
ATOM     20  O   UNL     1       8.965   4.691   1.284  1.00  0.00    -0.550 OA
ENDBRANCH  17  18
ENDBRANCH  16  17
ENDBRANCH  15  16
ENDBRANCH  14  15
ENDBRANCH  13  14
ENDBRANCH  12  13
ENDBRANCH  11  12
ENDBRANCH   1  11
TORSDOF 15
ENDMDL
MODEL 2
REMARK VINA RESULT:    -4.122      1.807      3.165
REMARK INTER + INTRA:         -10.303
REMARK INTER:                  -8.606
REMARK INTRA:                  -1.697
REMARK UNBOUND:                -2.566
REMARK SMILES O=C([O-])CCCCCCCCCCCCCCC(=O)[O-]
REMARK SMILES IDX 10 1 9 2 8 3 7 4 6 5 5 6 4 7 2 8 1 9 3 10 11 11 12 12 13 13
REMARK SMILES IDX 14 14 15 15 16 16 17 17 18 18 19 19 20 20
REMARK H PARENT
REMARK Flexibility Score: inf
ROOT
ATOM      1  C   UNL     1      15.219   3.738   0.448  1.00  0.00     0.000 C 
ENDROOT
BRANCH   1   2
ATOM      2  C   UNL     1      14.527   3.221   1.721  1.00  0.00     0.000 C 
BRANCH   2   3
ATOM      3  C   UNL     1      14.497   1.686   1.794  1.00  0.00     0.000 C 
BRANCH   3   4
ATOM      4  C   UNL     1      14.695   1.158   3.227  1.00  0.00     0.000 C 
BRANCH   4   5
ATOM      5  C   UNL     1      15.492   2.133   4.110  1.00  0.00     0.000 C 
BRANCH   5   6
ATOM      6  C   UNL     1      15.514   1.712   5.590  1.00  0.00     0.006 C 
BRANCH   6   7
ATOM      7  C   UNL     1      16.749   2.247   6.325  1.00  0.00     0.053 C 
BRANCH   7   8
ATOM      8  C   UNL     1      17.634   1.139   6.808  1.00  0.00     0.041 C 
ATOM      9  O   UNL     1      18.379   1.313   7.808  1.00  0.00    -0.550 OA
ATOM     10  O   UNL     1      17.613  -0.096   6.172  1.00  0.00    -0.550 OA
ENDBRANCH   7   8
ENDBRANCH   6   7
ENDBRANCH   5   6
ENDBRANCH   4   5
ENDBRANCH   3   4
ENDBRANCH   2   3
ENDBRANCH   1   2
BRANCH   1  11
ATOM     11  C   UNL     1      16.146   2.690  -0.193  1.00  0.00     0.000 C 
BRANCH  11  12
ATOM     12  C   UNL     1      15.826   2.348  -1.662  1.00  0.00     0.000 C 
BRANCH  12  13
ATOM     13  C   UNL     1      16.138   0.886  -2.044  1.00  0.00     0.000 C 
BRANCH  13  14
ATOM     14  C   UNL     1      14.902   0.152  -2.594  1.00  0.00     0.000 C 
BRANCH  14  15
ATOM     15  C   UNL     1      13.772   0.018  -1.558  1.00  0.00     0.000 C 
BRANCH  15  16
ATOM     16  C   UNL     1      12.472   0.762  -1.915  1.00  0.00     0.006 C 
BRANCH  16  17
ATOM     17  C   UNL     1      11.820   1.439  -0.703  1.00  0.00     0.053 C 
BRANCH  17  18
ATOM     18  C   UNL     1      11.806   2.925  -0.878  1.00  0.00     0.041 C 
ATOM     19  O   UNL     1      11.120   3.647  -0.108  1.00  0.00    -0.550 OA
ATOM     20  O   UNL     1      12.587   3.516  -1.862  1.00  0.00    -0.550 OA
ENDBRANCH  17  18
ENDBRANCH  16  17
ENDBRANCH  15  16
ENDBRANCH  14  15
ENDBRANCH  13  14
ENDBRANCH  12  13
ENDBRANCH  11  12
ENDBRANCH   1  11
TORSDOF 15
ENDMDL
MODEL 3
REMARK VINA RESULT:    -4.110      1.385      2.498
REMARK INTER + INTRA:         -10.280
REMARK INTER:                  -8.477
REMARK INTRA:                  -1.803
REMARK UNBOUND:                -2.566
REMARK SMILES O=C([O-])CCCCCCCCCCCCCCC(=O)[O-]
REMARK SMILES IDX 10 1 9 2 8 3 7 4 6 5 5 6 4 7 2 8 1 9 3 10 11 11 12 12 13 13
REMARK SMILES IDX 14 14 15 15 16 16 17 17 18 18 19 19 20 20
REMARK H PARENT
REMARK Flexibility Score: inf
ROOT
ATOM      1  C   UNL     1      15.328   4.054  -0.169  1.00  0.00     0.000 C 
ENDROOT
BRANCH   1   2
ATOM      2  C   UNL     1      15.300   3.097   1.036  1.00  0.00     0.000 C 
BRANCH   2   3
ATOM      3  C   UNL     1      14.035   3.264   1.893  1.00  0.00     0.000 C 
BRANCH   3   4
ATOM      4  C   UNL     1      13.986   2.275   3.072  1.00  0.00     0.000 C 
BRANCH   4   5
ATOM      5  C   UNL     1      15.375   2.006   3.675  1.00  0.00     0.000 C 
BRANCH   5   6
ATOM      6  C   UNL     1      15.308   1.565   5.148  1.00  0.00     0.006 C 
BRANCH   6   7
ATOM      7  C   UNL     1      16.450   2.160   5.982  1.00  0.00     0.053 C 
BRANCH   7   8
ATOM      8  C   UNL     1      17.308   1.095   6.593  1.00  0.00     0.041 C 
ATOM      9  O   UNL     1      17.274  -0.081   6.145  1.00  0.00    -0.550 OA
ATOM     10  O   UNL     1      18.167   1.408   7.639  1.00  0.00    -0.550 OA
ENDBRANCH   7   8
ENDBRANCH   6   7
ENDBRANCH   5   6
ENDBRANCH   4   5
ENDBRANCH   3   4
ENDBRANCH   2   3
ENDBRANCH   1   2
BRANCH   1  11
ATOM     11  C   UNL     1      15.384   3.311  -1.516  1.00  0.00     0.000 C 
BRANCH  11  12
ATOM     12  C   UNL     1      16.140   1.968  -1.489  1.00  0.00     0.000 C 
BRANCH  12  13
ATOM     13  C   UNL     1      15.295   0.768  -1.965  1.00  0.00     0.000 C 
BRANCH  13  14
ATOM     14  C   UNL     1      13.796   1.107  -2.045  1.00  0.00     0.000 C 
BRANCH  14  15
ATOM     15  C   UNL     1      12.981   0.499  -0.889  1.00  0.00     0.000 C 
BRANCH  15  16
ATOM     16  C   UNL     1      11.820   1.375  -0.383  1.00  0.00     0.006 C 
BRANCH  16  17
ATOM     17  C   UNL     1      11.788   2.760  -1.040  1.00  0.00     0.053 C 
BRANCH  17  18
ATOM     18  C   UNL     1      10.789   3.640  -0.357  1.00  0.00     0.041 C 
ATOM     19  O   UNL     1      10.657   3.596   0.895  1.00  0.00    -0.550 OA
ATOM     20  O   UNL     1      10.038   4.544  -1.097  1.00  0.00    -0.550 OA
ENDBRANCH  17  18
ENDBRANCH  16  17
ENDBRANCH  15  16
ENDBRANCH  14  15
ENDBRANCH  13  14
ENDBRANCH  12  13
ENDBRANCH  11  12
ENDBRANCH   1  11
TORSDOF 15
ENDMDL
MODEL 4
REMARK VINA RESULT:    -4.092      2.885      4.521
REMARK INTER + INTRA:         -10.246
REMARK INTER:                  -7.992
REMARK INTRA:                  -2.254
REMARK UNBOUND:                -2.566
REMARK SMILES O=C([O-])CCCCCCCCCCCCCCC(=O)[O-]
REMARK SMILES IDX 10 1 9 2 8 3 7 4 6 5 5 6 4 7 2 8 1 9 3 10 11 11 12 12 13 13
REMARK SMILES IDX 14 14 15 15 16 16 17 17 18 18 19 19 20 20
REMARK H PARENT
REMARK Flexibility Score: inf
ROOT
ATOM      1  C   UNL     1      15.360   3.344  -1.391  1.00  0.00     0.000 C 
ENDROOT
BRANCH   1   2
ATOM      2  C   UNL     1      14.550   3.935  -0.224  1.00  0.00     0.000 C 
BRANCH   2   3
ATOM      3  C   UNL     1      14.417   2.959   0.957  1.00  0.00     0.000 C 
BRANCH   3   4
ATOM      4  C   UNL     1      13.190   3.259   1.836  1.00  0.00     0.000 C 
BRANCH   4   5
ATOM      5  C   UNL     1      12.809   4.749   1.829  1.00  0.00     0.000 C 
BRANCH   5   6
ATOM      6  C   UNL     1      11.310   4.981   2.094  1.00  0.00     0.006 C 
BRANCH   6   7
ATOM      7  C   UNL     1      10.460   4.752   0.837  1.00  0.00     0.053 C 
BRANCH   7   8
ATOM      8  C   UNL     1       9.016   5.072   1.075  1.00  0.00     0.041 C 
ATOM      9  O   UNL     1       8.656   6.261   1.281  1.00  0.00    -0.550 OA
ATOM     10  O   UNL     1       8.064   4.061   1.039  1.00  0.00    -0.550 OA
ENDBRANCH   7   8
ENDBRANCH   6   7
ENDBRANCH   5   6
ENDBRANCH   4   5
ENDBRANCH   3   4
ENDBRANCH   2   3
ENDBRANCH   1   2
BRANCH   1  11
ATOM     11  C   UNL     1      16.364   2.271  -0.934  1.00  0.00     0.000 C 
BRANCH  11  12
ATOM     12  C   UNL     1      16.603   1.130  -1.942  1.00  0.00     0.000 C 
BRANCH  12  13
ATOM     13  C   UNL     1      15.305   0.513  -2.503  1.00  0.00     0.000 C 
BRANCH  13  14
ATOM     14  C   UNL     1      14.655  -0.474  -1.517  1.00  0.00     0.000 C 
BRANCH  14  15
ATOM     15  C   UNL     1      13.270  -0.011  -1.030  1.00  0.00     0.000 C 
BRANCH  15  16
ATOM     16  C   UNL     1      12.527   0.935  -1.990  1.00  0.00     0.006 C 
BRANCH  16  17
ATOM     17  C   UNL     1      11.600   1.917  -1.262  1.00  0.00     0.053 C 
BRANCH  17  18
ATOM     18  C   UNL     1      10.318   1.244  -0.886  1.00  0.00     0.041 C 
ATOM     19  O   UNL     1       9.696   0.548  -1.730  1.00  0.00    -0.550 OA
ATOM     20  O   UNL     1       9.834   1.347   0.412  1.00  0.00    -0.550 OA
ENDBRANCH  17  18
ENDBRANCH  16  17
ENDBRANCH  15  16
ENDBRANCH  14  15
ENDBRANCH  13  14
ENDBRANCH  12  13
ENDBRANCH  11  12
ENDBRANCH   1  11
TORSDOF 15
ENDMDL
MODEL 5
REMARK VINA RESULT:    -4.039      3.368      5.532
REMARK INTER + INTRA:         -10.147
REMARK INTER:                  -8.402
REMARK INTRA:                  -1.745
REMARK UNBOUND:                -2.566
REMARK SMILES O=C([O-])CCCCCCCCCCCCCCC(=O)[O-]
REMARK SMILES IDX 10 1 9 2 8 3 7 4 6 5 5 6 4 7 2 8 1 9 3 10 11 11 12 12 13 13
REMARK SMILES IDX 14 14 15 15 16 16 17 17 18 18 19 19 20 20
REMARK H PARENT
REMARK Flexibility Score: inf
ROOT
ATOM      1  C   UNL     1      15.352   2.980   0.866  1.00  0.00     0.000 C 
ENDROOT
BRANCH   1   2
ATOM      2  C   UNL     1      14.258   3.363   1.878  1.00  0.00     0.000 C 
BRANCH   2   3
ATOM      3  C   UNL     1      13.053   4.048   1.214  1.00  0.00     0.000 C 
BRANCH   3   4
ATOM      4  C   UNL     1      12.116   4.718   2.236  1.00  0.00     0.000 C 
BRANCH   4   5
ATOM      5  C   UNL     1      10.782   5.160   1.612  1.00  0.00     0.000 C 
BRANCH   5   6
ATOM      6  C   UNL     1      10.472   4.430   0.294  1.00  0.00     0.006 C 
BRANCH   6   7
ATOM      7  C   UNL     1       9.048   4.713  -0.203  1.00  0.00     0.053 C 
BRANCH   7   8
ATOM      8  C   UNL     1       8.947   6.048  -0.874  1.00  0.00     0.041 C 
ATOM      9  O   UNL     1       9.422   6.215  -2.028  1.00  0.00    -0.550 OA
ATOM     10  O   UNL     1       8.301   7.101  -0.238  1.00  0.00    -0.550 OA
ENDBRANCH   7   8
ENDBRANCH   6   7
ENDBRANCH   5   6
ENDBRANCH   4   5
ENDBRANCH   3   4
ENDBRANCH   2   3
ENDBRANCH   1   2
BRANCH   1  11
ATOM     11  C   UNL     1      15.278   3.805  -0.431  1.00  0.00     0.000 C 
BRANCH  11  12
ATOM     12  C   UNL     1      15.413   2.989  -1.732  1.00  0.00     0.000 C 
BRANCH  12  13
ATOM     13  C   UNL     1      16.193   1.669  -1.560  1.00  0.00     0.000 C 
BRANCH  13  14
ATOM     14  C   UNL     1      15.431   0.463  -2.138  1.00  0.00     0.000 C 
BRANCH  14  15
ATOM     15  C   UNL     1      13.961   0.783  -2.465  1.00  0.00     0.000 C 
BRANCH  15  16
ATOM     16  C   UNL     1      12.967   0.504  -1.323  1.00  0.00     0.006 C 
BRANCH  16  17
ATOM     17  C   UNL     1      11.797   1.496  -1.295  1.00  0.00     0.053 C 
BRANCH  17  18
ATOM     18  C   UNL     1      10.503   0.786  -1.536  1.00  0.00     0.041 C 
ATOM     19  O   UNL     1       9.413   1.414  -1.467  1.00  0.00    -0.550 OA
ATOM     20  O   UNL     1      10.502  -0.559  -1.884  1.00  0.00    -0.550 OA
ENDBRANCH  17  18
ENDBRANCH  16  17
ENDBRANCH  15  16
ENDBRANCH  14  15
ENDBRANCH  13  14
ENDBRANCH  12  13
ENDBRANCH  11  12
ENDBRANCH   1  11
TORSDOF 15
ENDMDL
MODEL 6
REMARK VINA RESULT:    -4.030      1.875      6.397
REMARK INTER + INTRA:         -10.130
REMARK INTER:                  -8.323
REMARK INTRA:                  -1.807
REMARK UNBOUND:                -2.566
REMARK SMILES O=C([O-])CCCCCCCCCCCCCCC(=O)[O-]
REMARK SMILES IDX 10 1 9 2 8 3 7 4 6 5 5 6 4 7 2 8 1 9 3 10 11 11 12 12 13 13
REMARK SMILES IDX 14 14 15 15 16 16 17 17 18 18 19 19 20 20
REMARK H PARENT
REMARK Flexibility Score: inf
ROOT
ATOM      1  C   UNL     1      15.175   4.086   0.037  1.00  0.00     0.000 C 
ENDROOT
BRANCH   1   2
ATOM      2  C   UNL     1      15.376   3.514  -1.377  1.00  0.00     0.000 C 
BRANCH   2   3
ATOM      3  C   UNL     1      16.083   2.148  -1.367  1.00  0.00     0.000 C 
BRANCH   3   4
ATOM      4  C   UNL     1      15.281   1.062  -2.105  1.00  0.00     0.000 C 
BRANCH   4   5
ATOM      5  C   UNL     1      14.789  -0.050  -1.164  1.00  0.00     0.000 C 
BRANCH   5   6
ATOM      6  C   UNL     1      13.330   0.152  -0.717  1.00  0.00     0.006 C 
BRANCH   6   7
ATOM      7  C   UNL     1      12.600   1.190  -1.579  1.00  0.00     0.053 C 
BRANCH   7   8
ATOM      8  C   UNL     1      11.800   2.144  -0.746  1.00  0.00     0.041 C 
ATOM      9  O   UNL     1      11.303   1.768   0.347  1.00  0.00    -0.550 OA
ATOM     10  O   UNL     1      11.629   3.458  -1.164  1.00  0.00    -0.550 OA
ENDBRANCH   7   8
ENDBRANCH   6   7
ENDBRANCH   5   6
ENDBRANCH   4   5
ENDBRANCH   3   4
ENDBRANCH   2   3
ENDBRANCH   1   2
BRANCH   1  11
ATOM     11  C   UNL     1      15.348   3.024   1.138  1.00  0.00     0.000 C 
BRANCH  11  12
ATOM     12  C   UNL     1      14.144   2.868   2.088  1.00  0.00     0.000 C 
BRANCH  12  13
ATOM     13  C   UNL     1      14.071   1.491   2.780  1.00  0.00     0.000 C 
BRANCH  13  14
ATOM     14  C   UNL     1      15.030   1.391   3.980  1.00  0.00     0.000 C 
BRANCH  14  15
ATOM     15  C   UNL     1      14.302   1.436   5.335  1.00  0.00     0.000 C 
BRANCH  15  16
ATOM     16  C   UNL     1      15.144   1.975   6.506  1.00  0.00     0.006 C 
BRANCH  16  17
ATOM     17  C   UNL     1      16.637   2.078   6.170  1.00  0.00     0.053 C 
BRANCH  17  18
ATOM     18  C   UNL     1      17.414   1.040   6.916  1.00  0.00     0.041 C 
ATOM     19  O   UNL     1      18.382   1.377   7.648  1.00  0.00    -0.550 OA
ATOM     20  O   UNL     1      17.042  -0.296   6.840  1.00  0.00    -0.550 OA
ENDBRANCH  17  18
ENDBRANCH  16  17
ENDBRANCH  15  16
ENDBRANCH  14  15
ENDBRANCH  13  14
ENDBRANCH  12  13
ENDBRANCH  11  12
ENDBRANCH   1  11
TORSDOF 15
ENDMDL
MODEL 7
REMARK VINA RESULT:    -4.030      1.310      6.159
REMARK INTER + INTRA:         -10.129
REMARK INTER:                  -8.086
REMARK INTRA:                  -2.043
REMARK UNBOUND:                -2.566
REMARK SMILES O=C([O-])CCCCCCCCCCCCCCC(=O)[O-]
REMARK SMILES IDX 10 1 9 2 8 3 7 4 6 5 5 6 4 7 2 8 1 9 3 10 11 11 12 12 13 13
REMARK SMILES IDX 14 14 15 15 16 16 17 17 18 18 19 19 20 20
REMARK H PARENT
REMARK Flexibility Score: inf
ROOT
ATOM      1  C   UNL     1      15.168   3.734  -1.196  1.00  0.00     0.000 C 
ENDROOT
BRANCH   1   2
ATOM      2  C   UNL     1      15.812   2.385  -1.562  1.00  0.00     0.000 C 
BRANCH   2   3
ATOM      3  C   UNL     1      14.819   1.215  -1.477  1.00  0.00     0.000 C 
BRANCH   3   4
ATOM      4  C   UNL     1      13.354   1.672  -1.600  1.00  0.00     0.000 C 
BRANCH   4   5
ATOM      5  C   UNL     1      12.457   1.079  -0.501  1.00  0.00     0.000 C 
BRANCH   5   6
ATOM      6  C   UNL     1      11.346   2.045  -0.055  1.00  0.00     0.006 C 
BRANCH   6   7
ATOM      7  C   UNL     1      11.289   3.304  -0.930  1.00  0.00     0.053 C 
BRANCH   7   8
ATOM      8  C   UNL     1      10.086   4.142  -0.626  1.00  0.00     0.041 C 
ATOM      9  O   UNL     1       9.027   3.998  -1.293  1.00  0.00    -0.550 OA
ATOM     10  O   UNL     1      10.123   5.062   0.414  1.00  0.00    -0.550 OA
ENDBRANCH   7   8
ENDBRANCH   6   7
ENDBRANCH   5   6
ENDBRANCH   4   5
ENDBRANCH   3   4
ENDBRANCH   2   3
ENDBRANCH   1   2
BRANCH   1  11
ATOM     11  C   UNL     1      15.382   4.115   0.279  1.00  0.00     0.000 C 
BRANCH  11  12
ATOM     12  C   UNL     1      14.090   4.288   1.102  1.00  0.00     0.000 C 
BRANCH  12  13
ATOM     13  C   UNL     1      13.963   3.296   2.277  1.00  0.00     0.000 C 
BRANCH  13  14
ATOM     14  C   UNL     1      15.083   2.241   2.273  1.00  0.00     0.000 C 
BRANCH  14  15
ATOM     15  C   UNL     1      14.936   1.205   3.402  1.00  0.00     0.000 C 
BRANCH  15  16
ATOM     16  C   UNL     1      14.787   1.801   4.814  1.00  0.00     0.006 C 
BRANCH  16  17
ATOM     17  C   UNL     1      15.602   1.043   5.870  1.00  0.00     0.053 C 
BRANCH  17  18
ATOM     18  C   UNL     1      16.783   1.853   6.301  1.00  0.00     0.041 C 
ATOM     19  O   UNL     1      17.565   1.414   7.185  1.00  0.00    -0.550 OA
ATOM     20  O   UNL     1      17.049   3.073   5.692  1.00  0.00    -0.550 OA
ENDBRANCH  17  18
ENDBRANCH  16  17
ENDBRANCH  15  16
ENDBRANCH  14  15
ENDBRANCH  13  14
ENDBRANCH  12  13
ENDBRANCH  11  12
ENDBRANCH   1  11
TORSDOF 15
ENDMDL
MODEL 8
REMARK VINA RESULT:    -4.017      0.537      5.200
REMARK INTER + INTRA:         -10.106
REMARK INTER:                  -7.772
REMARK INTRA:                  -2.335
REMARK UNBOUND:                -2.566
REMARK SMILES O=C([O-])CCCCCCCCCCCCCCC(=O)[O-]
REMARK SMILES IDX 10 1 9 2 8 3 7 4 6 5 5 6 4 7 2 8 1 9 3 10 11 11 12 12 13 13
REMARK SMILES IDX 14 14 15 15 16 16 17 17 18 18 19 19 20 20
REMARK H PARENT
REMARK Flexibility Score: inf
ROOT
ATOM      1  C   UNL     1      15.835   0.979  -2.087  1.00  0.00     0.000 C 
ENDROOT
BRANCH   1   2
ATOM      2  C   UNL     1      14.319   0.720  -2.140  1.00  0.00     0.000 C 
BRANCH   2   3
ATOM      3  C   UNL     1      13.784   0.081  -0.848  1.00  0.00     0.000 C 
BRANCH   3   4
ATOM      4  C   UNL     1      12.621   0.880  -0.231  1.00  0.00     0.000 C 
BRANCH   4   5
ATOM      5  C   UNL     1      12.055   1.937  -1.194  1.00  0.00     0.000 C 
BRANCH   5   6
ATOM      6  C   UNL     1      10.736   2.551  -0.694  1.00  0.00     0.006 C 
BRANCH   6   7
ATOM      7  C   UNL     1      10.827   2.999   0.771  1.00  0.00     0.053 C 
BRANCH   7   8
ATOM      8  C   UNL     1      10.690   4.485   0.909  1.00  0.00     0.041 C 
ATOM      9  O   UNL     1      10.052   5.146   0.049  1.00  0.00    -0.550 OA
ATOM     10  O   UNL     1      11.243   5.135   2.006  1.00  0.00    -0.550 OA
ENDBRANCH   7   8
ENDBRANCH   6   7
ENDBRANCH   5   6
ENDBRANCH   4   5
ENDBRANCH   3   4
ENDBRANCH   2   3
ENDBRANCH   1   2
BRANCH   1  11
ATOM     11  C   UNL     1      16.215   2.083  -1.084  1.00  0.00     0.000 C 
BRANCH  11  12
ATOM     12  C   UNL     1      15.456   3.413  -1.261  1.00  0.00     0.000 C 
BRANCH  12  13
ATOM     13  C   UNL     1      14.970   4.034   0.065  1.00  0.00     0.000 C 
BRANCH  13  14
ATOM     14  C   UNL     1      15.227   3.111   1.269  1.00  0.00     0.000 C 
BRANCH  14  15
ATOM     15  C   UNL     1      14.120   3.193   2.335  1.00  0.00     0.000 C 
BRANCH  15  16
ATOM     16  C   UNL     1      13.926   1.913   3.169  1.00  0.00     0.006 C 
BRANCH  16  17
ATOM     17  C   UNL     1      15.242   1.363   3.732  1.00  0.00     0.053 C 
BRANCH  17  18
ATOM     18  C   UNL     1      15.398   1.749   5.169  1.00  0.00     0.041 C 
ATOM     19  O   UNL     1      16.537   2.019   5.632  1.00  0.00    -0.550 OA
ATOM     20  O   UNL     1      14.280   1.856   5.986  1.00  0.00    -0.550 OA
ENDBRANCH  17  18
ENDBRANCH  16  17
ENDBRANCH  15  16
ENDBRANCH  14  15
ENDBRANCH  13  14
ENDBRANCH  12  13
ENDBRANCH  11  12
ENDBRANCH   1  11
TORSDOF 15
ENDMDL
MODEL 9
REMARK VINA RESULT:    -4.006      3.086      4.743
REMARK INTER + INTRA:         -10.084
REMARK INTER:                  -8.444
REMARK INTRA:                  -1.641
REMARK UNBOUND:                -2.566
REMARK SMILES O=C([O-])CCCCCCCCCCCCCCC(=O)[O-]
REMARK SMILES IDX 10 1 9 2 8 3 7 4 6 5 5 6 4 7 2 8 1 9 3 10 11 11 12 12 13 13
REMARK SMILES IDX 14 14 15 15 16 16 17 17 18 18 19 19 20 20
REMARK H PARENT
REMARK Flexibility Score: inf
ROOT
ATOM      1  C   UNL     1      15.291   3.418  -1.408  1.00  0.00     0.000 C 
ENDROOT
BRANCH   1   2
ATOM      2  C   UNL     1      14.039   4.034  -2.055  1.00  0.00     0.000 C 
BRANCH   2   3
ATOM      3  C   UNL     1      12.802   3.132  -1.925  1.00  0.00     0.000 C 
BRANCH   3   4
ATOM      4  C   UNL     1      12.982   1.775  -2.630  1.00  0.00     0.000 C 
BRANCH   4   5
ATOM      5  C   UNL     1      12.643   0.585  -1.717  1.00  0.00     0.000 C 
BRANCH   5   6
ATOM      6  C   UNL     1      13.811   0.191  -0.797  1.00  0.00     0.006 C 
BRANCH   6   7
ATOM      7  C   UNL     1      14.696  -0.897  -1.420  1.00  0.00     0.053 C 
BRANCH   7   8
ATOM      8  C   UNL     1      15.487  -0.376  -2.580  1.00  0.00     0.041 C 
ATOM      9  O   UNL     1      16.308   0.564  -2.417  1.00  0.00    -0.550 OA
ATOM     10  O   UNL     1      15.339  -0.948  -3.837  1.00  0.00    -0.550 OA
ENDBRANCH   7   8
ENDBRANCH   6   7
ENDBRANCH   5   6
ENDBRANCH   4   5
ENDBRANCH   3   4
ENDBRANCH   2   3
ENDBRANCH   1   2
BRANCH   1  11
ATOM     11  C   UNL     1      15.565   3.973   0.001  1.00  0.00     0.000 C 
BRANCH  11  12
ATOM     12  C   UNL     1      15.271   2.995   1.156  1.00  0.00     0.000 C 
BRANCH  12  13
ATOM     13  C   UNL     1      13.989   3.332   1.946  1.00  0.00     0.000 C 
BRANCH  13  14
ATOM     14  C   UNL     1      13.442   4.728   1.600  1.00  0.00     0.000 C 
BRANCH  14  15
ATOM     15  C   UNL     1      11.959   4.901   1.974  1.00  0.00     0.000 C 
BRANCH  15  16
ATOM     16  C   UNL     1      10.970   4.127   1.083  1.00  0.00     0.006 C 
BRANCH  16  17
ATOM     17  C   UNL     1       9.568   4.749   1.068  1.00  0.00     0.053 C 
BRANCH  17  18
ATOM     18  C   UNL     1       9.337   5.488  -0.212  1.00  0.00     0.041 C 
ATOM     19  O   UNL     1       9.194   6.739  -0.204  1.00  0.00    -0.550 OA
ATOM     20  O   UNL     1       9.328   4.802  -1.419  1.00  0.00    -0.550 OA
ENDBRANCH  17  18
ENDBRANCH  16  17
ENDBRANCH  15  16
ENDBRANCH  14  15
ENDBRANCH  13  14
ENDBRANCH  12  13
ENDBRANCH  11  12
ENDBRANCH   1  11
TORSDOF 15
ENDMDL
