MODEL 1
REMARK VINA RESULT:    -5.658      0.000      0.000
REMARK INTER + INTRA:          -6.308
REMARK INTER:                  -6.981
REMARK INTRA:                   0.673
REMARK UNBOUND:                 0.673
REMARK SMILES C=C1[C@H]2CC[C@@H]3[C@H]2C(C)(C)CCC[C@]13C
REMARK SMILES IDX 14 1 6 2 7 3 3 4 2 5 1 6 4 7 5 8 15 9 8 10 9 11 10 12 11 13
REMARK SMILES IDX 13 15 12 16
REMARK H PARENT
REMARK Flexibility Score: 80.00
ROOT
ATOM      1  C   UNL     1      -3.505 -15.832   8.234  1.00  0.00    -0.008 C 
ATOM      2  C   UNL     1      -2.266 -16.697   8.672  1.00  0.00     0.003 C 
ATOM      3  C   UNL     1      -2.633 -17.135  10.099  1.00  0.00     0.006 C 
ATOM      4  C   UNL     1      -3.960 -17.763   9.670  1.00  0.00     0.019 C 
ATOM      5  C   UNL     1      -4.596 -16.638   8.901  1.00  0.00    -0.068 C 
ATOM      6  C   UNL     1      -5.915 -16.449   8.772  1.00  0.00     0.009 C 
ATOM      7  C   UNL     1      -3.494 -18.787   8.618  1.00  0.00     0.008 C 
ATOM      8  C   UNL     1      -2.285 -18.083   7.968  1.00  0.00     0.005 C 
ATOM      9  C   UNL     1      -3.715 -15.798   6.697  1.00  0.00     0.016 C 
ENDROOT
BRANCH   3  10
ATOM     10  C   UNL     1      -2.648 -16.043  11.259  1.00  0.00    -0.032 C 
ATOM     11  C   UNL     1      -1.876 -16.647  12.468  1.00  0.00     0.011 C 
ATOM     12  C   UNL     1      -4.058 -15.713  11.825  1.00  0.00     0.011 C 
BRANCH  10  13
ATOM     13  C   UNL     1      -1.885 -14.732  10.881  1.00  0.00     0.007 CG0
ATOM     14  G   UNL     1      -2.252 -13.942   9.598  1.00  0.00     0.000 G0
ENDBRANCH  10  13
ENDBRANCH   3  10
BRANCH   1  15
ATOM     15  C   UNL     1      -3.481 -14.365   8.789  1.00  0.00     0.011 C 
BRANCH  15  16
ATOM     16  C   UNL     1      -2.243 -13.947   9.593  1.00  0.00     0.001 CG0
ATOM     17  G   UNL     1      -1.888 -14.729  10.884  1.00  0.00     0.000 G0
ENDBRANCH  15  16
ENDBRANCH   1  15
TORSDOF 0
ENDMDL
MODEL 2
REMARK VINA RESULT:    -5.625      1.041      3.187
REMARK INTER + INTRA:          -6.268
REMARK INTER:                  -6.932
REMARK INTRA:                   0.664
REMARK UNBOUND:                 0.673
REMARK SMILES C=C1[C@H]2CC[C@@H]3[C@H]2C(C)(C)CCC[C@]13C
REMARK SMILES IDX 14 1 6 2 7 3 3 4 2 5 1 6 4 7 5 8 15 9 8 10 9 11 10 12 11 13
REMARK SMILES IDX 13 15 12 16
REMARK H PARENT
REMARK Flexibility Score: 80.00
ROOT
ATOM      1  C   UNL     1      -3.501 -17.460  10.182  1.00  0.00    -0.008 C 
ATOM      2  C   UNL     1      -4.440 -16.210  10.003  1.00  0.00     0.003 C 
ATOM      3  C   UNL     1      -3.609 -15.276   9.109  1.00  0.00     0.006 C 
ATOM      4  C   UNL     1      -3.425 -16.326   8.013  1.00  0.00     0.019 C 
ATOM      5  C   UNL     1      -2.899 -17.497   8.796  1.00  0.00    -0.068 C 
ATOM      6  C   UNL     1      -2.097 -18.449   8.304  1.00  0.00     0.009 C 
ATOM      7  C   UNL     1      -4.886 -16.670   7.665  1.00  0.00     0.008 C 
ATOM      8  C   UNL     1      -5.604 -16.530   9.023  1.00  0.00     0.005 C 
ATOM      9  C   UNL     1      -4.278 -18.772  10.474  1.00  0.00     0.016 C 
ENDROOT
BRANCH   3  10
ATOM     10  C   UNL     1      -2.312 -14.578   9.720  1.00  0.00    -0.032 C 
ATOM     11  C   UNL     1      -2.375 -13.073   9.332  1.00  0.00     0.011 C 
ATOM     12  C   UNL     1      -0.964 -15.076   9.125  1.00  0.00     0.011 C 
BRANCH  10  13
ATOM     13  C   UNL     1      -2.272 -14.614  11.282  1.00  0.00     0.007 CG0
ATOM     14  G   UNL     1      -2.418 -15.953  12.050  1.00  0.00     0.000 G0
ENDBRANCH  10  13
ENDBRANCH   3  10
BRANCH   1  15
ATOM     15  C   UNL     1      -2.386 -17.264  11.267  1.00  0.00     0.011 C 
BRANCH  15  16
ATOM     16  C   UNL     1      -2.408 -15.948  12.056  1.00  0.00     0.001 CG0
ATOM     17  G   UNL     1      -2.268 -14.609  11.286  1.00  0.00     0.000 G0
ENDBRANCH  15  16
ENDBRANCH   1  15
TORSDOF 0
ENDMDL
MODEL 3
REMARK VINA RESULT:    -5.306      1.374      2.457
REMARK INTER + INTRA:          -5.874
REMARK INTER:                  -6.543
REMARK INTRA:                   0.668
REMARK UNBOUND:                 0.673
REMARK SMILES C=C1[C@H]2CC[C@@H]3[C@H]2C(C)(C)CCC[C@]13C
REMARK SMILES IDX 14 1 6 2 7 3 3 4 2 5 1 6 4 7 5 8 15 9 8 10 9 11 10 12 11 13
REMARK SMILES IDX 13 15 12 16
REMARK H PARENT
REMARK Flexibility Score: 80.00
ROOT
ATOM      1  C   UNL     1      -2.966 -16.999   8.498  1.00  0.00    -0.008 C 
ATOM      2  C   UNL     1      -2.672 -16.985  10.044  1.00  0.00     0.003 C 
ATOM      3  C   UNL     1      -3.120 -15.578  10.471  1.00  0.00     0.006 C 
ATOM      4  C   UNL     1      -4.531 -15.749   9.907  1.00  0.00     0.019 C 
ATOM      5  C   UNL     1      -4.246 -16.195   8.500  1.00  0.00    -0.068 C 
ATOM      6  C   UNL     1      -5.049 -15.978   7.450  1.00  0.00     0.009 C 
ATOM      7  C   UNL     1      -5.017 -17.002  10.660  1.00  0.00     0.008 C 
ATOM      8  C   UNL     1      -3.725 -17.831  10.813  1.00  0.00     0.005 C 
ATOM      9  C   UNL     1      -3.218 -18.424   7.937  1.00  0.00     0.016 C 
ENDROOT
BRANCH   3  10
ATOM     10  C   UNL     1      -2.260 -14.321  10.002  1.00  0.00    -0.032 C 
ATOM     11  C   UNL     1      -2.039 -13.422  11.253  1.00  0.00     0.011 C 
ATOM     12  C   UNL     1      -2.971 -13.392   8.977  1.00  0.00     0.011 C 
BRANCH  10  13
ATOM     13  C   UNL     1      -0.832 -14.706   9.497  1.00  0.00     0.007 CG0
ATOM     14  G   UNL     1      -0.641 -15.772   8.387  1.00  0.00     0.000 G0
ENDBRANCH  10  13
ENDBRANCH   3  10
BRANCH   1  15
ATOM     15  C   UNL     1      -1.865 -16.288   7.638  1.00  0.00     0.011 C 
BRANCH  15  16
ATOM     16  C   UNL     1      -0.634 -15.758   8.385  1.00  0.00     0.001 CG0
ATOM     17  G   UNL     1      -0.830 -14.692   9.493  1.00  0.00     0.000 G0
ENDBRANCH  15  16
ENDBRANCH   1  15
TORSDOF 0
ENDMDL
MODEL 4
REMARK VINA RESULT:    -5.305      1.647      2.852
REMARK INTER + INTRA:          -5.873
REMARK INTER:                  -6.549
REMARK INTRA:                   0.676
REMARK UNBOUND:                 0.673
REMARK SMILES C=C1[C@H]2CC[C@@H]3[C@H]2C(C)(C)CCC[C@]13C
REMARK SMILES IDX 14 1 6 2 7 3 3 4 2 5 1 6 4 7 5 8 15 9 8 10 9 11 10 12 11 13
REMARK SMILES IDX 13 15 12 16
REMARK H PARENT
REMARK Flexibility Score: 80.00
ROOT
ATOM      1  C   UNL     1      -4.375 -16.354   8.416  1.00  0.00    -0.008 C 
ATOM      2  C   UNL     1      -3.695 -15.079   9.037  1.00  0.00     0.003 C 
ATOM      3  C   UNL     1      -2.619 -15.672   9.960  1.00  0.00     0.006 C 
ATOM      4  C   UNL     1      -1.967 -16.485   8.841  1.00  0.00     0.019 C 
ATOM      5  C   UNL     1      -3.147 -17.223   8.272  1.00  0.00    -0.068 C 
ATOM      6  C   UNL     1      -3.085 -18.416   7.667  1.00  0.00     0.009 C 
ATOM      7  C   UNL     1      -1.621 -15.385   7.820  1.00  0.00     0.008 C 
ATOM      8  C   UNL     1      -2.777 -14.379   7.995  1.00  0.00     0.005 C 
ATOM      9  C   UNL     1      -5.020 -16.088   7.030  1.00  0.00     0.016 C 
ENDROOT
BRANCH   3  10
ATOM     10  C   UNL     1      -3.075 -16.431  11.286  1.00  0.00    -0.032 C 
ATOM     11  C   UNL     1      -2.194 -15.893  12.450  1.00  0.00     0.011 C 
ATOM     12  C   UNL     1      -2.816 -17.965  11.280  1.00  0.00     0.011 C 
BRANCH  10  13
ATOM     13  C   UNL     1      -4.553 -16.124  11.693  1.00  0.00     0.007 CG0
ATOM     14  G   UNL     1      -5.715 -16.340  10.690  1.00  0.00     0.000 G0
ENDBRANCH  10  13
ENDBRANCH   3  10
BRANCH   1  15
ATOM     15  C   UNL     1      -5.429 -17.032   9.359  1.00  0.00     0.011 C 
BRANCH  15  16
ATOM     16  C   UNL     1      -5.711 -16.338  10.698  1.00  0.00     0.001 CG0
ATOM     17  G   UNL     1      -4.542 -16.128  11.695  1.00  0.00     0.000 G0
ENDBRANCH  15  16
ENDBRANCH   1  15
TORSDOF 0
ENDMDL
MODEL 5
REMARK VINA RESULT:    -5.105      1.912      4.160
REMARK INTER + INTRA:          -5.626
REMARK INTER:                  -6.302
REMARK INTRA:                   0.675
REMARK UNBOUND:                 0.673
REMARK SMILES C=C1[C@H]2CC[C@@H]3[C@H]2C(C)(C)CCC[C@]13C
REMARK SMILES IDX 14 1 6 2 7 3 3 4 2 5 1 6 4 7 5 8 15 9 8 10 9 11 10 12 11 13
REMARK SMILES IDX 13 15 12 16
REMARK H PARENT
REMARK Flexibility Score: 80.00
ROOT
ATOM      1  C   UNL     1      -3.053 -15.855   9.931  1.00  0.00    -0.008 C 
ATOM      2  C   UNL     1      -2.804 -16.695   8.625  1.00  0.00     0.003 C 
ATOM      3  C   UNL     1      -3.131 -15.698   7.502  1.00  0.00     0.006 C 
ATOM      4  C   UNL     1      -2.136 -14.652   8.006  1.00  0.00     0.019 C 
ATOM      5  C   UNL     1      -2.537 -14.519   9.449  1.00  0.00    -0.068 C 
ATOM      6  C   UNL     1      -2.376 -13.416  10.189  1.00  0.00     0.009 C 
ATOM      7  C   UNL     1      -0.819 -15.451   8.002  1.00  0.00     0.008 C 
ATOM      8  C   UNL     1      -1.282 -16.877   8.367  1.00  0.00     0.005 C 
ATOM      9  C   UNL     1      -2.225 -16.354  11.146  1.00  0.00     0.016 C 
ENDROOT
BRANCH   3  10
ATOM     10  C   UNL     1      -4.648 -15.260   7.279  1.00  0.00    -0.032 C 
ATOM     11  C   UNL     1      -4.937 -15.366   5.754  1.00  0.00     0.011 C 
ATOM     12  C   UNL     1      -4.955 -13.777   7.630  1.00  0.00     0.011 C 
BRANCH  10  13
ATOM     13  C   UNL     1      -5.673 -16.214   7.974  1.00  0.00     0.007 CG0
ATOM     14  G   UNL     1      -5.575 -16.516   9.492  1.00  0.00     0.000 G0
ENDBRANCH  10  13
ENDBRANCH   3  10
BRANCH   1  15
ATOM     15  C   UNL     1      -4.564 -15.752  10.339  1.00  0.00     0.011 C 
BRANCH  15  16
ATOM     16  C   UNL     1      -5.570 -16.527   9.478  1.00  0.00     0.001 CG0
ATOM     17  G   UNL     1      -5.669 -16.203   7.965  1.00  0.00     0.000 G0
ENDBRANCH  15  16
ENDBRANCH   1  15
TORSDOF 0
ENDMDL
MODEL 6
REMARK VINA RESULT:    -5.104      1.231      3.498
REMARK INTER + INTRA:          -5.625
REMARK INTER:                  -6.271
REMARK INTRA:                   0.646
REMARK UNBOUND:                 0.673
REMARK SMILES C=C1[C@H]2CC[C@@H]3[C@H]2C(C)(C)CCC[C@]13C
REMARK SMILES IDX 14 1 6 2 7 3 3 4 2 5 1 6 4 7 5 8 15 9 8 10 9 11 10 12 11 13
REMARK SMILES IDX 13 15 12 16
REMARK H PARENT
REMARK Flexibility Score: 80.00
ROOT
ATOM      1  C   UNL     1      -2.869 -16.731   9.882  1.00  0.00    -0.008 C 
ATOM      2  C   UNL     1      -3.914 -15.629  10.290  1.00  0.00     0.003 C 
ATOM      3  C   UNL     1      -4.713 -15.410   8.996  1.00  0.00     0.006 C 
ATOM      4  C   UNL     1      -5.090 -16.886   8.863  1.00  0.00     0.019 C 
ATOM      5  C   UNL     1      -3.747 -17.555   8.969  1.00  0.00    -0.068 C 
ATOM      6  C   UNL     1      -3.430 -18.729   8.408  1.00  0.00     0.009 C 
ATOM      7  C   UNL     1      -5.801 -17.147  10.205  1.00  0.00     0.008 C 
ATOM      8  C   UNL     1      -5.034 -16.233  11.182  1.00  0.00     0.005 C 
ATOM      9  C   UNL     1      -2.379 -17.584  11.083  1.00  0.00     0.016 C 
ENDROOT
BRANCH   3  10
ATOM     10  C   UNL     1      -4.002 -14.693   7.763  1.00  0.00    -0.032 C 
ATOM     11  C   UNL     1      -4.978 -13.598   7.244  1.00  0.00     0.011 C 
ATOM     12  C   UNL     1      -3.755 -15.608   6.531  1.00  0.00     0.011 C 
BRANCH  10  13
ATOM     13  C   UNL     1      -2.691 -13.940   8.162  1.00  0.00     0.007 CG0
ATOM     14  G   UNL     1      -1.558 -14.669   8.928  1.00  0.00     0.000 G0
ENDBRANCH  10  13
ENDBRANCH   3  10
BRANCH   1  15
ATOM     15  C   UNL     1      -1.628 -16.171   9.103  1.00  0.00     0.011 C 
BRANCH  15  16
ATOM     16  C   UNL     1      -1.551 -14.649   8.923  1.00  0.00     0.001 CG0
ATOM     17  G   UNL     1      -2.693 -13.924   8.166  1.00  0.00     0.000 G0
ENDBRANCH  15  16
ENDBRANCH   1  15
TORSDOF 0
ENDMDL
MODEL 7
REMARK VINA RESULT:    -4.818      1.699      3.561
REMARK INTER + INTRA:          -5.272
REMARK INTER:                  -5.944
REMARK INTRA:                   0.672
REMARK UNBOUND:                 0.673
REMARK SMILES C=C1[C@H]2CC[C@@H]3[C@H]2C(C)(C)CCC[C@]13C
REMARK SMILES IDX 14 1 6 2 7 3 3 4 2 5 1 6 4 7 5 8 15 9 8 10 9 11 10 12 11 13
REMARK SMILES IDX 13 15 12 16
REMARK H PARENT
REMARK Flexibility Score: 80.00
ROOT
ATOM      1  C   UNL     1      -2.708 -14.891   9.978  1.00  0.00    -0.008 C 
ATOM      2  C   UNL     1      -1.610 -15.979   9.685  1.00  0.00     0.003 C 
ATOM      3  C   UNL     1      -2.186 -16.739   8.480  1.00  0.00     0.006 C 
ATOM      4  C   UNL     1      -2.337 -15.477   7.630  1.00  0.00     0.019 C 
ATOM      5  C   UNL     1      -3.107 -14.576   8.555  1.00  0.00    -0.068 C 
ATOM      6  C   UNL     1      -3.938 -13.604   8.160  1.00  0.00     0.009 C 
ATOM      7  C   UNL     1      -0.893 -14.939   7.616  1.00  0.00     0.008 C 
ATOM      8  C   UNL     1      -0.365 -15.338   9.009  1.00  0.00     0.005 C 
ATOM      9  C   UNL     1      -2.144 -13.627  10.680  1.00  0.00     0.016 C 
ENDROOT
BRANCH   3  10
ATOM     10  C   UNL     1      -3.464 -17.668   8.695  1.00  0.00    -0.032 C 
ATOM     11  C   UNL     1      -3.167 -19.026   7.996  1.00  0.00     0.011 C 
ATOM     12  C   UNL     1      -4.764 -17.156   8.012  1.00  0.00     0.011 C 
BRANCH  10  13
ATOM     13  C   UNL     1      -3.729 -18.012  10.197  1.00  0.00     0.007 CG0
ATOM     14  G   UNL     1      -3.885 -16.888  11.254  1.00  0.00     0.000 G0
ENDBRANCH  10  13
ENDBRANCH   3  10
BRANCH   1  15
ATOM     15  C   UNL     1      -3.935 -15.433  10.791  1.00  0.00     0.011 C 
BRANCH  15  16
ATOM     16  C   UNL     1      -3.870 -16.894  11.255  1.00  0.00     0.001 CG0
ATOM     17  G   UNL     1      -3.715 -18.013  10.193  1.00  0.00     0.000 G0
ENDBRANCH  15  16
ENDBRANCH   1  15
TORSDOF 0
ENDMDL
MODEL 8
REMARK VINA RESULT:    -4.617      1.862      4.212
REMARK INTER + INTRA:          -5.024
REMARK INTER:                  -5.678
REMARK INTRA:                   0.654
REMARK UNBOUND:                 0.673
REMARK SMILES C=C1[C@H]2CC[C@@H]3[C@H]2C(C)(C)CCC[C@]13C
REMARK SMILES IDX 14 1 6 2 7 3 3 4 2 5 1 6 4 7 5 8 15 9 8 10 9 11 10 12 11 13
REMARK SMILES IDX 13 15 12 16
REMARK H PARENT
REMARK Flexibility Score: 80.00
ROOT
ATOM      1  C   UNL     1      -2.605 -16.883  10.220  1.00  0.00    -0.008 C 
ATOM      2  C   UNL     1      -1.895 -16.197   8.996  1.00  0.00     0.003 C 
ATOM      3  C   UNL     1      -3.031 -15.402   8.334  1.00  0.00     0.006 C 
ATOM      4  C   UNL     1      -3.376 -14.640   9.614  1.00  0.00     0.019 C 
ATOM      5  C   UNL     1      -3.542 -15.761  10.602  1.00  0.00    -0.068 C 
ATOM      6  C   UNL     1      -4.332 -15.718  11.683  1.00  0.00     0.009 C 
ATOM      7  C   UNL     1      -2.029 -13.972   9.950  1.00  0.00     0.008 C 
ATOM      8  C   UNL     1      -1.000 -15.016   9.468  1.00  0.00     0.005 C 
ATOM      9  C   UNL     1      -1.635 -17.205  11.388  1.00  0.00     0.016 C 
ENDROOT
BRANCH   3  10
ATOM     10  C   UNL     1      -4.192 -16.198   7.586  1.00  0.00    -0.032 C 
ATOM     11  C   UNL     1      -4.404 -15.511   6.206  1.00  0.00     0.011 C 
ATOM     12  C   UNL     1      -5.584 -16.119   8.276  1.00  0.00     0.011 C 
BRANCH  10  13
ATOM     13  C   UNL     1      -3.817 -17.682   7.270  1.00  0.00     0.007 CG0
ATOM     14  G   UNL     1      -3.314 -18.630   8.389  1.00  0.00     0.000 G0
ENDBRANCH  10  13
ENDBRANCH   3  10
BRANCH   1  15
ATOM     15  C   UNL     1      -3.411 -18.175   9.842  1.00  0.00     0.011 C 
BRANCH  15  16
ATOM     16  C   UNL     1      -3.322 -18.647   8.385  1.00  0.00     0.001 CG0
ATOM     17  G   UNL     1      -3.807 -17.699   7.258  1.00  0.00     0.000 G0
ENDBRANCH  15  16
ENDBRANCH   1  15
TORSDOF 0
ENDMDL
MODEL 9
REMARK VINA RESULT:    -4.436      1.682      3.814
REMARK INTER + INTRA:          -4.801
REMARK INTER:                  -5.472
REMARK INTRA:                   0.671
REMARK UNBOUND:                 0.673
REMARK SMILES C=C1[C@H]2CC[C@@H]3[C@H]2C(C)(C)CCC[C@]13C
REMARK SMILES IDX 14 1 6 2 7 3 3 4 2 5 1 6 4 7 5 8 15 9 8 10 9 11 10 12 11 13
REMARK SMILES IDX 13 15 12 16
REMARK H PARENT
REMARK Flexibility Score: 80.00
ROOT
ATOM      1  C   UNL     1      -2.572 -14.487   9.336  1.00  0.00    -0.008 C 
ATOM      2  C   UNL     1      -3.528 -15.238  10.335  1.00  0.00     0.003 C 
ATOM      3  C   UNL     1      -3.057 -16.698  10.237  1.00  0.00     0.006 C 
ATOM      4  C   UNL     1      -1.609 -16.358  10.588  1.00  0.00     0.019 C 
ATOM      5  C   UNL     1      -1.304 -15.264   9.603  1.00  0.00    -0.068 C 
ATOM      6  C   UNL     1      -0.086 -14.987   9.118  1.00  0.00     0.009 C 
ATOM      7  C   UNL     1      -1.775 -15.665  11.954  1.00  0.00     0.008 C 
ATOM      8  C   UNL     1      -3.129 -14.942  11.808  1.00  0.00     0.005 C 
ATOM      9  C   UNL     1      -2.378 -12.988   9.687  1.00  0.00     0.016 C 
ENDROOT
BRANCH   3  10
ATOM     10  C   UNL     1      -3.345 -17.510   8.895  1.00  0.00    -0.032 C 
ATOM     11  C   UNL     1      -3.921 -18.895   9.312  1.00  0.00     0.011 C 
ATOM     12  C   UNL     1      -2.079 -17.853   8.058  1.00  0.00     0.011 C 
BRANCH  10  13
ATOM     13  C   UNL     1      -4.437 -16.847   7.996  1.00  0.00     0.007 CG0
ATOM     14  G   UNL     1      -4.300 -15.373   7.534  1.00  0.00     0.000 G0
ENDBRANCH  10  13
ENDBRANCH   3  10
BRANCH   1  15
ATOM     15  C   UNL     1      -2.998 -14.619   7.832  1.00  0.00     0.011 C 
BRANCH  15  16
ATOM     16  C   UNL     1      -4.307 -15.366   7.544  1.00  0.00     0.001 CG0
ATOM     17  G   UNL     1      -4.441 -16.844   7.993  1.00  0.00     0.000 G0
ENDBRANCH  15  16
ENDBRANCH   1  15
TORSDOF 0
ENDMDL
