MODEL 1
REMARK VINA RESULT:    -7.707      0.000      0.000
REMARK INTER + INTRA:         -21.280
REMARK INTER:                 -18.295
REMARK INTRA:                  -2.985
REMARK UNBOUND:                -2.985
REMARK SMILES O=C(OC[C@@H]1O[C@@H](OC(=O)c2cc(O)c(O)c(O)c2)[C@@H](OC(=O)c2cc(O)c(O)c(O)c2)[C@H](OC(=O)c2cc(O)c(O)c(O)c2)[C@@H]1OC(=O)c1cc(O)c(O)c(O)c1)c1cc(O)c(O)c(O)c1
REMARK SMILES IDX 5 1 46 2 33 3 20 4 7 5 6 6 4 7 3 8 2 9 1 10 59 11 60 12
REMARK SMILES IDX 61 13 67 14 63 15 65 16 62 17 64 19 66 21 47 23 48 24 49 25
REMARK SMILES IDX 50 26 58 27 51 28 56 29 52 30 54 31 57 32 53 34 55 36 34 38
REMARK SMILES IDX 35 39 36 40 37 41 45 42 38 43 43 44 39 45 41 46 44 47 40 49
REMARK SMILES IDX 42 51 8 53 9 54 10 55 11 56 19 57 12 58 17 59 13 60 15 61
REMARK SMILES IDX 18 62 14 64 16 66 21 68 22 69 23 70 24 71 32 72 25 73 30 74
REMARK SMILES IDX 26 75 28 76 31 77 27 79 29 81
REMARK H PARENT 62 18 64 20 66 22 57 33 53 35 55 37 44 48 40 50 42 52 18 63
REMARK H PARENT 14 65 16 67 31 78 27 80 29 82
REMARK Flexibility Score: inf
ROOT
ATOM      1  C   UNL     1      16.971  27.401  30.177  1.00  0.00     0.205 C 
ATOM      2  C   UNL     1      17.103  26.209  29.204  1.00  0.00     0.254 C 
ATOM      3  C   UNL     1      18.559  26.122  28.705  1.00  0.00     0.267 C 
ATOM      4  C   UNL     1      19.006  27.483  28.140  1.00  0.00     0.290 C 
ATOM      5  C   UNL     1      18.710  28.601  29.155  1.00  0.00     0.357 C 
ATOM      6  O   UNL     1      17.342  28.610  29.531  1.00  0.00    -0.329 OA
ENDROOT
BRANCH   1   7
ATOM      7  C   UNL     1      15.531  27.530  30.702  1.00  0.00     0.269 C 
BRANCH   7   8
ATOM      8  O   UNL     1      15.513  28.206  31.959  1.00  0.00    -0.459 OA
BRANCH   8   9
ATOM      9  C   UNL     1      14.980  29.485  32.154  1.00  0.00     0.338 C 
ATOM     10  O   UNL     1      13.875  29.630  32.744  1.00  0.00    -0.246 OA
BRANCH   9  11
ATOM     11  C   UNL     1      15.738  30.670  31.696  1.00  0.00     0.067 A 
ATOM     12  C   UNL     1      15.615  31.117  30.373  1.00  0.00     0.066 A 
ATOM     13  C   UNL     1      16.337  32.224  29.923  1.00  0.00     0.162 A 
ATOM     14  C   UNL     1      16.592  31.357  32.571  1.00  0.00     0.066 A 
ATOM     15  C   UNL     1      17.202  32.906  30.797  1.00  0.00     0.200 A 
ATOM     16  C   UNL     1      17.323  32.470  32.140  1.00  0.00     0.162 A 
BRANCH  13  17
ATOM     17  O   UNL     1      16.196  32.623  28.592  1.00  0.00    -0.504 OA
ATOM     18  H   UNL     1      16.897  32.423  27.889  1.00  0.00     0.293 HD
ENDBRANCH  13  17
BRANCH  15  19
ATOM     19  O   UNL     1      17.923  33.997  30.301  1.00  0.00    -0.502 OA
ATOM     20  H   UNL     1      18.786  34.333  30.701  1.00  0.00     0.293 HD
ENDBRANCH  15  19
BRANCH  16  21
ATOM     21  O   UNL     1      18.142  33.111  33.073  1.00  0.00    -0.504 OA
ATOM     22  H   UNL     1      18.400  34.083  33.029  1.00  0.00     0.293 HD
ENDBRANCH  16  21
ENDBRANCH   9  11
ENDBRANCH   8   9
ENDBRANCH   7   8
ENDBRANCH   1   7
BRANCH   2  23
ATOM     23  O   UNL     1      16.222  26.398  28.097  1.00  0.00    -0.452 OA
BRANCH  23  24
ATOM     24  C   UNL     1      15.016  25.704  27.927  1.00  0.00     0.338 C 
ATOM     25  O   UNL     1      13.930  26.334  27.801  1.00  0.00    -0.246 OA
BRANCH  24  26
ATOM     26  C   UNL     1      15.024  24.228  27.894  1.00  0.00     0.067 A 
ATOM     27  C   UNL     1      15.374  23.539  26.719  1.00  0.00     0.066 A 
ATOM     28  C   UNL     1      14.690  23.495  29.042  1.00  0.00     0.066 A 
ATOM     29  C   UNL     1      15.391  22.142  26.691  1.00  0.00     0.162 A 
ATOM     30  C   UNL     1      14.697  22.098  29.022  1.00  0.00     0.162 A 
ATOM     31  C   UNL     1      15.047  21.414  27.844  1.00  0.00     0.200 A 
BRANCH  29  32
ATOM     32  O   UNL     1      15.772  21.492  25.516  1.00  0.00    -0.504 OA
ATOM     33  H   UNL     1      16.288  21.967  24.785  1.00  0.00     0.293 HD
ENDBRANCH  29  32
BRANCH  30  34
ATOM     34  O   UNL     1      14.352  21.380  30.169  1.00  0.00    -0.504 OA
ATOM     35  H   UNL     1      13.515  21.605  30.697  1.00  0.00     0.293 HD
ENDBRANCH  30  34
BRANCH  31  36
ATOM     36  O   UNL     1      15.065  20.019  27.809  1.00  0.00    -0.502 OA
ATOM     37  H   UNL     1      14.682  19.454  28.561  1.00  0.00     0.293 HD
ENDBRANCH  31  36
ENDBRANCH  24  26
ENDBRANCH  23  24
ENDBRANCH   2  23
BRANCH   3  38
ATOM     38  O   UNL     1      18.687  25.131  27.685  1.00  0.00    -0.450 OA
BRANCH  38  39
ATOM     39  C   UNL     1      19.822  24.337  27.489  1.00  0.00     0.338 C 
ATOM     40  O   UNL     1      20.675  24.215  28.411  1.00  0.00    -0.246 OA
BRANCH  39  41
ATOM     41  C   UNL     1      20.019  23.651  26.191  1.00  0.00     0.067 A 
ATOM     42  C   UNL     1      21.102  23.971  25.355  1.00  0.00     0.066 A 
ATOM     43  C   UNL     1      19.109  22.666  25.777  1.00  0.00     0.066 A 
ATOM     44  C   UNL     1      21.256  23.344  24.110  1.00  0.00     0.162 A 
ATOM     45  C   UNL     1      19.252  22.037  24.537  1.00  0.00     0.162 A 
ATOM     46  C   UNL     1      20.324  22.377  23.695  1.00  0.00     0.200 A 
BRANCH  44  47
ATOM     47  O   UNL     1      22.330  23.679  23.280  1.00  0.00    -0.504 OA
ATOM     48  H   UNL     1      22.995  22.983  22.958  1.00  0.00     0.293 HD
ENDBRANCH  44  47
BRANCH  45  49
ATOM     49  O   UNL     1      18.322  21.069  24.156  1.00  0.00    -0.504 OA
ATOM     50  H   UNL     1      17.500  20.868  24.710  1.00  0.00     0.293 HD
ENDBRANCH  45  49
BRANCH  46  51
ATOM     51  O   UNL     1      20.452  21.747  22.458  1.00  0.00    -0.502 OA
ATOM     52  H   UNL     1      20.849  22.211  21.648  1.00  0.00     0.293 HD
ENDBRANCH  46  51
ENDBRANCH  39  41
ENDBRANCH  38  39
ENDBRANCH   3  38
BRANCH   5  53
ATOM     53  O   UNL     1      19.549  28.479  30.306  1.00  0.00    -0.428 OA
BRANCH  53  54
ATOM     54  C   UNL     1      19.630  29.455  31.308  1.00  0.00     0.340 C 
ATOM     55  O   UNL     1      18.886  29.383  32.324  1.00  0.00    -0.246 OA
BRANCH  54  56
ATOM     56  C   UNL     1      20.574  30.584  31.149  1.00  0.00     0.067 A 
ATOM     57  C   UNL     1      20.541  31.371  29.987  1.00  0.00     0.066 A 
ATOM     58  C   UNL     1      21.500  30.888  32.160  1.00  0.00     0.066 A 
ATOM     59  C   UNL     1      21.430  32.445  29.830  1.00  0.00     0.162 A 
ATOM     60  C   UNL     1      22.386  31.964  32.012  1.00  0.00     0.162 A 
ATOM     61  C   UNL     1      22.358  32.741  30.843  1.00  0.00     0.200 A 
BRANCH  59  62
ATOM     62  O   UNL     1      21.395  33.219  28.673  1.00  0.00    -0.504 OA
ATOM     63  H   UNL     1      22.091  33.117  27.943  1.00  0.00     0.293 HD
ENDBRANCH  59  62
BRANCH  60  64
ATOM     64  O   UNL     1      23.300  32.244  33.028  1.00  0.00    -0.504 OA
ATOM     65  H   UNL     1      23.472  33.191  33.347  1.00  0.00     0.293 HD
ENDBRANCH  60  64
BRANCH  61  66
ATOM     66  O   UNL     1      23.255  33.803  30.705  1.00  0.00    -0.502 OA
ATOM     67  H   UNL     1      22.938  34.770  30.643  1.00  0.00     0.293 HD
ENDBRANCH  61  66
ENDBRANCH  54  56
ENDBRANCH  53  54
ENDBRANCH   5  53
BRANCH   4  68
ATOM     68  O   UNL     1      20.408  27.463  27.851  1.00  0.00    -0.448 OA
BRANCH  68  69
ATOM     69  C   UNL     1      21.394  27.204  28.815  1.00  0.00     0.339 C 
ATOM     70  O   UNL     1      21.133  26.467  29.804  1.00  0.00    -0.246 OA
BRANCH  69  71
ATOM     71  C   UNL     1      22.753  27.763  28.652  1.00  0.00     0.067 A 
ATOM     72  C   UNL     1      23.213  28.785  29.501  1.00  0.00     0.066 A 
ATOM     73  C   UNL     1      23.605  27.275  27.648  1.00  0.00     0.066 A 
ATOM     74  C   UNL     1      24.515  29.289  29.370  1.00  0.00     0.162 A 
ATOM     75  C   UNL     1      24.903  27.780  27.495  1.00  0.00     0.162 A 
ATOM     76  C   UNL     1      25.370  28.785  28.379  1.00  0.00     0.200 A 
BRANCH  74  77
ATOM     77  O   UNL     1      24.975  30.284  30.232  1.00  0.00    -0.504 OA
ATOM     78  H   UNL     1      24.548  31.197  30.258  1.00  0.00     0.293 HD
ENDBRANCH  74  77
BRANCH  75  79
ATOM     79  O   UNL     1      25.680  27.264  26.453  1.00  0.00    -0.504 OA
ATOM     80  H   UNL     1      26.680  27.151  26.497  1.00  0.00     0.293 HD
ENDBRANCH  75  79
BRANCH  76  81
ATOM     81  O   UNL     1      26.669  29.293  28.310  1.00  0.00    -0.502 OA
ATOM     82  H   UNL     1      27.058  29.917  28.996  1.00  0.00     0.293 HD
ENDBRANCH  76  81
ENDBRANCH  69  71
ENDBRANCH  68  69
ENDBRANCH   4  68
TORSDOF 31
ENDMDL
MODEL 2
REMARK VINA RESULT:    -7.615      1.381      8.052
REMARK INTER + INTRA:         -21.063
REMARK INTER:                 -18.036
REMARK INTRA:                  -3.027
REMARK UNBOUND:                -2.985
REMARK SMILES O=C(OC[C@@H]1O[C@@H](OC(=O)c2cc(O)c(O)c(O)c2)[C@@H](OC(=O)c2cc(O)c(O)c(O)c2)[C@H](OC(=O)c2cc(O)c(O)c(O)c2)[C@@H]1OC(=O)c1cc(O)c(O)c(O)c1)c1cc(O)c(O)c(O)c1
REMARK SMILES IDX 5 1 46 2 33 3 20 4 7 5 6 6 4 7 3 8 2 9 1 10 59 11 60 12
REMARK SMILES IDX 61 13 67 14 63 15 65 16 62 17 64 19 66 21 47 23 48 24 49 25
REMARK SMILES IDX 50 26 58 27 51 28 56 29 52 30 54 31 57 32 53 34 55 36 34 38
REMARK SMILES IDX 35 39 36 40 37 41 45 42 38 43 43 44 39 45 41 46 44 47 40 49
REMARK SMILES IDX 42 51 8 53 9 54 10 55 11 56 19 57 12 58 17 59 13 60 15 61
REMARK SMILES IDX 18 62 14 64 16 66 21 68 22 69 23 70 24 71 32 72 25 73 30 74
REMARK SMILES IDX 26 75 28 76 31 77 27 79 29 81
REMARK H PARENT 62 18 64 20 66 22 57 33 53 35 55 37 44 48 40 50 42 52 18 63
REMARK H PARENT 14 65 16 67 31 78 27 80 29 82
REMARK Flexibility Score: inf
ROOT
ATOM      1  C   UNL     1      19.453  25.402  27.542  1.00  0.00     0.205 C 
ATOM      2  C   UNL     1      18.144  26.222  27.554  1.00  0.00     0.254 C 
ATOM      3  C   UNL     1      18.436  27.632  28.105  1.00  0.00     0.267 C 
ATOM      4  C   UNL     1      19.161  27.531  29.460  1.00  0.00     0.290 C 
ATOM      5  C   UNL     1      20.374  26.590  29.343  1.00  0.00     0.357 C 
ATOM      6  O   UNL     1      19.996  25.315  28.851  1.00  0.00    -0.329 OA
ENDROOT
BRANCH   1   7
ATOM      7  C   UNL     1      19.212  23.983  27.000  1.00  0.00     0.269 C 
BRANCH   7   8
ATOM      8  O   UNL     1      20.392  23.473  26.382  1.00  0.00    -0.459 OA
BRANCH   8   9
ATOM      9  C   UNL     1      21.009  24.054  25.268  1.00  0.00     0.338 C 
ATOM     10  O   UNL     1      21.308  25.279  25.275  1.00  0.00    -0.246 OA
BRANCH   9  11
ATOM     11  C   UNL     1      21.341  23.215  24.096  1.00  0.00     0.067 A 
ATOM     12  C   UNL     1      20.336  22.493  23.438  1.00  0.00     0.066 A 
ATOM     13  C   UNL     1      20.639  21.685  22.341  1.00  0.00     0.162 A 
ATOM     14  C   UNL     1      22.662  23.123  23.631  1.00  0.00     0.066 A 
ATOM     15  C   UNL     1      21.964  21.584  21.881  1.00  0.00     0.200 A 
ATOM     16  C   UNL     1      22.985  22.321  22.532  1.00  0.00     0.162 A 
BRANCH  13  17
ATOM     17  O   UNL     1      19.608  20.970  21.726  1.00  0.00    -0.504 OA
ATOM     18  H   UNL     1      19.439  19.989  21.917  1.00  0.00     0.293 HD
ENDBRANCH  13  17
BRANCH  15  19
ATOM     19  O   UNL     1      22.229  20.747  20.793  1.00  0.00    -0.502 OA
ATOM     20  H   UNL     1      21.758  19.871  20.626  1.00  0.00     0.293 HD
ENDBRANCH  15  19
BRANCH  16  21
ATOM     21  O   UNL     1      24.320  22.291  22.119  1.00  0.00    -0.504 OA
ATOM     22  H   UNL     1      24.632  22.518  21.189  1.00  0.00     0.293 HD
ENDBRANCH  16  21
ENDBRANCH   9  11
ENDBRANCH   8   9
ENDBRANCH   7   8
ENDBRANCH   1   7
BRANCH   2  23
ATOM     23  O   UNL     1      17.181  25.568  28.381  1.00  0.00    -0.452 OA
BRANCH  23  24
ATOM     24  C   UNL     1      15.917  25.157  27.937  1.00  0.00     0.338 C 
ATOM     25  O   UNL     1      15.052  26.010  27.597  1.00  0.00    -0.246 OA
BRANCH  24  26
ATOM     26  C   UNL     1      15.604  23.715  27.866  1.00  0.00     0.067 A 
ATOM     27  C   UNL     1      15.484  23.067  26.624  1.00  0.00     0.066 A 
ATOM     28  C   UNL     1      15.433  22.973  29.044  1.00  0.00     0.066 A 
ATOM     29  C   UNL     1      15.198  21.701  26.558  1.00  0.00     0.162 A 
ATOM     30  C   UNL     1      15.139  21.608  28.988  1.00  0.00     0.162 A 
ATOM     31  C   UNL     1      15.019  20.966  27.743  1.00  0.00     0.200 A 
BRANCH  29  32
ATOM     32  O   UNL     1      15.115  21.086  25.308  1.00  0.00    -0.504 OA
ATOM     33  H   UNL     1      14.821  20.122  25.205  1.00  0.00     0.293 HD
ENDBRANCH  29  32
BRANCH  30  34
ATOM     34  O   UNL     1      14.959  20.882  30.167  1.00  0.00    -0.504 OA
ATOM     35  H   UNL     1      14.777  19.884  30.147  1.00  0.00     0.293 HD
ENDBRANCH  30  34
BRANCH  31  36
ATOM     36  O   UNL     1      14.732  19.602  27.669  1.00  0.00    -0.502 OA
ATOM     37  H   UNL     1      15.200  18.984  27.012  1.00  0.00     0.293 HD
ENDBRANCH  31  36
ENDBRANCH  24  26
ENDBRANCH  23  24
ENDBRANCH   2  23
BRANCH   3  38
ATOM     38  O   UNL     1      17.226  28.369  28.280  1.00  0.00    -0.450 OA
BRANCH  38  39
ATOM     39  C   UNL     1      16.731  28.799  29.515  1.00  0.00     0.338 C 
ATOM     40  O   UNL     1      16.088  28.001  30.251  1.00  0.00    -0.246 OA
BRANCH  39  41
ATOM     41  C   UNL     1      16.960  30.197  29.948  1.00  0.00     0.067 A 
ATOM     42  C   UNL     1      17.610  31.121  29.112  1.00  0.00     0.066 A 
ATOM     43  C   UNL     1      16.530  30.616  31.217  1.00  0.00     0.066 A 
ATOM     44  C   UNL     1      17.858  32.431  29.546  1.00  0.00     0.162 A 
ATOM     45  C   UNL     1      16.774  31.918  31.660  1.00  0.00     0.162 A 
ATOM     46  C   UNL     1      17.444  32.830  30.829  1.00  0.00     0.200 A 
BRANCH  44  47
ATOM     47  O   UNL     1      18.515  33.339  28.711  1.00  0.00    -0.504 OA
ATOM     48  H   UNL     1      18.029  33.833  27.970  1.00  0.00     0.293 HD
ENDBRANCH  44  47
BRANCH  45  49
ATOM     49  O   UNL     1      16.338  32.294  32.932  1.00  0.00    -0.504 OA
ATOM     50  H   UNL     1      16.874  32.920  33.518  1.00  0.00     0.293 HD
ENDBRANCH  45  49
BRANCH  46  51
ATOM     51  O   UNL     1      17.687  34.125  31.286  1.00  0.00    -0.502 OA
ATOM     52  H   UNL     1      18.107  34.315  32.190  1.00  0.00     0.293 HD
ENDBRANCH  46  51
ENDBRANCH  39  41
ENDBRANCH  38  39
ENDBRANCH   3  38
BRANCH   5  53
ATOM     53  O   UNL     1      21.388  27.169  28.519  1.00  0.00    -0.428 OA
BRANCH  53  54
ATOM     54  C   UNL     1      22.648  26.587  28.323  1.00  0.00     0.340 C 
ATOM     55  O   UNL     1      22.758  25.335  28.215  1.00  0.00    -0.246 OA
BRANCH  54  56
ATOM     56  C   UNL     1      23.848  27.451  28.273  1.00  0.00     0.067 A 
ATOM     57  C   UNL     1      24.865  27.191  27.339  1.00  0.00     0.066 A 
ATOM     58  C   UNL     1      23.980  28.543  29.147  1.00  0.00     0.066 A 
ATOM     59  C   UNL     1      26.005  28.006  27.283  1.00  0.00     0.162 A 
ATOM     60  C   UNL     1      25.113  29.365  29.090  1.00  0.00     0.162 A 
ATOM     61  C   UNL     1      26.133  29.094  28.163  1.00  0.00     0.200 A 
BRANCH  59  62
ATOM     62  O   UNL     1      27.011  27.740  26.358  1.00  0.00    -0.504 OA
ATOM     63  H   UNL     1      27.971  27.590  26.644  1.00  0.00     0.293 HD
ENDBRANCH  59  62
BRANCH  60  64
ATOM     64  O   UNL     1      25.224  30.441  29.971  1.00  0.00    -0.504 OA
ATOM     65  H   UNL     1      26.113  30.889  30.160  1.00  0.00     0.293 HD
ENDBRANCH  60  64
BRANCH  61  66
ATOM     66  O   UNL     1      27.262  29.916  28.127  1.00  0.00    -0.502 OA
ATOM     67  H   UNL     1      27.291  30.812  28.613  1.00  0.00     0.293 HD
ENDBRANCH  61  66
ENDBRANCH  54  56
ENDBRANCH  53  54
ENDBRANCH   5  53
BRANCH   4  68
ATOM     68  O   UNL     1      19.602  28.824  29.884  1.00  0.00    -0.448 OA
BRANCH  68  69
ATOM     69  C   UNL     1      19.835  29.162  31.226  1.00  0.00     0.339 C 
ATOM     70  O   UNL     1      19.036  28.777  32.122  1.00  0.00    -0.246 OA
BRANCH  69  71
ATOM     71  C   UNL     1      21.039  29.936  31.596  1.00  0.00     0.067 A 
ATOM     72  C   UNL     1      22.173  29.288  32.116  1.00  0.00     0.066 A 
ATOM     73  C   UNL     1      21.066  31.329  31.429  1.00  0.00     0.066 A 
ATOM     74  C   UNL     1      23.328  30.017  32.432  1.00  0.00     0.162 A 
ATOM     75  C   UNL     1      22.207  32.073  31.756  1.00  0.00     0.162 A 
ATOM     76  C   UNL     1      23.359  31.407  32.245  1.00  0.00     0.200 A 
BRANCH  74  77
ATOM     77  O   UNL     1      24.460  29.367  32.923  1.00  0.00    -0.504 OA
ATOM     78  H   UNL     1      25.119  29.838  33.524  1.00  0.00     0.293 HD
ENDBRANCH  74  77
BRANCH  75  79
ATOM     79  O   UNL     1      22.146  33.460  31.589  1.00  0.00    -0.504 OA
ATOM     80  H   UNL     1      22.335  34.126  32.320  1.00  0.00     0.293 HD
ENDBRANCH  75  79
BRANCH  76  81
ATOM     81  O   UNL     1      24.543  32.086  32.541  1.00  0.00    -0.502 OA
ATOM     82  H   UNL     1      25.288  32.216  31.879  1.00  0.00     0.293 HD
ENDBRANCH  76  81
ENDBRANCH  69  71
ENDBRANCH  68  69
ENDBRANCH   4  68
TORSDOF 31
ENDMDL
MODEL 3
REMARK VINA RESULT:    -7.527      1.378      8.161
REMARK INTER + INTRA:         -20.854
REMARK INTER:                 -18.179
REMARK INTRA:                  -2.674
REMARK UNBOUND:                -2.985
REMARK SMILES O=C(OC[C@@H]1O[C@@H](OC(=O)c2cc(O)c(O)c(O)c2)[C@@H](OC(=O)c2cc(O)c(O)c(O)c2)[C@H](OC(=O)c2cc(O)c(O)c(O)c2)[C@@H]1OC(=O)c1cc(O)c(O)c(O)c1)c1cc(O)c(O)c(O)c1
REMARK SMILES IDX 5 1 46 2 33 3 20 4 7 5 6 6 4 7 3 8 2 9 1 10 59 11 60 12
REMARK SMILES IDX 61 13 67 14 63 15 65 16 62 17 64 19 66 21 47 23 48 24 49 25
REMARK SMILES IDX 50 26 58 27 51 28 56 29 52 30 54 31 57 32 53 34 55 36 34 38
REMARK SMILES IDX 35 39 36 40 37 41 45 42 38 43 43 44 39 45 41 46 44 47 40 49
REMARK SMILES IDX 42 51 8 53 9 54 10 55 11 56 19 57 12 58 17 59 13 60 15 61
REMARK SMILES IDX 18 62 14 64 16 66 21 68 22 69 23 70 24 71 32 72 25 73 30 74
REMARK SMILES IDX 26 75 28 76 31 77 27 79 29 81
REMARK H PARENT 62 18 64 20 66 22 57 33 53 35 55 37 44 48 40 50 42 52 18 63
REMARK H PARENT 14 65 16 67 31 78 27 80 29 82
REMARK Flexibility Score: inf
ROOT
ATOM      1  C   UNL     1      19.345  25.411  27.502  1.00  0.00     0.205 C 
ATOM      2  C   UNL     1      18.058  26.264  27.529  1.00  0.00     0.254 C 
ATOM      3  C   UNL     1      18.393  27.667  28.076  1.00  0.00     0.267 C 
ATOM      4  C   UNL     1      19.131  27.547  29.422  1.00  0.00     0.290 C 
ATOM      5  C   UNL     1      20.318  26.576  29.291  1.00  0.00     0.357 C 
ATOM      6  O   UNL     1      19.901  25.310  28.804  1.00  0.00    -0.329 OA
ENDROOT
BRANCH   1   7
ATOM      7  C   UNL     1      19.061  23.998  26.963  1.00  0.00     0.269 C 
BRANCH   7   8
ATOM      8  O   UNL     1      20.237  23.433  26.387  1.00  0.00    -0.459 OA
BRANCH   8   9
ATOM      9  C   UNL     1      20.963  24.024  25.346  1.00  0.00     0.338 C 
ATOM     10  O   UNL     1      21.322  25.229  25.427  1.00  0.00    -0.246 OA
BRANCH   9  11
ATOM     11  C   UNL     1      21.336  23.215  24.165  1.00  0.00     0.067 A 
ATOM     12  C   UNL     1      22.672  23.155  23.745  1.00  0.00     0.066 A 
ATOM     13  C   UNL     1      23.035  22.408  22.622  1.00  0.00     0.162 A 
ATOM     14  C   UNL     1      20.363  22.504  23.447  1.00  0.00     0.066 A 
ATOM     15  C   UNL     1      22.058  21.705  21.895  1.00  0.00     0.200 A 
ATOM     16  C   UNL     1      20.707  21.749  22.320  1.00  0.00     0.162 A 
BRANCH  13  17
ATOM     17  O   UNL     1      24.375  22.391  22.230  1.00  0.00    -0.504 OA
ATOM     18  H   UNL     1      24.823  21.558  21.866  1.00  0.00     0.293 HD
ENDBRANCH  13  17
BRANCH  15  19
ATOM     19  O   UNL     1      22.459  20.987  20.765  1.00  0.00    -0.502 OA
ATOM     20  H   UNL     1      22.839  20.053  20.794  1.00  0.00     0.293 HD
ENDBRANCH  15  19
BRANCH  16  21
ATOM     21  O   UNL     1      19.684  21.057  21.664  1.00  0.00    -0.504 OA
ATOM     22  H   UNL     1      18.781  21.447  21.452  1.00  0.00     0.293 HD
ENDBRANCH  16  21
ENDBRANCH   9  11
ENDBRANCH   8   9
ENDBRANCH   7   8
ENDBRANCH   1   7
BRANCH   2  23
ATOM     23  O   UNL     1      17.089  25.637  28.368  1.00  0.00    -0.452 OA
BRANCH  23  24
ATOM     24  C   UNL     1      15.834  25.198  27.923  1.00  0.00     0.338 C 
ATOM     25  O   UNL     1      14.970  26.030  27.531  1.00  0.00    -0.246 OA
BRANCH  24  26
ATOM     26  C   UNL     1      15.530  23.753  27.913  1.00  0.00     0.067 A 
ATOM     27  C   UNL     1      15.339  23.051  29.117  1.00  0.00     0.066 A 
ATOM     28  C   UNL     1      15.418  23.065  26.696  1.00  0.00     0.066 A 
ATOM     29  C   UNL     1      15.041  21.686  29.105  1.00  0.00     0.162 A 
ATOM     30  C   UNL     1      15.128  21.698  26.675  1.00  0.00     0.162 A 
ATOM     31  C   UNL     1      14.940  21.002  27.881  1.00  0.00     0.200 A 
BRANCH  29  32
ATOM     32  O   UNL     1      14.830  21.028  30.318  1.00  0.00    -0.504 OA
ATOM     33  H   UNL     1      15.173  21.401  31.195  1.00  0.00     0.293 HD
ENDBRANCH  29  32
BRANCH  30  34
ATOM     34  O   UNL     1      15.031  21.023  25.457  1.00  0.00    -0.504 OA
ATOM     35  H   UNL     1      14.286  20.355  25.284  1.00  0.00     0.293 HD
ENDBRANCH  30  34
BRANCH  31  36
ATOM     36  O   UNL     1      14.644  19.638  27.877  1.00  0.00    -0.502 OA
ATOM     37  H   UNL     1      15.106  18.982  28.500  1.00  0.00     0.293 HD
ENDBRANCH  31  36
ENDBRANCH  24  26
ENDBRANCH  23  24
ENDBRANCH   2  23
BRANCH   3  38
ATOM     38  O   UNL     1      17.205  28.435  28.264  1.00  0.00    -0.450 OA
BRANCH  38  39
ATOM     39  C   UNL     1      16.709  28.835  29.510  1.00  0.00     0.338 C 
ATOM     40  O   UNL     1      16.071  28.017  30.229  1.00  0.00    -0.246 OA
BRANCH  39  41
ATOM     41  C   UNL     1      16.930  30.224  29.973  1.00  0.00     0.067 A 
ATOM     42  C   UNL     1      17.689  31.133  29.215  1.00  0.00     0.066 A 
ATOM     43  C   UNL     1      16.383  30.650  31.193  1.00  0.00     0.066 A 
ATOM     44  C   UNL     1      17.927  32.433  29.682  1.00  0.00     0.162 A 
ATOM     45  C   UNL     1      16.616  31.944  31.668  1.00  0.00     0.162 A 
ATOM     46  C   UNL     1      17.394  32.839  30.917  1.00  0.00     0.200 A 
BRANCH  44  47
ATOM     47  O   UNL     1      18.693  33.325  28.925  1.00  0.00    -0.504 OA
ATOM     48  H   UNL     1      19.380  33.937  29.352  1.00  0.00     0.293 HD
ENDBRANCH  44  47
BRANCH  45  49
ATOM     49  O   UNL     1      16.062  32.327  32.890  1.00  0.00    -0.504 OA
ATOM     50  H   UNL     1      16.626  32.447  33.721  1.00  0.00     0.293 HD
ENDBRANCH  45  49
BRANCH  46  51
ATOM     51  O   UNL     1      17.625  34.125  31.405  1.00  0.00    -0.502 OA
ATOM     52  H   UNL     1      16.897  34.682  31.841  1.00  0.00     0.293 HD
ENDBRANCH  46  51
ENDBRANCH  39  41
ENDBRANCH  38  39
ENDBRANCH   3  38
BRANCH   5  53
ATOM     53  O   UNL     1      21.337  27.127  28.454  1.00  0.00    -0.428 OA
BRANCH  53  54
ATOM     54  C   UNL     1      22.619  26.575  28.333  1.00  0.00     0.340 C 
ATOM     55  O   UNL     1      22.765  25.325  28.250  1.00  0.00    -0.246 OA
BRANCH  54  56
ATOM     56  C   UNL     1      23.799  27.468  28.333  1.00  0.00     0.067 A 
ATOM     57  C   UNL     1      23.853  28.564  29.210  1.00  0.00     0.066 A 
ATOM     58  C   UNL     1      24.880  27.223  27.471  1.00  0.00     0.066 A 
ATOM     59  C   UNL     1      24.969  29.414  29.218  1.00  0.00     0.162 A 
ATOM     60  C   UNL     1      26.002  28.063  27.481  1.00  0.00     0.162 A 
ATOM     61  C   UNL     1      26.046  29.166  28.349  1.00  0.00     0.200 A 
BRANCH  59  62
ATOM     62  O   UNL     1      25.014  30.502  30.086  1.00  0.00    -0.504 OA
ATOM     63  H   UNL     1      24.523  30.496  30.972  1.00  0.00     0.293 HD
ENDBRANCH  59  62
BRANCH  60  64
ATOM     64  O   UNL     1      27.061  27.802  26.613  1.00  0.00    -0.504 OA
ATOM     65  H   UNL     1      28.022  28.003  26.865  1.00  0.00     0.293 HD
ENDBRANCH  60  64
BRANCH  61  66
ATOM     66  O   UNL     1      27.165  30.002  28.339  1.00  0.00    -0.502 OA
ATOM     67  H   UNL     1      27.241  30.807  28.960  1.00  0.00     0.293 HD
ENDBRANCH  61  66
ENDBRANCH  54  56
ENDBRANCH  53  54
ENDBRANCH   5  53
BRANCH   4  68
ATOM     68  O   UNL     1      19.611  28.829  29.840  1.00  0.00    -0.448 OA
BRANCH  68  69
ATOM     69  C   UNL     1      19.765  29.197  31.185  1.00  0.00     0.339 C 
ATOM     70  O   UNL     1      18.913  28.835  32.041  1.00  0.00    -0.246 OA
BRANCH  69  71
ATOM     71  C   UNL     1      20.948  29.977  31.608  1.00  0.00     0.067 A 
ATOM     72  C   UNL     1      22.070  29.332  32.158  1.00  0.00     0.066 A 
ATOM     73  C   UNL     1      20.967  31.373  31.462  1.00  0.00     0.066 A 
ATOM     74  C   UNL     1      23.206  30.068  32.524  1.00  0.00     0.162 A 
ATOM     75  C   UNL     1      22.089  32.123  31.839  1.00  0.00     0.162 A 
ATOM     76  C   UNL     1      23.230  31.460  32.358  1.00  0.00     0.200 A 
BRANCH  74  77
ATOM     77  O   UNL     1      24.327  29.421  33.044  1.00  0.00    -0.504 OA
ATOM     78  H   UNL     1      25.025  29.010  32.442  1.00  0.00     0.293 HD
ENDBRANCH  74  77
BRANCH  75  79
ATOM     79  O   UNL     1      22.020  33.511  31.689  1.00  0.00    -0.504 OA
ATOM     80  H   UNL     1      22.526  34.030  30.990  1.00  0.00     0.293 HD
ENDBRANCH  75  79
BRANCH  76  81
ATOM     81  O   UNL     1      24.396  32.145  32.705  1.00  0.00    -0.502 OA
ATOM     82  H   UNL     1      25.168  31.718  33.186  1.00  0.00     0.293 HD
ENDBRANCH  76  81
ENDBRANCH  69  71
ENDBRANCH  68  69
ENDBRANCH   4  68
TORSDOF 31
ENDMDL
MODEL 4
REMARK VINA RESULT:    -7.193      1.290      9.093
REMARK INTER + INTRA:         -20.061
REMARK INTER:                 -16.044
REMARK INTRA:                  -4.017
REMARK UNBOUND:                -2.985
REMARK SMILES O=C(OC[C@@H]1O[C@@H](OC(=O)c2cc(O)c(O)c(O)c2)[C@@H](OC(=O)c2cc(O)c(O)c(O)c2)[C@H](OC(=O)c2cc(O)c(O)c(O)c2)[C@@H]1OC(=O)c1cc(O)c(O)c(O)c1)c1cc(O)c(O)c(O)c1
REMARK SMILES IDX 5 1 46 2 33 3 20 4 7 5 6 6 4 7 3 8 2 9 1 10 59 11 60 12
REMARK SMILES IDX 61 13 67 14 63 15 65 16 62 17 64 19 66 21 47 23 48 24 49 25
REMARK SMILES IDX 50 26 58 27 51 28 56 29 52 30 54 31 57 32 53 34 55 36 34 38
REMARK SMILES IDX 35 39 36 40 37 41 45 42 38 43 43 44 39 45 41 46 44 47 40 49
REMARK SMILES IDX 42 51 8 53 9 54 10 55 11 56 19 57 12 58 17 59 13 60 15 61
REMARK SMILES IDX 18 62 14 64 16 66 21 68 22 69 23 70 24 71 32 72 25 73 30 74
REMARK SMILES IDX 26 75 28 76 31 77 27 79 29 81
REMARK H PARENT 62 18 64 20 66 22 57 33 53 35 55 37 44 48 40 50 42 52 18 63
REMARK H PARENT 14 65 16 67 31 78 27 80 29 82
REMARK Flexibility Score: inf
ROOT
ATOM      1  C   UNL     1      17.226  26.012  27.929  1.00  0.00     0.205 C 
ATOM      2  C   UNL     1      17.373  27.379  28.633  1.00  0.00     0.254 C 
ATOM      3  C   UNL     1      18.863  27.776  28.661  1.00  0.00     0.267 C 
ATOM      4  C   UNL     1      19.703  26.634  29.261  1.00  0.00     0.290 C 
ATOM      5  C   UNL     1      19.375  25.307  28.555  1.00  0.00     0.357 C 
ATOM      6  O   UNL     1      17.986  25.022  28.606  1.00  0.00    -0.329 OA
ENDROOT
BRANCH   1   7
ATOM      7  C   UNL     1      15.754  25.572  27.878  1.00  0.00     0.269 C 
BRANCH   7   8
ATOM      8  O   UNL     1      15.452  24.969  26.620  1.00  0.00    -0.459 OA
BRANCH   8   9
ATOM      9  C   UNL     1      15.396  23.587  26.405  1.00  0.00     0.338 C 
ATOM     10  O   UNL     1      15.522  23.120  25.241  1.00  0.00    -0.246 OA
BRANCH   9  11
ATOM     11  C   UNL     1      15.225  22.674  27.557  1.00  0.00     0.067 A 
ATOM     12  C   UNL     1      15.057  23.193  28.848  1.00  0.00     0.066 A 
ATOM     13  C   UNL     1      14.910  22.342  29.946  1.00  0.00     0.162 A 
ATOM     14  C   UNL     1      15.233  21.283  27.377  1.00  0.00     0.066 A 
ATOM     15  C   UNL     1      14.930  20.948  29.767  1.00  0.00     0.200 A 
ATOM     16  C   UNL     1      15.086  20.414  28.463  1.00  0.00     0.162 A 
BRANCH  13  17
ATOM     17  O   UNL     1      14.763  22.903  31.217  1.00  0.00    -0.504 OA
ATOM     18  H   UNL     1      15.250  22.542  32.029  1.00  0.00     0.293 HD
ENDBRANCH  13  17
BRANCH  15  19
ATOM     19  O   UNL     1      14.801  20.131  30.894  1.00  0.00    -0.502 OA
ATOM     20  H   UNL     1      13.933  19.973  31.382  1.00  0.00     0.293 HD
ENDBRANCH  15  19
BRANCH  16  21
ATOM     21  O   UNL     1      15.091  19.041  28.203  1.00  0.00    -0.504 OA
ATOM     22  H   UNL     1      14.269  18.460  28.204  1.00  0.00     0.293 HD
ENDBRANCH  16  21
ENDBRANCH   9  11
ENDBRANCH   8   9
ENDBRANCH   7   8
ENDBRANCH   1   7
BRANCH   2  23
ATOM     23  O   UNL     1      16.873  27.283  29.967  1.00  0.00    -0.452 OA
BRANCH  23  24
ATOM     24  C   UNL     1      15.840  28.083  30.476  1.00  0.00     0.338 C 
ATOM     25  O   UNL     1      14.746  27.563  30.829  1.00  0.00    -0.246 OA
BRANCH  24  26
ATOM     26  C   UNL     1      16.042  29.541  30.599  1.00  0.00     0.067 A 
ATOM     27  C   UNL     1      16.509  30.101  31.802  1.00  0.00     0.066 A 
ATOM     28  C   UNL     1      15.778  30.383  29.510  1.00  0.00     0.066 A 
ATOM     29  C   UNL     1      16.709  31.479  31.915  1.00  0.00     0.162 A 
ATOM     30  C   UNL     1      15.968  31.764  29.615  1.00  0.00     0.162 A 
ATOM     31  C   UNL     1      16.434  32.318  30.821  1.00  0.00     0.200 A 
BRANCH  29  32
ATOM     32  O   UNL     1      17.200  31.997  33.114  1.00  0.00    -0.504 OA
ATOM     33  H   UNL     1      18.024  32.585  33.145  1.00  0.00     0.293 HD
ENDBRANCH  29  32
BRANCH  30  34
ATOM     34  O   UNL     1      15.691  32.593  28.527  1.00  0.00    -0.504 OA
ATOM     35  H   UNL     1      16.411  33.179  28.116  1.00  0.00     0.293 HD
ENDBRANCH  30  34
BRANCH  31  36
ATOM     36  O   UNL     1      16.634  33.694  30.941  1.00  0.00    -0.502 OA
ATOM     37  H   UNL     1      16.039  34.371  30.472  1.00  0.00     0.293 HD
ENDBRANCH  31  36
ENDBRANCH  24  26
ENDBRANCH  23  24
ENDBRANCH   2  23
BRANCH   3  38
ATOM     38  O   UNL     1      19.059  28.956  29.440  1.00  0.00    -0.450 OA
BRANCH  38  39
ATOM     39  C   UNL     1      19.270  30.232  28.907  1.00  0.00     0.338 C 
ATOM     40  O   UNL     1      18.805  30.528  27.772  1.00  0.00    -0.246 OA
BRANCH  39  41
ATOM     41  C   UNL     1      20.049  31.227  29.679  1.00  0.00     0.067 A 
ATOM     42  C   UNL     1      21.125  31.920  29.098  1.00  0.00     0.066 A 
ATOM     43  C   UNL     1      19.721  31.485  31.019  1.00  0.00     0.066 A 
ATOM     44  C   UNL     1      21.883  32.830  29.850  1.00  0.00     0.162 A 
ATOM     45  C   UNL     1      20.471  32.388  31.778  1.00  0.00     0.162 A 
ATOM     46  C   UNL     1      21.558  33.060  31.198  1.00  0.00     0.200 A 
BRANCH  44  47
ATOM     47  O   UNL     1      22.958  33.505  29.265  1.00  0.00    -0.504 OA
ATOM     48  H   UNL     1      22.925  34.501  29.076  1.00  0.00     0.293 HD
ENDBRANCH  44  47
BRANCH  45  49
ATOM     49  O   UNL     1      20.118  32.611  33.110  1.00  0.00    -0.504 OA
ATOM     50  H   UNL     1      20.769  33.001  33.778  1.00  0.00     0.293 HD
ENDBRANCH  45  49
BRANCH  46  51
ATOM     51  O   UNL     1      22.303  33.954  31.968  1.00  0.00    -0.502 OA
ATOM     52  H   UNL     1      22.826  33.664  32.787  1.00  0.00     0.293 HD
ENDBRANCH  46  51
ENDBRANCH  39  41
ENDBRANCH  38  39
ENDBRANCH   3  38
BRANCH   5  53
ATOM     53  O   UNL     1      19.837  25.322  27.202  1.00  0.00    -0.428 OA
BRANCH  53  54
ATOM     54  C   UNL     1      20.769  24.407  26.695  1.00  0.00     0.340 C 
ATOM     55  O   UNL     1      21.946  24.384  27.148  1.00  0.00    -0.246 OA
BRANCH  54  56
ATOM     56  C   UNL     1      20.369  23.490  25.604  1.00  0.00     0.067 A 
ATOM     57  C   UNL     1      21.162  23.380  24.450  1.00  0.00     0.066 A 
ATOM     58  C   UNL     1      19.204  22.713  25.715  1.00  0.00     0.066 A 
ATOM     59  C   UNL     1      20.792  22.512  23.413  1.00  0.00     0.162 A 
ATOM     60  C   UNL     1      18.834  21.837  24.685  1.00  0.00     0.162 A 
ATOM     61  C   UNL     1      19.622  21.740  23.528  1.00  0.00     0.200 A 
BRANCH  59  62
ATOM     62  O   UNL     1      21.580  22.411  22.269  1.00  0.00    -0.504 OA
ATOM     63  H   UNL     1      22.355  21.761  22.212  1.00  0.00     0.293 HD
ENDBRANCH  59  62
BRANCH  60  64
ATOM     64  O   UNL     1      17.671  21.079  24.816  1.00  0.00    -0.504 OA
ATOM     65  H   UNL     1      17.695  20.067  24.870  1.00  0.00     0.293 HD
ENDBRANCH  60  64
BRANCH  61  66
ATOM     66  O   UNL     1      19.234  20.872  22.504  1.00  0.00    -0.502 OA
ATOM     67  H   UNL     1      19.398  19.867  22.560  1.00  0.00     0.293 HD
ENDBRANCH  61  66
ENDBRANCH  54  56
ENDBRANCH  53  54
ENDBRANCH   5  53
BRANCH   4  68
ATOM     68  O   UNL     1      21.099  26.916  29.116  1.00  0.00    -0.448 OA
BRANCH  68  69
ATOM     69  C   UNL     1      21.788  27.844  29.911  1.00  0.00     0.339 C 
ATOM     70  O   UNL     1      21.283  28.246  30.994  1.00  0.00    -0.246 OA
BRANCH  69  71
ATOM     71  C   UNL     1      23.126  28.321  29.501  1.00  0.00     0.067 A 
ATOM     72  C   UNL     1      23.820  27.691  28.453  1.00  0.00     0.066 A 
ATOM     73  C   UNL     1      23.720  29.414  30.152  1.00  0.00     0.066 A 
ATOM     74  C   UNL     1      25.072  28.167  28.040  1.00  0.00     0.162 A 
ATOM     75  C   UNL     1      24.978  29.890  29.761  1.00  0.00     0.162 A 
ATOM     76  C   UNL     1      25.654  29.272  28.679  1.00  0.00     0.200 A 
BRANCH  74  77
ATOM     77  O   UNL     1      25.744  27.555  26.982  1.00  0.00    -0.504 OA
ATOM     78  H   UNL     1      25.317  27.456  26.073  1.00  0.00     0.293 HD
ENDBRANCH  74  77
BRANCH  75  79
ATOM     79  O   UNL     1      25.516  30.964  30.477  1.00  0.00    -0.504 OA
ATOM     80  H   UNL     1      25.999  31.740  30.055  1.00  0.00     0.293 HD
ENDBRANCH  75  79
BRANCH  76  81
ATOM     81  O   UNL     1      26.886  29.731  28.209  1.00  0.00    -0.502 OA
ATOM     82  H   UNL     1      27.064  29.955  27.246  1.00  0.00     0.293 HD
ENDBRANCH  76  81
ENDBRANCH  69  71
ENDBRANCH  68  69
ENDBRANCH   4  68
TORSDOF 31
ENDMDL
MODEL 5
REMARK VINA RESULT:    -7.172      1.308     10.375
REMARK INTER + INTRA:         -20.011
REMARK INTER:                 -16.061
REMARK INTRA:                  -3.950
REMARK UNBOUND:                -2.985
REMARK SMILES O=C(OC[C@@H]1O[C@@H](OC(=O)c2cc(O)c(O)c(O)c2)[C@@H](OC(=O)c2cc(O)c(O)c(O)c2)[C@H](OC(=O)c2cc(O)c(O)c(O)c2)[C@@H]1OC(=O)c1cc(O)c(O)c(O)c1)c1cc(O)c(O)c(O)c1
REMARK SMILES IDX 5 1 46 2 33 3 20 4 7 5 6 6 4 7 3 8 2 9 1 10 59 11 60 12
REMARK SMILES IDX 61 13 67 14 63 15 65 16 62 17 64 19 66 21 47 23 48 24 49 25
REMARK SMILES IDX 50 26 58 27 51 28 56 29 52 30 54 31 57 32 53 34 55 36 34 38
REMARK SMILES IDX 35 39 36 40 37 41 45 42 38 43 43 44 39 45 41 46 44 47 40 49
REMARK SMILES IDX 42 51 8 53 9 54 10 55 11 56 19 57 12 58 17 59 13 60 15 61
REMARK SMILES IDX 18 62 14 64 16 66 21 68 22 69 23 70 24 71 32 72 25 73 30 74
REMARK SMILES IDX 26 75 28 76 31 77 27 79 29 81
REMARK H PARENT 62 18 64 20 66 22 57 33 53 35 55 37 44 48 40 50 42 52 18 63
REMARK H PARENT 14 65 16 67 31 78 27 80 29 82
REMARK Flexibility Score: inf
ROOT
ATOM      1  C   UNL     1      19.888  27.779  28.615  1.00  0.00     0.205 C 
ATOM      2  C   UNL     1      18.789  28.491  29.433  1.00  0.00     0.254 C 
ATOM      3  C   UNL     1      17.649  27.494  29.724  1.00  0.00     0.267 C 
ATOM      4  C   UNL     1      17.173  26.839  28.415  1.00  0.00     0.290 C 
ATOM      5  C   UNL     1      18.375  26.276  27.636  1.00  0.00     0.357 C 
ATOM      6  O   UNL     1      19.354  27.275  27.399  1.00  0.00    -0.329 OA
ENDROOT
BRANCH   1   7
ATOM      7  C   UNL     1      21.050  28.736  28.298  1.00  0.00     0.269 C 
BRANCH   7   8
ATOM      8  O   UNL     1      22.304  28.073  28.453  1.00  0.00    -0.459 OA
BRANCH   8   9
ATOM      9  C   UNL     1      23.245  28.395  29.438  1.00  0.00     0.338 C 
ATOM     10  O   UNL     1      22.955  28.269  30.658  1.00  0.00    -0.246 OA
BRANCH   9  11
ATOM     11  C   UNL     1      24.594  28.851  29.038  1.00  0.00     0.067 A 
ATOM     12  C   UNL     1      25.153  29.996  29.621  1.00  0.00     0.066 A 
ATOM     13  C   UNL     1      26.418  30.447  29.240  1.00  0.00     0.162 A 
ATOM     14  C   UNL     1      25.329  28.152  28.068  1.00  0.00     0.066 A 
ATOM     15  C   UNL     1      27.150  29.753  28.260  1.00  0.00     0.200 A 
ATOM     16  C   UNL     1      26.599  28.586  27.675  1.00  0.00     0.162 A 
BRANCH  13  17
ATOM     17  O   UNL     1      26.929  31.603  29.836  1.00  0.00    -0.504 OA
ATOM     18  H   UNL     1      27.846  31.969  29.611  1.00  0.00     0.293 HD
ENDBRANCH  13  17
BRANCH  15  19
ATOM     19  O   UNL     1      28.405  30.249  27.892  1.00  0.00    -0.502 OA
ATOM     20  H   UNL     1      29.043  29.770  27.276  1.00  0.00     0.293 HD
ENDBRANCH  15  19
BRANCH  16  21
ATOM     21  O   UNL     1      27.276  27.830  26.713  1.00  0.00    -0.504 OA
ATOM     22  H   UNL     1      28.167  28.081  26.317  1.00  0.00     0.293 HD
ENDBRANCH  16  21
ENDBRANCH   9  11
ENDBRANCH   8   9
ENDBRANCH   7   8
ENDBRANCH   1   7
BRANCH   2  23
ATOM     23  O   UNL     1      18.284  29.599  28.688  1.00  0.00    -0.452 OA
BRANCH  23  24
ATOM     24  C   UNL     1      18.429  30.938  29.080  1.00  0.00     0.338 C 
ATOM     25  O   UNL     1      17.472  31.749  28.942  1.00  0.00    -0.246 OA
BRANCH  24  26
ATOM     26  C   UNL     1      19.709  31.392  29.659  1.00  0.00     0.067 A 
ATOM     27  C   UNL     1      20.358  32.535  29.157  1.00  0.00     0.066 A 
ATOM     28  C   UNL     1      20.288  30.690  30.726  1.00  0.00     0.066 A 
ATOM     29  C   UNL     1      21.564  32.970  29.712  1.00  0.00     0.162 A 
ATOM     30  C   UNL     1      21.498  31.113  31.283  1.00  0.00     0.162 A 
ATOM     31  C   UNL     1      22.143  32.256  30.776  1.00  0.00     0.200 A 
BRANCH  29  32
ATOM     32  O   UNL     1      22.165  34.124  29.208  1.00  0.00    -0.504 OA
ATOM     33  H   UNL     1      22.621  34.138  28.303  1.00  0.00     0.293 HD
ENDBRANCH  29  32
BRANCH  30  34
ATOM     34  O   UNL     1      22.070  30.400  32.338  1.00  0.00    -0.504 OA
ATOM     35  H   UNL     1      21.520  29.754  32.895  1.00  0.00     0.293 HD
ENDBRANCH  30  34
BRANCH  31  36
ATOM     36  O   UNL     1      23.349  32.695  31.325  1.00  0.00    -0.502 OA
ATOM     37  H   UNL     1      23.480  32.805  32.326  1.00  0.00     0.293 HD
ENDBRANCH  31  36
ENDBRANCH  24  26
ENDBRANCH  23  24
ENDBRANCH   2  23
BRANCH   3  38
ATOM     38  O   UNL     1      16.544  28.154  30.342  1.00  0.00    -0.450 OA
BRANCH  38  39
ATOM     39  C   UNL     1      16.478  28.486  31.699  1.00  0.00     0.338 C 
ATOM     40  O   UNL     1      16.472  27.577  32.574  1.00  0.00    -0.246 OA
BRANCH  39  41
ATOM     41  C   UNL     1      16.405  29.910  32.100  1.00  0.00     0.067 A 
ATOM     42  C   UNL     1      15.169  30.560  32.259  1.00  0.00     0.066 A 
ATOM     43  C   UNL     1      17.586  30.636  32.321  1.00  0.00     0.066 A 
ATOM     44  C   UNL     1      15.112  31.920  32.599  1.00  0.00     0.162 A 
ATOM     45  C   UNL     1      17.540  31.991  32.658  1.00  0.00     0.162 A 
ATOM     46  C   UNL     1      16.303  32.640  32.793  1.00  0.00     0.200 A 
BRANCH  44  47
ATOM     47  O   UNL     1      13.877  32.559  32.743  1.00  0.00    -0.504 OA
ATOM     48  H   UNL     1      13.606  33.339  32.153  1.00  0.00     0.293 HD
ENDBRANCH  44  47
BRANCH  45  49
ATOM     49  O   UNL     1      18.737  32.680  32.861  1.00  0.00    -0.504 OA
ATOM     50  H   UNL     1      19.150  33.260  32.143  1.00  0.00     0.293 HD
ENDBRANCH  45  49
BRANCH  46  51
ATOM     51  O   UNL     1      16.270  33.995  33.123  1.00  0.00    -0.502 OA
ATOM     52  H   UNL     1      16.093  34.322  34.067  1.00  0.00     0.293 HD
ENDBRANCH  46  51
ENDBRANCH  39  41
ENDBRANCH  38  39
ENDBRANCH   3  38
BRANCH   5  53
ATOM     53  O   UNL     1      18.948  25.160  28.322  1.00  0.00    -0.428 OA
BRANCH  53  54
ATOM     54  C   UNL     1      20.113  24.509  27.897  1.00  0.00     0.340 C 
ATOM     55  O   UNL     1      21.149  24.530  28.616  1.00  0.00    -0.246 OA
BRANCH  54  56
ATOM     56  C   UNL     1      20.127  23.824  26.585  1.00  0.00     0.067 A 
ATOM     57  C   UNL     1      21.110  24.142  25.634  1.00  0.00     0.066 A 
ATOM     58  C   UNL     1      19.168  22.843  26.281  1.00  0.00     0.066 A 
ATOM     59  C   UNL     1      21.132  23.496  24.389  1.00  0.00     0.162 A 
ATOM     60  C   UNL     1      19.189  22.189  25.042  1.00  0.00     0.162 A 
ATOM     61  C   UNL     1      20.167  22.519  24.090  1.00  0.00     0.200 A 
BRANCH  59  62
ATOM     62  O   UNL     1      22.107  23.819  23.449  1.00  0.00    -0.504 OA
ATOM     63  H   UNL     1      22.122  24.720  22.986  1.00  0.00     0.293 HD
ENDBRANCH  59  62
BRANCH  60  64
ATOM     64  O   UNL     1      18.225  21.221  24.762  1.00  0.00    -0.504 OA
ATOM     65  H   UNL     1      18.218  20.710  23.887  1.00  0.00     0.293 HD
ENDBRANCH  60  64
BRANCH  61  66
ATOM     66  O   UNL     1      20.168  21.866  22.855  1.00  0.00    -0.502 OA
ATOM     67  H   UNL     1      19.310  21.512  22.432  1.00  0.00     0.293 HD
ENDBRANCH  61  66
ENDBRANCH  54  56
ENDBRANCH  53  54
ENDBRANCH   5  53
BRANCH   4  68
ATOM     68  O   UNL     1      16.252  25.780  28.696  1.00  0.00    -0.448 OA
BRANCH  68  69
ATOM     69  C   UNL     1      15.473  25.149  27.715  1.00  0.00     0.339 C 
ATOM     70  O   UNL     1      14.924  25.832  26.808  1.00  0.00    -0.246 OA
BRANCH  69  71
ATOM     71  C   UNL     1      15.327  23.678  27.718  1.00  0.00     0.067 A 
ATOM     72  C   UNL     1      15.200  22.975  28.930  1.00  0.00     0.066 A 
ATOM     73  C   UNL     1      15.309  22.964  26.510  1.00  0.00     0.066 A 
ATOM     74  C   UNL     1      15.025  21.584  28.931  1.00  0.00     0.162 A 
ATOM     75  C   UNL     1      15.151  21.572  26.497  1.00  0.00     0.162 A 
ATOM     76  C   UNL     1      14.987  20.876  27.721  1.00  0.00     0.200 A 
BRANCH  74  77
ATOM     77  O   UNL     1      14.872  20.894  30.133  1.00  0.00    -0.504 OA
ATOM     78  H   UNL     1      15.585  20.916  30.847  1.00  0.00     0.293 HD
ENDBRANCH  74  77
BRANCH  75  79
ATOM     79  O   UNL     1      15.173  20.929  25.255  1.00  0.00    -0.504 OA
ATOM     80  H   UNL     1      14.700  21.271  24.434  1.00  0.00     0.293 HD
ENDBRANCH  75  79
BRANCH  76  81
ATOM     81  O   UNL     1      14.775  19.496  27.771  1.00  0.00    -0.502 OA
ATOM     82  H   UNL     1      13.958  19.047  27.396  1.00  0.00     0.293 HD
ENDBRANCH  76  81
ENDBRANCH  69  71
ENDBRANCH  68  69
ENDBRANCH   4  68
TORSDOF 31
ENDMDL
MODEL 6
REMARK VINA RESULT:    -7.129      1.398      8.160
REMARK INTER + INTRA:         -19.908
REMARK INTER:                 -17.025
REMARK INTRA:                  -2.883
REMARK UNBOUND:                -2.985
REMARK SMILES O=C(OC[C@@H]1O[C@@H](OC(=O)c2cc(O)c(O)c(O)c2)[C@@H](OC(=O)c2cc(O)c(O)c(O)c2)[C@H](OC(=O)c2cc(O)c(O)c(O)c2)[C@@H]1OC(=O)c1cc(O)c(O)c(O)c1)c1cc(O)c(O)c(O)c1
REMARK SMILES IDX 5 1 46 2 33 3 20 4 7 5 6 6 4 7 3 8 2 9 1 10 59 11 60 12
REMARK SMILES IDX 61 13 67 14 63 15 65 16 62 17 64 19 66 21 47 23 48 24 49 25
REMARK SMILES IDX 50 26 58 27 51 28 56 29 52 30 54 31 57 32 53 34 55 36 34 38
REMARK SMILES IDX 35 39 36 40 37 41 45 42 38 43 43 44 39 45 41 46 44 47 40 49
REMARK SMILES IDX 42 51 8 53 9 54 10 55 11 56 19 57 12 58 17 59 13 60 15 61
REMARK SMILES IDX 18 62 14 64 16 66 21 68 22 69 23 70 24 71 32 72 25 73 30 74
REMARK SMILES IDX 26 75 28 76 31 77 27 79 29 81
REMARK H PARENT 62 18 64 20 66 22 57 33 53 35 55 37 44 48 40 50 42 52 18 63
REMARK H PARENT 14 65 16 67 31 78 27 80 29 82
REMARK Flexibility Score: inf
ROOT
ATOM      1  C   UNL     1      19.952  25.789  27.923  1.00  0.00     0.205 C 
ATOM      2  C   UNL     1      18.639  26.603  27.942  1.00  0.00     0.254 C 
ATOM      3  C   UNL     1      18.950  28.052  28.366  1.00  0.00     0.267 C 
ATOM      4  C   UNL     1      19.747  28.058  29.684  1.00  0.00     0.290 C 
ATOM      5  C   UNL     1      20.959  27.116  29.575  1.00  0.00     0.357 C 
ATOM      6  O   UNL     1      20.565  25.805  29.203  1.00  0.00    -0.329 OA
ENDROOT
BRANCH   1   7
ATOM      7  C   UNL     1      19.692  24.331  27.505  1.00  0.00     0.269 C 
BRANCH   7   8
ATOM      8  O   UNL     1      19.942  24.155  26.112  1.00  0.00    -0.459 OA
BRANCH   8   9
ATOM      9  C   UNL     1      19.576  23.014  25.387  1.00  0.00     0.338 C 
ATOM     10  O   UNL     1      18.546  22.362  25.707  1.00  0.00    -0.246 OA
BRANCH   9  11
ATOM     11  C   UNL     1      20.387  22.599  24.221  1.00  0.00     0.067 A 
ATOM     12  C   UNL     1      19.813  21.824  23.204  1.00  0.00     0.066 A 
ATOM     13  C   UNL     1      20.572  21.411  22.106  1.00  0.00     0.162 A 
ATOM     14  C   UNL     1      21.737  22.966  24.120  1.00  0.00     0.066 A 
ATOM     15  C   UNL     1      21.928  21.770  22.010  1.00  0.00     0.200 A 
ATOM     16  C   UNL     1      22.513  22.564  23.028  1.00  0.00     0.162 A 
BRANCH  13  17
ATOM     17  O   UNL     1      19.963  20.626  21.125  1.00  0.00    -0.504 OA
ATOM     18  H   UNL     1      20.098  20.794  20.135  1.00  0.00     0.293 HD
ENDBRANCH  13  17
BRANCH  15  19
ATOM     19  O   UNL     1      22.658  21.319  20.906  1.00  0.00    -0.502 OA
ATOM     20  H   UNL     1      22.595  20.385  20.530  1.00  0.00     0.293 HD
ENDBRANCH  15  19
BRANCH  16  21
ATOM     21  O   UNL     1      23.847  22.980  22.989  1.00  0.00    -0.504 OA
ATOM     22  H   UNL     1      24.402  23.031  22.151  1.00  0.00     0.293 HD
ENDBRANCH  16  21
ENDBRANCH   9  11
ENDBRANCH   8   9
ENDBRANCH   7   8
ENDBRANCH   1   7
BRANCH   2  23
ATOM     23  O   UNL     1      17.727  26.012  28.868  1.00  0.00    -0.452 OA
BRANCH  23  24
ATOM     24  C   UNL     1      16.358  25.845  28.620  1.00  0.00     0.338 C 
ATOM     25  O   UNL     1      15.570  26.827  28.705  1.00  0.00    -0.246 OA
BRANCH  24  26
ATOM     26  C   UNL     1      15.842  24.510  28.253  1.00  0.00     0.067 A 
ATOM     27  C   UNL     1      15.821  24.093  26.911  1.00  0.00     0.066 A 
ATOM     28  C   UNL     1      15.374  23.639  29.248  1.00  0.00     0.066 A 
ATOM     29  C   UNL     1      15.342  22.827  26.566  1.00  0.00     0.162 A 
ATOM     30  C   UNL     1      14.887  22.373  28.913  1.00  0.00     0.162 A 
ATOM     31  C   UNL     1      14.867  21.962  27.568  1.00  0.00     0.200 A 
BRANCH  29  32
ATOM     32  O   UNL     1      15.363  22.435  25.227  1.00  0.00    -0.504 OA
ATOM     33  H   UNL     1      16.202  22.075  24.788  1.00  0.00     0.293 HD
ENDBRANCH  29  32
BRANCH  30  34
ATOM     34  O   UNL     1      14.413  21.519  29.910  1.00  0.00    -0.504 OA
ATOM     35  H   UNL     1      13.753  21.843  30.609  1.00  0.00     0.293 HD
ENDBRANCH  30  34
BRANCH  31  36
ATOM     36  O   UNL     1      14.389  20.698  27.217  1.00  0.00    -0.502 OA
ATOM     37  H   UNL     1      14.703  20.213  26.381  1.00  0.00     0.293 HD
ENDBRANCH  31  36
ENDBRANCH  24  26
ENDBRANCH  23  24
ENDBRANCH   2  23
BRANCH   3  38
ATOM     38  O   UNL     1      17.746  28.797  28.548  1.00  0.00    -0.450 OA
BRANCH  38  39
ATOM     39  C   UNL     1      17.692  30.117  29.006  1.00  0.00     0.338 C 
ATOM     40  O   UNL     1      18.446  30.993  28.501  1.00  0.00    -0.246 OA
BRANCH  39  41
ATOM     41  C   UNL     1      16.750  30.477  30.092  1.00  0.00     0.067 A 
ATOM     42  C   UNL     1      15.773  29.571  30.538  1.00  0.00     0.066 A 
ATOM     43  C   UNL     1      16.821  31.746  30.687  1.00  0.00     0.066 A 
ATOM     44  C   UNL     1      14.860  29.936  31.538  1.00  0.00     0.162 A 
ATOM     45  C   UNL     1      15.915  32.120  31.683  1.00  0.00     0.162 A 
ATOM     46  C   UNL     1      14.926  31.218  32.109  1.00  0.00     0.200 A 
BRANCH  44  47
ATOM     47  O   UNL     1      13.885  29.030  31.967  1.00  0.00    -0.504 OA
ATOM     48  H   UNL     1      13.224  28.610  31.321  1.00  0.00     0.293 HD
ENDBRANCH  44  47
BRANCH  45  49
ATOM     49  O   UNL     1      16.012  33.394  32.245  1.00  0.00    -0.504 OA
ATOM     50  H   UNL     1      15.232  34.038  32.252  1.00  0.00     0.293 HD
ENDBRANCH  45  49
BRANCH  46  51
ATOM     51  O   UNL     1      14.024  31.606  33.098  1.00  0.00    -0.502 OA
ATOM     52  H   UNL     1      14.184  31.426  34.084  1.00  0.00     0.293 HD
ENDBRANCH  46  51
ENDBRANCH  39  41
ENDBRANCH  38  39
ENDBRANCH   3  38
BRANCH   5  53
ATOM     53  O   UNL     1      21.924  27.632  28.654  1.00  0.00    -0.428 OA
BRANCH  53  54
ATOM     54  C   UNL     1      23.189  27.062  28.463  1.00  0.00     0.340 C 
ATOM     55  O   UNL     1      23.304  25.817  28.298  1.00  0.00    -0.246 OA
BRANCH  54  56
ATOM     56  C   UNL     1      24.388  27.929  28.485  1.00  0.00     0.067 A 
ATOM     57  C   UNL     1      24.535  28.904  29.485  1.00  0.00     0.066 A 
ATOM     58  C   UNL     1      25.396  27.779  27.518  1.00  0.00     0.066 A 
ATOM     59  C   UNL     1      25.670  29.727  29.516  1.00  0.00     0.162 A 
ATOM     60  C   UNL     1      26.536  28.593  27.548  1.00  0.00     0.162 A 
ATOM     61  C   UNL     1      26.672  29.575  28.542  1.00  0.00     0.200 A 
BRANCH  59  62
ATOM     62  O   UNL     1      25.807  30.695  30.507  1.00  0.00    -0.504 OA
ATOM     63  H   UNL     1      26.160  31.622  30.301  1.00  0.00     0.293 HD
ENDBRANCH  59  62
BRANCH  60  64
ATOM     64  O   UNL     1      27.521  28.428  26.575  1.00  0.00    -0.504 OA
ATOM     65  H   UNL     1      28.423  28.020  26.790  1.00  0.00     0.293 HD
ENDBRANCH  60  64
BRANCH  61  66
ATOM     66  O   UNL     1      27.809  30.388  28.551  1.00  0.00    -0.502 OA
ATOM     67  H   UNL     1      28.741  30.010  28.387  1.00  0.00     0.293 HD
ENDBRANCH  61  66
ENDBRANCH  54  56
ENDBRANCH  53  54
ENDBRANCH   5  53
BRANCH   4  68
ATOM     68  O   UNL     1      20.200  29.383  29.983  1.00  0.00    -0.448 OA
BRANCH  68  69
ATOM     69  C   UNL     1      20.847  29.728  31.178  1.00  0.00     0.339 C 
ATOM     70  O   UNL     1      20.679  29.028  32.213  1.00  0.00    -0.246 OA
BRANCH  69  71
ATOM     71  C   UNL     1      21.759  30.891  31.217  1.00  0.00     0.067 A 
ATOM     72  C   UNL     1      22.790  30.960  32.171  1.00  0.00     0.066 A 
ATOM     73  C   UNL     1      21.610  31.942  30.298  1.00  0.00     0.066 A 
ATOM     74  C   UNL     1      23.678  32.045  32.184  1.00  0.00     0.162 A 
ATOM     75  C   UNL     1      22.480  33.040  30.309  1.00  0.00     0.162 A 
ATOM     76  C   UNL     1      23.538  33.083  31.251  1.00  0.00     0.200 A 
BRANCH  74  77
ATOM     77  O   UNL     1      24.715  32.096  33.115  1.00  0.00    -0.504 OA
ATOM     78  H   UNL     1      24.606  32.565  34.001  1.00  0.00     0.293 HD
ENDBRANCH  74  77
BRANCH  75  79
ATOM     79  O   UNL     1      22.247  34.059  29.380  1.00  0.00    -0.504 OA
ATOM     80  H   UNL     1      21.444  34.098  28.773  1.00  0.00     0.293 HD
ENDBRANCH  75  79
BRANCH  76  81
ATOM     81  O   UNL     1      24.467  34.125  31.280  1.00  0.00    -0.502 OA
ATOM     82  H   UNL     1      24.285  35.041  30.908  1.00  0.00     0.293 HD
ENDBRANCH  76  81
ENDBRANCH  69  71
ENDBRANCH  68  69
ENDBRANCH   4  68
TORSDOF 31
ENDMDL
MODEL 7
REMARK VINA RESULT:    -6.824      0.420      2.069
REMARK INTER + INTRA:         -19.184
REMARK INTER:                 -16.282
REMARK INTRA:                  -2.902
REMARK UNBOUND:                -2.985
REMARK SMILES O=C(OC[C@@H]1O[C@@H](OC(=O)c2cc(O)c(O)c(O)c2)[C@@H](OC(=O)c2cc(O)c(O)c(O)c2)[C@H](OC(=O)c2cc(O)c(O)c(O)c2)[C@@H]1OC(=O)c1cc(O)c(O)c(O)c1)c1cc(O)c(O)c(O)c1
REMARK SMILES IDX 5 1 46 2 33 3 20 4 7 5 6 6 4 7 3 8 2 9 1 10 59 11 60 12
REMARK SMILES IDX 61 13 67 14 63 15 65 16 62 17 64 19 66 21 47 23 48 24 49 25
REMARK SMILES IDX 50 26 58 27 51 28 56 29 52 30 54 31 57 32 53 34 55 36 34 38
REMARK SMILES IDX 35 39 36 40 37 41 45 42 38 43 43 44 39 45 41 46 44 47 40 49
REMARK SMILES IDX 42 51 8 53 9 54 10 55 11 56 19 57 12 58 17 59 13 60 15 61
REMARK SMILES IDX 18 62 14 64 16 66 21 68 22 69 23 70 24 71 32 72 25 73 30 74
REMARK SMILES IDX 26 75 28 76 31 77 27 79 29 81
REMARK H PARENT 62 18 64 20 66 22 57 33 53 35 55 37 44 48 40 50 42 52 18 63
REMARK H PARENT 14 65 16 67 31 78 27 80 29 82
REMARK Flexibility Score: inf
ROOT
ATOM      1  C   UNL     1      17.018  27.361  30.289  1.00  0.00     0.205 C 
ATOM      2  C   UNL     1      17.153  26.161  29.326  1.00  0.00     0.254 C 
ATOM      3  C   UNL     1      18.598  26.104  28.790  1.00  0.00     0.267 C 
ATOM      4  C   UNL     1      18.997  27.469  28.199  1.00  0.00     0.290 C 
ATOM      5  C   UNL     1      18.699  28.591  29.210  1.00  0.00     0.357 C 
ATOM      6  O   UNL     1      17.342  28.572  29.622  1.00  0.00    -0.329 OA
ENDROOT
BRANCH   1   7
ATOM      7  C   UNL     1      15.590  27.461  30.851  1.00  0.00     0.269 C 
BRANCH   7   8
ATOM      8  O   UNL     1      15.579  28.204  32.069  1.00  0.00    -0.459 OA
BRANCH   8   9
ATOM      9  C   UNL     1      14.998  29.469  32.212  1.00  0.00     0.338 C 
ATOM     10  O   UNL     1      13.875  29.592  32.772  1.00  0.00    -0.246 OA
BRANCH   9  11
ATOM     11  C   UNL     1      15.724  30.665  31.733  1.00  0.00     0.067 A 
ATOM     12  C   UNL     1      16.550  31.386  32.606  1.00  0.00     0.066 A 
ATOM     13  C   UNL     1      17.228  32.526  32.171  1.00  0.00     0.162 A 
ATOM     14  C   UNL     1      15.594  31.098  30.405  1.00  0.00     0.066 A 
ATOM     15  C   UNL     1      17.089  32.967  30.843  1.00  0.00     0.200 A 
ATOM     16  C   UNL     1      16.267  32.237  29.949  1.00  0.00     0.162 A 
BRANCH  13  17
ATOM     17  O   UNL     1      18.026  33.223  33.081  1.00  0.00    -0.504 OA
ATOM     18  H   UNL     1      17.655  33.614  33.939  1.00  0.00     0.293 HD
ENDBRANCH  13  17
BRANCH  15  19
ATOM     19  O   UNL     1      17.768  34.125  30.453  1.00  0.00    -0.502 OA
ATOM     20  H   UNL     1      17.534  35.052  30.772  1.00  0.00     0.293 HD
ENDBRANCH  15  19
BRANCH  16  21
ATOM     21  O   UNL     1      16.099  32.599  28.609  1.00  0.00    -0.504 OA
ATOM     22  H   UNL     1      16.729  32.342  27.868  1.00  0.00     0.293 HD
ENDBRANCH  16  21
ENDBRANCH   9  11
ENDBRANCH   8   9
ENDBRANCH   7   8
ENDBRANCH   1   7
BRANCH   2  23
ATOM     23  O   UNL     1      16.240  26.317  28.241  1.00  0.00    -0.452 OA
BRANCH  23  24
ATOM     24  C   UNL     1      15.045  25.595  28.113  1.00  0.00     0.338 C 
ATOM     25  O   UNL     1      13.936  26.197  28.084  1.00  0.00    -0.246 OA
BRANCH  24  26
ATOM     26  C   UNL     1      15.091  24.123  28.007  1.00  0.00     0.067 A 
ATOM     27  C   UNL     1      15.397  23.500  26.784  1.00  0.00     0.066 A 
ATOM     28  C   UNL     1      14.839  23.328  29.135  1.00  0.00     0.066 A 
ATOM     29  C   UNL     1      15.450  22.107  26.688  1.00  0.00     0.162 A 
ATOM     30  C   UNL     1      14.883  21.934  29.047  1.00  0.00     0.162 A 
ATOM     31  C   UNL     1      15.188  21.317  27.821  1.00  0.00     0.200 A 
BRANCH  29  32
ATOM     32  O   UNL     1      15.785  21.525  25.465  1.00  0.00    -0.504 OA
ATOM     33  H   UNL     1      16.727  21.211  25.261  1.00  0.00     0.293 HD
ENDBRANCH  29  32
BRANCH  30  34
ATOM     34  O   UNL     1      14.619  21.153  30.174  1.00  0.00    -0.504 OA
ATOM     35  H   UNL     1      15.122  21.298  31.043  1.00  0.00     0.293 HD
ENDBRANCH  30  34
BRANCH  31  36
ATOM     36  O   UNL     1      15.241  19.926  27.717  1.00  0.00    -0.502 OA
ATOM     37  H   UNL     1      14.437  19.337  27.913  1.00  0.00     0.293 HD
ENDBRANCH  31  36
ENDBRANCH  24  26
ENDBRANCH  23  24
ENDBRANCH   2  23
BRANCH   3  38
ATOM     38  O   UNL     1      18.724  25.105  27.777  1.00  0.00    -0.450 OA
BRANCH  38  39
ATOM     39  C   UNL     1      19.901  24.402  27.501  1.00  0.00     0.338 C 
ATOM     40  O   UNL     1      20.816  24.334  28.366  1.00  0.00    -0.246 OA
BRANCH  39  41
ATOM     41  C   UNL     1      20.067  23.745  26.183  1.00  0.00     0.067 A 
ATOM     42  C   UNL     1      19.160  22.770  25.735  1.00  0.00     0.066 A 
ATOM     43  C   UNL     1      21.152  24.091  25.362  1.00  0.00     0.066 A 
ATOM     44  C   UNL     1      19.349  22.126  24.504  1.00  0.00     0.162 A 
ATOM     45  C   UNL     1      21.351  23.454  24.135  1.00  0.00     0.162 A 
ATOM     46  C   UNL     1      20.454  22.464  23.703  1.00  0.00     0.200 A 
BRANCH  44  47
ATOM     47  O   UNL     1      18.447  21.149  24.073  1.00  0.00    -0.504 OA
ATOM     48  H   UNL     1      17.595  20.945  24.585  1.00  0.00     0.293 HD
ENDBRANCH  44  47
BRANCH  45  49
ATOM     49  O   UNL     1      22.446  23.819  23.350  1.00  0.00    -0.504 OA
ATOM     50  H   UNL     1      22.398  23.844  22.341  1.00  0.00     0.293 HD
ENDBRANCH  45  49
BRANCH  46  51
ATOM     51  O   UNL     1      20.667  21.830  22.479  1.00  0.00    -0.502 OA
ATOM     52  H   UNL     1      19.911  21.606  21.841  1.00  0.00     0.293 HD
ENDBRANCH  46  51
ENDBRANCH  39  41
ENDBRANCH  38  39
ENDBRANCH   3  38
BRANCH   5  53
ATOM     53  O   UNL     1      19.571  28.503  30.339  1.00  0.00    -0.428 OA
BRANCH  53  54
ATOM     54  C   UNL     1      19.754  29.546  31.256  1.00  0.00     0.340 C 
ATOM     55  O   UNL     1      19.205  29.496  32.390  1.00  0.00    -0.246 OA
BRANCH  54  56
ATOM     56  C   UNL     1      20.571  30.719  30.870  1.00  0.00     0.067 A 
ATOM     57  C   UNL     1      21.877  30.861  31.365  1.00  0.00     0.066 A 
ATOM     58  C   UNL     1      20.056  31.692  29.999  1.00  0.00     0.066 A 
ATOM     59  C   UNL     1      22.659  31.967  31.003  1.00  0.00     0.162 A 
ATOM     60  C   UNL     1      20.835  32.796  29.627  1.00  0.00     0.162 A 
ATOM     61  C   UNL     1      22.136  32.941  30.134  1.00  0.00     0.200 A 
BRANCH  59  62
ATOM     62  O   UNL     1      23.952  32.104  31.502  1.00  0.00    -0.504 OA
ATOM     63  H   UNL     1      24.129  32.471  32.430  1.00  0.00     0.293 HD
ENDBRANCH  59  62
BRANCH  60  64
ATOM     64  O   UNL     1      20.301  33.752  28.763  1.00  0.00    -0.504 OA
ATOM     65  H   UNL     1      20.515  34.738  28.858  1.00  0.00     0.293 HD
ENDBRANCH  60  64
BRANCH  61  66
ATOM     66  O   UNL     1      22.897  34.053  29.764  1.00  0.00    -0.502 OA
ATOM     67  H   UNL     1      23.894  33.980  29.564  1.00  0.00     0.293 HD
ENDBRANCH  61  66
ENDBRANCH  54  56
ENDBRANCH  53  54
ENDBRANCH   5  53
BRANCH   4  68
ATOM     68  O   UNL     1      20.390  27.480  27.874  1.00  0.00    -0.448 OA
BRANCH  68  69
ATOM     69  C   UNL     1      21.406  27.230  28.808  1.00  0.00     0.339 C 
ATOM     70  O   UNL     1      21.147  26.603  29.870  1.00  0.00    -0.246 OA
BRANCH  69  71
ATOM     71  C   UNL     1      22.791  27.666  28.531  1.00  0.00     0.067 A 
ATOM     72  C   UNL     1      23.500  27.141  27.435  1.00  0.00     0.066 A 
ATOM     73  C   UNL     1      23.416  28.615  29.356  1.00  0.00     0.066 A 
ATOM     74  C   UNL     1      24.800  27.582  27.150  1.00  0.00     0.162 A 
ATOM     75  C   UNL     1      24.720  29.053  29.093  1.00  0.00     0.162 A 
ATOM     76  C   UNL     1      25.414  28.545  27.965  1.00  0.00     0.200 A 
BRANCH  74  77
ATOM     77  O   UNL     1      25.490  27.079  26.048  1.00  0.00    -0.504 OA
ATOM     78  H   UNL     1      25.093  27.106  25.121  1.00  0.00     0.293 HD
ENDBRANCH  74  77
BRANCH  75  79
ATOM     79  O   UNL     1      25.284  29.977  29.978  1.00  0.00    -0.504 OA
ATOM     80  H   UNL     1      26.135  29.820  30.492  1.00  0.00     0.293 HD
ENDBRANCH  75  79
BRANCH  76  81
ATOM     81  O   UNL     1      26.696  28.979  27.621  1.00  0.00    -0.502 OA
ATOM     82  H   UNL     1      26.873  29.722  26.968  1.00  0.00     0.293 HD
ENDBRANCH  76  81
ENDBRANCH  69  71
ENDBRANCH  68  69
ENDBRANCH   4  68
TORSDOF 31
ENDMDL
MODEL 8
REMARK VINA RESULT:    -6.412      1.514      8.384
REMARK INTER + INTRA:         -18.207
REMARK INTER:                 -16.416
REMARK INTRA:                  -1.791
REMARK UNBOUND:                -2.985
REMARK SMILES O=C(OC[C@@H]1O[C@@H](OC(=O)c2cc(O)c(O)c(O)c2)[C@@H](OC(=O)c2cc(O)c(O)c(O)c2)[C@H](OC(=O)c2cc(O)c(O)c(O)c2)[C@@H]1OC(=O)c1cc(O)c(O)c(O)c1)c1cc(O)c(O)c(O)c1
REMARK SMILES IDX 5 1 46 2 33 3 20 4 7 5 6 6 4 7 3 8 2 9 1 10 59 11 60 12
REMARK SMILES IDX 61 13 67 14 63 15 65 16 62 17 64 19 66 21 47 23 48 24 49 25
REMARK SMILES IDX 50 26 58 27 51 28 56 29 52 30 54 31 57 32 53 34 55 36 34 38
REMARK SMILES IDX 35 39 36 40 37 41 45 42 38 43 43 44 39 45 41 46 44 47 40 49
REMARK SMILES IDX 42 51 8 53 9 54 10 55 11 56 19 57 12 58 17 59 13 60 15 61
REMARK SMILES IDX 18 62 14 64 16 66 21 68 22 69 23 70 24 71 32 72 25 73 30 74
REMARK SMILES IDX 26 75 28 76 31 77 27 79 29 81
REMARK H PARENT 62 18 64 20 66 22 57 33 53 35 55 37 44 48 40 50 42 52 18 63
REMARK H PARENT 14 65 16 67 31 78 27 80 29 82
REMARK Flexibility Score: inf
ROOT
ATOM      1  C   UNL     1      19.735  25.446  27.343  1.00  0.00     0.205 C 
ATOM      2  C   UNL     1      18.293  25.992  27.264  1.00  0.00     0.254 C 
ATOM      3  C   UNL     1      18.214  27.326  28.033  1.00  0.00     0.267 C 
ATOM      4  C   UNL     1      18.772  27.149  29.457  1.00  0.00     0.290 C 
ATOM      5  C   UNL     1      20.160  26.485  29.404  1.00  0.00     0.357 C 
ATOM      6  O   UNL     1      20.120  25.256  28.697  1.00  0.00    -0.329 OA
ENDROOT
BRANCH   1   7
ATOM      7  C   UNL     1      19.864  24.112  26.589  1.00  0.00     0.269 C 
BRANCH   7   8
ATOM      8  O   UNL     1      21.136  24.016  25.949  1.00  0.00    -0.459 OA
BRANCH   8   9
ATOM      9  C   UNL     1      21.357  24.292  24.595  1.00  0.00     0.338 C 
ATOM     10  O   UNL     1      21.500  25.482  24.205  1.00  0.00    -0.246 OA
BRANCH   9  11
ATOM     11  C   UNL     1      21.456  23.176  23.629  1.00  0.00     0.067 A 
ATOM     12  C   UNL     1      22.681  22.879  23.017  1.00  0.00     0.066 A 
ATOM     13  C   UNL     1      22.785  21.840  22.091  1.00  0.00     0.162 A 
ATOM     14  C   UNL     1      20.329  22.405  23.306  1.00  0.00     0.066 A 
ATOM     15  C   UNL     1      21.652  21.074  21.759  1.00  0.00     0.200 A 
ATOM     16  C   UNL     1      20.412  21.358  22.383  1.00  0.00     0.162 A 
BRANCH  13  17
ATOM     17  O   UNL     1      24.022  21.591  21.494  1.00  0.00    -0.504 OA
ATOM     18  H   UNL     1      24.829  22.184  21.649  1.00  0.00     0.293 HD
ENDBRANCH  13  17
BRANCH  15  19
ATOM     19  O   UNL     1      21.793  20.055  20.812  1.00  0.00    -0.502 OA
ATOM     20  H   UNL     1      21.045  19.444  20.524  1.00  0.00     0.293 HD
ENDBRANCH  15  19
BRANCH  16  21
ATOM     21  O   UNL     1      19.250  20.626  22.123  1.00  0.00    -0.504 OA
ATOM     22  H   UNL     1      19.138  19.994  21.347  1.00  0.00     0.293 HD
ENDBRANCH  16  21
ENDBRANCH   9  11
ENDBRANCH   8   9
ENDBRANCH   7   8
ENDBRANCH   1   7
BRANCH   2  23
ATOM     23  O   UNL     1      17.394  25.046  27.842  1.00  0.00    -0.452 OA
BRANCH  23  24
ATOM     24  C   UNL     1      16.220  24.600  27.220  1.00  0.00     0.338 C 
ATOM     25  O   UNL     1      15.547  25.381  26.492  1.00  0.00    -0.246 OA
BRANCH  24  26
ATOM     26  C   UNL     1      15.776  23.205  27.418  1.00  0.00     0.067 A 
ATOM     27  C   UNL     1      15.760  22.633  28.702  1.00  0.00     0.066 A 
ATOM     28  C   UNL     1      15.354  22.438  26.322  1.00  0.00     0.066 A 
ATOM     29  C   UNL     1      15.331  21.317  28.890  1.00  0.00     0.162 A 
ATOM     30  C   UNL     1      14.929  21.118  26.499  1.00  0.00     0.162 A 
ATOM     31  C   UNL     1      14.918  20.551  27.786  1.00  0.00     0.200 A 
BRANCH  29  32
ATOM     32  O   UNL     1      15.302  20.791  30.183  1.00  0.00    -0.504 OA
ATOM     33  H   UNL     1      15.591  19.841  30.380  1.00  0.00     0.293 HD
ENDBRANCH  29  32
BRANCH  30  34
ATOM     34  O   UNL     1      14.523  20.361  25.399  1.00  0.00    -0.504 OA
ATOM     35  H   UNL     1      14.498  19.347  25.439  1.00  0.00     0.293 HD
ENDBRANCH  30  34
BRANCH  31  36
ATOM     36  O   UNL     1      14.491  19.236  27.980  1.00  0.00    -0.502 OA
ATOM     37  H   UNL     1      14.582  18.525  27.260  1.00  0.00     0.293 HD
ENDBRANCH  31  36
ENDBRANCH  24  26
ENDBRANCH  23  24
ENDBRANCH   2  23
BRANCH   3  38
ATOM     38  O   UNL     1      16.865  27.785  28.117  1.00  0.00    -0.450 OA
BRANCH  38  39
ATOM     39  C   UNL     1      16.052  27.653  29.248  1.00  0.00     0.338 C 
ATOM     40  O   UNL     1      15.715  26.507  29.655  1.00  0.00    -0.246 OA
BRANCH  39  41
ATOM     41  C   UNL     1      15.583  28.867  29.956  1.00  0.00     0.067 A 
ATOM     42  C   UNL     1      15.787  30.149  29.418  1.00  0.00     0.066 A 
ATOM     43  C   UNL     1      14.928  28.746  31.191  1.00  0.00     0.066 A 
ATOM     44  C   UNL     1      15.376  31.294  30.115  1.00  0.00     0.162 A 
ATOM     45  C   UNL     1      14.516  29.880  31.896  1.00  0.00     0.162 A 
ATOM     46  C   UNL     1      14.743  31.160  31.363  1.00  0.00     0.200 A 
BRANCH  44  47
ATOM     47  O   UNL     1      15.595  32.565  29.576  1.00  0.00    -0.504 OA
ATOM     48  H   UNL     1      14.833  33.213  29.407  1.00  0.00     0.293 HD
ENDBRANCH  44  47
BRANCH  45  49
ATOM     49  O   UNL     1      13.875  29.720  33.125  1.00  0.00    -0.504 OA
ATOM     50  H   UNL     1      12.977  29.262  33.206  1.00  0.00     0.293 HD
ENDBRANCH  45  49
BRANCH  46  51
ATOM     51  O   UNL     1      14.333  32.284  32.079  1.00  0.00    -0.502 OA
ATOM     52  H   UNL     1      13.389  32.390  32.435  1.00  0.00     0.293 HD
ENDBRANCH  46  51
ENDBRANCH  39  41
ENDBRANCH  38  39
ENDBRANCH   3  38
BRANCH   5  53
ATOM     53  O   UNL     1      21.125  27.368  28.826  1.00  0.00    -0.428 OA
BRANCH  53  54
ATOM     54  C   UNL     1      22.149  27.978  29.561  1.00  0.00     0.340 C 
ATOM     55  O   UNL     1      21.939  28.358  30.746  1.00  0.00    -0.246 OA
BRANCH  54  56
ATOM     56  C   UNL     1      23.468  28.200  28.927  1.00  0.00     0.067 A 
ATOM     57  C   UNL     1      24.376  29.111  29.491  1.00  0.00     0.066 A 
ATOM     58  C   UNL     1      23.830  27.496  27.767  1.00  0.00     0.066 A 
ATOM     59  C   UNL     1      25.629  29.324  28.898  1.00  0.00     0.162 A 
ATOM     60  C   UNL     1      25.083  27.699  27.175  1.00  0.00     0.162 A 
ATOM     61  C   UNL     1      25.984  28.620  27.734  1.00  0.00     0.200 A 
BRANCH  59  62
ATOM     62  O   UNL     1      26.523  30.233  29.459  1.00  0.00    -0.504 OA
ATOM     63  H   UNL     1      26.530  30.428  30.453  1.00  0.00     0.293 HD
ENDBRANCH  59  62
BRANCH  60  64
ATOM     64  O   UNL     1      25.419  26.991  26.021  1.00  0.00    -0.504 OA
ATOM     65  H   UNL     1      26.379  26.897  25.711  1.00  0.00     0.293 HD
ENDBRANCH  60  64
BRANCH  61  66
ATOM     66  O   UNL     1      27.225  28.821  27.125  1.00  0.00    -0.502 OA
ATOM     67  H   UNL     1      28.072  28.981  27.670  1.00  0.00     0.293 HD
ENDBRANCH  61  66
ENDBRANCH  54  56
ENDBRANCH  53  54
ENDBRANCH   5  53
BRANCH   4  68
ATOM     68  O   UNL     1      18.878  28.418  30.110  1.00  0.00    -0.448 OA
BRANCH  68  69
ATOM     69  C   UNL     1      19.185  29.611  29.439  1.00  0.00     0.339 C 
ATOM     70  O   UNL     1      19.070  29.678  28.186  1.00  0.00    -0.246 OA
BRANCH  69  71
ATOM     71  C   UNL     1      19.605  30.804  30.205  1.00  0.00     0.067 A 
ATOM     72  C   UNL     1      18.820  31.285  31.268  1.00  0.00     0.066 A 
ATOM     73  C   UNL     1      20.798  31.471  29.882  1.00  0.00     0.066 A 
ATOM     74  C   UNL     1      19.238  32.393  32.018  1.00  0.00     0.162 A 
ATOM     75  C   UNL     1      21.219  32.590  30.612  1.00  0.00     0.162 A 
ATOM     76  C   UNL     1      20.440  33.045  31.705  1.00  0.00     0.200 A 
BRANCH  74  77
ATOM     77  O   UNL     1      18.469  32.850  33.089  1.00  0.00    -0.504 OA
ATOM     78  H   UNL     1      18.155  32.225  33.815  1.00  0.00     0.293 HD
ENDBRANCH  74  77
BRANCH  75  79
ATOM     79  O   UNL     1      22.403  33.217  30.210  1.00  0.00    -0.504 OA
ATOM     80  H   UNL     1      22.576  34.206  30.297  1.00  0.00     0.293 HD
ENDBRANCH  75  79
BRANCH  76  81
ATOM     81  O   UNL     1      20.831  34.123  32.502  1.00  0.00    -0.502 OA
ATOM     82  H   UNL     1      20.182  34.724  32.980  1.00  0.00     0.293 HD
ENDBRANCH  76  81
ENDBRANCH  69  71
ENDBRANCH  68  69
ENDBRANCH   4  68
TORSDOF 31
ENDMDL
MODEL 9
REMARK VINA RESULT:    -6.231      1.490      9.056
REMARK INTER + INTRA:         -17.777
REMARK INTER:                 -16.794
REMARK INTRA:                  -0.983
REMARK UNBOUND:                -2.985
REMARK SMILES O=C(OC[C@@H]1O[C@@H](OC(=O)c2cc(O)c(O)c(O)c2)[C@@H](OC(=O)c2cc(O)c(O)c(O)c2)[C@H](OC(=O)c2cc(O)c(O)c(O)c2)[C@@H]1OC(=O)c1cc(O)c(O)c(O)c1)c1cc(O)c(O)c(O)c1
REMARK SMILES IDX 5 1 46 2 33 3 20 4 7 5 6 6 4 7 3 8 2 9 1 10 59 11 60 12
REMARK SMILES IDX 61 13 67 14 63 15 65 16 62 17 64 19 66 21 47 23 48 24 49 25
REMARK SMILES IDX 50 26 58 27 51 28 56 29 52 30 54 31 57 32 53 34 55 36 34 38
REMARK SMILES IDX 35 39 36 40 37 41 45 42 38 43 43 44 39 45 41 46 44 47 40 49
REMARK SMILES IDX 42 51 8 53 9 54 10 55 11 56 19 57 12 58 17 59 13 60 15 61
REMARK SMILES IDX 18 62 14 64 16 66 21 68 22 69 23 70 24 71 32 72 25 73 30 74
REMARK SMILES IDX 26 75 28 76 31 77 27 79 29 81
REMARK H PARENT 62 18 64 20 66 22 57 33 53 35 55 37 44 48 40 50 42 52 18 63
REMARK H PARENT 14 65 16 67 31 78 27 80 29 82
REMARK Flexibility Score: inf
ROOT
ATOM      1  C   UNL     1      18.129  26.796  28.824  1.00  0.00     0.205 C 
ATOM      2  C   UNL     1      18.571  28.130  29.465  1.00  0.00     0.254 C 
ATOM      3  C   UNL     1      20.085  28.321  29.241  1.00  0.00     0.267 C 
ATOM      4  C   UNL     1      20.852  27.075  29.721  1.00  0.00     0.290 C 
ATOM      5  C   UNL     1      20.237  25.805  29.107  1.00  0.00     0.357 C 
ATOM      6  O   UNL     1      18.850  25.711  29.390  1.00  0.00    -0.329 OA
ENDROOT
BRANCH   1   7
ATOM      7  C   UNL     1      16.622  26.559  29.023  1.00  0.00     0.269 C 
BRANCH   7   8
ATOM      8  O   UNL     1      16.155  25.530  28.152  1.00  0.00    -0.459 OA
BRANCH   8   9
ATOM      9  C   UNL     1      14.961  24.824  28.340  1.00  0.00     0.338 C 
ATOM     10  O   UNL     1      13.877  25.445  28.509  1.00  0.00    -0.246 OA
BRANCH   9  11
ATOM     11  C   UNL     1      14.973  23.345  28.305  1.00  0.00     0.067 A 
ATOM     12  C   UNL     1      14.913  22.669  27.079  1.00  0.00     0.066 A 
ATOM     13  C   UNL     1      14.907  21.273  27.033  1.00  0.00     0.162 A 
ATOM     14  C   UNL     1      15.037  22.601  29.492  1.00  0.00     0.066 A 
ATOM     15  C   UNL     1      14.959  20.527  28.223  1.00  0.00     0.200 A 
ATOM     16  C   UNL     1      15.034  21.202  29.467  1.00  0.00     0.162 A 
BRANCH  13  17
ATOM     17  O   UNL     1      14.829  20.642  25.790  1.00  0.00    -0.504 OA
ATOM     18  H   UNL     1      14.422  19.721  25.674  1.00  0.00     0.293 HD
ENDBRANCH  13  17
BRANCH  15  19
ATOM     19  O   UNL     1      14.929  19.132  28.135  1.00  0.00    -0.502 OA
ATOM     20  H   UNL     1      15.378  18.514  28.794  1.00  0.00     0.293 HD
ENDBRANCH  15  19
BRANCH  16  21
ATOM     21  O   UNL     1      15.113  20.529  30.690  1.00  0.00    -0.504 OA
ATOM     22  H   UNL     1      15.707  20.808  31.454  1.00  0.00     0.293 HD
ENDBRANCH  16  21
ENDBRANCH   9  11
ENDBRANCH   8   9
ENDBRANCH   7   8
ENDBRANCH   1   7
BRANCH   2  23
ATOM     23  O   UNL     1      18.288  28.102  30.864  1.00  0.00    -0.452 OA
BRANCH  23  24
ATOM     24  C   UNL     1      18.061  29.247  31.640  1.00  0.00     0.338 C 
ATOM     25  O   UNL     1      18.429  29.283  32.846  1.00  0.00    -0.246 OA
BRANCH  24  26
ATOM     26  C   UNL     1      17.390  30.415  31.035  1.00  0.00     0.067 A 
ATOM     27  C   UNL     1      16.097  30.790  31.441  1.00  0.00     0.066 A 
ATOM     28  C   UNL     1      18.043  31.171  30.050  1.00  0.00     0.066 A 
ATOM     29  C   UNL     1      15.466  31.901  30.875  1.00  0.00     0.162 A 
ATOM     30  C   UNL     1      17.418  32.280  29.473  1.00  0.00     0.162 A 
ATOM     31  C   UNL     1      16.124  32.649  29.883  1.00  0.00     0.200 A 
BRANCH  29  32
ATOM     32  O   UNL     1      14.195  32.261  31.324  1.00  0.00    -0.504 OA
ATOM     33  H   UNL     1      14.038  32.614  32.260  1.00  0.00     0.293 HD
ENDBRANCH  29  32
BRANCH  30  34
ATOM     34  O   UNL     1      18.074  33.017  28.486  1.00  0.00    -0.504 OA
ATOM     35  H   UNL     1      18.996  33.408  28.647  1.00  0.00     0.293 HD
ENDBRANCH  30  34
BRANCH  31  36
ATOM     36  O   UNL     1      15.488  33.757  29.320  1.00  0.00    -0.502 OA
ATOM     37  H   UNL     1      15.792  34.708  29.507  1.00  0.00     0.293 HD
ENDBRANCH  31  36
ENDBRANCH  24  26
ENDBRANCH  23  24
ENDBRANCH   2  23
BRANCH   3  38
ATOM     38  O   UNL     1      20.562  29.463  29.952  1.00  0.00    -0.450 OA
BRANCH  38  39
ATOM     39  C   UNL     1      21.479  29.413  31.008  1.00  0.00     0.338 C 
ATOM     40  O   UNL     1      21.376  28.521  31.893  1.00  0.00    -0.246 OA
BRANCH  39  41
ATOM     41  C   UNL     1      22.563  30.420  31.082  1.00  0.00     0.067 A 
ATOM     42  C   UNL     1      23.582  30.323  32.045  1.00  0.00     0.066 A 
ATOM     43  C   UNL     1      22.577  31.500  30.185  1.00  0.00     0.066 A 
ATOM     44  C   UNL     1      24.580  31.304  32.134  1.00  0.00     0.162 A 
ATOM     45  C   UNL     1      23.566  32.483  30.266  1.00  0.00     0.162 A 
ATOM     46  C   UNL     1      24.570  32.393  31.245  1.00  0.00     0.200 A 
BRANCH  44  47
ATOM     47  O   UNL     1      25.583  31.203  33.103  1.00  0.00    -0.504 OA
ATOM     48  H   UNL     1      25.787  30.327  33.573  1.00  0.00     0.293 HD
ENDBRANCH  44  47
BRANCH  45  49
ATOM     49  O   UNL     1      23.542  33.546  29.362  1.00  0.00    -0.504 OA
ATOM     50  H   UNL     1      23.340  34.493  29.652  1.00  0.00     0.293 HD
ENDBRANCH  45  49
BRANCH  46  51
ATOM     51  O   UNL     1      25.547  33.384  31.320  1.00  0.00    -0.502 OA
ATOM     52  H   UNL     1      26.351  33.312  31.934  1.00  0.00     0.293 HD
ENDBRANCH  46  51
ENDBRANCH  39  41
ENDBRANCH  38  39
ENDBRANCH   3  38
BRANCH   5  53
ATOM     53  O   UNL     1      20.469  25.757  27.698  1.00  0.00    -0.428 OA
BRANCH  53  54
ATOM     54  C   UNL     1      21.290  24.804  27.083  1.00  0.00     0.340 C 
ATOM     55  O   UNL     1      22.516  24.740  27.375  1.00  0.00    -0.246 OA
BRANCH  54  56
ATOM     56  C   UNL     1      20.715  23.894  26.067  1.00  0.00     0.067 A 
ATOM     57  C   UNL     1      21.352  23.730  24.826  1.00  0.00     0.066 A 
ATOM     58  C   UNL     1      19.537  23.177  26.335  1.00  0.00     0.066 A 
ATOM     59  C   UNL     1      20.816  22.868  23.859  1.00  0.00     0.162 A 
ATOM     60  C   UNL     1      19.001  22.308  25.376  1.00  0.00     0.162 A 
ATOM     61  C   UNL     1      19.634  22.157  24.132  1.00  0.00     0.200 A 
BRANCH  59  62
ATOM     62  O   UNL     1      21.450  22.714  22.629  1.00  0.00    -0.504 OA
ATOM     63  H   UNL     1      22.059  21.926  22.439  1.00  0.00     0.293 HD
ENDBRANCH  59  62
BRANCH  60  64
ATOM     64  O   UNL     1      17.828  21.610  25.663  1.00  0.00    -0.504 OA
ATOM     65  H   UNL     1      17.629  21.257  26.593  1.00  0.00     0.293 HD
ENDBRANCH  60  64
BRANCH  61  66
ATOM     66  O   UNL     1      19.080  21.296  23.181  1.00  0.00    -0.502 OA
ATOM     67  H   UNL     1      19.274  20.295  23.184  1.00  0.00     0.293 HD
ENDBRANCH  61  66
ENDBRANCH  54  56
ENDBRANCH  53  54
ENDBRANCH   5  53
BRANCH   4  68
ATOM     68  O   UNL     1      22.229  27.165  29.345  1.00  0.00    -0.448 OA
BRANCH  68  69
ATOM     69  C   UNL     1      22.693  27.961  28.287  1.00  0.00     0.339 C 
ATOM     70  O   UNL     1      21.873  28.511  27.504  1.00  0.00    -0.246 OA
BRANCH  69  71
ATOM     71  C   UNL     1      24.143  28.189  28.113  1.00  0.00     0.067 A 
ATOM     72  C   UNL     1      24.851  27.541  27.084  1.00  0.00     0.066 A 
ATOM     73  C   UNL     1      24.833  29.060  28.971  1.00  0.00     0.066 A 
ATOM     74  C   UNL     1      26.218  27.787  26.896  1.00  0.00     0.162 A 
ATOM     75  C   UNL     1      26.203  29.302  28.804  1.00  0.00     0.162 A 
ATOM     76  C   UNL     1      26.900  28.673  27.742  1.00  0.00     0.200 A 
BRANCH  74  77
ATOM     77  O   UNL     1      26.909  27.162  25.857  1.00  0.00    -0.504 OA
ATOM     78  H   UNL     1      26.814  26.174  25.680  1.00  0.00     0.293 HD
ENDBRANCH  74  77
BRANCH  75  79
ATOM     79  O   UNL     1      26.825  30.159  29.718  1.00  0.00    -0.504 OA
ATOM     80  H   UNL     1      26.638  31.147  29.782  1.00  0.00     0.293 HD
ENDBRANCH  75  79
BRANCH  76  81
ATOM     81  O   UNL     1      28.253  28.912  27.494  1.00  0.00    -0.502 OA
ATOM     82  H   UNL     1      28.959  28.197  27.534  1.00  0.00     0.293 HD
ENDBRANCH  76  81
ENDBRANCH  69  71
ENDBRANCH  68  69
ENDBRANCH   4  68
TORSDOF 31
ENDMDL
