MODEL 1
REMARK VINA RESULT:    -3.904      0.000      0.000
REMARK INTER + INTRA:          -5.073
REMARK INTER:                  -4.817
REMARK INTRA:                  -0.256
REMARK UNBOUND:                -0.256
REMARK SMILES CCOC(=O)c1ccc(O)c(O)c1
REMARK SMILES IDX 4 1 5 2 3 3 2 4 1 5 6 6 13 7 7 8 11 9 8 10 9 11 12 12 10 14
REMARK H PARENT 12 13 10 15
REMARK Flexibility Score: inf
ROOT
ATOM      1  C   UNL     1       0.947  28.033  32.562  1.00  0.00     0.338 C 
ATOM      2  O   UNL     1       2.138  28.074  32.981  1.00  0.00    -0.246 OA
ENDROOT
BRANCH   1   3
ATOM      3  O   UNL     1      -0.113  28.331  33.428  1.00  0.00    -0.462 OA
BRANCH   3   4
ATOM      4  C   UNL     1      -0.085  29.404  34.367  1.00  0.00     0.230 C 
ATOM      5  C   UNL     1      -0.081  30.748  33.648  1.00  0.00     0.049 C 
ENDBRANCH   3   4
ENDBRANCH   1   3
BRANCH   1   6
ATOM      6  C   UNL     1       0.668  27.675  31.153  1.00  0.00     0.064 A 
ATOM      7  C   UNL     1       0.561  28.672  30.167  1.00  0.00     0.065 A 
ATOM      8  C   UNL     1       0.507  26.329  30.782  1.00  0.00     0.020 A 
ATOM      9  C   UNL     1       0.297  28.333  28.834  1.00  0.00     0.158 A 
ATOM     10  C   UNL     1       0.244  25.989  29.453  1.00  0.00     0.051 A 
ATOM     11  C   UNL     1       0.138  26.985  28.475  1.00  0.00     0.157 A 
BRANCH   9  12
ATOM     12  O   UNL     1       0.198  29.349  27.884  1.00  0.00    -0.504 OA
ATOM     13  H   UNL     1       0.568  29.247  26.947  1.00  0.00     0.293 HD
ENDBRANCH   9  12
BRANCH  11  14
ATOM     14  O   UNL     1      -0.125  26.641  27.149  1.00  0.00    -0.504 OA
ATOM     15  H   UNL     1      -0.063  27.323  26.402  1.00  0.00     0.293 HD
ENDBRANCH  11  14
ENDBRANCH   1   6
TORSDOF 5
ENDMDL
MODEL 2
REMARK VINA RESULT:    -3.054      1.042      1.981
REMARK INTER + INTRA:          -4.024
REMARK INTER:                  -3.898
REMARK INTRA:                  -0.125
REMARK UNBOUND:                -0.256
REMARK SMILES CCOC(=O)c1ccc(O)c(O)c1
REMARK SMILES IDX 4 1 5 2 3 3 2 4 1 5 6 6 13 7 7 8 11 9 8 10 9 11 12 12 10 14
REMARK H PARENT 12 13 10 15
REMARK Flexibility Score: inf
ROOT
ATOM      1  C   UNL     1       0.993  28.403  32.062  1.00  0.00     0.338 C 
ATOM      2  O   UNL     1       2.027  28.024  32.680  1.00  0.00    -0.246 OA
ENDROOT
BRANCH   1   3
ATOM      3  O   UNL     1       0.121  29.327  32.654  1.00  0.00    -0.462 OA
BRANCH   3   4
ATOM      4  C   UNL     1      -0.086  29.425  34.062  1.00  0.00     0.230 C 
ATOM      5  C   UNL     1      -0.118  30.884  34.501  1.00  0.00     0.049 C 
ENDBRANCH   3   4
ENDBRANCH   1   3
BRANCH   1   6
ATOM      6  C   UNL     1       0.702  27.879  30.709  1.00  0.00     0.064 A 
ATOM      7  C   UNL     1       0.425  26.515  30.512  1.00  0.00     0.065 A 
ATOM      8  C   UNL     1       0.699  28.743  29.601  1.00  0.00     0.020 A 
ATOM      9  C   UNL     1       0.150  26.020  29.231  1.00  0.00     0.158 A 
ATOM     10  C   UNL     1       0.424  28.252  28.322  1.00  0.00     0.051 A 
ATOM     11  C   UNL     1       0.149  26.892  28.130  1.00  0.00     0.157 A 
BRANCH   9  12
ATOM     12  O   UNL     1      -0.121  24.661  29.074  1.00  0.00    -0.504 OA
ATOM     13  H   UNL     1      -0.262  24.045  29.865  1.00  0.00     0.293 HD
ENDBRANCH   9  12
BRANCH  11  14
ATOM     14  O   UNL     1      -0.125  26.405  26.853  1.00  0.00    -0.504 OA
ATOM     15  H   UNL     1      -0.614  26.967  26.165  1.00  0.00     0.293 HD
ENDBRANCH  11  14
ENDBRANCH   1   6
TORSDOF 5
ENDMDL
MODEL 3
REMARK VINA RESULT:    -3.016      1.776      5.233
REMARK INTER + INTRA:          -3.977
REMARK INTER:                  -3.733
REMARK INTRA:                  -0.244
REMARK UNBOUND:                -0.256
REMARK SMILES CCOC(=O)c1ccc(O)c(O)c1
REMARK SMILES IDX 4 1 5 2 3 3 2 4 1 5 6 6 13 7 7 8 11 9 8 10 9 11 12 12 10 14
REMARK H PARENT 12 13 10 15
REMARK Flexibility Score: inf
ROOT
ATOM      1  C   UNL     1       0.955  27.025  30.160  1.00  0.00     0.338 C 
ATOM      2  O   UNL     1       2.142  26.774  29.812  1.00  0.00    -0.246 OA
ENDROOT
BRANCH   1   3
ATOM      3  O   UNL     1      -0.101  26.803  29.266  1.00  0.00    -0.462 OA
BRANCH   3   4
ATOM      4  C   UNL     1      -0.125  27.312  27.934  1.00  0.00     0.230 C 
ATOM      5  C   UNL     1       0.207  28.799  27.921  1.00  0.00     0.049 C 
ENDBRANCH   3   4
ENDBRANCH   1   3
BRANCH   1   6
ATOM      6  C   UNL     1       0.673  27.548  31.515  1.00  0.00     0.064 A 
ATOM      7  C   UNL     1       0.423  26.672  32.586  1.00  0.00     0.065 A 
ATOM      8  C   UNL     1       0.653  28.934  31.749  1.00  0.00     0.020 A 
ATOM      9  C   UNL     1       0.157  27.168  33.868  1.00  0.00     0.158 A 
ATOM     10  C   UNL     1       0.388  29.432  33.028  1.00  0.00     0.051 A 
ATOM     11  C   UNL     1       0.139  28.555  34.091  1.00  0.00     0.157 A 
BRANCH   9  12
ATOM     12  O   UNL     1      -0.086  26.269  34.905  1.00  0.00    -0.504 OA
ATOM     13  H   UNL     1       0.339  25.350  34.932  1.00  0.00     0.293 HD
ENDBRANCH   9  12
BRANCH  11  14
ATOM     14  O   UNL     1      -0.125  29.055  35.365  1.00  0.00    -0.504 OA
ATOM     15  H   UNL     1       0.610  29.167  36.054  1.00  0.00     0.293 HD
ENDBRANCH  11  14
ENDBRANCH   1   6
TORSDOF 5
ENDMDL
MODEL 4
REMARK VINA RESULT:    -2.474      1.838      5.085
REMARK INTER + INTRA:          -3.309
REMARK INTER:                  -3.114
REMARK INTRA:                  -0.195
REMARK UNBOUND:                -0.256
REMARK SMILES CCOC(=O)c1ccc(O)c(O)c1
REMARK SMILES IDX 4 1 5 2 3 3 2 4 1 5 6 6 13 7 7 8 11 9 8 10 9 11 12 12 10 14
REMARK H PARENT 12 13 10 15
REMARK Flexibility Score: inf
ROOT
ATOM      1  C   UNL     1       0.994  27.240  30.932  1.00  0.00     0.338 C 
ATOM      2  O   UNL     1       2.185  27.139  30.526  1.00  0.00    -0.246 OA
ENDROOT
BRANCH   1   3
ATOM      3  O   UNL     1      -0.057  26.728  30.159  1.00  0.00    -0.462 OA
BRANCH   3   4
ATOM      4  C   UNL     1      -0.001  26.603  28.739  1.00  0.00     0.230 C 
ATOM      5  C   UNL     1      -0.122  27.968  28.073  1.00  0.00     0.049 C 
ENDBRANCH   3   4
ENDBRANCH   1   3
BRANCH   1   6
ATOM      6  C   UNL     1       0.704  27.891  32.228  1.00  0.00     0.064 A 
ATOM      7  C   UNL     1       0.597  29.290  32.321  1.00  0.00     0.065 A 
ATOM      8  C   UNL     1       0.529  27.116  33.387  1.00  0.00     0.020 A 
ATOM      9  C   UNL     1       0.323  29.906  33.548  1.00  0.00     0.158 A 
ATOM     10  C   UNL     1       0.254  27.729  34.613  1.00  0.00     0.051 A 
ATOM     11  C   UNL     1       0.150  29.122  34.700  1.00  0.00     0.157 A 
BRANCH   9  12
ATOM     12  O   UNL     1       0.224  31.296  33.601  1.00  0.00    -0.504 OA
ATOM     13  H   UNL     1       0.713  31.896  32.948  1.00  0.00     0.293 HD
ENDBRANCH   9  12
BRANCH  11  14
ATOM     14  O   UNL     1      -0.125  29.729  35.925  1.00  0.00    -0.504 OA
ATOM     15  H   UNL     1       0.152  30.686  36.117  1.00  0.00     0.293 HD
ENDBRANCH  11  14
ENDBRANCH   1   6
TORSDOF 5
ENDMDL
MODEL 5
REMARK VINA RESULT:    -2.011      2.084      5.687
REMARK INTER + INTRA:          -2.737
REMARK INTER:                  -2.597
REMARK INTRA:                  -0.140
REMARK UNBOUND:                -0.256
REMARK SMILES CCOC(=O)c1ccc(O)c(O)c1
REMARK SMILES IDX 4 1 5 2 3 3 2 4 1 5 6 6 13 7 7 8 11 9 8 10 9 11 12 12 10 14
REMARK H PARENT 12 13 10 15
REMARK Flexibility Score: inf
ROOT
ATOM      1  C   UNL     1       0.560  26.793  30.721  1.00  0.00     0.338 C 
ATOM      2  O   UNL     1       1.207  27.342  29.787  1.00  0.00    -0.246 OA
ENDROOT
BRANCH   1   3
ATOM      3  O   UNL     1       0.014  25.515  30.542  1.00  0.00    -0.462 OA
BRANCH   3   4
ATOM      4  C   UNL     1       0.258  24.709  29.391  1.00  0.00     0.230 C 
ATOM      5  C   UNL     1      -0.125  23.259  29.658  1.00  0.00     0.049 C 
ENDBRANCH   3   4
ENDBRANCH   1   3
BRANCH   1   6
ATOM      6  C   UNL     1       0.382  27.494  32.012  1.00  0.00     0.064 A 
ATOM      7  C   UNL     1       0.249  26.770  33.211  1.00  0.00     0.065 A 
ATOM      8  C   UNL     1       0.344  28.898  32.057  1.00  0.00     0.020 A 
ATOM      9  C   UNL     1       0.080  27.434  34.432  1.00  0.00     0.158 A 
ATOM     10  C   UNL     1       0.177  29.563  33.275  1.00  0.00     0.051 A 
ATOM     11  C   UNL     1       0.044  28.837  34.465  1.00  0.00     0.157 A 
BRANCH   9  12
ATOM     12  O   UNL     1      -0.048  26.682  35.599  1.00  0.00    -0.504 OA
ATOM     13  H   UNL     1      -0.616  26.991  36.379  1.00  0.00     0.293 HD
ENDBRANCH   9  12
BRANCH  11  14
ATOM     14  O   UNL     1      -0.123  29.504  35.678  1.00  0.00    -0.504 OA
ATOM     15  H   UNL     1       0.058  30.498  35.766  1.00  0.00     0.293 HD
ENDBRANCH  11  14
ENDBRANCH   1   6
TORSDOF 5
ENDMDL
