MODEL 1
REMARK VINA RESULT:    -5.056      0.000      0.000
REMARK INTER + INTRA:          -5.695
REMARK INTER:                  -5.499
REMARK INTRA:                  -0.196
REMARK UNBOUND:                -0.196
REMARK SMILES Cc1ccc(C(C)C)c(O)c1
REMARK SMILES IDX 1 1 2 2 11 3 9 4 5 5 4 6 3 7 10 8 6 10 7 11 8 12
REMARK H PARENT 10 9
REMARK Flexibility Score: inf
ROOT
ATOM      1  C   UNL     1      -1.967  -0.073   4.018  1.00  0.00     0.044 C 
ATOM      2  C   UNL     1      -1.352  -0.168   2.653  1.00  0.00    -0.047 A 
ATOM      3  C   UNL     1      -0.118   0.441   2.392  1.00  0.00     0.049 A 
ATOM      4  C   UNL     1       0.448   0.391   1.109  1.00  0.00     0.119 A 
ATOM      5  C   UNL     1      -0.235  -0.271   0.060  1.00  0.00    -0.004 A 
ATOM      6  C   UNL     1      -1.482  -0.862   0.333  1.00  0.00     0.008 A 
ATOM      7  C   UNL     1      -2.038  -0.805   1.612  1.00  0.00     0.004 A 
ENDROOT
BRANCH   4   8
ATOM      8  O   UNL     1       1.682   0.998   0.884  1.00  0.00    -0.508 OA
ATOM      9  H   UNL     1       2.083   1.064  -0.044  1.00  0.00     0.293 HD
ENDBRANCH   4   8
BRANCH   5  10
ATOM     10  C   UNL     1       0.329  -0.360  -1.352  1.00  0.00     0.017 C 
ATOM     11  C   UNL     1      -0.266   0.712  -2.273  1.00  0.00     0.012 C 
ATOM     12  C   UNL     1       0.165  -1.766  -1.943  1.00  0.00     0.012 C 
ENDBRANCH   5  10
TORSDOF 2
ENDMDL
MODEL 2
REMARK VINA RESULT:    -4.780      1.200      4.156
REMARK INTER + INTRA:          -5.396
REMARK INTER:                  -5.199
REMARK INTRA:                  -0.197
REMARK UNBOUND:                -0.196
REMARK SMILES Cc1ccc(C(C)C)c(O)c1
REMARK SMILES IDX 1 1 2 2 11 3 9 4 5 5 4 6 3 7 10 8 6 10 7 11 8 12
REMARK H PARENT 10 9
REMARK Flexibility Score: inf
ROOT
ATOM      1  C   UNL     1       0.072  -1.271  -2.864  1.00  0.00     0.044 C 
ATOM      2  C   UNL     1      -0.087  -1.014  -1.395  1.00  0.00    -0.047 A 
ATOM      3  C   UNL     1       0.386   0.179  -0.833  1.00  0.00     0.049 A 
ATOM      4  C   UNL     1       0.276   0.413   0.546  1.00  0.00     0.119 A 
ATOM      5  C   UNL     1      -0.307  -0.566   1.386  1.00  0.00    -0.004 A 
ATOM      6  C   UNL     1      -0.760  -1.768   0.810  1.00  0.00     0.008 A 
ATOM      7  C   UNL     1      -0.645  -1.992  -0.563  1.00  0.00     0.004 A 
ENDROOT
BRANCH   4   8
ATOM      8  O   UNL     1       0.748   1.614   1.074  1.00  0.00    -0.508 OA
ATOM      9  H   UNL     1       0.423   1.969   1.965  1.00  0.00     0.293 HD
ENDBRANCH   4   8
BRANCH   5  10
ATOM     10  C   UNL     1      -0.455  -0.369   2.889  1.00  0.00     0.017 C 
ATOM     11  C   UNL     1      -0.215  -1.672   3.662  1.00  0.00     0.012 C 
ATOM     12  C   UNL     1      -1.806   0.260   3.250  1.00  0.00     0.012 C 
ENDBRANCH   5  10
TORSDOF 2
ENDMDL
MODEL 3
REMARK VINA RESULT:    -4.721      1.309      1.552
REMARK INTER + INTRA:          -5.331
REMARK INTER:                  -5.135
REMARK INTRA:                  -0.196
REMARK UNBOUND:                -0.196
REMARK SMILES Cc1ccc(C(C)C)c(O)c1
REMARK SMILES IDX 1 1 2 2 11 3 9 4 5 5 4 6 3 7 10 8 6 10 7 11 8 12
REMARK H PARENT 10 9
REMARK Flexibility Score: inf
ROOT
ATOM      1  C   UNL     1      -2.252  -0.274   3.235  1.00  0.00     0.044 C 
ATOM      2  C   UNL     1      -1.608  -0.733   1.959  1.00  0.00    -0.047 A 
ATOM      3  C   UNL     1      -0.690   0.091   1.297  1.00  0.00     0.049 A 
ATOM      4  C   UNL     1      -0.111  -0.313   0.084  1.00  0.00     0.119 A 
ATOM      5  C   UNL     1      -0.464  -1.559  -0.488  1.00  0.00    -0.004 A 
ATOM      6  C   UNL     1      -1.403  -2.367   0.179  1.00  0.00     0.008 A 
ATOM      7  C   UNL     1      -1.974  -1.956   1.385  1.00  0.00     0.004 A 
ENDROOT
BRANCH   4   8
ATOM      8  O   UNL     1       0.808   0.525  -0.545  1.00  0.00    -0.508 OA
ATOM      9  H   UNL     1       0.648   1.522  -0.633  1.00  0.00     0.293 HD
ENDBRANCH   4   8
BRANCH   5  10
ATOM     10  C   UNL     1       0.131  -2.052  -1.800  1.00  0.00     0.017 C 
ATOM     11  C   UNL     1      -0.723  -1.639  -3.005  1.00  0.00     0.012 C 
ATOM     12  C   UNL     1       0.382  -3.565  -1.779  1.00  0.00     0.012 C 
ENDBRANCH   5  10
TORSDOF 2
ENDMDL
MODEL 4
REMARK VINA RESULT:    -4.670      2.733      5.093
REMARK INTER + INTRA:          -5.275
REMARK INTER:                  -5.082
REMARK INTRA:                  -0.194
REMARK UNBOUND:                -0.196
REMARK SMILES Cc1ccc(C(C)C)c(O)c1
REMARK SMILES IDX 1 1 2 2 11 3 9 4 5 5 4 6 3 7 10 8 6 10 7 11 8 12
REMARK H PARENT 10 9
REMARK Flexibility Score: inf
ROOT
ATOM      1  C   UNL     1       0.788  -1.192  -3.471  1.00  0.00     0.044 C 
ATOM      2  C   UNL     1       0.106  -1.652  -2.217  1.00  0.00    -0.047 A 
ATOM      3  C   UNL     1      -0.579  -2.874  -2.195  1.00  0.00     0.049 A 
ATOM      4  C   UNL     1      -1.251  -3.296  -1.037  1.00  0.00     0.119 A 
ATOM      5  C   UNL     1      -1.253  -2.478   0.118  1.00  0.00    -0.004 A 
ATOM      6  C   UNL     1      -0.577  -1.245   0.074  1.00  0.00     0.008 A 
ATOM      7  C   UNL     1       0.088  -0.833  -1.082  1.00  0.00     0.004 A 
ENDROOT
BRANCH   4   8
ATOM      8  O   UNL     1      -1.915  -4.522  -1.043  1.00  0.00    -0.508 OA
ATOM      9  H   UNL     1      -2.926  -4.581  -1.022  1.00  0.00     0.293 HD
ENDBRANCH   4   8
BRANCH   5  10
ATOM     10  C   UNL     1      -1.964  -2.882   1.404  1.00  0.00     0.017 C 
ATOM     11  C   UNL     1      -2.884  -1.770   1.921  1.00  0.00     0.012 C 
ATOM     12  C   UNL     1      -0.974  -3.342   2.481  1.00  0.00     0.012 C 
ENDBRANCH   5  10
TORSDOF 2
ENDMDL
MODEL 5
REMARK VINA RESULT:    -4.634      1.729      4.375
REMARK INTER + INTRA:          -5.236
REMARK INTER:                  -5.065
REMARK INTRA:                  -0.171
REMARK UNBOUND:                -0.196
REMARK SMILES Cc1ccc(C(C)C)c(O)c1
REMARK SMILES IDX 1 1 2 2 11 3 9 4 5 5 4 6 3 7 10 8 6 10 7 11 8 12
REMARK H PARENT 10 9
REMARK Flexibility Score: inf
ROOT
ATOM      1  C   UNL     1      -0.648  -2.433  -3.329  1.00  0.00     0.044 C 
ATOM      2  C   UNL     1      -0.428  -1.781  -1.996  1.00  0.00    -0.047 A 
ATOM      3  C   UNL     1      -0.644  -2.502  -0.814  1.00  0.00     0.049 A 
ATOM      4  C   UNL     1      -0.477  -1.889   0.438  1.00  0.00     0.119 A 
ATOM      5  C   UNL     1      -0.099  -0.527   0.515  1.00  0.00    -0.004 A 
ATOM      6  C   UNL     1       0.095   0.189  -0.681  1.00  0.00     0.008 A 
ATOM      7  C   UNL     1      -0.075  -0.428  -1.921  1.00  0.00     0.004 A 
ENDROOT
BRANCH   4   8
ATOM      8  O   UNL     1      -0.690  -2.636   1.595  1.00  0.00    -0.508 OA
ATOM      9  H   UNL     1      -0.661  -3.649   1.590  1.00  0.00     0.293 HD
ENDBRANCH   4   8
BRANCH   5  10
ATOM     10  C   UNL     1       0.098   0.192   1.843  1.00  0.00     0.017 C 
ATOM     11  C   UNL     1      -1.234   0.657   2.443  1.00  0.00     0.012 C 
ATOM     12  C   UNL     1       1.097   1.348   1.722  1.00  0.00     0.012 C 
ENDBRANCH   5  10
TORSDOF 2
ENDMDL
MODEL 6
REMARK VINA RESULT:    -4.609      1.556      4.082
REMARK INTER + INTRA:          -5.209
REMARK INTER:                  -5.028
REMARK INTRA:                  -0.181
REMARK UNBOUND:                -0.196
REMARK SMILES Cc1ccc(C(C)C)c(O)c1
REMARK SMILES IDX 1 1 2 2 11 3 9 4 5 5 4 6 3 7 10 8 6 10 7 11 8 12
REMARK H PARENT 10 9
REMARK Flexibility Score: inf
ROOT
ATOM      1  C   UNL     1      -0.089  -4.020  -2.222  1.00  0.00     0.044 C 
ATOM      2  C   UNL     1      -0.213  -2.801  -1.357  1.00  0.00    -0.047 A 
ATOM      3  C   UNL     1      -0.044  -1.525  -1.910  1.00  0.00     0.049 A 
ATOM      4  C   UNL     1      -0.122  -0.379  -1.103  1.00  0.00     0.119 A 
ATOM      5  C   UNL     1      -0.360  -0.508   0.287  1.00  0.00    -0.004 A 
ATOM      6  C   UNL     1      -0.508  -1.797   0.831  1.00  0.00     0.008 A 
ATOM      7  C   UNL     1      -0.428  -2.930   0.020  1.00  0.00     0.004 A 
ENDROOT
BRANCH   4   8
ATOM      8  O   UNL     1       0.041   0.877  -1.684  1.00  0.00    -0.508 OA
ATOM      9  H   UNL     1      -0.646   1.263  -2.322  1.00  0.00     0.293 HD
ENDBRANCH   4   8
BRANCH   5  10
ATOM     10  C   UNL     1      -0.456   0.697   1.214  1.00  0.00     0.017 C 
ATOM     11  C   UNL     1       0.928   1.178   1.669  1.00  0.00     0.012 C 
ATOM     12  C   UNL     1      -1.380   0.426   2.407  1.00  0.00     0.012 C 
ENDBRANCH   5  10
TORSDOF 2
ENDMDL
MODEL 7
REMARK VINA RESULT:    -4.606      2.049      2.974
REMARK INTER + INTRA:          -5.206
REMARK INTER:                  -5.141
REMARK INTRA:                  -0.065
REMARK UNBOUND:                -0.196
REMARK SMILES Cc1ccc(C(C)C)c(O)c1
REMARK SMILES IDX 1 1 2 2 11 3 9 4 5 5 4 6 3 7 10 8 6 10 7 11 8 12
REMARK H PARENT 10 9
REMARK Flexibility Score: inf
ROOT
ATOM      1  C   UNL     1      -1.214   0.498   2.570  1.00  0.00     0.044 C 
ATOM      2  C   UNL     1      -0.938  -0.184   1.263  1.00  0.00    -0.047 A 
ATOM      3  C   UNL     1      -1.530  -1.421   0.975  1.00  0.00     0.049 A 
ATOM      4  C   UNL     1      -1.249  -2.085  -0.229  1.00  0.00     0.119 A 
ATOM      5  C   UNL     1      -0.350  -1.512  -1.161  1.00  0.00    -0.004 A 
ATOM      6  C   UNL     1       0.251  -0.279  -0.849  1.00  0.00     0.008 A 
ATOM      7  C   UNL     1      -0.033   0.374   0.352  1.00  0.00     0.004 A 
ENDROOT
BRANCH   4   8
ATOM      8  O   UNL     1      -1.862  -3.309  -0.491  1.00  0.00    -0.508 OA
ATOM      9  H   UNL     1      -2.170  -3.922   0.254  1.00  0.00     0.293 HD
ENDBRANCH   4   8
BRANCH   5  10
ATOM     10  C   UNL     1      -0.007  -2.184  -2.484  1.00  0.00     0.017 C 
ATOM     11  C   UNL     1       0.821  -3.459  -2.278  1.00  0.00     0.012 C 
ATOM     12  C   UNL     1       0.681  -1.215  -3.453  1.00  0.00     0.012 C 
ENDBRANCH   5  10
TORSDOF 2
ENDMDL
MODEL 8
REMARK VINA RESULT:    -4.554      8.378      9.534
REMARK INTER + INTRA:          -5.150
REMARK INTER:                  -4.959
REMARK INTRA:                  -0.191
REMARK UNBOUND:                -0.196
REMARK SMILES Cc1ccc(C(C)C)c(O)c1
REMARK SMILES IDX 1 1 2 2 11 3 9 4 5 5 4 6 3 7 10 8 6 10 7 11 8 12
REMARK H PARENT 10 9
REMARK Flexibility Score: inf
ROOT
ATOM      1  C   UNL     1      -8.264   1.262  -5.650  1.00  0.00     0.044 C 
ATOM      2  C   UNL     1      -7.150   2.266  -5.695  1.00  0.00    -0.047 A 
ATOM      3  C   UNL     1      -6.010   2.020  -6.471  1.00  0.00     0.049 A 
ATOM      4  C   UNL     1      -4.947   2.935  -6.490  1.00  0.00     0.119 A 
ATOM      5  C   UNL     1      -5.014   4.115  -5.711  1.00  0.00    -0.004 A 
ATOM      6  C   UNL     1      -6.157   4.339  -4.922  1.00  0.00     0.008 A 
ATOM      7  C   UNL     1      -7.210   3.422  -4.908  1.00  0.00     0.004 A 
ENDROOT
BRANCH   4   8
ATOM      8  O   UNL     1      -3.830   2.666  -7.280  1.00  0.00    -0.508 OA
ATOM      9  H   UNL     1      -3.158   1.952  -7.028  1.00  0.00     0.293 HD
ENDBRANCH   4   8
BRANCH   5  10
ATOM     10  C   UNL     1      -3.893   5.146  -5.691  1.00  0.00     0.017 C 
ATOM     11  C   UNL     1      -3.242   5.255  -4.307  1.00  0.00     0.012 C 
ATOM     12  C   UNL     1      -4.367   6.512  -6.202  1.00  0.00     0.012 C 
ENDBRANCH   5  10
TORSDOF 2
ENDMDL
MODEL 9
REMARK VINA RESULT:    -4.425      2.560      3.271
REMARK INTER + INTRA:          -5.009
REMARK INTER:                  -4.874
REMARK INTRA:                  -0.136
REMARK UNBOUND:                -0.196
REMARK SMILES Cc1ccc(C(C)C)c(O)c1
REMARK SMILES IDX 1 1 2 2 11 3 9 4 5 5 4 6 3 7 10 8 6 10 7 11 8 12
REMARK H PARENT 10 9
REMARK Flexibility Score: inf
ROOT
ATOM      1  C   UNL     1      -1.124  -3.228   2.999  1.00  0.00     0.044 C 
ATOM      2  C   UNL     1      -1.020  -2.621   1.632  1.00  0.00    -0.047 A 
ATOM      3  C   UNL     1      -1.502  -3.313   0.514  1.00  0.00     0.049 A 
ATOM      4  C   UNL     1      -1.375  -2.770  -0.774  1.00  0.00     0.119 A 
ATOM      5  C   UNL     1      -0.743  -1.516  -0.954  1.00  0.00    -0.004 A 
ATOM      6  C   UNL     1      -0.246  -0.841   0.176  1.00  0.00     0.008 A 
ATOM      7  C   UNL     1      -0.376  -1.390   1.453  1.00  0.00     0.004 A 
ENDROOT
BRANCH   4   8
ATOM      8  O   UNL     1      -1.875  -3.479  -1.865  1.00  0.00    -0.508 OA
ATOM      9  H   UNL     1      -1.442  -3.426  -2.779  1.00  0.00     0.293 HD
ENDBRANCH   4   8
BRANCH   5  10
ATOM     10  C   UNL     1      -0.577  -0.875  -2.326  1.00  0.00     0.017 C 
ATOM     11  C   UNL     1       0.547  -1.538  -3.133  1.00  0.00     0.012 C 
ATOM     12  C   UNL     1      -0.381   0.642  -2.225  1.00  0.00     0.012 C 
ENDBRANCH   5  10
TORSDOF 2
ENDMDL
