MODEL 1
REMARK VINA RESULT:    -7.291      0.000      0.000
REMARK INTER + INTRA:          -7.291
REMARK INTER:                  -7.291
REMARK INTRA:                   0.000
REMARK UNBOUND:                 0.000
REMARK SMILES C=C1CCC[C@]2(C)CC(=O)C(=C(C)C)C[C@H]12
REMARK SMILES IDX 13 1 12 2 11 3 15 4 16 5 2 6 1 7 3 8 4 9 5 10 6 11 8 12 9 13
REMARK SMILES IDX 10 14 7 15 14 16
REMARK H PARENT
REMARK Flexibility Score: inf
ROOT
ATOM      1  C   UNL     1     -21.542 -41.757  -7.928  1.00  0.00     0.039 C 
ATOM      2  C   UNL     1     -21.417 -40.588  -6.978  1.00  0.00    -0.070 C 
ATOM      3  C   UNL     1     -20.328 -39.766  -6.997  1.00  0.00    -0.006 C 
ATOM      4  C   UNL     1     -20.116 -38.640  -6.005  1.00  0.00     0.047 C 
ATOM      5  C   UNL     1     -18.779 -38.784  -5.208  1.00  0.00     0.025 C 
ATOM      6  C   UNL     1     -18.373 -37.472  -4.503  1.00  0.00    -0.073 C 
ATOM      7  C   UNL     1     -19.272 -36.528  -4.156  1.00  0.00     0.008 C 
ATOM      8  C   UNL     1     -16.959 -37.260  -4.004  1.00  0.00     0.031 C 
ATOM      9  C   UNL     1     -16.036 -38.424  -4.333  1.00  0.00     0.005 C 
ATOM     10  C   UNL     1     -16.213 -38.819  -5.794  1.00  0.00     0.008 C 
ATOM     11  C   UNL     1     -17.609 -39.456  -6.063  1.00  0.00    -0.018 C 
ATOM     12  C   UNL     1     -17.879 -39.335  -7.592  1.00  0.00     0.088 C 
ATOM     13  C   UNL     1     -19.213 -39.908  -7.963  1.00  0.00     0.159 C 
ATOM     14  O   UNL     1     -19.375 -40.417  -9.104  1.00  0.00    -0.295 OA
ATOM     15  C   UNL     1     -17.517 -40.968  -5.703  1.00  0.00     0.012 C 
ATOM     16  C   UNL     1     -22.529 -40.394  -5.973  1.00  0.00     0.039 C 
ENDROOT
TORSDOF 0
ENDMDL
MODEL 2
REMARK VINA RESULT:    -7.228      1.610      3.090
REMARK INTER + INTRA:          -7.228
REMARK INTER:                  -7.228
REMARK INTRA:                   0.000
REMARK UNBOUND:                 0.000
REMARK SMILES C=C1CCC[C@]2(C)CC(=O)C(=C(C)C)C[C@H]12
REMARK SMILES IDX 13 1 12 2 11 3 15 4 16 5 2 6 1 7 3 8 4 9 5 10 6 11 8 12 9 13
REMARK SMILES IDX 10 14 7 15 14 16
REMARK H PARENT
REMARK Flexibility Score: inf
ROOT
ATOM      1  C   UNL     1     -20.470 -41.382  -8.842  1.00  0.00     0.039 C 
ATOM      2  C   UNL     1     -19.092 -40.891  -8.459  1.00  0.00    -0.070 C 
ATOM      3  C   UNL     1     -18.753 -40.660  -7.158  1.00  0.00    -0.006 C 
ATOM      4  C   UNL     1     -17.419 -40.080  -6.734  1.00  0.00     0.047 C 
ATOM      5  C   UNL     1     -17.570 -38.759  -5.914  1.00  0.00     0.025 C 
ATOM      6  C   UNL     1     -16.276 -38.387  -5.158  1.00  0.00    -0.073 C 
ATOM      7  C   UNL     1     -15.058 -38.799  -5.563  1.00  0.00     0.008 C 
ATOM      8  C   UNL     1     -16.297 -37.387  -4.021  1.00  0.00     0.031 C 
ATOM      9  C   UNL     1     -17.696 -36.882  -3.704  1.00  0.00     0.005 C 
ATOM     10  C   UNL     1     -18.658 -38.061  -3.621  1.00  0.00     0.008 C 
ATOM     11  C   UNL     1     -18.887 -38.729  -5.009  1.00  0.00    -0.018 C 
ATOM     12  C   UNL     1     -19.425 -40.166  -4.740  1.00  0.00     0.088 C 
ATOM     13  C   UNL     1     -19.667 -40.911  -6.018  1.00  0.00     0.159 C 
ATOM     14  O   UNL     1     -20.577 -41.781  -6.067  1.00  0.00    -0.295 OA
ATOM     15  C   UNL     1     -19.995 -37.924  -5.747  1.00  0.00     0.012 C 
ATOM     16  C   UNL     1     -18.119 -40.623  -9.583  1.00  0.00     0.039 C 
ENDROOT
TORSDOF 0
ENDMDL
MODEL 3
REMARK VINA RESULT:    -7.205      1.152      1.454
REMARK INTER + INTRA:          -7.205
REMARK INTER:                  -7.205
REMARK INTRA:                   0.000
REMARK UNBOUND:                 0.000
REMARK SMILES C=C1CCC[C@]2(C)CC(=O)C(=C(C)C)C[C@H]12
REMARK SMILES IDX 13 1 12 2 11 3 15 4 16 5 2 6 1 7 3 8 4 9 5 10 6 11 8 12 9 13
REMARK SMILES IDX 10 14 7 15 14 16
REMARK H PARENT
REMARK Flexibility Score: inf
ROOT
ATOM      1  C   UNL     1     -19.762 -42.513  -9.498  1.00  0.00     0.039 C 
ATOM      2  C   UNL     1     -20.181 -41.442  -8.517  1.00  0.00    -0.070 C 
ATOM      3  C   UNL     1     -19.340 -40.426  -8.168  1.00  0.00    -0.006 C 
ATOM      4  C   UNL     1     -19.682 -39.384  -7.122  1.00  0.00     0.047 C 
ATOM      5  C   UNL     1     -18.646 -39.342  -5.953  1.00  0.00     0.025 C 
ATOM      6  C   UNL     1     -18.761 -38.053  -5.112  1.00  0.00    -0.073 C 
ATOM      7  C   UNL     1     -19.904 -37.341  -5.032  1.00  0.00     0.008 C 
ATOM      8  C   UNL     1     -17.641 -37.620  -4.190  1.00  0.00     0.031 C 
ATOM      9  C   UNL     1     -16.433 -38.543  -4.254  1.00  0.00     0.005 C 
ATOM     10  C   UNL     1     -16.077 -38.818  -5.710  1.00  0.00     0.008 C 
ATOM     11  C   UNL     1     -17.157 -39.686  -6.422  1.00  0.00    -0.018 C 
ATOM     12  C   UNL     1     -16.979 -39.469  -7.954  1.00  0.00     0.088 C 
ATOM     13  C   UNL     1     -17.985 -40.252  -8.742  1.00  0.00     0.159 C 
ATOM     14  O   UNL     1     -17.686 -40.667  -9.893  1.00  0.00    -0.295 OA
ATOM     15  C   UNL     1     -16.853 -41.179  -6.103  1.00  0.00     0.012 C 
ATOM     16  C   UNL     1     -21.557 -41.569  -7.904  1.00  0.00     0.039 C 
ENDROOT
TORSDOF 0
ENDMDL
MODEL 4
REMARK VINA RESULT:    -7.015      1.620      4.778
REMARK INTER + INTRA:          -7.015
REMARK INTER:                  -7.015
REMARK INTRA:                   0.000
REMARK UNBOUND:                 0.000
REMARK SMILES C=C1CCC[C@]2(C)CC(=O)C(=C(C)C)C[C@H]12
REMARK SMILES IDX 13 1 12 2 11 3 15 4 16 5 2 6 1 7 3 8 4 9 5 10 6 11 8 12 9 13
REMARK SMILES IDX 10 14 7 15 14 16
REMARK H PARENT
REMARK Flexibility Score: inf
ROOT
ATOM      1  C   UNL     1     -16.389 -37.261  -4.195  1.00  0.00     0.039 C 
ATOM      2  C   UNL     1     -17.848 -37.632  -4.330  1.00  0.00    -0.070 C 
ATOM      3  C   UNL     1     -18.233 -38.857  -4.793  1.00  0.00    -0.006 C 
ATOM      4  C   UNL     1     -19.679 -39.240  -5.032  1.00  0.00     0.047 C 
ATOM      5  C   UNL     1     -19.949 -39.677  -6.508  1.00  0.00     0.025 C 
ATOM      6  C   UNL     1     -21.289 -40.429  -6.661  1.00  0.00    -0.073 C 
ATOM      7  C   UNL     1     -22.317 -40.258  -5.804  1.00  0.00     0.008 C 
ATOM      8  C   UNL     1     -21.578 -41.265  -7.890  1.00  0.00     0.031 C 
ATOM      9  C   UNL     1     -20.409 -41.310  -8.862  1.00  0.00     0.005 C 
ATOM     10  C   UNL     1     -19.122 -41.603  -8.100  1.00  0.00     0.008 C 
ATOM     11  C   UNL     1     -18.703 -40.417  -7.181  1.00  0.00    -0.018 C 
ATOM     12  C   UNL     1     -17.735 -40.993  -6.106  1.00  0.00     0.088 C 
ATOM     13  C   UNL     1     -17.278 -39.932  -5.151  1.00  0.00     0.159 C 
ATOM     14  O   UNL     1     -16.140 -40.023  -4.619  1.00  0.00    -0.295 OA
ATOM     15  C   UNL     1     -17.914 -39.397  -8.052  1.00  0.00     0.012 C 
ATOM     16  C   UNL     1     -18.865 -36.572  -3.973  1.00  0.00     0.039 C 
ENDROOT
TORSDOF 0
ENDMDL
MODEL 5
REMARK VINA RESULT:    -6.894      1.792      5.209
REMARK INTER + INTRA:          -6.894
REMARK INTER:                  -6.894
REMARK INTRA:                   0.000
REMARK UNBOUND:                 0.000
REMARK SMILES C=C1CCC[C@]2(C)CC(=O)C(=C(C)C)C[C@H]12
REMARK SMILES IDX 13 1 12 2 11 3 15 4 16 5 2 6 1 7 3 8 4 9 5 10 6 11 8 12 9 13
REMARK SMILES IDX 10 14 7 15 14 16
REMARK H PARENT
REMARK Flexibility Score: inf
ROOT
ATOM      1  C   UNL     1     -18.234 -37.630  -3.503  1.00  0.00     0.039 C 
ATOM      2  C   UNL     1     -17.748 -38.264  -4.786  1.00  0.00    -0.070 C 
ATOM      3  C   UNL     1     -18.610 -38.577  -5.798  1.00  0.00    -0.006 C 
ATOM      4  C   UNL     1     -18.184 -39.297  -7.061  1.00  0.00     0.047 C 
ATOM      5  C   UNL     1     -18.969 -40.628  -7.288  1.00  0.00     0.025 C 
ATOM      6  C   UNL     1     -18.831 -41.152  -8.735  1.00  0.00    -0.073 C 
ATOM      7  C   UNL     1     -17.779 -40.841  -9.519  1.00  0.00     0.008 C 
ATOM      8  C   UNL     1     -19.789 -42.188  -9.284  1.00  0.00     0.031 C 
ATOM      9  C   UNL     1     -20.878 -42.570  -8.293  1.00  0.00     0.005 C 
ATOM     10  C   UNL     1     -21.481 -41.309  -7.686  1.00  0.00     0.008 C 
ATOM     11  C   UNL     1     -20.475 -40.568  -6.756  1.00  0.00    -0.018 C 
ATOM     12  C   UNL     1     -20.973 -39.099  -6.623  1.00  0.00     0.088 C 
ATOM     13  C   UNL     1     -20.062 -38.284  -5.755  1.00  0.00     0.159 C 
ATOM     14  O   UNL     1     -20.534 -37.331  -5.081  1.00  0.00    -0.295 OA
ATOM     15  C   UNL     1     -20.546 -41.236  -5.351  1.00  0.00     0.012 C 
ATOM     16  C   UNL     1     -16.274 -38.580  -4.884  1.00  0.00     0.039 C 
ENDROOT
TORSDOF 0
ENDMDL
MODEL 6
REMARK VINA RESULT:    -6.799      2.011      4.863
REMARK INTER + INTRA:          -6.799
REMARK INTER:                  -6.799
REMARK INTRA:                   0.000
REMARK UNBOUND:                 0.000
REMARK SMILES C=C1CCC[C@]2(C)CC(=O)C(=C(C)C)C[C@H]12
REMARK SMILES IDX 13 1 12 2 11 3 15 4 16 5 2 6 1 7 3 8 4 9 5 10 6 11 8 12 9 13
REMARK SMILES IDX 10 14 7 15 14 16
REMARK H PARENT
REMARK Flexibility Score: inf
ROOT
ATOM      1  C   UNL     1     -15.441 -38.266  -5.008  1.00  0.00     0.039 C 
ATOM      2  C   UNL     1     -16.668 -37.528  -4.523  1.00  0.00    -0.070 C 
ATOM      3  C   UNL     1     -17.880 -38.147  -4.421  1.00  0.00    -0.006 C 
ATOM      4  C   UNL     1     -19.153 -37.426  -4.029  1.00  0.00     0.047 C 
ATOM      5  C   UNL     1     -20.272 -37.550  -5.112  1.00  0.00     0.025 C 
ATOM      6  C   UNL     1     -21.665 -37.169  -4.564  1.00  0.00    -0.073 C 
ATOM      7  C   UNL     1     -21.826 -36.341  -3.512  1.00  0.00     0.008 C 
ATOM      8  C   UNL     1     -22.928 -37.570  -5.296  1.00  0.00     0.031 C 
ATOM      9  C   UNL     1     -22.651 -38.405  -6.538  1.00  0.00     0.005 C 
ATOM     10  C   UNL     1     -21.655 -39.508  -6.200  1.00  0.00     0.008 C 
ATOM     11  C   UNL     1     -20.236 -38.942  -5.896  1.00  0.00    -0.018 C 
ATOM     12  C   UNL     1     -19.475 -40.032  -5.084  1.00  0.00     0.088 C 
ATOM     13  C   UNL     1     -18.092 -39.583  -4.721  1.00  0.00     0.159 C 
ATOM     14  O   UNL     1     -17.173 -40.436  -4.602  1.00  0.00    -0.295 OA
ATOM     15  C   UNL     1     -19.502 -38.745  -7.254  1.00  0.00     0.012 C 
ATOM     16  C   UNL     1     -16.506 -36.061  -4.198  1.00  0.00     0.039 C 
ENDROOT
TORSDOF 0
ENDMDL
MODEL 7
REMARK VINA RESULT:    -6.584      2.119      4.692
REMARK INTER + INTRA:          -6.584
REMARK INTER:                  -6.584
REMARK INTRA:                   0.000
REMARK UNBOUND:                 0.000
REMARK SMILES C=C1CCC[C@]2(C)CC(=O)C(=C(C)C)C[C@H]12
REMARK SMILES IDX 13 1 12 2 11 3 15 4 16 5 2 6 1 7 3 8 4 9 5 10 6 11 8 12 9 13
REMARK SMILES IDX 10 14 7 15 14 16
REMARK H PARENT
REMARK Flexibility Score: inf
ROOT
ATOM      1  C   UNL     1     -19.777 -36.351  -4.590  1.00  0.00     0.039 C 
ATOM      2  C   UNL     1     -20.670 -37.301  -5.356  1.00  0.00    -0.070 C 
ATOM      3  C   UNL     1     -20.348 -38.619  -5.504  1.00  0.00    -0.006 C 
ATOM      4  C   UNL     1     -21.163 -39.587  -6.339  1.00  0.00     0.047 C 
ATOM      5  C   UNL     1     -20.323 -40.257  -7.473  1.00  0.00     0.025 C 
ATOM      6  C   UNL     1     -21.019 -41.505  -8.059  1.00  0.00    -0.073 C 
ATOM      7  C   UNL     1     -22.356 -41.677  -8.010  1.00  0.00     0.008 C 
ATOM      8  C   UNL     1     -20.246 -42.517  -8.878  1.00  0.00     0.031 C 
ATOM      9  C   UNL     1     -18.765 -42.185  -8.981  1.00  0.00     0.005 C 
ATOM     10  C   UNL     1     -18.221 -41.837  -7.600  1.00  0.00     0.008 C 
ATOM     11  C   UNL     1     -18.795 -40.490  -7.069  1.00  0.00    -0.018 C 
ATOM     12  C   UNL     1     -18.610 -40.494  -5.522  1.00  0.00     0.088 C 
ATOM     13  C   UNL     1     -19.146 -39.240  -4.900  1.00  0.00     0.159 C 
ATOM     14  O   UNL     1     -18.619 -38.796  -3.846  1.00  0.00    -0.295 OA
ATOM     15  C   UNL     1     -17.929 -39.339  -7.660  1.00  0.00     0.012 C 
ATOM     16  C   UNL     1     -21.913 -36.720  -5.989  1.00  0.00     0.039 C 
ENDROOT
TORSDOF 0
ENDMDL
MODEL 8
REMARK VINA RESULT:    -6.260      2.406      4.076
REMARK INTER + INTRA:          -6.260
REMARK INTER:                  -6.260
REMARK INTRA:                   0.000
REMARK UNBOUND:                 0.000
REMARK SMILES C=C1CCC[C@]2(C)CC(=O)C(=C(C)C)C[C@H]12
REMARK SMILES IDX 13 1 12 2 11 3 15 4 16 5 2 6 1 7 3 8 4 9 5 10 6 11 8 12 9 13
REMARK SMILES IDX 10 14 7 15 14 16
REMARK H PARENT
REMARK Flexibility Score: inf
ROOT
ATOM      1  C   UNL     1     -20.664 -36.736  -3.436  1.00  0.00     0.039 C 
ATOM      2  C   UNL     1     -20.503 -37.309  -4.825  1.00  0.00    -0.070 C 
ATOM      3  C   UNL     1     -19.657 -38.350  -5.074  1.00  0.00    -0.006 C 
ATOM      4  C   UNL     1     -19.394 -38.897  -6.463  1.00  0.00     0.047 C 
ATOM      5  C   UNL     1     -17.882 -38.844  -6.853  1.00  0.00     0.025 C 
ATOM      6  C   UNL     1     -17.559 -39.739  -8.070  1.00  0.00    -0.073 C 
ATOM      7  C   UNL     1     -18.487 -40.072  -8.989  1.00  0.00     0.008 C 
ATOM      8  C   UNL     1     -16.133 -40.142  -8.385  1.00  0.00     0.031 C 
ATOM      9  C   UNL     1     -15.134 -39.626  -7.361  1.00  0.00     0.005 C 
ATOM     10  C   UNL     1     -15.649 -39.911  -5.955  1.00  0.00     0.008 C 
ATOM     11  C   UNL     1     -16.904 -39.056  -5.607  1.00  0.00    -0.018 C 
ATOM     12  C   UNL     1     -17.630 -39.770  -4.429  1.00  0.00     0.088 C 
ATOM     13  C   UNL     1     -18.871 -39.035  -4.020  1.00  0.00     0.159 C 
ATOM     14  O   UNL     1     -19.255 -39.083  -2.822  1.00  0.00    -0.295 OA
ATOM     15  C   UNL     1     -16.409 -37.668  -5.106  1.00  0.00     0.012 C 
ATOM     16  C   UNL     1     -21.287 -36.652  -5.937  1.00  0.00     0.039 C 
ENDROOT
TORSDOF 0
ENDMDL
MODEL 9
REMARK VINA RESULT:    -6.133      1.591      2.618
REMARK INTER + INTRA:          -6.133
REMARK INTER:                  -6.133
REMARK INTRA:                   0.000
REMARK UNBOUND:                 0.000
REMARK SMILES C=C1CCC[C@]2(C)CC(=O)C(=C(C)C)C[C@H]12
REMARK SMILES IDX 13 1 12 2 11 3 15 4 16 5 2 6 1 7 3 8 4 9 5 10 6 11 8 12 9 13
REMARK SMILES IDX 10 14 7 15 14 16
REMARK H PARENT
REMARK Flexibility Score: inf
ROOT
ATOM      1  C   UNL     1     -18.330 -42.390  -8.532  1.00  0.00     0.039 C 
ATOM      2  C   UNL     1     -19.332 -41.279  -8.317  1.00  0.00    -0.070 C 
ATOM      3  C   UNL     1     -18.976 -40.102  -7.725  1.00  0.00    -0.006 C 
ATOM      4  C   UNL     1     -19.964 -38.998  -7.406  1.00  0.00     0.047 C 
ATOM      5  C   UNL     1     -19.986 -38.632  -5.887  1.00  0.00     0.025 C 
ATOM      6  C   UNL     1     -20.676 -37.277  -5.620  1.00  0.00    -0.073 C 
ATOM      7  C   UNL     1     -21.596 -36.756  -6.459  1.00  0.00     0.008 C 
ATOM      8  C   UNL     1     -20.482 -36.548  -4.308  1.00  0.00     0.031 C 
ATOM      9  C   UNL     1     -19.520 -37.263  -3.371  1.00  0.00     0.005 C 
ATOM     10  C   UNL     1     -18.268 -37.670  -4.139  1.00  0.00     0.008 C 
ATOM     11  C   UNL     1     -18.560 -38.790  -5.182  1.00  0.00    -0.018 C 
ATOM     12  C   UNL     1     -17.404 -38.755  -6.225  1.00  0.00     0.088 C 
ATOM     13  C   UNL     1     -17.593 -39.790  -7.293  1.00  0.00     0.159 C 
ATOM     14  O   UNL     1     -16.585 -40.302  -7.847  1.00  0.00    -0.295 OA
ATOM     15  C   UNL     1     -18.507 -40.157  -4.440  1.00  0.00     0.012 C 
ATOM     16  C   UNL     1     -20.757 -41.544  -8.745  1.00  0.00     0.039 C 
ENDROOT
TORSDOF 0
ENDMDL
