MODEL 1
REMARK VINA RESULT:    -2.498      0.000      0.000
REMARK INTER + INTRA:          -2.498
REMARK INTER:                  -2.498
REMARK INTRA:                   0.000
REMARK UNBOUND:                 0.000
REMARK SMILES CC(=O)[O-]
REMARK SMILES IDX 1 1 2 2 3 3 4 4
REMARK H PARENT
REMARK Flexibility Score: inf
ROOT
ATOM      1  C   UNL     1       8.878  -9.662  16.167  1.00  0.00     0.063 C 
ATOM      2  C   UNL     1       7.645  -9.380  15.380  1.00  0.00     0.038 C 
ATOM      3  O   UNL     1       6.645 -10.137  15.478  1.00  0.00    -0.550 OA
ATOM      4  O   UNL     1       7.575  -8.247  14.577  1.00  0.00    -0.550 OA
ENDROOT
TORSDOF 0
ENDMDL
MODEL 2
REMARK VINA RESULT:    -2.376      1.430      1.773
REMARK INTER + INTRA:          -2.376
REMARK INTER:                  -2.376
REMARK INTRA:                   0.000
REMARK UNBOUND:                 0.000
REMARK SMILES CC(=O)[O-]
REMARK SMILES IDX 1 1 2 2 3 3 4 4
REMARK H PARENT
REMARK Flexibility Score: inf
ROOT
ATOM      1  C   UNL     1       7.635  -8.341  14.523  1.00  0.00     0.063 C 
ATOM      2  C   UNL     1       7.776  -9.441  15.519  1.00  0.00     0.038 C 
ATOM      3  O   UNL     1       6.862 -10.295  15.649  1.00  0.00    -0.550 OA
ATOM      4  O   UNL     1       8.941  -9.558  16.267  1.00  0.00    -0.550 OA
ENDROOT
TORSDOF 0
ENDMDL
MODEL 3
REMARK VINA RESULT:    -2.320     16.134     16.645
REMARK INTER + INTRA:          -2.320
REMARK INTER:                  -2.320
REMARK INTRA:                   0.000
REMARK UNBOUND:                 0.000
REMARK SMILES CC(=O)[O-]
REMARK SMILES IDX 1 1 2 2 3 3 4 4
REMARK H PARENT
REMARK Flexibility Score: inf
ROOT
ATOM      1  C   UNL     1      -8.433  -7.133  17.607  1.00  0.00     0.063 C 
ATOM      2  C   UNL     1      -8.778  -8.308  16.758  1.00  0.00     0.038 C 
ATOM      3  O   UNL     1      -7.996  -9.292  16.692  1.00  0.00    -0.550 OA
ATOM      4  O   UNL     1      -9.990  -8.346  16.079  1.00  0.00    -0.550 OA
ENDROOT
TORSDOF 0
ENDMDL
MODEL 4
REMARK VINA RESULT:    -2.261     16.124     16.652
REMARK INTER + INTRA:          -2.261
REMARK INTER:                  -2.261
REMARK INTRA:                   0.000
REMARK UNBOUND:                 0.000
REMARK SMILES CC(=O)[O-]
REMARK SMILES IDX 1 1 2 2 3 3 4 4
REMARK H PARENT
REMARK Flexibility Score: inf
ROOT
ATOM      1  C   UNL     1     -10.009  -8.453  16.100  1.00  0.00     0.063 C 
ATOM      2  C   UNL     1      -8.724  -8.369  16.850  1.00  0.00     0.038 C 
ATOM      3  O   UNL     1      -7.863  -9.279  16.732  1.00  0.00    -0.550 OA
ATOM      4  O   UNL     1      -8.449  -7.258  17.638  1.00  0.00    -0.550 OA
ENDROOT
TORSDOF 0
ENDMDL
MODEL 5
REMARK VINA RESULT:    -1.810     12.755     12.975
REMARK INTER + INTRA:          -1.810
REMARK INTER:                  -1.810
REMARK INTRA:                   0.000
REMARK UNBOUND:                 0.000
REMARK SMILES CC(=O)[O-]
REMARK SMILES IDX 1 1 2 2 3 3 4 4
REMARK H PARENT
REMARK Flexibility Score: inf
ROOT
ATOM      1  C   UNL     1       8.066 -21.705  17.231  1.00  0.00     0.063 C 
ATOM      2  C   UNL     1       6.671 -22.163  16.970  1.00  0.00     0.038 C 
ATOM      3  O   UNL     1       5.772 -21.970  17.828  1.00  0.00    -0.550 OA
ATOM      4  O   UNL     1       6.349 -22.756  15.755  1.00  0.00    -0.550 OA
ENDROOT
TORSDOF 0
ENDMDL
MODEL 6
REMARK VINA RESULT:    -1.799     11.903     12.385
REMARK INTER + INTRA:          -1.799
REMARK INTER:                  -1.799
REMARK INTRA:                   0.000
REMARK UNBOUND:                 0.000
REMARK SMILES CC(=O)[O-]
REMARK SMILES IDX 1 1 2 2 3 3 4 4
REMARK H PARENT
REMARK Flexibility Score: inf
ROOT
ATOM      1  C   UNL     1       6.714 -21.627  17.492  1.00  0.00     0.063 C 
ATOM      2  C   UNL     1       8.001 -21.566  16.742  1.00  0.00     0.038 C 
ATOM      3  O   UNL     1       8.978 -22.271  17.105  1.00  0.00    -0.550 OA
ATOM      4  O   UNL     1       8.108 -20.771  15.607  1.00  0.00    -0.550 OA
ENDROOT
TORSDOF 0
ENDMDL
MODEL 7
REMARK VINA RESULT:    -1.685     21.184     21.282
REMARK INTER + INTRA:          -1.685
REMARK INTER:                  -1.685
REMARK INTRA:                   0.000
REMARK UNBOUND:                 0.000
REMARK SMILES CC(=O)[O-]
REMARK SMILES IDX 1 1 2 2 3 3 4 4
REMARK H PARENT
REMARK Flexibility Score: inf
ROOT
ATOM      1  C   UNL     1     -10.035 -20.444  14.535  1.00  0.00     0.063 C 
ATOM      2  C   UNL     1     -10.335 -20.470  15.995  1.00  0.00     0.038 C 
ATOM      3  O   UNL     1     -11.057 -19.577  16.508  1.00  0.00    -0.550 OA
ATOM      4  O   UNL     1      -9.863 -21.513  16.783  1.00  0.00    -0.550 OA
ENDROOT
TORSDOF 0
ENDMDL
MODEL 8
REMARK VINA RESULT:    -1.506     17.986     18.411
REMARK INTER + INTRA:          -1.506
REMARK INTER:                  -1.506
REMARK INTRA:                   0.000
REMARK UNBOUND:                 0.000
REMARK SMILES CC(=O)[O-]
REMARK SMILES IDX 1 1 2 2 3 3 4 4
REMARK H PARENT
REMARK Flexibility Score: inf
ROOT
ATOM      1  C   UNL     1      -6.685 -22.581  17.029  1.00  0.00     0.063 C 
ATOM      2  C   UNL     1      -5.437 -22.020  16.439  1.00  0.00     0.038 C 
ATOM      3  O   UNL     1      -5.499 -21.087  15.597  1.00  0.00    -0.550 OA
ATOM      4  O   UNL     1      -4.197 -22.488  16.857  1.00  0.00    -0.550 OA
ENDROOT
TORSDOF 0
ENDMDL
MODEL 9
REMARK VINA RESULT:    -1.447     21.652     22.212
REMARK INTER + INTRA:          -1.447
REMARK INTER:                  -1.447
REMARK INTRA:                   0.000
REMARK UNBOUND:                 0.000
REMARK SMILES CC(=O)[O-]
REMARK SMILES IDX 1 1 2 2 3 3 4 4
REMARK H PARENT
REMARK Flexibility Score: inf
ROOT
ATOM      1  C   UNL     1      -8.738 -21.608  23.160  1.00  0.00     0.063 C 
ATOM      2  C   UNL     1      -9.848 -20.748  22.660  1.00  0.00     0.038 C 
ATOM      3  O   UNL     1      -9.730 -20.135  21.568  1.00  0.00    -0.550 OA
ATOM      4  O   UNL     1     -11.039 -20.665  23.371  1.00  0.00    -0.550 OA
ENDROOT
TORSDOF 0
ENDMDL
