MODEL 1
REMARK VINA RESULT:    -4.203      0.000      0.000
REMARK INTER + INTRA:          -5.668
REMARK INTER:                  -5.186
REMARK INTRA:                  -0.482
REMARK UNBOUND:                -0.482
REMARK SMILES C=CC[C@@H](C)C(=O)CC
REMARK SMILES IDX 4 1 5 2 6 3 7 4 8 5 9 6 3 7 2 8 1 9
REMARK H PARENT
REMARK Flexibility Score: inf
ROOT
ATOM      1  C   UNL     1     -12.547 -35.205  31.332  1.00  0.00     0.057 C 
ATOM      2  C   UNL     1     -13.290 -36.500  31.688  1.00  0.00     0.016 C 
ENDROOT
BRANCH   1   3
ATOM      3  C   UNL     1     -12.752 -34.848  29.874  1.00  0.00     0.135 C 
ATOM      4  O   UNL     1     -13.352 -35.618  29.136  1.00  0.00    -0.299 OA
BRANCH   3   5
ATOM      5  C   UNL     1     -12.227 -33.555  29.308  1.00  0.00     0.072 C 
ATOM      6  C   UNL     1     -13.356 -32.736  28.693  1.00  0.00     0.012 C 
ENDBRANCH   3   5
ENDBRANCH   1   3
BRANCH   1   7
ATOM      7  C   UNL     1     -12.913 -34.031  32.268  1.00  0.00     0.038 C 
BRANCH   7   8
ATOM      8  C   UNL     1     -14.398 -33.822  32.429  1.00  0.00    -0.034 C 
ATOM      9  C   UNL     1     -14.995 -32.682  32.067  1.00  0.00     0.004 C 
ENDBRANCH   7   8
ENDBRANCH   1   7
TORSDOF 4
ENDMDL
MODEL 2
REMARK VINA RESULT:    -4.133      1.641      4.222
REMARK INTER + INTRA:          -5.582
REMARK INTER:                  -5.403
REMARK INTRA:                  -0.179
REMARK UNBOUND:                -0.482
REMARK SMILES C=CC[C@@H](C)C(=O)CC
REMARK SMILES IDX 4 1 5 2 6 3 7 4 8 5 9 6 3 7 2 8 1 9
REMARK H PARENT
REMARK Flexibility Score: inf
ROOT
ATOM      1  C   UNL     1     -12.303 -33.549  29.346  1.00  0.00     0.057 C 
ATOM      2  C   UNL     1     -13.401 -32.738  28.644  1.00  0.00     0.016 C 
ENDROOT
BRANCH   1   3
ATOM      3  C   UNL     1     -12.896 -34.454  30.408  1.00  0.00     0.135 C 
ATOM      4  O   UNL     1     -13.309 -35.563  30.103  1.00  0.00    -0.299 OA
BRANCH   3   5
ATOM      5  C   UNL     1     -12.991 -34.009  31.844  1.00  0.00     0.072 C 
ATOM      6  C   UNL     1     -14.389 -33.489  32.158  1.00  0.00     0.012 C 
ENDBRANCH   3   5
ENDBRANCH   1   3
BRANCH   1   7
ATOM      7  C   UNL     1     -11.416 -34.334  28.354  1.00  0.00     0.038 C 
BRANCH   7   8
ATOM      8  C   UNL     1     -12.104 -34.670  27.055  1.00  0.00    -0.034 C 
ATOM      9  C   UNL     1     -11.418 -34.969  25.948  1.00  0.00     0.004 C 
ENDBRANCH   7   8
ENDBRANCH   1   7
TORSDOF 4
ENDMDL
MODEL 3
REMARK VINA RESULT:    -4.115      1.747      2.484
REMARK INTER + INTRA:          -5.559
REMARK INTER:                  -5.384
REMARK INTRA:                  -0.176
REMARK UNBOUND:                -0.482
REMARK SMILES C=CC[C@@H](C)C(=O)CC
REMARK SMILES IDX 4 1 5 2 6 3 7 4 8 5 9 6 3 7 2 8 1 9
REMARK H PARENT
REMARK Flexibility Score: inf
ROOT
ATOM      1  C   UNL     1     -12.759 -34.081  29.352  1.00  0.00     0.057 C 
ATOM      2  C   UNL     1     -11.353 -33.480  29.487  1.00  0.00     0.016 C 
ENDROOT
BRANCH   1   3
ATOM      3  C   UNL     1     -12.839 -35.006  28.155  1.00  0.00     0.135 C 
ATOM      4  O   UNL     1     -12.998 -36.207  28.322  1.00  0.00    -0.299 OA
BRANCH   3   5
ATOM      5  C   UNL     1     -12.721 -34.474  26.751  1.00  0.00     0.072 C 
ATOM      6  C   UNL     1     -11.462 -35.003  26.075  1.00  0.00     0.012 C 
ENDBRANCH   3   5
ENDBRANCH   1   3
BRANCH   1   7
ATOM      7  C   UNL     1     -13.238 -34.774  30.647  1.00  0.00     0.038 C 
BRANCH   7   8
ATOM      8  C   UNL     1     -13.384 -33.839  31.821  1.00  0.00    -0.034 C 
ATOM      9  C   UNL     1     -14.562 -33.303  32.155  1.00  0.00     0.004 C 
ENDBRANCH   7   8
ENDBRANCH   1   7
TORSDOF 4
ENDMDL
MODEL 4
REMARK VINA RESULT:    -4.084      1.748      3.495
REMARK INTER + INTRA:          -5.521
REMARK INTER:                  -5.243
REMARK INTRA:                  -0.278
REMARK UNBOUND:                -0.482
REMARK SMILES C=CC[C@@H](C)C(=O)CC
REMARK SMILES IDX 4 1 5 2 6 3 7 4 8 5 9 6 3 7 2 8 1 9
REMARK H PARENT
REMARK Flexibility Score: inf
ROOT
ATOM      1  C   UNL     1     -13.323 -34.552  31.121  1.00  0.00     0.057 C 
ATOM      2  C   UNL     1     -13.216 -36.004  31.606  1.00  0.00     0.016 C 
ENDROOT
BRANCH   1   3
ATOM      3  C   UNL     1     -13.744 -33.635  32.252  1.00  0.00     0.135 C 
ATOM      4  O   UNL     1     -13.048 -33.542  33.253  1.00  0.00    -0.299 OA
BRANCH   3   5
ATOM      5  C   UNL     1     -15.014 -32.830  32.169  1.00  0.00     0.072 C 
ATOM      6  C   UNL     1     -16.017 -33.293  33.219  1.00  0.00     0.012 C 
ENDBRANCH   3   5
ENDBRANCH   1   3
BRANCH   1   7
ATOM      7  C   UNL     1     -12.031 -34.057  30.432  1.00  0.00     0.038 C 
BRANCH   7   8
ATOM      8  C   UNL     1     -12.243 -33.562  29.023  1.00  0.00    -0.034 C 
ATOM      9  C   UNL     1     -13.326 -32.859  28.677  1.00  0.00     0.004 C 
ENDBRANCH   7   8
ENDBRANCH   1   7
TORSDOF 4
ENDMDL
MODEL 5
REMARK VINA RESULT:    -4.052      1.087      2.854
REMARK INTER + INTRA:          -5.481
REMARK INTER:                  -5.285
REMARK INTRA:                  -0.196
REMARK UNBOUND:                -0.482
REMARK SMILES C=CC[C@@H](C)C(=O)CC
REMARK SMILES IDX 4 1 5 2 6 3 7 4 8 5 9 6 3 7 2 8 1 9
REMARK H PARENT
REMARK Flexibility Score: inf
ROOT
ATOM      1  C   UNL     1     -13.190 -34.343  30.521  1.00  0.00     0.057 C 
ATOM      2  C   UNL     1     -11.863 -33.765  30.010  1.00  0.00     0.016 C 
ENDROOT
BRANCH   1   3
ATOM      3  C   UNL     1     -13.174 -35.858  30.468  1.00  0.00     0.135 C 
ATOM      4  O   UNL     1     -13.047 -36.430  29.395  1.00  0.00    -0.299 OA
BRANCH   3   5
ATOM      5  C   UNL     1     -13.315 -36.681  31.721  1.00  0.00     0.072 C 
ATOM      6  C   UNL     1     -12.909 -38.128  31.466  1.00  0.00     0.012 C 
ENDBRANCH   3   5
ENDBRANCH   1   3
BRANCH   1   7
ATOM      7  C   UNL     1     -13.566 -33.822  31.926  1.00  0.00     0.038 C 
BRANCH   7   8
ATOM      8  C   UNL     1     -14.757 -32.896  31.933  1.00  0.00    -0.034 C 
ATOM      9  C   UNL     1     -15.666 -32.922  32.912  1.00  0.00     0.004 C 
ENDBRANCH   7   8
ENDBRANCH   1   7
TORSDOF 4
ENDMDL
MODEL 6
REMARK VINA RESULT:    -4.021      2.523      4.170
REMARK INTER + INTRA:          -5.443
REMARK INTER:                  -5.183
REMARK INTRA:                  -0.260
REMARK UNBOUND:                -0.482
REMARK SMILES C=CC[C@@H](C)C(=O)CC
REMARK SMILES IDX 4 1 5 2 6 3 7 4 8 5 9 6 3 7 2 8 1 9
REMARK H PARENT
REMARK Flexibility Score: inf
ROOT
ATOM      1  C   UNL     1     -13.356 -36.482  29.188  1.00  0.00     0.057 C 
ATOM      2  C   UNL     1     -14.031 -37.748  28.642  1.00  0.00     0.016 C 
ENDROOT
BRANCH   1   3
ATOM      3  C   UNL     1     -12.543 -36.796  30.428  1.00  0.00     0.135 C 
ATOM      4  O   UNL     1     -11.340 -36.572  30.441  1.00  0.00    -0.299 OA
BRANCH   3   5
ATOM      5  C   UNL     1     -13.189 -37.384  31.654  1.00  0.00     0.072 C 
ATOM      6  C   UNL     1     -12.537 -38.711  32.025  1.00  0.00     0.012 C 
ENDBRANCH   3   5
ENDBRANCH   1   3
BRANCH   1   7
ATOM      7  C   UNL     1     -12.516 -35.747  28.120  1.00  0.00     0.038 C 
BRANCH   7   8
ATOM      8  C   UNL     1     -12.850 -34.282  27.983  1.00  0.00    -0.034 C 
ATOM      9  C   UNL     1     -12.566 -33.400  28.945  1.00  0.00     0.004 C 
ENDBRANCH   7   8
ENDBRANCH   1   7
TORSDOF 4
ENDMDL
MODEL 7
REMARK VINA RESULT:    -3.989      2.198      3.462
REMARK INTER + INTRA:          -5.403
REMARK INTER:                  -4.936
REMARK INTRA:                  -0.467
REMARK UNBOUND:                -0.482
REMARK SMILES C=CC[C@@H](C)C(=O)CC
REMARK SMILES IDX 4 1 5 2 6 3 7 4 8 5 9 6 3 7 2 8 1 9
REMARK H PARENT
REMARK Flexibility Score: inf
ROOT
ATOM      1  C   UNL     1     -13.074 -35.240  29.680  1.00  0.00     0.057 C 
ATOM      2  C   UNL     1     -13.176 -34.085  30.687  1.00  0.00     0.016 C 
ENDROOT
BRANCH   1   3
ATOM      3  C   UNL     1     -11.840 -35.092  28.813  1.00  0.00     0.135 C 
ATOM      4  O   UNL     1     -10.729 -35.128  29.322  1.00  0.00    -0.299 OA
BRANCH   3   5
ATOM      5  C   UNL     1     -11.956 -34.898  27.324  1.00  0.00     0.072 C 
ATOM      6  C   UNL     1     -13.315 -34.314  26.958  1.00  0.00     0.012 C 
ENDBRANCH   3   5
ENDBRANCH   1   3
BRANCH   1   7
ATOM      7  C   UNL     1     -13.138 -36.627  30.357  1.00  0.00     0.038 C 
BRANCH   7   8
ATOM      8  C   UNL     1     -13.202 -37.777  29.383  1.00  0.00    -0.034 C 
ATOM      9  C   UNL     1     -14.297 -38.029  28.659  1.00  0.00     0.004 C 
ENDBRANCH   7   8
ENDBRANCH   1   7
TORSDOF 4
ENDMDL
MODEL 8
REMARK VINA RESULT:    -3.978      1.903      3.741
REMARK INTER + INTRA:          -5.390
REMARK INTER:                  -4.981
REMARK INTRA:                  -0.409
REMARK UNBOUND:                -0.482
REMARK SMILES C=CC[C@@H](C)C(=O)CC
REMARK SMILES IDX 4 1 5 2 6 3 7 4 8 5 9 6 3 7 2 8 1 9
REMARK H PARENT
REMARK Flexibility Score: inf
ROOT
ATOM      1  C   UNL     1     -12.234 -35.346  28.536  1.00  0.00     0.057 C 
ATOM      2  C   UNL     1     -11.827 -35.032  27.090  1.00  0.00     0.016 C 
ENDROOT
BRANCH   1   3
ATOM      3  C   UNL     1     -12.523 -34.071  29.305  1.00  0.00     0.135 C 
ATOM      4  O   UNL     1     -12.901 -33.073  28.709  1.00  0.00    -0.299 OA
BRANCH   3   5
ATOM      5  C   UNL     1     -12.351 -34.009  30.799  1.00  0.00     0.072 C 
ATOM      6  C   UNL     1     -13.702 -33.901  31.495  1.00  0.00     0.012 C 
ENDBRANCH   3   5
ENDBRANCH   1   3
BRANCH   1   7
ATOM      7  C   UNL     1     -13.408 -36.347  28.621  1.00  0.00     0.038 C 
BRANCH   7   8
ATOM      8  C   UNL     1     -13.099 -37.581  29.431  1.00  0.00    -0.034 C 
ATOM      9  C   UNL     1     -13.412 -37.673  30.727  1.00  0.00     0.004 C 
ENDBRANCH   7   8
ENDBRANCH   1   7
TORSDOF 4
ENDMDL
MODEL 9
REMARK VINA RESULT:    -3.969      1.164      2.792
REMARK INTER + INTRA:          -5.379
REMARK INTER:                  -5.046
REMARK INTRA:                  -0.333
REMARK UNBOUND:                -0.482
REMARK SMILES C=CC[C@@H](C)C(=O)CC
REMARK SMILES IDX 4 1 5 2 6 3 7 4 8 5 9 6 3 7 2 8 1 9
REMARK H PARENT
REMARK Flexibility Score: inf
ROOT
ATOM      1  C   UNL     1     -13.098 -35.202  30.856  1.00  0.00     0.057 C 
ATOM      2  C   UNL     1     -13.737 -33.949  31.471  1.00  0.00     0.016 C 
ENDROOT
BRANCH   1   3
ATOM      3  C   UNL     1     -12.592 -34.919  29.456  1.00  0.00     0.135 C 
ATOM      4  O   UNL     1     -12.516 -35.827  28.640  1.00  0.00    -0.299 OA
BRANCH   3   5
ATOM      5  C   UNL     1     -12.177 -33.531  29.045  1.00  0.00     0.072 C 
ATOM      6  C   UNL     1     -10.703 -33.294  29.355  1.00  0.00     0.012 C 
ENDBRANCH   3   5
ENDBRANCH   1   3
BRANCH   1   7
ATOM      7  C   UNL     1     -11.995 -35.809  31.753  1.00  0.00     0.038 C 
BRANCH   7   8
ATOM      8  C   UNL     1     -12.146 -37.292  31.985  1.00  0.00    -0.034 C 
ATOM      9  C   UNL     1     -13.123 -38.001  31.412  1.00  0.00     0.004 C 
ENDBRANCH   7   8
ENDBRANCH   1   7
TORSDOF 4
ENDMDL
