MODEL 1
REMARK VINA RESULT:    -4.169      0.000      0.000
REMARK INTER + INTRA:          -4.431
REMARK INTER:                  -4.413
REMARK INTRA:                  -0.019
REMARK UNBOUND:                -0.019
REMARK SMILES O=C([O-])c1cccnc1
REMARK SMILES IDX 4 1 5 2 9 3 6 4 8 5 7 6 2 7 1 8 3 9
REMARK H PARENT
REMARK Flexibility Score: inf
ROOT
ATOM      1  C   UNL     1       0.958  21.152  33.444  1.00  0.00     0.016 A 
ATOM      2  C   UNL     1      -0.070  21.774  32.718  1.00  0.00     0.013 A 
ATOM      3  C   UNL     1       1.351  21.722  34.667  1.00  0.00     0.120 A 
ATOM      4  C   UNL     1      -0.678  22.930  33.211  1.00  0.00     0.021 A 
ATOM      5  N   UNL     1       0.743  22.850  35.125  1.00  0.00    -0.264 NA
ATOM      6  C   UNL     1      -0.251  23.459  34.429  1.00  0.00     0.111 A 
ENDROOT
BRANCH   1   7
ATOM      7  C   UNL     1       1.613  19.926  32.940  1.00  0.00     0.073 C 
ATOM      8  O   UNL     1       2.089  19.887  31.774  1.00  0.00    -0.545 OA
ATOM      9  O   UNL     1       1.713  18.797  33.746  1.00  0.00    -0.545 OA
ENDBRANCH   1   7
TORSDOF 1
ENDMDL
MODEL 2
REMARK VINA RESULT:    -3.978      7.025      8.015
REMARK INTER + INTRA:          -4.229
REMARK INTER:                  -4.212
REMARK INTRA:                  -0.017
REMARK UNBOUND:                -0.019
REMARK SMILES O=C([O-])c1cccnc1
REMARK SMILES IDX 4 1 5 2 9 3 6 4 8 5 7 6 2 7 1 8 3 9
REMARK H PARENT
REMARK Flexibility Score: inf
ROOT
ATOM      1  C   UNL     1      -2.574  19.486  27.381  1.00  0.00     0.016 A 
ATOM      2  C   UNL     1      -3.361  18.394  26.977  1.00  0.00     0.013 A 
ATOM      3  C   UNL     1      -1.592  19.274  28.364  1.00  0.00     0.120 A 
ATOM      4  C   UNL     1      -3.160  17.136  27.549  1.00  0.00     0.021 A 
ATOM      5  N   UNL     1      -1.418  18.038  28.905  1.00  0.00    -0.264 NA
ATOM      6  C   UNL     1      -2.174  16.977  28.522  1.00  0.00     0.111 A 
ENDROOT
BRANCH   1   7
ATOM      7  C   UNL     1      -2.770  20.826  26.788  1.00  0.00     0.073 C 
ATOM      8  O   UNL     1      -3.797  21.503  27.059  1.00  0.00    -0.545 OA
ATOM      9  O   UNL     1      -1.822  21.358  25.920  1.00  0.00    -0.545 OA
ENDBRANCH   1   7
TORSDOF 1
ENDMDL
MODEL 3
REMARK VINA RESULT:    -3.890      2.229      3.393
REMARK INTER + INTRA:          -4.136
REMARK INTER:                  -4.113
REMARK INTRA:                  -0.023
REMARK UNBOUND:                -0.019
REMARK SMILES O=C([O-])c1cccnc1
REMARK SMILES IDX 4 1 5 2 9 3 6 4 8 5 7 6 2 7 1 8 3 9
REMARK H PARENT
REMARK Flexibility Score: inf
ROOT
ATOM      1  C   UNL     1       1.123  20.960  32.989  1.00  0.00     0.016 A 
ATOM      2  C   UNL     1       1.970  20.122  32.245  1.00  0.00     0.013 A 
ATOM      3  C   UNL     1       1.484  21.269  34.312  1.00  0.00     0.120 A 
ATOM      4  C   UNL     1       3.137  19.615  32.819  1.00  0.00     0.021 A 
ATOM      5  N   UNL     1       2.626  20.762  34.847  1.00  0.00    -0.264 NA
ATOM      6  C   UNL     1       3.451  19.950  34.136  1.00  0.00     0.111 A 
ENDROOT
BRANCH   1   7
ATOM      7  C   UNL     1      -0.117  21.507  32.398  1.00  0.00     0.073 C 
ATOM      8  O   UNL     1      -0.672  20.932  31.425  1.00  0.00    -0.545 OA
ATOM      9  O   UNL     1      -0.690  22.667  32.911  1.00  0.00    -0.545 OA
ENDBRANCH   1   7
TORSDOF 1
ENDMDL
MODEL 4
REMARK VINA RESULT:    -3.884      7.311      8.191
REMARK INTER + INTRA:          -4.130
REMARK INTER:                  -4.113
REMARK INTRA:                  -0.016
REMARK UNBOUND:                -0.019
REMARK SMILES O=C([O-])c1cccnc1
REMARK SMILES IDX 4 1 5 2 9 3 6 4 8 5 7 6 2 7 1 8 3 9
REMARK H PARENT
REMARK Flexibility Score: inf
ROOT
ATOM      1  C   UNL     1      -2.506  19.650  27.244  1.00  0.00     0.016 A 
ATOM      2  C   UNL     1      -1.613  19.400  28.299  1.00  0.00     0.013 A 
ATOM      3  C   UNL     1      -3.313  18.593  26.789  1.00  0.00     0.120 A 
ATOM      4  C   UNL     1      -1.540  18.129  28.871  1.00  0.00     0.021 A 
ATOM      5  N   UNL     1      -3.222  17.363  27.363  1.00  0.00    -0.264 NA
ATOM      6  C   UNL     1      -2.361  17.112  28.383  1.00  0.00     0.111 A 
ENDROOT
BRANCH   1   7
ATOM      7  C   UNL     1      -2.599  20.989  26.626  1.00  0.00     0.073 C 
ATOM      8  O   UNL     1      -3.587  21.736  26.859  1.00  0.00    -0.545 OA
ATOM      9  O   UNL     1      -1.596  21.445  25.777  1.00  0.00    -0.545 OA
ENDBRANCH   1   7
TORSDOF 1
ENDMDL
MODEL 5
REMARK VINA RESULT:    -3.879      2.840      3.707
REMARK INTER + INTRA:          -4.125
REMARK INTER:                  -4.101
REMARK INTRA:                  -0.024
REMARK UNBOUND:                -0.019
REMARK SMILES O=C([O-])c1cccnc1
REMARK SMILES IDX 4 1 5 2 9 3 6 4 8 5 7 6 2 7 1 8 3 9
REMARK H PARENT
REMARK Flexibility Score: inf
ROOT
ATOM      1  C   UNL     1       0.305  22.093  33.665  1.00  0.00     0.016 A 
ATOM      2  C   UNL     1       0.098  21.408  32.457  1.00  0.00     0.013 A 
ATOM      3  C   UNL     1       1.355  21.673  34.500  1.00  0.00     0.120 A 
ATOM      4  C   UNL     1       0.923  20.336  32.108  1.00  0.00     0.021 A 
ATOM      5  N   UNL     1       2.143  20.626  34.137  1.00  0.00    -0.264 NA
ATOM      6  C   UNL     1       1.950  19.956  32.971  1.00  0.00     0.111 A 
ENDROOT
BRANCH   1   7
ATOM      7  C   UNL     1      -0.557  23.231  34.052  1.00  0.00     0.073 C 
ATOM      8  O   UNL     1      -0.346  23.860  35.123  1.00  0.00    -0.545 OA
ATOM      9  O   UNL     1      -1.614  23.623  33.238  1.00  0.00    -0.545 OA
ENDBRANCH   1   7
TORSDOF 1
ENDMDL
MODEL 6
REMARK VINA RESULT:    -3.614     13.058     14.260
REMARK INTER + INTRA:          -3.844
REMARK INTER:                  -3.824
REMARK INTRA:                  -0.020
REMARK UNBOUND:                -0.019
REMARK SMILES O=C([O-])c1cccnc1
REMARK SMILES IDX 4 1 5 2 9 3 6 4 8 5 7 6 2 7 1 8 3 9
REMARK H PARENT
REMARK Flexibility Score: inf
ROOT
ATOM      1  C   UNL     1       8.660  14.572  24.546  1.00  0.00     0.016 A 
ATOM      2  C   UNL     1       9.514  14.855  23.468  1.00  0.00     0.013 A 
ATOM      3  C   UNL     1       9.232  14.134  25.753  1.00  0.00     0.120 A 
ATOM      4  C   UNL     1      10.895  14.700  23.606  1.00  0.00     0.021 A 
ATOM      5  N   UNL     1      10.580  13.991  25.862  1.00  0.00    -0.264 NA
ATOM      6  C   UNL     1      11.414  14.261  24.824  1.00  0.00     0.111 A 
ENDROOT
BRANCH   1   7
ATOM      7  C   UNL     1       7.195  14.731  24.420  1.00  0.00     0.073 C 
ATOM      8  O   UNL     1       6.591  14.312  23.396  1.00  0.00    -0.545 OA
ATOM      9  O   UNL     1       6.463  15.345  25.430  1.00  0.00    -0.545 OA
ENDBRANCH   1   7
TORSDOF 1
ENDMDL
MODEL 7
REMARK VINA RESULT:    -3.530      1.448      2.049
REMARK INTER + INTRA:          -3.755
REMARK INTER:                  -3.733
REMARK INTRA:                  -0.022
REMARK UNBOUND:                -0.019
REMARK SMILES O=C([O-])c1cccnc1
REMARK SMILES IDX 4 1 5 2 9 3 6 4 8 5 7 6 2 7 1 8 3 9
REMARK H PARENT
REMARK Flexibility Score: inf
ROOT
ATOM      1  C   UNL     1       1.972  20.501  33.459  1.00  0.00     0.016 A 
ATOM      2  C   UNL     1       1.241  20.328  32.273  1.00  0.00     0.013 A 
ATOM      3  C   UNL     1       1.547  21.485  34.368  1.00  0.00     0.120 A 
ATOM      4  C   UNL     1       0.122  21.123  32.016  1.00  0.00     0.021 A 
ATOM      5  N   UNL     1       0.454  22.246  34.094  1.00  0.00    -0.264 NA
ATOM      6  C   UNL     1      -0.258  22.088  32.949  1.00  0.00     0.111 A 
ENDROOT
BRANCH   1   7
ATOM      7  C   UNL     1       3.159  19.668  33.750  1.00  0.00     0.073 C 
ATOM      8  O   UNL     1       3.531  19.475  34.938  1.00  0.00    -0.545 OA
ATOM      9  O   UNL     1       3.882  19.085  32.715  1.00  0.00    -0.545 OA
ENDBRANCH   1   7
TORSDOF 1
ENDMDL
MODEL 8
REMARK VINA RESULT:    -3.498      2.285      2.995
REMARK INTER + INTRA:          -3.721
REMARK INTER:                  -3.703
REMARK INTRA:                  -0.018
REMARK UNBOUND:                -0.019
REMARK SMILES O=C([O-])c1cccnc1
REMARK SMILES IDX 4 1 5 2 9 3 6 4 8 5 7 6 2 7 1 8 3 9
REMARK H PARENT
REMARK Flexibility Score: inf
ROOT
ATOM      1  C   UNL     1       3.229  19.372  33.491  1.00  0.00     0.016 A 
ATOM      2  C   UNL     1       2.319  19.442  32.423  1.00  0.00     0.013 A 
ATOM      3  C   UNL     1       3.046  20.240  34.581  1.00  0.00     0.120 A 
ATOM      4  C   UNL     1       1.265  20.357  32.457  1.00  0.00     0.021 A 
ATOM      5  N   UNL     1       2.011  21.122  34.590  1.00  0.00    -0.264 NA
ATOM      6  C   UNL     1       1.128  21.198  33.561  1.00  0.00     0.111 A 
ENDROOT
BRANCH   1   7
ATOM      7  C   UNL     1       4.351  18.409  33.474  1.00  0.00     0.073 C 
ATOM      8  O   UNL     1       5.222  18.456  32.565  1.00  0.00    -0.545 OA
ATOM      9  O   UNL     1       4.460  17.436  34.462  1.00  0.00    -0.545 OA
ENDBRANCH   1   7
TORSDOF 1
ENDMDL
MODEL 9
REMARK VINA RESULT:    -3.466      4.653      5.660
REMARK INTER + INTRA:          -3.687
REMARK INTER:                  -3.669
REMARK INTRA:                  -0.018
REMARK UNBOUND:                -0.019
REMARK SMILES O=C([O-])c1cccnc1
REMARK SMILES IDX 4 1 5 2 9 3 6 4 8 5 7 6 2 7 1 8 3 9
REMARK H PARENT
REMARK Flexibility Score: inf
ROOT
ATOM      1  C   UNL     1       5.080  17.837  33.352  1.00  0.00     0.016 A 
ATOM      2  C   UNL     1       4.546  17.160  34.462  1.00  0.00     0.013 A 
ATOM      3  C   UNL     1       4.345  18.902  32.804  1.00  0.00     0.120 A 
ATOM      4  C   UNL     1       3.315  17.547  34.995  1.00  0.00     0.021 A 
ATOM      5  N   UNL     1       3.148  19.259  33.341  1.00  0.00    -0.264 NA
ATOM      6  C   UNL     1       2.623  18.610  34.413  1.00  0.00     0.111 A 
ENDROOT
BRANCH   1   7
ATOM      7  C   UNL     1       6.382  17.443  32.774  1.00  0.00     0.073 C 
ATOM      8  O   UNL     1       7.322  18.277  32.683  1.00  0.00    -0.545 OA
ATOM      9  O   UNL     1       6.588  16.144  32.322  1.00  0.00    -0.545 OA
ENDBRANCH   1   7
TORSDOF 1
ENDMDL
