MODEL 1
REMARK VINA RESULT:     8.360      0.000      0.000
REMARK INTER + INTRA:          20.294
REMARK INTER:                  22.044
REMARK INTRA:                  -1.750
REMARK UNBOUND:                -1.750
REMARK SMILES CCCCCCCCCCCCCCCCCCCCCCCCCCCCCC(=O)[O-]
REMARK SMILES IDX 16 1 17 2 18 3 19 4 20 5 21 6 22 7 23 8 24 9 25 10 26 11
REMARK SMILES IDX 27 12 28 13 29 14 30 15 31 16 32 17 15 18 14 19 13 20 12 21
REMARK SMILES IDX 11 22 10 23 9 24 8 25 7 26 6 27 5 28 4 29 3 30 2 31 1 32
REMARK H PARENT
REMARK Flexibility Score: inf
ROOT
ATOM      1  C   UNL     1      31.851  18.425  37.031  1.00  0.00     0.000 C 
ENDROOT
BRANCH   1   2
ATOM      2  C   UNL     1      31.716  19.890  36.573  1.00  0.00     0.000 C 
BRANCH   2   3
ATOM      3  C   UNL     1      31.209  20.872  37.646  1.00  0.00     0.000 C 
BRANCH   3   4
ATOM      4  C   UNL     1      32.084  22.131  37.768  1.00  0.00     0.000 C 
BRANCH   4   5
ATOM      5  C   UNL     1      31.553  23.302  36.925  1.00  0.00     0.000 C 
BRANCH   5   6
ATOM      6  C   UNL     1      32.430  23.588  35.693  1.00  0.00     0.000 C 
BRANCH   6   7
ATOM      7  C   UNL     1      32.070  24.912  34.994  1.00  0.00     0.000 C 
BRANCH   7   8
ATOM      8  C   UNL     1      31.983  24.841  33.459  1.00  0.00     0.000 C 
BRANCH   8   9
ATOM      9  C   UNL     1      30.705  24.141  32.963  1.00  0.00     0.000 C 
BRANCH   9  10
ATOM     10  C   UNL     1      29.686  25.120  32.360  1.00  0.00     0.000 C 
BRANCH  10  11
ATOM     11  C   UNL     1      29.621  25.045  30.824  1.00  0.00     0.000 C 
BRANCH  11  12
ATOM     12  C   UNL     1      31.014  25.080  30.176  1.00  0.00     0.000 C 
BRANCH  12  13
ATOM     13  C   UNL     1      31.399  23.734  29.536  1.00  0.00     0.006 C 
BRANCH  13  14
ATOM     14  C   UNL     1      31.878  23.899  28.088  1.00  0.00     0.053 C 
BRANCH  14  15
ATOM     15  C   UNL     1      33.353  23.666  27.954  1.00  0.00     0.041 C 
ATOM     16  O   UNL     1      33.796  22.920  27.040  1.00  0.00    -0.550 OA
ATOM     17  O   UNL     1      34.238  24.255  28.849  1.00  0.00    -0.550 OA
ENDBRANCH  14  15
ENDBRANCH  13  14
ENDBRANCH  12  13
ENDBRANCH  11  12
ENDBRANCH  10  11
ENDBRANCH   9  10
ENDBRANCH   8   9
ENDBRANCH   7   8
ENDBRANCH   6   7
ENDBRANCH   5   6
ENDBRANCH   4   5
ENDBRANCH   3   4
ENDBRANCH   2   3
ENDBRANCH   1   2
BRANCH   1  18
ATOM     18  C   UNL     1      32.246  18.291  38.512  1.00  0.00     0.000 C 
BRANCH  18  19
ATOM     19  C   UNL     1      33.764  18.153  38.709  1.00  0.00     0.000 C 
BRANCH  19  20
ATOM     20  C   UNL     1      34.141  17.089  39.752  1.00  0.00     0.000 C 
BRANCH  20  21
ATOM     21  C   UNL     1      33.673  17.511  41.155  1.00  0.00     0.000 C 
BRANCH  21  22
ATOM     22  C   UNL     1      34.790  17.436  42.207  1.00  0.00     0.000 C 
BRANCH  22  23
ATOM     23  C   UNL     1      34.710  16.165  43.071  1.00  0.00     0.000 C 
BRANCH  23  24
ATOM     24  C   UNL     1      36.084  15.507  43.289  1.00  0.00    -0.000 C 
BRANCH  24  25
ATOM     25  C   UNL     1      36.098  13.969  43.185  1.00  0.00    -0.000 C 
BRANCH  25  26
ATOM     26  C   UNL     1      35.932  13.406  41.760  1.00  0.00    -0.000 C 
BRANCH  26  27
ATOM     27  C   UNL     1      34.643  12.598  41.529  1.00  0.00    -0.000 C 
BRANCH  27  28
ATOM     28  C   UNL     1      33.894  13.024  40.254  1.00  0.00    -0.000 C 
BRANCH  28  29
ATOM     29  C   UNL     1      33.230  11.829  39.534  1.00  0.00    -0.000 C 
BRANCH  29  30
ATOM     30  C   UNL     1      33.216  10.535  40.365  1.00  0.00    -0.000 C 
BRANCH  30  31
ATOM     31  C   UNL     1      33.505   9.285  39.522  1.00  0.00    -0.003 C 
ATOM     32  C   UNL     1      34.955   9.266  39.046  1.00  0.00     0.004 C 
ENDBRANCH  30  31
ENDBRANCH  29  30
ENDBRANCH  28  29
ENDBRANCH  27  28
ENDBRANCH  26  27
ENDBRANCH  25  26
ENDBRANCH  24  25
ENDBRANCH  23  24
ENDBRANCH  22  23
ENDBRANCH  21  22
ENDBRANCH  20  21
ENDBRANCH  19  20
ENDBRANCH  18  19
ENDBRANCH   1  18
TORSDOF 28
ENDMDL
MODEL 2
REMARK VINA RESULT:     9.098      1.550      2.134
REMARK INTER + INTRA:          22.241
REMARK INTER:                  23.205
REMARK INTRA:                  -0.963
REMARK UNBOUND:                -1.750
REMARK SMILES CCCCCCCCCCCCCCCCCCCCCCCCCCCCCC(=O)[O-]
REMARK SMILES IDX 16 1 17 2 18 3 19 4 20 5 21 6 22 7 23 8 24 9 25 10 26 11
REMARK SMILES IDX 27 12 28 13 29 14 30 15 31 16 32 17 15 18 14 19 13 20 12 21
REMARK SMILES IDX 11 22 10 23 9 24 8 25 7 26 6 27 5 28 4 29 3 30 2 31 1 32
REMARK H PARENT
REMARK Flexibility Score: inf
ROOT
ATOM      1  C   UNL     1      31.451  19.865  36.953  1.00  0.00     0.000 C 
ENDROOT
BRANCH   1   2
ATOM      2  C   UNL     1      31.445  20.993  38.002  1.00  0.00     0.000 C 
BRANCH   2   3
ATOM      3  C   UNL     1      31.029  22.379  37.478  1.00  0.00     0.000 C 
BRANCH   3   4
ATOM      4  C   UNL     1      32.213  23.192  36.926  1.00  0.00     0.000 C 
BRANCH   4   5
ATOM      5  C   UNL     1      31.764  24.474  36.206  1.00  0.00     0.000 C 
BRANCH   5   6
ATOM      6  C   UNL     1      32.031  24.425  34.692  1.00  0.00     0.000 C 
BRANCH   6   7
ATOM      7  C   UNL     1      30.932  25.122  33.866  1.00  0.00     0.000 C 
BRANCH   7   8
ATOM      8  C   UNL     1      30.618  24.468  32.509  1.00  0.00     0.000 C 
BRANCH   8   9
ATOM      9  C   UNL     1      31.375  25.123  31.339  1.00  0.00     0.000 C 
BRANCH   9  10
ATOM     10  C   UNL     1      32.610  24.317  30.906  1.00  0.00     0.000 C 
BRANCH  10  11
ATOM     11  C   UNL     1      33.109  24.698  29.500  1.00  0.00     0.000 C 
BRANCH  11  12
ATOM     12  C   UNL     1      32.332  23.978  28.387  1.00  0.00     0.000 C 
BRANCH  12  13
ATOM     13  C   UNL     1      31.973  24.914  27.220  1.00  0.00     0.006 C 
BRANCH  13  14
ATOM     14  C   UNL     1      30.466  24.931  26.935  1.00  0.00     0.053 C 
BRANCH  14  15
ATOM     15  C   UNL     1      29.694  24.139  27.947  1.00  0.00     0.041 C 
ATOM     16  O   UNL     1      29.333  22.960  27.687  1.00  0.00    -0.550 OA
ATOM     17  O   UNL     1      29.356  24.707  29.169  1.00  0.00    -0.550 OA
ENDBRANCH  14  15
ENDBRANCH  13  14
ENDBRANCH  12  13
ENDBRANCH  11  12
ENDBRANCH  10  11
ENDBRANCH   9  10
ENDBRANCH   8   9
ENDBRANCH   7   8
ENDBRANCH   6   7
ENDBRANCH   5   6
ENDBRANCH   4   5
ENDBRANCH   3   4
ENDBRANCH   2   3
ENDBRANCH   1   2
BRANCH   1  18
ATOM     18  C   UNL     1      32.132  18.580  37.454  1.00  0.00     0.000 C 
BRANCH  18  19
ATOM     19  C   UNL     1      32.119  18.462  38.986  1.00  0.00     0.000 C 
BRANCH  19  20
ATOM     20  C   UNL     1      33.496  18.119  39.576  1.00  0.00     0.000 C 
BRANCH  20  21
ATOM     21  C   UNL     1      33.471  18.213  41.110  1.00  0.00     0.000 C 
BRANCH  21  22
ATOM     22  C   UNL     1      34.789  17.766  41.760  1.00  0.00     0.000 C 
BRANCH  22  23
ATOM     23  C   UNL     1      34.663  17.556  43.279  1.00  0.00     0.000 C 
BRANCH  23  24
ATOM     24  C   UNL     1      34.815  16.080  43.689  1.00  0.00    -0.000 C 
BRANCH  24  25
ATOM     25  C   UNL     1      35.970  15.324  43.001  1.00  0.00    -0.000 C 
BRANCH  25  26
ATOM     26  C   UNL     1      35.851  13.787  43.018  1.00  0.00    -0.000 C 
BRANCH  26  27
ATOM     27  C   UNL     1      35.686  13.134  41.635  1.00  0.00    -0.000 C 
BRANCH  27  28
ATOM     28  C   UNL     1      34.259  12.616  41.387  1.00  0.00    -0.000 C 
BRANCH  28  29
ATOM     29  C   UNL     1      34.225  11.100  41.092  1.00  0.00    -0.000 C 
BRANCH  29  30
ATOM     30  C   UNL     1      32.984  10.649  40.305  1.00  0.00    -0.000 C 
BRANCH  30  31
ATOM     31  C   UNL     1      33.127   9.234  39.729  1.00  0.00    -0.003 C 
ATOM     32  C   UNL     1      34.519   9.018  39.141  1.00  0.00     0.004 C 
ENDBRANCH  30  31
ENDBRANCH  29  30
ENDBRANCH  28  29
ENDBRANCH  27  28
ENDBRANCH  26  27
ENDBRANCH  25  26
ENDBRANCH  24  25
ENDBRANCH  23  24
ENDBRANCH  22  23
ENDBRANCH  21  22
ENDBRANCH  20  21
ENDBRANCH  19  20
ENDBRANCH  18  19
ENDBRANCH   1  18
TORSDOF 28
ENDMDL
MODEL 3
REMARK VINA RESULT:     9.591      4.814     13.731
REMARK INTER + INTRA:          23.540
REMARK INTER:                  24.808
REMARK INTRA:                  -1.268
REMARK UNBOUND:                -1.750
REMARK SMILES CCCCCCCCCCCCCCCCCCCCCCCCCCCCCC(=O)[O-]
REMARK SMILES IDX 16 1 17 2 18 3 19 4 20 5 21 6 22 7 23 8 24 9 25 10 26 11
REMARK SMILES IDX 27 12 28 13 29 14 30 15 31 16 32 17 15 18 14 19 13 20 12 21
REMARK SMILES IDX 11 22 10 23 9 24 8 25 7 26 6 27 5 28 4 29 3 30 2 31 1 32
REMARK H PARENT
REMARK Flexibility Score: inf
ROOT
ATOM      1  C   UNL     1      31.975  20.919  36.636  1.00  0.00     0.000 C 
ENDROOT
BRANCH   1   2
ATOM      2  C   UNL     1      31.015  19.953  37.354  1.00  0.00     0.000 C 
BRANCH   2   3
ATOM      3  C   UNL     1      31.595  18.563  37.675  1.00  0.00     0.000 C 
BRANCH   3   4
ATOM      4  C   UNL     1      32.415  18.541  38.977  1.00  0.00     0.000 C 
BRANCH   4   5
ATOM      5  C   UNL     1      33.896  18.207  38.736  1.00  0.00     0.000 C 
BRANCH   5   6
ATOM      6  C   UNL     1      34.400  17.071  39.643  1.00  0.00     0.000 C 
BRANCH   6   7
ATOM      7  C   UNL     1      33.727  17.066  41.028  1.00  0.00     0.000 C 
BRANCH   7   8
ATOM      8  C   UNL     1      34.625  17.514  42.196  1.00  0.00     0.000 C 
BRANCH   8   9
ATOM      9  C   UNL     1      34.651  16.500  43.354  1.00  0.00     0.000 C 
BRANCH   9  10
ATOM     10  C   UNL     1      35.928  15.645  43.366  1.00  0.00     0.000 C 
BRANCH  10  11
ATOM     11  C   UNL     1      35.637  14.134  43.322  1.00  0.00     0.000 C 
BRANCH  11  12
ATOM     12  C   UNL     1      35.768  13.553  41.905  1.00  0.00     0.000 C 
BRANCH  12  13
ATOM     13  C   UNL     1      34.517  12.767  41.474  1.00  0.00     0.006 C 
BRANCH  13  14
ATOM     14  C   UNL     1      34.782  11.889  40.244  1.00  0.00     0.053 C 
BRANCH  14  15
ATOM     15  C   UNL     1      33.771  10.790  40.110  1.00  0.00     0.041 C 
ATOM     16  O   UNL     1      32.552  11.021  40.327  1.00  0.00    -0.550 OA
ATOM     17  O   UNL     1      34.176   9.507  39.764  1.00  0.00    -0.550 OA
ENDBRANCH  14  15
ENDBRANCH  13  14
ENDBRANCH  12  13
ENDBRANCH  11  12
ENDBRANCH  10  11
ENDBRANCH   9  10
ENDBRANCH   8   9
ENDBRANCH   7   8
ENDBRANCH   6   7
ENDBRANCH   5   6
ENDBRANCH   4   5
ENDBRANCH   3   4
ENDBRANCH   2   3
ENDBRANCH   1   2
BRANCH   1  18
ATOM     18  C   UNL     1      31.896  22.358  37.175  1.00  0.00     0.000 C 
BRANCH  18  19
ATOM     19  C   UNL     1      31.727  23.400  36.058  1.00  0.00     0.000 C 
BRANCH  19  20
ATOM     20  C   UNL     1      32.590  23.103  34.822  1.00  0.00     0.000 C 
BRANCH  20  21
ATOM     21  C   UNL     1      33.678  24.175  34.646  1.00  0.00     0.000 C 
BRANCH  21  22
ATOM     22  C   UNL     1      34.902  23.666  33.870  1.00  0.00     0.000 C 
BRANCH  22  23
ATOM     23  C   UNL     1      35.923  24.778  33.573  1.00  0.00     0.000 C 
BRANCH  23  24
ATOM     24  C   UNL     1      36.261  24.890  32.075  1.00  0.00    -0.000 C 
BRANCH  24  25
ATOM     25  C   UNL     1      35.043  24.959  31.133  1.00  0.00    -0.000 C 
BRANCH  25  26
ATOM     26  C   UNL     1      35.378  25.125  29.637  1.00  0.00    -0.000 C 
BRANCH  26  27
ATOM     27  C   UNL     1      34.801  24.033  28.719  1.00  0.00    -0.000 C 
BRANCH  27  28
ATOM     28  C   UNL     1      33.311  24.248  28.401  1.00  0.00    -0.000 C 
BRANCH  28  29
ATOM     29  C   UNL     1      32.506  24.712  29.636  1.00  0.00    -0.000 C 
BRANCH  29  30
ATOM     30  C   UNL     1      31.137  24.026  29.776  1.00  0.00    -0.000 C 
BRANCH  30  31
ATOM     31  C   UNL     1      30.521  23.649  28.422  1.00  0.00    -0.003 C 
ATOM     32  C   UNL     1      29.271  24.476  28.138  1.00  0.00     0.004 C 
ENDBRANCH  30  31
ENDBRANCH  29  30
ENDBRANCH  28  29
ENDBRANCH  27  28
ENDBRANCH  26  27
ENDBRANCH  25  26
ENDBRANCH  24  25
ENDBRANCH  23  24
ENDBRANCH  22  23
ENDBRANCH  21  22
ENDBRANCH  20  21
ENDBRANCH  19  20
ENDBRANCH  18  19
ENDBRANCH   1  18
TORSDOF 28
ENDMDL
MODEL 4
REMARK VINA RESULT:     9.837      4.565     13.856
REMARK INTER + INTRA:          24.189
REMARK INTER:                  25.413
REMARK INTRA:                  -1.225
REMARK UNBOUND:                -1.750
REMARK SMILES CCCCCCCCCCCCCCCCCCCCCCCCCCCCCC(=O)[O-]
REMARK SMILES IDX 16 1 17 2 18 3 19 4 20 5 21 6 22 7 23 8 24 9 25 10 26 11
REMARK SMILES IDX 27 12 28 13 29 14 30 15 31 16 32 17 15 18 14 19 13 20 12 21
REMARK SMILES IDX 11 22 10 23 9 24 8 25 7 26 6 27 5 28 4 29 3 30 2 31 1 32
REMARK H PARENT
REMARK Flexibility Score: inf
ROOT
ATOM      1  C   UNL     1      31.698  20.318  37.038  1.00  0.00     0.000 C 
ENDROOT
BRANCH   1   2
ATOM      2  C   UNL     1      30.763  19.120  37.290  1.00  0.00     0.000 C 
BRANCH   2   3
ATOM      3  C   UNL     1      31.416  17.733  37.149  1.00  0.00     0.000 C 
BRANCH   3   4
ATOM      4  C   UNL     1      32.047  17.231  38.458  1.00  0.00     0.000 C 
BRANCH   4   5
ATOM      5  C   UNL     1      33.308  18.021  38.847  1.00  0.00     0.000 C 
BRANCH   5   6
ATOM      6  C   UNL     1      34.263  17.207  39.737  1.00  0.00     0.000 C 
BRANCH   6   7
ATOM      7  C   UNL     1      33.777  17.096  41.194  1.00  0.00     0.000 C 
BRANCH   7   8
ATOM      8  C   UNL     1      34.890  17.061  42.256  1.00  0.00     0.000 C 
BRANCH   8   9
ATOM      9  C   UNL     1      34.715  15.916  43.270  1.00  0.00     0.000 C 
BRANCH   9  10
ATOM     10  C   UNL     1      35.998  15.090  43.461  1.00  0.00     0.000 C 
BRANCH  10  11
ATOM     11  C   UNL     1      35.859  13.644  42.953  1.00  0.00     0.000 C 
BRANCH  11  12
ATOM     12  C   UNL     1      35.056  13.557  41.645  1.00  0.00     0.000 C 
BRANCH  12  13
ATOM     13  C   UNL     1      35.419  12.314  40.813  1.00  0.00     0.006 C 
BRANCH  13  14
ATOM     14  C   UNL     1      34.485  11.132  41.103  1.00  0.00     0.053 C 
BRANCH  14  15
ATOM     15  C   UNL     1      33.335  11.076  40.143  1.00  0.00     0.041 C 
ATOM     16  O   UNL     1      33.109  12.044  39.369  1.00  0.00    -0.550 OA
ATOM     17  O   UNL     1      32.501   9.966  40.116  1.00  0.00    -0.550 OA
ENDBRANCH  14  15
ENDBRANCH  13  14
ENDBRANCH  12  13
ENDBRANCH  11  12
ENDBRANCH  10  11
ENDBRANCH   9  10
ENDBRANCH   8   9
ENDBRANCH   7   8
ENDBRANCH   6   7
ENDBRANCH   5   6
ENDBRANCH   4   5
ENDBRANCH   3   4
ENDBRANCH   2   3
ENDBRANCH   1   2
BRANCH   1  18
ATOM     18  C   UNL     1      31.583  21.409  38.117  1.00  0.00     0.000 C 
BRANCH  18  19
ATOM     19  C   UNL     1      31.371  22.810  37.522  1.00  0.00     0.000 C 
BRANCH  19  20
ATOM     20  C   UNL     1      31.854  22.926  36.068  1.00  0.00     0.000 C 
BRANCH  20  21
ATOM     21  C   UNL     1      31.327  24.217  35.420  1.00  0.00     0.000 C 
BRANCH  21  22
ATOM     22  C   UNL     1      32.198  24.700  34.251  1.00  0.00     0.000 C 
BRANCH  22  23
ATOM     23  C   UNL     1      31.577  24.390  32.878  1.00  0.00     0.000 C 
BRANCH  23  24
ATOM     24  C   UNL     1      32.286  25.124  31.726  1.00  0.00    -0.000 C 
BRANCH  24  25
ATOM     25  C   UNL     1      31.675  24.895  30.329  1.00  0.00    -0.000 C 
BRANCH  25  26
ATOM     26  C   UNL     1      32.666  24.998  29.153  1.00  0.00    -0.000 C 
BRANCH  26  27
ATOM     27  C   UNL     1      33.568  23.767  28.956  1.00  0.00    -0.000 C 
BRANCH  27  28
ATOM     28  C   UNL     1      33.965  23.550  27.485  1.00  0.00    -0.000 C 
BRANCH  28  29
ATOM     29  C   UNL     1      35.395  24.051  27.181  1.00  0.00    -0.000 C 
BRANCH  29  30
ATOM     30  C   UNL     1      36.043  24.819  28.346  1.00  0.00    -0.000 C 
BRANCH  30  31
ATOM     31  C   UNL     1      36.997  23.947  29.173  1.00  0.00    -0.003 C 
ATOM     32  C   UNL     1      36.920  24.302  30.655  1.00  0.00     0.004 C 
ENDBRANCH  30  31
ENDBRANCH  29  30
ENDBRANCH  28  29
ENDBRANCH  27  28
ENDBRANCH  26  27
ENDBRANCH  25  26
ENDBRANCH  24  25
ENDBRANCH  23  24
ENDBRANCH  22  23
ENDBRANCH  21  22
ENDBRANCH  20  21
ENDBRANCH  19  20
ENDBRANCH  18  19
ENDBRANCH   1  18
TORSDOF 28
ENDMDL
MODEL 5
REMARK VINA RESULT:    10.121      4.768     13.888
REMARK INTER + INTRA:          24.938
REMARK INTER:                  26.350
REMARK INTRA:                  -1.411
REMARK UNBOUND:                -1.750
REMARK SMILES CCCCCCCCCCCCCCCCCCCCCCCCCCCCCC(=O)[O-]
REMARK SMILES IDX 16 1 17 2 18 3 19 4 20 5 21 6 22 7 23 8 24 9 25 10 26 11
REMARK SMILES IDX 27 12 28 13 29 14 30 15 31 16 32 17 15 18 14 19 13 20 12 21
REMARK SMILES IDX 11 22 10 23 9 24 8 25 7 26 6 27 5 28 4 29 3 30 2 31 1 32
REMARK H PARENT
REMARK Flexibility Score: inf
ROOT
ATOM      1  C   UNL     1      31.198  19.665  36.982  1.00  0.00     0.000 C 
ENDROOT
BRANCH   1   2
ATOM      2  C   UNL     1      31.659  19.090  38.335  1.00  0.00     0.000 C 
BRANCH   2   3
ATOM      3  C   UNL     1      32.524  17.819  38.250  1.00  0.00     0.000 C 
BRANCH   3   4
ATOM      4  C   UNL     1      33.847  17.940  39.026  1.00  0.00     0.000 C 
BRANCH   4   5
ATOM      5  C   UNL     1      33.834  17.151  40.344  1.00  0.00     0.000 C 
BRANCH   5   6
ATOM      6  C   UNL     1      33.693  18.061  41.576  1.00  0.00     0.000 C 
BRANCH   6   7
ATOM      7  C   UNL     1      34.493  17.554  42.791  1.00  0.00     0.000 C 
BRANCH   7   8
ATOM      8  C   UNL     1      35.401  16.342  42.519  1.00  0.00     0.000 C 
BRANCH   8   9
ATOM      9  C   UNL     1      35.306  15.265  43.615  1.00  0.00     0.000 C 
BRANCH   9  10
ATOM     10  C   UNL     1      36.142  14.015  43.294  1.00  0.00     0.000 C 
BRANCH  10  11
ATOM     11  C   UNL     1      36.083  13.622  41.807  1.00  0.00     0.000 C 
BRANCH  11  12
ATOM     12  C   UNL     1      34.859  12.751  41.480  1.00  0.00     0.000 C 
BRANCH  12  13
ATOM     13  C   UNL     1      34.154  13.192  40.185  1.00  0.00     0.006 C 
BRANCH  13  14
ATOM     14  C   UNL     1      33.461  12.021  39.477  1.00  0.00     0.053 C 
BRANCH  14  15
ATOM     15  C   UNL     1      33.356  10.814  40.360  1.00  0.00     0.041 C 
ATOM     16  O   UNL     1      33.955   9.749  40.051  1.00  0.00    -0.550 OA
ATOM     17  O   UNL     1      32.582  10.857  41.513  1.00  0.00    -0.550 OA
ENDBRANCH  14  15
ENDBRANCH  13  14
ENDBRANCH  12  13
ENDBRANCH  11  12
ENDBRANCH  10  11
ENDBRANCH   9  10
ENDBRANCH   8   9
ENDBRANCH   7   8
ENDBRANCH   6   7
ENDBRANCH   5   6
ENDBRANCH   4   5
ENDBRANCH   3   4
ENDBRANCH   2   3
ENDBRANCH   1   2
BRANCH   1  18
ATOM     18  C   UNL     1      31.895  20.988  36.622  1.00  0.00     0.000 C 
BRANCH  18  19
ATOM     19  C   UNL     1      31.266  22.200  37.328  1.00  0.00     0.000 C 
BRANCH  19  20
ATOM     20  C   UNL     1      31.378  23.497  36.512  1.00  0.00     0.000 C 
BRANCH  20  21
ATOM     21  C   UNL     1      32.238  23.278  35.256  1.00  0.00     0.000 C 
BRANCH  21  22
ATOM     22  C   UNL     1      32.850  24.579  34.714  1.00  0.00     0.000 C 
BRANCH  22  23
ATOM     23  C   UNL     1      34.210  24.357  34.031  1.00  0.00     0.000 C 
BRANCH  23  24
ATOM     24  C   UNL     1      34.187  24.705  32.532  1.00  0.00    -0.000 C 
BRANCH  24  25
ATOM     25  C   UNL     1      32.785  24.740  31.889  1.00  0.00    -0.000 C 
BRANCH  25  26
ATOM     26  C   UNL     1      32.757  25.124  30.397  1.00  0.00    -0.000 C 
BRANCH  26  27
ATOM     27  C   UNL     1      33.534  24.174  29.469  1.00  0.00    -0.000 C 
BRANCH  27  28
ATOM     28  C   UNL     1      32.657  23.585  28.350  1.00  0.00    -0.000 C 
BRANCH  28  29
ATOM     29  C   UNL     1      31.830  24.665  27.618  1.00  0.00    -0.000 C 
BRANCH  29  30
ATOM     30  C   UNL     1      30.590  24.112  26.896  1.00  0.00    -0.000 C 
BRANCH  30  31
ATOM     31  C   UNL     1      29.312  24.230  27.739  1.00  0.00    -0.003 C 
ATOM     32  C   UNL     1      29.598  24.894  29.083  1.00  0.00     0.004 C 
ENDBRANCH  30  31
ENDBRANCH  29  30
ENDBRANCH  28  29
ENDBRANCH  27  28
ENDBRANCH  26  27
ENDBRANCH  25  26
ENDBRANCH  24  25
ENDBRANCH  23  24
ENDBRANCH  22  23
ENDBRANCH  21  22
ENDBRANCH  20  21
ENDBRANCH  19  20
ENDBRANCH  18  19
ENDBRANCH   1  18
TORSDOF 28
ENDMDL
MODEL 6
REMARK VINA RESULT:    10.701      4.776     13.813
REMARK INTER + INTRA:          26.469
REMARK INTER:                  28.031
REMARK INTRA:                  -1.563
REMARK UNBOUND:                -1.750
REMARK SMILES CCCCCCCCCCCCCCCCCCCCCCCCCCCCCC(=O)[O-]
REMARK SMILES IDX 16 1 17 2 18 3 19 4 20 5 21 6 22 7 23 8 24 9 25 10 26 11
REMARK SMILES IDX 27 12 28 13 29 14 30 15 31 16 32 17 15 18 14 19 13 20 12 21
REMARK SMILES IDX 11 22 10 23 9 24 8 25 7 26 6 27 5 28 4 29 3 30 2 31 1 32
REMARK H PARENT
REMARK Flexibility Score: inf
ROOT
ATOM      1  C   UNL     1      31.671  19.352  36.643  1.00  0.00     0.000 C 
ENDROOT
BRANCH   1   2
ATOM      2  C   UNL     1      31.967  19.020  38.118  1.00  0.00     0.000 C 
BRANCH   2   3
ATOM      3  C   UNL     1      32.997  17.900  38.348  1.00  0.00     0.000 C 
BRANCH   3   4
ATOM      4  C   UNL     1      33.895  18.152  39.572  1.00  0.00     0.000 C 
BRANCH   4   5
ATOM      5  C   UNL     1      33.797  17.029  40.618  1.00  0.00     0.000 C 
BRANCH   5   6
ATOM      6  C   UNL     1      33.573  17.567  42.041  1.00  0.00     0.000 C 
BRANCH   6   7
ATOM      7  C   UNL     1      34.741  17.247  42.994  1.00  0.00     0.000 C 
BRANCH   7   8
ATOM      8  C   UNL     1      35.648  16.085  42.551  1.00  0.00     0.000 C 
BRANCH   8   9
ATOM      9  C   UNL     1      35.875  15.045  43.663  1.00  0.00     0.000 C 
BRANCH   9  10
ATOM     10  C   UNL     1      35.594  13.607  43.199  1.00  0.00     0.000 C 
BRANCH  10  11
ATOM     11  C   UNL     1      36.092  13.332  41.768  1.00  0.00     0.000 C 
BRANCH  11  12
ATOM     12  C   UNL     1      35.006  13.586  40.711  1.00  0.00     0.000 C 
BRANCH  12  13
ATOM     13  C   UNL     1      34.912  12.448  39.679  1.00  0.00     0.006 C 
BRANCH  13  14
ATOM     14  C   UNL     1      33.496  11.863  39.591  1.00  0.00     0.053 C 
BRANCH  14  15
ATOM     15  C   UNL     1      33.243  10.842  40.659  1.00  0.00     0.041 C 
ATOM     16  O   UNL     1      32.804   9.702  40.353  1.00  0.00    -0.550 OA
ATOM     17  O   UNL     1      33.472  11.155  41.993  1.00  0.00    -0.550 OA
ENDBRANCH  14  15
ENDBRANCH  13  14
ENDBRANCH  12  13
ENDBRANCH  11  12
ENDBRANCH  10  11
ENDBRANCH   9  10
ENDBRANCH   8   9
ENDBRANCH   7   8
ENDBRANCH   6   7
ENDBRANCH   5   6
ENDBRANCH   4   5
ENDBRANCH   3   4
ENDBRANCH   2   3
ENDBRANCH   1   2
BRANCH   1  18
ATOM     18  C   UNL     1      31.809  20.850  36.323  1.00  0.00     0.000 C 
BRANCH  18  19
ATOM     19  C   UNL     1      31.725  21.733  37.578  1.00  0.00     0.000 C 
BRANCH  19  20
ATOM     20  C   UNL     1      31.429  23.207  37.258  1.00  0.00     0.000 C 
BRANCH  20  21
ATOM     21  C   UNL     1      32.357  23.720  36.145  1.00  0.00     0.000 C 
BRANCH  21  22
ATOM     22  C   UNL     1      31.594  24.178  34.892  1.00  0.00     0.000 C 
BRANCH  22  23
ATOM     23  C   UNL     1      32.448  25.056  33.962  1.00  0.00     0.000 C 
BRANCH  23  24
ATOM     24  C   UNL     1      31.890  25.123  32.530  1.00  0.00    -0.000 C 
BRANCH  24  25
ATOM     25  C   UNL     1      30.587  24.332  32.296  1.00  0.00    -0.000 C 
BRANCH  25  26
ATOM     26  C   UNL     1      30.382  23.814  30.859  1.00  0.00    -0.000 C 
BRANCH  26  27
ATOM     27  C   UNL     1      30.097  24.905  29.812  1.00  0.00    -0.000 C 
BRANCH  27  28
ATOM     28  C   UNL     1      31.228  25.050  28.779  1.00  0.00    -0.000 C 
BRANCH  28  29
ATOM     29  C   UNL     1      31.637  23.695  28.159  1.00  0.00    -0.000 C 
BRANCH  29  30
ATOM     30  C   UNL     1      33.148  23.416  28.221  1.00  0.00    -0.000 C 
BRANCH  30  31
ATOM     31  C   UNL     1      33.934  24.553  28.887  1.00  0.00    -0.003 C 
ATOM     32  C   UNL     1      35.429  24.246  28.915  1.00  0.00     0.004 C 
ENDBRANCH  30  31
ENDBRANCH  29  30
ENDBRANCH  28  29
ENDBRANCH  27  28
ENDBRANCH  26  27
ENDBRANCH  25  26
ENDBRANCH  24  25
ENDBRANCH  23  24
ENDBRANCH  22  23
ENDBRANCH  21  22
ENDBRANCH  20  21
ENDBRANCH  19  20
ENDBRANCH  18  19
ENDBRANCH   1  18
TORSDOF 28
ENDMDL
