MODEL 1
REMARK VINA RESULT:    -3.301      0.000      0.000
REMARK INTER + INTRA:          -4.495
REMARK INTER:                  -4.266
REMARK INTRA:                  -0.230
REMARK UNBOUND:                -0.230
REMARK SMILES CCCCCCC(=O)[O-]
REMARK SMILES IDX 5 1 6 2 7 3 8 4 9 5 4 6 3 7 2 8 1 9
REMARK H PARENT
REMARK Flexibility Score: inf
ROOT
ATOM      1  C   UNL     1     -20.210  20.254  42.357  1.00  0.00     0.006 C 
ENDROOT
BRANCH   1   2
ATOM      2  C   UNL     1     -18.754  20.403  41.905  1.00  0.00     0.053 C 
BRANCH   2   3
ATOM      3  C   UNL     1     -17.828  20.293  43.074  1.00  0.00     0.041 C 
ATOM      4  O   UNL     1     -17.549  21.312  43.760  1.00  0.00    -0.550 OA
ATOM      5  O   UNL     1     -17.312  19.056  43.438  1.00  0.00    -0.550 OA
ENDBRANCH   2   3
ENDBRANCH   1   2
BRANCH   1   6
ATOM      6  C   UNL     1     -21.104  21.305  41.690  1.00  0.00     0.000 C 
BRANCH   6   7
ATOM      7  C   UNL     1     -20.356  22.022  40.556  1.00  0.00    -0.000 C 
BRANCH   7   8
ATOM      8  C   UNL     1     -21.222  22.201  39.298  1.00  0.00    -0.003 C 
ATOM      9  C   UNL     1     -22.699  21.900  39.550  1.00  0.00     0.004 C 
ENDBRANCH   7   8
ENDBRANCH   6   7
ENDBRANCH   1   6
TORSDOF 5
ENDMDL
MODEL 2
REMARK VINA RESULT:    -3.275      2.834      4.017
REMARK INTER + INTRA:          -4.462
REMARK INTER:                  -4.320
REMARK INTRA:                  -0.142
REMARK UNBOUND:                -0.230
REMARK SMILES CCCCCCC(=O)[O-]
REMARK SMILES IDX 5 1 6 2 7 3 8 4 9 5 4 6 3 7 2 8 1 9
REMARK H PARENT
REMARK Flexibility Score: inf
ROOT
ATOM      1  C   UNL     1     -17.272  18.554  42.119  1.00  0.00     0.006 C 
ENDROOT
BRANCH   1   2
ATOM      2  C   UNL     1     -17.080  17.642  40.902  1.00  0.00     0.053 C 
BRANCH   2   3
ATOM      3  C   UNL     1     -16.746  16.251  41.337  1.00  0.00     0.041 C 
ATOM      4  O   UNL     1     -16.471  15.368  40.481  1.00  0.00    -0.550 OA
ATOM      5  O   UNL     1     -16.689  15.940  42.689  1.00  0.00    -0.550 OA
ENDBRANCH   2   3
ENDBRANCH   1   2
BRANCH   1   6
ATOM      6  C   UNL     1     -17.639  19.978  41.687  1.00  0.00     0.000 C 
BRANCH   6   7
ATOM      7  C   UNL     1     -18.681  20.588  42.638  1.00  0.00    -0.000 C 
BRANCH   7   8
ATOM      8  C   UNL     1     -20.123  20.255  42.224  1.00  0.00    -0.003 C 
ATOM      9  C   UNL     1     -20.727  21.301  41.289  1.00  0.00     0.004 C 
ENDBRANCH   7   8
ENDBRANCH   6   7
ENDBRANCH   1   6
TORSDOF 5
ENDMDL
MODEL 3
REMARK VINA RESULT:    -3.243      4.088      5.507
REMARK INTER + INTRA:          -4.421
REMARK INTER:                  -4.239
REMARK INTRA:                  -0.182
REMARK UNBOUND:                -0.230
REMARK SMILES CCCCCCC(=O)[O-]
REMARK SMILES IDX 5 1 6 2 7 3 8 4 9 5 4 6 3 7 2 8 1 9
REMARK H PARENT
REMARK Flexibility Score: inf
ROOT
ATOM      1  C   UNL     1     -22.596  22.077  39.779  1.00  0.00     0.006 C 
ENDROOT
BRANCH   1   2
ATOM      2  C   UNL     1     -21.491  22.135  38.719  1.00  0.00     0.053 C 
BRANCH   2   3
ATOM      3  C   UNL     1     -21.985  21.592  37.416  1.00  0.00     0.041 C 
ATOM      4  O   UNL     1     -22.911  20.738  37.396  1.00  0.00    -0.550 OA
ATOM      5  O   UNL     1     -21.458  22.066  36.222  1.00  0.00    -0.550 OA
ENDBRANCH   2   3
ENDBRANCH   1   2
BRANCH   1   6
ATOM      6  C   UNL     1     -22.027  22.314  41.182  1.00  0.00     0.000 C 
BRANCH   6   7
ATOM      7  C   UNL     1     -20.568  21.841  41.270  1.00  0.00    -0.000 C 
BRANCH   7   8
ATOM      8  C   UNL     1     -20.423  20.516  42.035  1.00  0.00    -0.003 C 
ATOM      9  C   UNL     1     -18.970  20.058  42.154  1.00  0.00     0.004 C 
ENDBRANCH   7   8
ENDBRANCH   6   7
ENDBRANCH   1   6
TORSDOF 5
ENDMDL
MODEL 4
REMARK VINA RESULT:    -3.232      3.522      5.012
REMARK INTER + INTRA:          -4.407
REMARK INTER:                  -4.210
REMARK INTRA:                  -0.197
REMARK UNBOUND:                -0.230
REMARK SMILES CCCCCCC(=O)[O-]
REMARK SMILES IDX 5 1 6 2 7 3 8 4 9 5 4 6 3 7 2 8 1 9
REMARK H PARENT
REMARK Flexibility Score: inf
ROOT
ATOM      1  C   UNL     1     -21.215  21.592  41.390  1.00  0.00     0.006 C 
ENDROOT
BRANCH   1   2
ATOM      2  C   UNL     1     -20.845  22.284  40.074  1.00  0.00     0.053 C 
BRANCH   2   3
ATOM      3  C   UNL     1     -21.845  21.958  39.011  1.00  0.00     0.041 C 
ATOM      4  O   UNL     1     -23.027  21.655  39.324  1.00  0.00    -0.550 OA
ATOM      5  O   UNL     1     -21.486  22.036  37.672  1.00  0.00    -0.550 OA
ENDBRANCH   2   3
ENDBRANCH   1   2
BRANCH   1   6
ATOM      6  C   UNL     1     -20.179  20.524  41.761  1.00  0.00     0.000 C 
BRANCH   6   7
ATOM      7  C   UNL     1     -18.883  21.171  42.272  1.00  0.00    -0.000 C 
BRANCH   7   8
ATOM      8  C   UNL     1     -17.624  20.514  41.684  1.00  0.00    -0.003 C 
ATOM      9  C   UNL     1     -17.724  18.991  41.626  1.00  0.00     0.004 C 
ENDBRANCH   7   8
ENDBRANCH   6   7
ENDBRANCH   1   6
TORSDOF 5
ENDMDL
MODEL 5
REMARK VINA RESULT:    -3.220      3.532      5.272
REMARK INTER + INTRA:          -4.391
REMARK INTER:                  -4.214
REMARK INTRA:                  -0.177
REMARK UNBOUND:                -0.230
REMARK SMILES CCCCCCC(=O)[O-]
REMARK SMILES IDX 5 1 6 2 7 3 8 4 9 5 4 6 3 7 2 8 1 9
REMARK H PARENT
REMARK Flexibility Score: inf
ROOT
ATOM      1  C   UNL     1     -17.408  18.903  42.273  1.00  0.00     0.006 C 
ENDROOT
BRANCH   1   2
ATOM      2  C   UNL     1     -17.492  20.381  41.879  1.00  0.00     0.053 C 
BRANCH   2   3
ATOM      3  C   UNL     1     -18.911  20.774  41.618  1.00  0.00     0.041 C 
ATOM      4  O   UNL     1     -19.173  21.705  40.811  1.00  0.00    -0.550 OA
ATOM      5  O   UNL     1     -19.948  20.078  42.227  1.00  0.00    -0.550 OA
ENDBRANCH   2   3
ENDBRANCH   1   2
BRANCH   1   6
ATOM      6  C   UNL     1     -17.274  18.009  41.034  1.00  0.00     0.000 C 
BRANCH   6   7
ATOM      7  C   UNL     1     -16.683  16.641  41.405  1.00  0.00    -0.000 C 
BRANCH   7   8
ATOM      8  C   UNL     1     -15.992  15.955  40.216  1.00  0.00    -0.003 C 
ATOM      9  C   UNL     1     -15.389  16.952  39.227  1.00  0.00     0.004 C 
ENDBRANCH   7   8
ENDBRANCH   6   7
ENDBRANCH   1   6
TORSDOF 5
ENDMDL
MODEL 6
REMARK VINA RESULT:    -3.152     16.564     18.163
REMARK INTER + INTRA:          -4.303
REMARK INTER:                  -4.117
REMARK INTRA:                  -0.186
REMARK UNBOUND:                -0.230
REMARK SMILES CCCCCCC(=O)[O-]
REMARK SMILES IDX 5 1 6 2 7 3 8 4 9 5 4 6 3 7 2 8 1 9
REMARK H PARENT
REMARK Flexibility Score: inf
ROOT
ATOM      1  C   UNL     1      -5.677  31.584  47.281  1.00  0.00     0.006 C 
ENDROOT
BRANCH   1   2
ATOM      2  C   UNL     1      -6.429  32.708  48.001  1.00  0.00     0.053 C 
BRANCH   2   3
ATOM      3  C   UNL     1      -5.521  33.422  48.950  1.00  0.00     0.041 C 
ATOM      4  O   UNL     1      -4.375  33.790  48.576  1.00  0.00    -0.550 OA
ATOM      5  O   UNL     1      -5.957  33.726  50.233  1.00  0.00    -0.550 OA
ENDBRANCH   2   3
ENDBRANCH   1   2
BRANCH   1   6
ATOM      6  C   UNL     1      -6.477  30.276  47.317  1.00  0.00     0.000 C 
BRANCH   6   7
ATOM      7  C   UNL     1      -7.948  30.522  46.949  1.00  0.00    -0.000 C 
BRANCH   7   8
ATOM      8  C   UNL     1      -8.392  29.712  45.720  1.00  0.00    -0.003 C 
ATOM      9  C   UNL     1      -7.544  28.460  45.500  1.00  0.00     0.004 C 
ENDBRANCH   7   8
ENDBRANCH   6   7
ENDBRANCH   1   6
TORSDOF 5
ENDMDL
MODEL 7
REMARK VINA RESULT:    -3.144      1.670      2.296
REMARK INTER + INTRA:          -4.293
REMARK INTER:                  -4.008
REMARK INTRA:                  -0.285
REMARK UNBOUND:                -0.230
REMARK SMILES CCCCCCC(=O)[O-]
REMARK SMILES IDX 5 1 6 2 7 3 8 4 9 5 4 6 3 7 2 8 1 9
REMARK H PARENT
REMARK Flexibility Score: inf
ROOT
ATOM      1  C   UNL     1     -20.395  20.353  42.063  1.00  0.00     0.006 C 
ENDROOT
BRANCH   1   2
ATOM      2  C   UNL     1     -19.048  20.438  42.788  1.00  0.00     0.053 C 
BRANCH   2   3
ATOM      3  C   UNL     1     -17.936  20.021  41.878  1.00  0.00     0.041 C 
ATOM      4  O   UNL     1     -17.899  18.849  41.418  1.00  0.00    -0.550 OA
ATOM      5  O   UNL     1     -16.968  20.942  41.497  1.00  0.00    -0.550 OA
ENDBRANCH   2   3
ENDBRANCH   1   2
BRANCH   1   6
ATOM      6  C   UNL     1     -20.504  21.429  40.976  1.00  0.00     0.000 C 
BRANCH   6   7
ATOM      7  C   UNL     1     -21.876  22.117  41.020  1.00  0.00    -0.000 C 
BRANCH   7   8
ATOM      8  C   UNL     1     -21.814  23.518  41.648  1.00  0.00    -0.003 C 
ATOM      9  C   UNL     1     -20.390  24.068  41.727  1.00  0.00     0.004 C 
ENDBRANCH   7   8
ENDBRANCH   6   7
ENDBRANCH   1   6
TORSDOF 5
ENDMDL
MODEL 8
REMARK VINA RESULT:    -3.133     17.036     18.623
REMARK INTER + INTRA:          -4.279
REMARK INTER:                  -4.084
REMARK INTRA:                  -0.195
REMARK UNBOUND:                -0.230
REMARK SMILES CCCCCCC(=O)[O-]
REMARK SMILES IDX 5 1 6 2 7 3 8 4 9 5 4 6 3 7 2 8 1 9
REMARK H PARENT
REMARK Flexibility Score: inf
ROOT
ATOM      1  C   UNL     1      -5.841  31.510  47.431  1.00  0.00     0.006 C 
ENDROOT
BRANCH   1   2
ATOM      2  C   UNL     1      -6.403  30.101  47.221  1.00  0.00     0.053 C 
BRANCH   2   3
ATOM      3  C   UNL     1      -5.311  29.153  46.838  1.00  0.00     0.041 C 
ATOM      4  O   UNL     1      -4.121  29.557  46.756  1.00  0.00    -0.550 OA
ATOM      5  O   UNL     1      -5.600  27.812  46.619  1.00  0.00    -0.550 OA
ENDBRANCH   2   3
ENDBRANCH   1   2
BRANCH   1   6
ATOM      6  C   UNL     1      -6.922  32.573  47.205  1.00  0.00     0.000 C 
BRANCH   6   7
ATOM      7  C   UNL     1      -6.667  33.811  48.079  1.00  0.00    -0.000 C 
BRANCH   7   8
ATOM      8  C   UNL     1      -5.523  33.598  49.083  1.00  0.00    -0.003 C 
ATOM      9  C   UNL     1      -5.955  33.835  50.530  1.00  0.00     0.004 C 
ENDBRANCH   7   8
ENDBRANCH   6   7
ENDBRANCH   1   6
TORSDOF 5
ENDMDL
MODEL 9
REMARK VINA RESULT:    -3.128      2.084      2.817
REMARK INTER + INTRA:          -4.273
REMARK INTER:                  -4.094
REMARK INTRA:                  -0.178
REMARK UNBOUND:                -0.230
REMARK SMILES CCCCCCC(=O)[O-]
REMARK SMILES IDX 5 1 6 2 7 3 8 4 9 5 4 6 3 7 2 8 1 9
REMARK H PARENT
REMARK Flexibility Score: inf
ROOT
ATOM      1  C   UNL     1     -21.728  22.080  40.941  1.00  0.00     0.006 C 
ENDROOT
BRANCH   1   2
ATOM      2  C   UNL     1     -20.280  21.863  40.490  1.00  0.00     0.053 C 
BRANCH   2   3
ATOM      3  C   UNL     1     -19.555  20.987  41.461  1.00  0.00     0.041 C 
ATOM      4  O   UNL     1     -18.303  21.073  41.580  1.00  0.00    -0.550 OA
ATOM      5  O   UNL     1     -20.265  20.110  42.270  1.00  0.00    -0.550 OA
ENDBRANCH   2   3
ENDBRANCH   1   2
BRANCH   1   6
ATOM      6  C   UNL     1     -22.699  21.940  39.763  1.00  0.00     0.000 C 
BRANCH   6   7
ATOM      7  C   UNL     1     -21.936  21.808  38.436  1.00  0.00    -0.000 C 
BRANCH   7   8
ATOM      8  C   UNL     1     -22.758  21.094  37.351  1.00  0.00    -0.003 C 
ATOM      9  C   UNL     1     -22.173  21.275  35.951  1.00  0.00     0.004 C 
ENDBRANCH   7   8
ENDBRANCH   6   7
ENDBRANCH   1   6
TORSDOF 5
ENDMDL
