MODEL 1
REMARK VINA RESULT:    -4.258      0.000      0.000
REMARK INTER + INTRA:          -9.047
REMARK INTER:                  -7.246
REMARK INTRA:                  -1.801
REMARK UNBOUND:                -1.801
REMARK SMILES CCCCCCCCCCCCCC(=O)[O-]
REMARK SMILES IDX 8 1 9 2 10 3 11 4 12 5 13 6 14 7 15 8 16 9 7 10 6 11 5 12
REMARK SMILES IDX 4 13 3 14 2 15 1 16
REMARK H PARENT
REMARK Flexibility Score: inf
ROOT
ATOM      1  C   UNL     1      15.614 -34.745  20.568  1.00  0.00     0.000 C 
ENDROOT
BRANCH   1   2
ATOM      2  C   UNL     1      14.627 -33.627  20.185  1.00  0.00     0.000 C 
BRANCH   2   3
ATOM      3  C   UNL     1      14.251 -32.743  21.394  1.00  0.00     0.000 C 
BRANCH   3   4
ATOM      4  C   UNL     1      13.660 -31.380  20.997  1.00  0.00     0.000 C 
BRANCH   4   5
ATOM      5  C   UNL     1      12.616 -30.865  22.002  1.00  0.00     0.006 C 
BRANCH   5   6
ATOM      6  C   UNL     1      13.263 -30.163  23.203  1.00  0.00     0.053 C 
BRANCH   6   7
ATOM      7  C   UNL     1      12.524 -28.915  23.580  1.00  0.00     0.041 C 
ATOM      8  O   UNL     1      11.335 -28.744  23.201  1.00  0.00    -0.550 OA
ATOM      9  O   UNL     1      13.160 -27.926  24.319  1.00  0.00    -0.550 OA
ENDBRANCH   6   7
ENDBRANCH   5   6
ENDBRANCH   4   5
ENDBRANCH   3   4
ENDBRANCH   2   3
ENDBRANCH   1   2
BRANCH   1  10
ATOM     10  C   UNL     1      16.205 -34.557  21.974  1.00  0.00     0.000 C 
BRANCH  10  11
ATOM     11  C   UNL     1      17.740 -34.611  21.984  1.00  0.00    -0.000 C 
BRANCH  11  12
ATOM     12  C   UNL     1      18.326 -33.774  20.837  1.00  0.00    -0.000 C 
BRANCH  12  13
ATOM     13  C   UNL     1      18.675 -32.337  21.262  1.00  0.00    -0.000 C 
BRANCH  13  14
ATOM     14  C   UNL     1      17.616 -31.274  20.906  1.00  0.00    -0.000 C 
BRANCH  14  15
ATOM     15  C   UNL     1      17.212 -30.345  22.064  1.00  0.00    -0.003 C 
ATOM     16  C   UNL     1      16.913 -31.103  23.358  1.00  0.00     0.004 C 
ENDBRANCH  14  15
ENDBRANCH  13  14
ENDBRANCH  12  13
ENDBRANCH  11  12
ENDBRANCH  10  11
ENDBRANCH   1  10
TORSDOF 12
ENDMDL
MODEL 2
REMARK VINA RESULT:    -4.258      3.289      5.220
REMARK INTER + INTRA:          -9.045
REMARK INTER:                  -7.126
REMARK INTRA:                  -1.919
REMARK UNBOUND:                -1.801
REMARK SMILES CCCCCCCCCCCCCC(=O)[O-]
REMARK SMILES IDX 8 1 9 2 10 3 11 4 12 5 13 6 14 7 15 8 16 9 7 10 6 11 5 12
REMARK SMILES IDX 4 13 3 14 2 15 1 16
REMARK H PARENT
REMARK Flexibility Score: inf
ROOT
ATOM      1  C   UNL     1      13.454 -30.279  24.115  1.00  0.00     0.000 C 
ENDROOT
BRANCH   1   2
ATOM      2  C   UNL     1      13.479 -31.694  23.509  1.00  0.00     0.000 C 
BRANCH   2   3
ATOM      3  C   UNL     1      14.038 -32.740  24.497  1.00  0.00     0.000 C 
BRANCH   3   4
ATOM      4  C   UNL     1      15.077 -33.684  23.869  1.00  0.00     0.000 C 
BRANCH   4   5
ATOM      5  C   UNL     1      15.233 -33.479  22.353  1.00  0.00     0.006 C 
BRANCH   5   6
ATOM      6  C   UNL     1      15.935 -34.664  21.676  1.00  0.00     0.053 C 
BRANCH   6   7
ATOM      7  C   UNL     1      15.647 -34.712  20.207  1.00  0.00     0.041 C 
ATOM      8  O   UNL     1      14.702 -34.036  19.723  1.00  0.00    -0.550 OA
ATOM      9  O   UNL     1      16.401 -35.533  19.376  1.00  0.00    -0.550 OA
ENDBRANCH   6   7
ENDBRANCH   5   6
ENDBRANCH   4   5
ENDBRANCH   3   4
ENDBRANCH   2   3
ENDBRANCH   1   2
BRANCH   1  10
ATOM     10  C   UNL     1      13.797 -29.189  23.088  1.00  0.00     0.000 C 
BRANCH  10  11
ATOM     11  C   UNL     1      14.604 -29.728  21.898  1.00  0.00    -0.000 C 
BRANCH  11  12
ATOM     12  C   UNL     1      16.085 -29.338  22.017  1.00  0.00    -0.000 C 
BRANCH  12  13
ATOM     13  C   UNL     1      17.039 -30.471  21.600  1.00  0.00    -0.000 C 
BRANCH  13  14
ATOM     14  C   UNL     1      17.973 -30.981  22.716  1.00  0.00    -0.000 C 
BRANCH  14  15
ATOM     15  C   UNL     1      17.425 -30.825  24.145  1.00  0.00    -0.003 C 
ATOM     16  C   UNL     1      18.052 -31.810  25.133  1.00  0.00     0.004 C 
ENDBRANCH  14  15
ENDBRANCH  13  14
ENDBRANCH  12  13
ENDBRANCH  11  12
ENDBRANCH  10  11
ENDBRANCH   1  10
TORSDOF 12
ENDMDL
MODEL 3
REMARK VINA RESULT:    -4.177      3.607      6.304
REMARK INTER + INTRA:          -8.907
REMARK INTER:                  -6.960
REMARK INTRA:                  -1.948
REMARK UNBOUND:                -1.801
REMARK SMILES CCCCCCCCCCCCCC(=O)[O-]
REMARK SMILES IDX 8 1 9 2 10 3 11 4 12 5 13 6 14 7 15 8 16 9 7 10 6 11 5 12
REMARK SMILES IDX 4 13 3 14 2 15 1 16
REMARK H PARENT
REMARK Flexibility Score: inf
ROOT
ATOM      1  C   UNL     1      16.674 -29.979  21.867  1.00  0.00     0.000 C 
ENDROOT
BRANCH   1   2
ATOM      2  C   UNL     1      17.139 -30.260  23.308  1.00  0.00     0.000 C 
BRANCH   2   3
ATOM      3  C   UNL     1      17.222 -31.771  23.609  1.00  0.00     0.000 C 
BRANCH   3   4
ATOM      4  C   UNL     1      16.380 -32.635  22.654  1.00  0.00     0.000 C 
BRANCH   4   5
ATOM      5  C   UNL     1      15.968 -33.982  23.272  1.00  0.00     0.006 C 
BRANCH   5   6
ATOM      6  C   UNL     1      17.145 -34.961  23.367  1.00  0.00     0.053 C 
BRANCH   6   7
ATOM      7  C   UNL     1      17.698 -35.297  22.015  1.00  0.00     0.041 C 
ATOM      8  O   UNL     1      18.901 -35.045  21.742  1.00  0.00    -0.550 OA
ATOM      9  O   UNL     1      16.875 -35.855  21.045  1.00  0.00    -0.550 OA
ENDBRANCH   6   7
ENDBRANCH   5   6
ENDBRANCH   4   5
ENDBRANCH   3   4
ENDBRANCH   2   3
ENDBRANCH   1   2
BRANCH   1  10
ATOM     10  C   UNL     1      15.719 -28.779  21.776  1.00  0.00     0.000 C 
BRANCH  10  11
ATOM     11  C   UNL     1      15.145 -28.373  23.141  1.00  0.00    -0.000 C 
BRANCH  11  12
ATOM     12  C   UNL     1      13.670 -28.786  23.261  1.00  0.00    -0.000 C 
BRANCH  12  13
ATOM     13  C   UNL     1      13.477 -30.098  24.042  1.00  0.00    -0.000 C 
BRANCH  13  14
ATOM     14  C   UNL     1      13.095 -31.319  23.182  1.00  0.00    -0.000 C 
BRANCH  14  15
ATOM     15  C   UNL     1      12.671 -30.992  21.740  1.00  0.00    -0.003 C 
ATOM     16  C   UNL     1      13.409 -31.833  20.698  1.00  0.00     0.004 C 
ENDBRANCH  14  15
ENDBRANCH  13  14
ENDBRANCH  12  13
ENDBRANCH  11  12
ENDBRANCH  10  11
ENDBRANCH   1  10
TORSDOF 12
ENDMDL
MODEL 4
REMARK VINA RESULT:    -4.157      1.386      2.116
REMARK INTER + INTRA:          -8.875
REMARK INTER:                  -7.102
REMARK INTRA:                  -1.773
REMARK UNBOUND:                -1.801
REMARK SMILES CCCCCCCCCCCCCC(=O)[O-]
REMARK SMILES IDX 8 1 9 2 10 3 11 4 12 5 13 6 14 7 15 8 16 9 7 10 6 11 5 12
REMARK SMILES IDX 4 13 3 14 2 15 1 16
REMARK H PARENT
REMARK Flexibility Score: inf
ROOT
ATOM      1  C   UNL     1      15.778 -35.195  20.474  1.00  0.00     0.000 C 
ENDROOT
BRANCH   1   2
ATOM      2  C   UNL     1      14.878 -34.026  20.034  1.00  0.00     0.000 C 
BRANCH   2   3
ATOM      3  C   UNL     1      14.655 -33.003  21.169  1.00  0.00     0.000 C 
BRANCH   3   4
ATOM      4  C   UNL     1      15.121 -33.503  22.546  1.00  0.00     0.000 C 
BRANCH   4   5
ATOM      5  C   UNL     1      15.172 -32.386  23.602  1.00  0.00     0.006 C 
BRANCH   5   6
ATOM      6  C   UNL     1      13.773 -31.907  24.010  1.00  0.00     0.053 C 
BRANCH   6   7
ATOM      7  C   UNL     1      13.469 -30.548  23.457  1.00  0.00     0.041 C 
ATOM      8  O   UNL     1      14.257 -29.588  23.667  1.00  0.00    -0.550 OA
ATOM      9  O   UNL     1      12.298 -30.334  22.740  1.00  0.00    -0.550 OA
ENDBRANCH   6   7
ENDBRANCH   5   6
ENDBRANCH   4   5
ENDBRANCH   3   4
ENDBRANCH   2   3
ENDBRANCH   1   2
BRANCH   1  10
ATOM     10  C   UNL     1      16.810 -35.582  19.405  1.00  0.00     0.000 C 
BRANCH  10  11
ATOM     11  C   UNL     1      18.097 -34.748  19.492  1.00  0.00    -0.000 C 
BRANCH  11  12
ATOM     12  C   UNL     1      18.659 -34.755  20.921  1.00  0.00    -0.000 C 
BRANCH  12  13
ATOM     13  C   UNL     1      18.721 -33.351  21.547  1.00  0.00    -0.000 C 
BRANCH  13  14
ATOM     14  C   UNL     1      18.189 -32.213  20.653  1.00  0.00    -0.000 C 
BRANCH  14  15
ATOM     15  C   UNL     1      18.422 -30.794  21.199  1.00  0.00    -0.003 C 
ATOM     16  C   UNL     1      17.124 -30.092  21.602  1.00  0.00     0.004 C 
ENDBRANCH  14  15
ENDBRANCH  13  14
ENDBRANCH  12  13
ENDBRANCH  11  12
ENDBRANCH  10  11
ENDBRANCH   1  10
TORSDOF 12
ENDMDL
MODEL 5
REMARK VINA RESULT:    -4.139      1.159      2.035
REMARK INTER + INTRA:          -8.844
REMARK INTER:                  -6.904
REMARK INTRA:                  -1.940
REMARK UNBOUND:                -1.801
REMARK SMILES CCCCCCCCCCCCCC(=O)[O-]
REMARK SMILES IDX 8 1 9 2 10 3 11 4 12 5 13 6 14 7 15 8 16 9 7 10 6 11 5 12
REMARK SMILES IDX 4 13 3 14 2 15 1 16
REMARK H PARENT
REMARK Flexibility Score: inf
ROOT
ATOM      1  C   UNL     1      16.407 -34.195  20.819  1.00  0.00     0.000 C 
ENDROOT
BRANCH   1   2
ATOM      2  C   UNL     1      15.007 -33.758  20.351  1.00  0.00     0.000 C 
BRANCH   2   3
ATOM      3  C   UNL     1      14.286 -32.891  21.405  1.00  0.00     0.000 C 
BRANCH   3   4
ATOM      4  C   UNL     1      13.601 -31.648  20.813  1.00  0.00     0.000 C 
BRANCH   4   5
ATOM      5  C   UNL     1      12.661 -30.950  21.811  1.00  0.00     0.006 C 
BRANCH   5   6
ATOM      6  C   UNL     1      13.277 -30.844  23.212  1.00  0.00     0.053 C 
BRANCH   6   7
ATOM      7  C   UNL     1      13.490 -29.418  23.617  1.00  0.00     0.041 C 
ATOM      8  O   UNL     1      12.800 -28.911  24.541  1.00  0.00    -0.550 OA
ATOM      9  O   UNL     1      14.427 -28.637  22.951  1.00  0.00    -0.550 OA
ENDBRANCH   6   7
ENDBRANCH   5   6
ENDBRANCH   4   5
ENDBRANCH   3   4
ENDBRANCH   2   3
ENDBRANCH   1   2
BRANCH   1  10
ATOM     10  C   UNL     1      17.536 -33.489  20.051  1.00  0.00     0.000 C 
BRANCH  10  11
ATOM     11  C   UNL     1      18.311 -32.489  20.921  1.00  0.00    -0.000 C 
BRANCH  11  12
ATOM     12  C   UNL     1      17.522 -31.183  21.090  1.00  0.00    -0.000 C 
BRANCH  12  13
ATOM     13  C   UNL     1      17.172 -30.880  22.558  1.00  0.00    -0.000 C 
BRANCH  13  14
ATOM     14  C   UNL     1      17.567 -31.980  23.564  1.00  0.00    -0.000 C 
BRANCH  14  15
ATOM     15  C   UNL     1      16.388 -32.658  24.282  1.00  0.00    -0.003 C 
ATOM     16  C   UNL     1      16.612 -34.152  24.515  1.00  0.00     0.004 C 
ENDBRANCH  14  15
ENDBRANCH  13  14
ENDBRANCH  12  13
ENDBRANCH  11  12
ENDBRANCH  10  11
ENDBRANCH   1  10
TORSDOF 12
ENDMDL
MODEL 6
REMARK VINA RESULT:    -4.117      1.243      2.991
REMARK INTER + INTRA:          -8.805
REMARK INTER:                  -7.149
REMARK INTRA:                  -1.656
REMARK UNBOUND:                -1.801
REMARK SMILES CCCCCCCCCCCCCC(=O)[O-]
REMARK SMILES IDX 8 1 9 2 10 3 11 4 12 5 13 6 14 7 15 8 16 9 7 10 6 11 5 12
REMARK SMILES IDX 4 13 3 14 2 15 1 16
REMARK H PARENT
REMARK Flexibility Score: inf
ROOT
ATOM      1  C   UNL     1      16.293 -32.721  23.852  1.00  0.00     0.000 C 
ENDROOT
BRANCH   1   2
ATOM      2  C   UNL     1      14.811 -32.757  23.436  1.00  0.00     0.000 C 
BRANCH   2   3
ATOM      3  C   UNL     1      14.625 -33.258  21.987  1.00  0.00     0.000 C 
BRANCH   3   4
ATOM      4  C   UNL     1      13.893 -32.254  21.081  1.00  0.00     0.000 C 
BRANCH   4   5
ATOM      5  C   UNL     1      13.796 -30.849  21.699  1.00  0.00     0.006 C 
BRANCH   5   6
ATOM      6  C   UNL     1      12.361 -30.490  22.103  1.00  0.00     0.053 C 
BRANCH   6   7
ATOM      7  C   UNL     1      12.332 -29.512  23.237  1.00  0.00     0.041 C 
ATOM      8  O   UNL     1      13.115 -29.650  24.214  1.00  0.00    -0.550 OA
ATOM      9  O   UNL     1      11.416 -28.467  23.232  1.00  0.00    -0.550 OA
ENDBRANCH   6   7
ENDBRANCH   5   6
ENDBRANCH   4   5
ENDBRANCH   3   4
ENDBRANCH   2   3
ENDBRANCH   1   2
BRANCH   1  10
ATOM     10  C   UNL     1      16.861 -31.295  23.894  1.00  0.00     0.000 C 
BRANCH  10  11
ATOM     11  C   UNL     1      17.513 -30.876  22.568  1.00  0.00    -0.000 C 
BRANCH  11  12
ATOM     12  C   UNL     1      18.310 -32.038  21.957  1.00  0.00    -0.000 C 
BRANCH  12  13
ATOM     13  C   UNL     1      17.936 -32.316  20.490  1.00  0.00    -0.000 C 
BRANCH  13  14
ATOM     14  C   UNL     1      18.052 -33.790  20.055  1.00  0.00    -0.000 C 
BRANCH  14  15
ATOM     15  C   UNL     1      16.814 -34.356  19.338  1.00  0.00    -0.003 C 
ATOM     16  C   UNL     1      16.534 -35.815  19.697  1.00  0.00     0.004 C 
ENDBRANCH  14  15
ENDBRANCH  13  14
ENDBRANCH  12  13
ENDBRANCH  11  12
ENDBRANCH  10  11
ENDBRANCH   1  10
TORSDOF 12
ENDMDL
MODEL 7
REMARK VINA RESULT:    -4.111      3.519      6.019
REMARK INTER + INTRA:          -8.796
REMARK INTER:                  -7.238
REMARK INTRA:                  -1.557
REMARK UNBOUND:                -1.801
REMARK SMILES CCCCCCCCCCCCCC(=O)[O-]
REMARK SMILES IDX 8 1 9 2 10 3 11 4 12 5 13 6 14 7 15 8 16 9 7 10 6 11 5 12
REMARK SMILES IDX 4 13 3 14 2 15 1 16
REMARK H PARENT
REMARK Flexibility Score: inf
ROOT
ATOM      1  C   UNL     1      16.658 -30.594  23.581  1.00  0.00     0.000 C 
ENDROOT
BRANCH   1   2
ATOM      2  C   UNL     1      17.049 -31.960  24.173  1.00  0.00     0.000 C 
BRANCH   2   3
ATOM      3  C   UNL     1      15.845 -32.922  24.262  1.00  0.00     0.000 C 
BRANCH   3   4
ATOM      4  C   UNL     1      16.082 -34.269  23.558  1.00  0.00     0.000 C 
BRANCH   4   5
ATOM      5  C   UNL     1      15.714 -34.238  22.065  1.00  0.00     0.006 C 
BRANCH   5   6
ATOM      6  C   UNL     1      16.953 -34.192  21.163  1.00  0.00     0.053 C 
BRANCH   6   7
ATOM      7  C   UNL     1      16.691 -34.821  19.829  1.00  0.00     0.041 C 
ATOM      8  O   UNL     1      16.096 -35.929  19.756  1.00  0.00    -0.550 OA
ATOM      9  O   UNL     1      17.135 -34.202  18.667  1.00  0.00    -0.550 OA
ENDBRANCH   6   7
ENDBRANCH   5   6
ENDBRANCH   4   5
ENDBRANCH   3   4
ENDBRANCH   2   3
ENDBRANCH   1   2
BRANCH   1  10
ATOM     10  C   UNL     1      16.452 -30.645  22.059  1.00  0.00     0.000 C 
BRANCH  10  11
ATOM     11  C   UNL     1      15.141 -29.979  21.616  1.00  0.00    -0.000 C 
BRANCH  11  12
ATOM     12  C   UNL     1      14.026 -31.022  21.448  1.00  0.00    -0.000 C 
BRANCH  12  13
ATOM     13  C   UNL     1      13.010 -31.005  22.604  1.00  0.00    -0.000 C 
BRANCH  13  14
ATOM     14  C   UNL     1      11.749 -30.153  22.354  1.00  0.00    -0.000 C 
BRANCH  14  15
ATOM     15  C   UNL     1      11.660 -28.864  23.188  1.00  0.00    -0.003 C 
ATOM     16  C   UNL     1      12.751 -28.768  24.255  1.00  0.00     0.004 C 
ENDBRANCH  14  15
ENDBRANCH  13  14
ENDBRANCH  12  13
ENDBRANCH  11  12
ENDBRANCH  10  11
ENDBRANCH   1  10
TORSDOF 12
ENDMDL
MODEL 8
REMARK VINA RESULT:    -4.102      1.192      3.273
REMARK INTER + INTRA:          -8.781
REMARK INTER:                  -6.964
REMARK INTRA:                  -1.817
REMARK UNBOUND:                -1.801
REMARK SMILES CCCCCCCCCCCCCC(=O)[O-]
REMARK SMILES IDX 8 1 9 2 10 3 11 4 12 5 13 6 14 7 15 8 16 9 7 10 6 11 5 12
REMARK SMILES IDX 4 13 3 14 2 15 1 16
REMARK H PARENT
REMARK Flexibility Score: inf
ROOT
ATOM      1  C   UNL     1      18.075 -30.814  22.694  1.00  0.00     0.000 C 
ENDROOT
BRANCH   1   2
ATOM      2  C   UNL     1      17.008 -30.632  23.789  1.00  0.00     0.000 C 
BRANCH   2   3
ATOM      3  C   UNL     1      16.077 -31.857  23.904  1.00  0.00     0.000 C 
BRANCH   3   4
ATOM      4  C   UNL     1      14.582 -31.498  23.865  1.00  0.00     0.000 C 
BRANCH   4   5
ATOM      5  C   UNL     1      14.308 -30.152  23.172  1.00  0.00     0.006 C 
BRANCH   5   6
ATOM      6  C   UNL     1      13.239 -29.330  23.904  1.00  0.00     0.053 C 
BRANCH   6   7
ATOM      7  C   UNL     1      11.971 -29.238  23.111  1.00  0.00     0.041 C 
ATOM      8  O   UNL     1      11.162 -28.296  23.317  1.00  0.00    -0.550 OA
ATOM      9  O   UNL     1      11.666 -30.213  22.169  1.00  0.00    -0.550 OA
ENDBRANCH   6   7
ENDBRANCH   5   6
ENDBRANCH   4   5
ENDBRANCH   3   4
ENDBRANCH   2   3
ENDBRANCH   1   2
BRANCH   1  10
ATOM     10  C   UNL     1      17.464 -31.029  21.301  1.00  0.00     0.000 C 
BRANCH  10  11
ATOM     11  C   UNL     1      18.104 -32.204  20.547  1.00  0.00    -0.000 C 
BRANCH  11  12
ATOM     12  C   UNL     1      18.686 -33.233  21.528  1.00  0.00    -0.000 C 
BRANCH  12  13
ATOM     13  C   UNL     1      17.838 -34.513  21.627  1.00  0.00    -0.000 C 
BRANCH  13  14
ATOM     14  C   UNL     1      16.644 -34.582  20.655  1.00  0.00    -0.000 C 
BRANCH  14  15
ATOM     15  C   UNL     1      15.265 -34.366  21.303  1.00  0.00    -0.003 C 
ATOM     16  C   UNL     1      14.466 -33.243  20.640  1.00  0.00     0.004 C 
ENDBRANCH  14  15
ENDBRANCH  13  14
ENDBRANCH  12  13
ENDBRANCH  11  12
ENDBRANCH  10  11
ENDBRANCH   1  10
TORSDOF 12
ENDMDL
MODEL 9
REMARK VINA RESULT:    -4.084      3.586      5.643
REMARK INTER + INTRA:          -8.750
REMARK INTER:                  -7.263
REMARK INTRA:                  -1.486
REMARK UNBOUND:                -1.801
REMARK SMILES CCCCCCCCCCCCCC(=O)[O-]
REMARK SMILES IDX 8 1 9 2 10 3 11 4 12 5 13 6 14 7 15 8 16 9 7 10 6 11 5 12
REMARK SMILES IDX 4 13 3 14 2 15 1 16
REMARK H PARENT
REMARK Flexibility Score: inf
ROOT
ATOM      1  C   UNL     1      13.683 -30.903  21.268  1.00  0.00     0.000 C 
ENDROOT
BRANCH   1   2
ATOM      2  C   UNL     1      13.529 -32.229  20.501  1.00  0.00     0.000 C 
BRANCH   2   3
ATOM      3  C   UNL     1      14.619 -33.253  20.883  1.00  0.00     0.000 C 
BRANCH   3   4
ATOM      4  C   UNL     1      15.009 -34.193  19.731  1.00  0.00     0.000 C 
BRANCH   4   5
ATOM      5  C   UNL     1      16.511 -34.525  19.711  1.00  0.00     0.006 C 
BRANCH   5   6
ATOM      6  C   UNL     1      16.794 -35.960  20.173  1.00  0.00     0.053 C 
BRANCH   6   7
ATOM      7  C   UNL     1      17.517 -35.989  21.485  1.00  0.00     0.041 C 
ATOM      8  O   UNL     1      17.243 -35.143  22.377  1.00  0.00    -0.550 OA
ATOM      9  O   UNL     1      18.517 -36.926  21.709  1.00  0.00    -0.550 OA
ENDBRANCH   6   7
ENDBRANCH   5   6
ENDBRANCH   4   5
ENDBRANCH   3   4
ENDBRANCH   2   3
ENDBRANCH   1   2
BRANCH   1  10
ATOM     10  C   UNL     1      12.843 -30.861  22.554  1.00  0.00     0.000 C 
BRANCH  10  11
ATOM     11  C   UNL     1      13.705 -30.861  23.825  1.00  0.00    -0.000 C 
BRANCH  11  12
ATOM     12  C   UNL     1      15.179 -30.590  23.489  1.00  0.00    -0.000 C 
BRANCH  12  13
ATOM     13  C   UNL     1      16.105 -31.757  23.874  1.00  0.00    -0.000 C 
BRANCH  13  14
ATOM     14  C   UNL     1      17.562 -31.622  23.388  1.00  0.00    -0.000 C 
BRANCH  14  15
ATOM     15  C   UNL     1      17.768 -30.649  22.214  1.00  0.00    -0.003 C 
ATOM     16  C   UNL     1      17.915 -31.363  20.870  1.00  0.00     0.004 C 
ENDBRANCH  14  15
ENDBRANCH  13  14
ENDBRANCH  12  13
ENDBRANCH  11  12
ENDBRANCH  10  11
ENDBRANCH   1  10
TORSDOF 12
ENDMDL
