MODEL 1
REMARK VINA RESULT:    -3.138      0.000      0.000
REMARK INTER + INTRA:          -3.138
REMARK INTER:                  -3.138
REMARK INTRA:                   0.000
REMARK UNBOUND:                 0.000
REMARK SMILES CC(=O)[O-]
REMARK SMILES IDX 1 1 2 2 3 3 4 4
REMARK H PARENT
REMARK Flexibility Score: inf
ROOT
ATOM      1  C   UNL     1      15.681  19.770  70.969  1.00  0.00     0.063 C 
ATOM      2  C   UNL     1      16.786  19.032  70.294  1.00  0.00     0.038 C 
ATOM      3  O   UNL     1      17.002  17.824  70.574  1.00  0.00    -0.550 OA
ATOM      4  O   UNL     1      17.546  19.659  69.315  1.00  0.00    -0.550 OA
ENDROOT
TORSDOF 0
ENDMDL
MODEL 2
REMARK VINA RESULT:    -3.129      0.135      1.625
REMARK INTER + INTRA:          -3.129
REMARK INTER:                  -3.129
REMARK INTRA:                   0.000
REMARK UNBOUND:                 0.000
REMARK SMILES CC(=O)[O-]
REMARK SMILES IDX 1 1 2 2 3 3 4 4
REMARK H PARENT
REMARK Flexibility Score: inf
ROOT
ATOM      1  C   UNL     1      15.802  19.963  70.982  1.00  0.00     0.063 C 
ATOM      2  C   UNL     1      16.816  19.152  70.251  1.00  0.00     0.038 C 
ATOM      3  O   UNL     1      17.535  19.687  69.367  1.00  0.00    -0.550 OA
ATOM      4  O   UNL     1      17.008  17.816  70.579  1.00  0.00    -0.550 OA
ENDROOT
TORSDOF 0
ENDMDL
MODEL 3
REMARK VINA RESULT:    -3.095     19.478     19.964
REMARK INTER + INTRA:          -3.095
REMARK INTER:                  -3.095
REMARK INTRA:                   0.000
REMARK UNBOUND:                 0.000
REMARK SMILES CC(=O)[O-]
REMARK SMILES IDX 1 1 2 2 3 3 4 4
REMARK H PARENT
REMARK Flexibility Score: inf
ROOT
ATOM      1  C   UNL     1      10.866  28.354  54.976  1.00  0.00     0.063 C 
ATOM      2  C   UNL     1      11.284  28.441  53.548  1.00  0.00     0.038 C 
ATOM      3  O   UNL     1      10.985  29.454  52.863  1.00  0.00    -0.550 OA
ATOM      4  O   UNL     1      12.049  27.429  52.983  1.00  0.00    -0.550 OA
ENDROOT
TORSDOF 0
ENDMDL
MODEL 4
REMARK VINA RESULT:    -2.900      9.917     10.149
REMARK INTER + INTRA:          -2.900
REMARK INTER:                  -2.900
REMARK INTRA:                   0.000
REMARK UNBOUND:                 0.000
REMARK SMILES CC(=O)[O-]
REMARK SMILES IDX 1 1 2 2 3 3 4 4
REMARK H PARENT
REMARK Flexibility Score: inf
ROOT
ATOM      1  C   UNL     1      13.562  13.104  63.490  1.00  0.00     0.063 C 
ATOM      2  C   UNL     1      14.258  11.826  63.814  1.00  0.00     0.038 C 
ATOM      3  O   UNL     1      15.426  11.619  63.395  1.00  0.00    -0.550 OA
ATOM      4  O   UNL     1      13.640  10.882  64.623  1.00  0.00    -0.550 OA
ENDROOT
TORSDOF 0
ENDMDL
MODEL 5
REMARK VINA RESULT:    -2.710      2.180      2.546
REMARK INTER + INTRA:          -2.710
REMARK INTER:                  -2.710
REMARK INTRA:                   0.000
REMARK UNBOUND:                 0.000
REMARK SMILES CC(=O)[O-]
REMARK SMILES IDX 1 1 2 2 3 3 4 4
REMARK H PARENT
REMARK Flexibility Score: inf
ROOT
ATOM      1  C   UNL     1      18.332  21.791  70.822  1.00  0.00     0.063 C 
ATOM      2  C   UNL     1      17.455  20.647  70.444  1.00  0.00     0.038 C 
ATOM      3  O   UNL     1      17.753  19.921  69.460  1.00  0.00    -0.550 OA
ATOM      4  O   UNL     1      16.335  20.346  71.207  1.00  0.00    -0.550 OA
ENDROOT
TORSDOF 0
ENDMDL
MODEL 6
REMARK VINA RESULT:    -2.705     11.389     11.905
REMARK INTER + INTRA:          -2.705
REMARK INTER:                  -2.705
REMARK INTRA:                   0.000
REMARK UNBOUND:                 0.000
REMARK SMILES CC(=O)[O-]
REMARK SMILES IDX 1 1 2 2 3 3 4 4
REMARK H PARENT
REMARK Flexibility Score: inf
ROOT
ATOM      1  C   UNL     1      18.725  15.985  59.976  1.00  0.00     0.063 C 
ATOM      2  C   UNL     1      17.995  16.618  58.841  1.00  0.00     0.038 C 
ATOM      3  O   UNL     1      17.203  17.573  59.052  1.00  0.00    -0.550 OA
ATOM      4  O   UNL     1      18.226  16.191  57.540  1.00  0.00    -0.550 OA
ENDROOT
TORSDOF 0
ENDMDL
MODEL 7
REMARK VINA RESULT:    -2.632     11.616     12.005
REMARK INTER + INTRA:          -2.632
REMARK INTER:                  -2.632
REMARK INTRA:                   0.000
REMARK UNBOUND:                 0.000
REMARK SMILES CC(=O)[O-]
REMARK SMILES IDX 1 1 2 2 3 3 4 4
REMARK H PARENT
REMARK Flexibility Score: inf
ROOT
ATOM      1  C   UNL     1      17.098  16.912  59.321  1.00  0.00     0.063 C 
ATOM      2  C   UNL     1      18.256  16.164  58.752  1.00  0.00     0.038 C 
ATOM      3  O   UNL     1      18.941  15.407  59.488  1.00  0.00    -0.550 OA
ATOM      4  O   UNL     1      18.549  16.259  57.398  1.00  0.00    -0.550 OA
ENDROOT
TORSDOF 0
ENDMDL
MODEL 8
REMARK VINA RESULT:    -2.611      9.223      9.511
REMARK INTER + INTRA:          -2.611
REMARK INTER:                  -2.611
REMARK INTRA:                   0.000
REMARK UNBOUND:                 0.000
REMARK SMILES CC(=O)[O-]
REMARK SMILES IDX 1 1 2 2 3 3 4 4
REMARK H PARENT
REMARK Flexibility Score: inf
ROOT
ATOM      1  C   UNL     1      19.997  17.164  62.307  1.00  0.00     0.063 C 
ATOM      2  C   UNL     1      18.904  16.690  61.411  1.00  0.00     0.038 C 
ATOM      3  O   UNL     1      18.321  15.600  61.649  1.00  0.00    -0.550 OA
ATOM      4  O   UNL     1      18.489  17.474  60.343  1.00  0.00    -0.550 OA
ENDROOT
TORSDOF 0
ENDMDL
MODEL 9
REMARK VINA RESULT:    -2.605      9.194      9.619
REMARK INTER + INTRA:          -2.605
REMARK INTER:                  -2.605
REMARK INTRA:                   0.000
REMARK UNBOUND:                 0.000
REMARK SMILES CC(=O)[O-]
REMARK SMILES IDX 1 1 2 2 3 3 4 4
REMARK H PARENT
REMARK Flexibility Score: inf
ROOT
ATOM      1  C   UNL     1      20.016  17.354  62.281  1.00  0.00     0.063 C 
ATOM      2  C   UNL     1      18.938  16.794  61.418  1.00  0.00     0.038 C 
ATOM      3  O   UNL     1      18.568  17.414  60.386  1.00  0.00    -0.550 OA
ATOM      4  O   UNL     1      18.374  15.561  61.719  1.00  0.00    -0.550 OA
ENDROOT
TORSDOF 0
ENDMDL
