MODEL 1
REMARK VINA RESULT:    -3.395      0.000      0.000
REMARK INTER + INTRA:          -4.903
REMARK INTER:                  -4.785
REMARK INTRA:                  -0.118
REMARK UNBOUND:                -0.118
REMARK SMILES CC1=CCC(=C(C)C)C(=O)CC(C)=CCC1
REMARK SMILES IDX 12 1 14 2 13 3 15 4 16 5 2 6 1 7 3 8 11 10 9 11 10 12 5 13
REMARK SMILES IDX 6 14 7 15 8 16 4 17
REMARK H PARENT
REMARK Flexibility Score: 60.00
ROOT
ATOM      1  C   UNL     1      15.488  61.397  20.929  1.00  0.00    -0.070 C 
ATOM      2  C   UNL     1      14.167  61.278  20.609  1.00  0.00    -0.027 C 
ATOM      3  C   UNL     1      16.458  60.565  20.123  1.00  0.00     0.039 C 
ENDROOT
BRANCH   2   4
ATOM      4  C   UNL     1      12.929  61.982  21.151  1.00  0.00     0.032 C 
BRANCH   4   5
ATOM      5  C   UNL     1      12.526  61.682  22.600  1.00  0.00     0.034 C 
BRANCH   5   6
ATOM      6  C   UNL     1      12.624  62.814  23.632  1.00  0.00    -0.077 C 
ATOM      7  C   UNL     1      11.601  63.919  23.481  1.00  0.00     0.039 C 
ATOM      8  C   UNL     1      13.449  62.922  24.716  1.00  0.00    -0.023 CG0
ATOM      9  G   UNL     1      14.541  62.003  25.229  1.00  0.00     0.000 G0
ENDBRANCH   5   6
ENDBRANCH   4   5
ENDBRANCH   2   4
BRANCH   1  10
ATOM     10  C   UNL     1      16.086  62.272  22.019  1.00  0.00     0.111 C 
BRANCH  10  11
ATOM     11  C   UNL     1      16.172  61.550  23.329  1.00  0.00     0.163 C 
ATOM     12  O   UNL     1      16.514  60.336  23.337  1.00  0.00    -0.294 OA
BRANCH  11  13
ATOM     13  C   UNL     1      15.900  62.257  24.607  1.00  0.00    -0.002 C 
ATOM     14  C   UNL     1      16.817  63.101  25.165  1.00  0.00    -0.069 C 
ATOM     15  C   UNL     1      16.503  63.904  26.406  1.00  0.00     0.039 C 
ATOM     16  C   UNL     1      18.198  63.255  24.570  1.00  0.00     0.039 C 
BRANCH  13  17
ATOM     17  C   UNL     1      14.546  62.000  25.235  1.00  0.00     0.066 CG0
ATOM     18  G   UNL     1      13.488  62.953  24.712  1.00  0.00     0.000 G0
ENDBRANCH  13  17
ENDBRANCH  11  13
ENDBRANCH  10  11
ENDBRANCH   1  10
TORSDOF 0
ENDMDL
MODEL 2
REMARK VINA RESULT:    -3.339     12.313     14.197
REMARK INTER + INTRA:          -4.824
REMARK INTER:                  -4.926
REMARK INTRA:                   0.102
REMARK UNBOUND:                -0.118
REMARK SMILES CC1=CCC(=C(C)C)C(=O)CC(C)=CCC1
REMARK SMILES IDX 12 1 14 2 13 3 15 4 16 5 2 6 1 7 3 8 11 10 9 11 10 12 5 13
REMARK SMILES IDX 6 14 7 15 8 16 4 17
REMARK H PARENT
REMARK Flexibility Score: 60.00
ROOT
ATOM      1  C   UNL     1      16.133  52.386  35.153  1.00  0.00    -0.070 C 
ATOM      2  C   UNL     1      17.428  52.002  34.965  1.00  0.00    -0.027 C 
ATOM      3  C   UNL     1      15.361  51.664  36.234  1.00  0.00     0.039 C 
ENDROOT
BRANCH   2   4
ATOM      4  C   UNL     1      18.511  52.525  34.030  1.00  0.00     0.032 C 
BRANCH   4   5
ATOM      5  C   UNL     1      19.279  53.777  34.474  1.00  0.00     0.034 C 
BRANCH   5   6
ATOM      6  C   UNL     1      18.954  55.111  33.788  1.00  0.00    -0.077 C 
ATOM      7  C   UNL     1      19.673  55.360  32.480  1.00  0.00     0.039 C 
ATOM      8  C   UNL     1      18.046  56.066  34.150  1.00  0.00    -0.023 CG0
ATOM      9  G   UNL     1      17.106  56.143  35.338  1.00  0.00     0.000 G0
ENDBRANCH   5   6
ENDBRANCH   4   5
ENDBRANCH   2   4
BRANCH   1  10
ATOM     10  C   UNL     1      15.379  53.460  34.383  1.00  0.00     0.111 C 
BRANCH  10  11
ATOM     11  C   UNL     1      15.062  54.644  35.245  1.00  0.00     0.163 C 
ATOM     12  O   UNL     1      14.322  54.484  36.254  1.00  0.00    -0.294 OA
BRANCH  11  13
ATOM     13  C   UNL     1      15.640  55.979  34.946  1.00  0.00    -0.002 C 
ATOM     14  C   UNL     1      14.894  56.967  34.370  1.00  0.00    -0.069 C 
ATOM     15  C   UNL     1      15.447  58.359  34.162  1.00  0.00     0.039 C 
ATOM     16  C   UNL     1      13.482  56.704  33.898  1.00  0.00     0.039 C 
BRANCH  13  17
ATOM     17  C   UNL     1      17.090  56.179  35.334  1.00  0.00     0.066 CG0
ATOM     18  G   UNL     1      18.019  56.062  34.141  1.00  0.00     0.000 G0
ENDBRANCH  13  17
ENDBRANCH  11  13
ENDBRANCH  10  11
ENDBRANCH   1  10
TORSDOF 0
ENDMDL
MODEL 3
REMARK VINA RESULT:    -3.273      3.483      5.773
REMARK INTER + INTRA:          -4.731
REMARK INTER:                  -4.882
REMARK INTRA:                   0.150
REMARK UNBOUND:                -0.118
REMARK SMILES CC1=CCC(=C(C)C)C(=O)CC(C)=CCC1
REMARK SMILES IDX 12 1 14 2 13 3 15 4 16 5 2 6 1 7 3 8 11 10 9 11 10 12 5 13
REMARK SMILES IDX 6 14 7 15 8 16 4 17
REMARK H PARENT
REMARK Flexibility Score: 60.00
ROOT
ATOM      1  C   UNL     1      13.642  61.761  21.046  1.00  0.00    -0.070 C 
ATOM      2  C   UNL     1      14.956  62.043  20.812  1.00  0.00    -0.027 C 
ATOM      3  C   UNL     1      12.636  62.394  20.112  1.00  0.00     0.039 C 
ENDROOT
BRANCH   2   4
ATOM      4  C   UNL     1      16.230  61.557  21.492  1.00  0.00     0.032 C 
BRANCH   4   5
ATOM      5  C   UNL     1      16.791  60.200  21.046  1.00  0.00     0.034 C 
BRANCH   5   6
ATOM      6  C   UNL     1      16.618  58.997  21.984  1.00  0.00    -0.077 C 
ATOM      7  C   UNL     1      17.675  58.856  23.057  1.00  0.00     0.039 C 
ATOM      8  C   UNL     1      15.601  58.088  22.038  1.00  0.00    -0.023 CG0
ATOM      9  G   UNL     1      14.352  57.942  21.189  1.00  0.00     0.000 G0
ENDBRANCH   5   6
ENDBRANCH   4   5
ENDBRANCH   2   4
BRANCH   1  10
ATOM     10  C   UNL     1      13.081  60.884  22.155  1.00  0.00     0.111 C 
BRANCH  10  11
ATOM     11  C   UNL     1      12.482  59.621  21.616  1.00  0.00     0.163 C 
ATOM     12  O   UNL     1      11.478  59.696  20.856  1.00  0.00    -0.294 OA
BRANCH  11  13
ATOM     13  C   UNL     1      13.080  58.299  21.935  1.00  0.00    -0.002 C 
ATOM     14  C   UNL     1      12.507  57.456  22.842  1.00  0.00    -0.069 C 
ATOM     15  C   UNL     1      13.053  56.068  23.090  1.00  0.00     0.039 C 
ATOM     16  C   UNL     1      11.306  57.884  23.654  1.00  0.00     0.039 C 
BRANCH  13  17
ATOM     17  C   UNL     1      14.345  57.942  21.181  1.00  0.00     0.066 CG0
ATOM     18  G   UNL     1      15.584  58.114  22.038  1.00  0.00     0.000 G0
ENDBRANCH  13  17
ENDBRANCH  11  13
ENDBRANCH  10  11
ENDBRANCH   1  10
TORSDOF 0
ENDMDL
MODEL 4
REMARK VINA RESULT:    -3.168     11.953     13.918
REMARK INTER + INTRA:          -4.583
REMARK INTER:                  -4.542
REMARK INTRA:                  -0.041
REMARK UNBOUND:                -0.118
REMARK SMILES CC1=CCC(=C(C)C)C(=O)CC(C)=CCC1
REMARK SMILES IDX 12 1 14 2 13 3 15 4 16 5 2 6 1 7 3 8 11 10 9 11 10 12 5 13
REMARK SMILES IDX 6 14 7 15 8 16 4 17
REMARK H PARENT
REMARK Flexibility Score: 60.00
ROOT
ATOM      1  C   UNL     1      15.733  53.771  35.380  1.00  0.00    -0.070 C 
ATOM      2  C   UNL     1      16.579  52.739  35.660  1.00  0.00    -0.027 C 
ATOM      3  C   UNL     1      14.508  53.899  36.256  1.00  0.00     0.039 C 
ENDROOT
BRANCH   2   4
ATOM      4  C   UNL     1      17.913  52.332  35.045  1.00  0.00     0.032 C 
BRANCH   4   5
ATOM      5  C   UNL     1      19.065  53.341  35.133  1.00  0.00     0.034 C 
BRANCH   5   6
ATOM      6  C   UNL     1      19.569  53.985  33.834  1.00  0.00    -0.077 C 
ATOM      7  C   UNL     1      20.100  53.021  32.795  1.00  0.00     0.039 C 
ATOM      8  C   UNL     1      19.527  55.296  33.451  1.00  0.00    -0.023 CG0
ATOM      9  G   UNL     1      19.017  56.527  34.176  1.00  0.00     0.000 G0
ENDBRANCH   5   6
ENDBRANCH   4   5
ENDBRANCH   2   4
BRANCH   1  10
ATOM     10  C   UNL     1      15.886  54.802  34.272  1.00  0.00     0.111 C 
BRANCH  10  11
ATOM     11  C   UNL     1      16.571  56.044  34.758  1.00  0.00     0.163 C 
ATOM     12  O   UNL     1      16.351  56.442  35.934  1.00  0.00    -0.294 OA
BRANCH  11  13
ATOM     13  C   UNL     1      17.527  56.774  33.887  1.00  0.00    -0.002 C 
ATOM     14  C   UNL     1      17.096  57.623  32.909  1.00  0.00    -0.069 C 
ATOM     15  C   UNL     1      18.065  58.449  32.093  1.00  0.00     0.039 C 
ATOM     16  C   UNL     1      15.626  57.760  32.587  1.00  0.00     0.039 C 
BRANCH  13  17
ATOM     17  C   UNL     1      18.996  56.535  34.165  1.00  0.00     0.066 CG0
ATOM     18  G   UNL     1      19.514  55.296  33.459  1.00  0.00     0.000 G0
ENDBRANCH  13  17
ENDBRANCH  11  13
ENDBRANCH  10  11
ENDBRANCH   1  10
TORSDOF 0
ENDMDL
MODEL 5
REMARK VINA RESULT:    -3.137      1.552      2.567
REMARK INTER + INTRA:          -4.539
REMARK INTER:                  -4.617
REMARK INTRA:                   0.078
REMARK UNBOUND:                -0.118
REMARK SMILES CC1=CCC(=C(C)C)C(=O)CC(C)=CCC1
REMARK SMILES IDX 12 1 14 2 13 3 15 4 16 5 2 6 1 7 3 8 11 10 9 11 10 12 5 13
REMARK SMILES IDX 6 14 7 15 8 16 4 17
REMARK H PARENT
REMARK Flexibility Score: 60.00
ROOT
ATOM      1  C   UNL     1      15.930  61.316  21.295  1.00  0.00    -0.070 C 
ATOM      2  C   UNL     1      14.961  61.025  20.380  1.00  0.00    -0.027 C 
ATOM      3  C   UNL     1      17.197  60.495  21.224  1.00  0.00     0.039 C 
ENDROOT
BRANCH   2   4
ATOM      4  C   UNL     1      13.603  61.661  20.111  1.00  0.00     0.032 C 
BRANCH   4   5
ATOM      5  C   UNL     1      12.358  60.822  20.428  1.00  0.00     0.034 C 
BRANCH   5   6
ATOM      6  C   UNL     1      12.139  60.364  21.876  1.00  0.00    -0.077 C 
ATOM      7  C   UNL     1      11.830  58.892  22.051  1.00  0.00     0.039 C 
ATOM      8  C   UNL     1      12.266  61.078  23.034  1.00  0.00    -0.023 CG0
ATOM      9  G   UNL     1      12.620  62.535  23.268  1.00  0.00     0.000 G0
ENDBRANCH   5   6
ENDBRANCH   4   5
ENDBRANCH   2   4
BRANCH   1  10
ATOM     10  C   UNL     1      15.867  62.373  22.386  1.00  0.00     0.111 C 
BRANCH  10  11
ATOM     11  C   UNL     1      15.075  61.906  23.569  1.00  0.00     0.163 C 
ATOM     12  O   UNL     1      15.431  60.852  24.165  1.00  0.00    -0.294 OA
BRANCH  11  13
ATOM     13  C   UNL     1      13.913  62.688  24.064  1.00  0.00    -0.002 C 
ATOM     14  C   UNL     1      14.012  63.496  25.159  1.00  0.00    -0.069 C 
ATOM     15  C   UNL     1      12.864  64.376  25.601  1.00  0.00     0.039 C 
ATOM     16  C   UNL     1      15.274  63.534  25.990  1.00  0.00     0.039 C 
BRANCH  13  17
ATOM     17  C   UNL     1      12.630  62.548  23.271  1.00  0.00     0.066 CG0
ATOM     18  G   UNL     1      12.255  61.095  23.051  1.00  0.00     0.000 G0
ENDBRANCH  13  17
ENDBRANCH  11  13
ENDBRANCH  10  11
ENDBRANCH   1  10
TORSDOF 0
ENDMDL
MODEL 6
REMARK VINA RESULT:    -3.040     12.228     13.791
REMARK INTER + INTRA:          -4.403
REMARK INTER:                  -4.567
REMARK INTRA:                   0.164
REMARK UNBOUND:                -0.118
REMARK SMILES CC1=CCC(=C(C)C)C(=O)CC(C)=CCC1
REMARK SMILES IDX 12 1 14 2 13 3 15 4 16 5 2 6 1 7 3 8 11 10 9 11 10 12 5 13
REMARK SMILES IDX 6 14 7 15 8 16 4 17
REMARK H PARENT
REMARK Flexibility Score: 60.00
ROOT
ATOM      1  C   UNL     1      17.763  52.580  35.039  1.00  0.00    -0.070 C 
ATOM      2  C   UNL     1      16.701  52.558  35.895  1.00  0.00    -0.027 C 
ATOM      3  C   UNL     1      18.976  53.363  35.486  1.00  0.00     0.039 C 
ENDROOT
BRANCH   2   4
ATOM      4  C   UNL     1      15.356  51.845  35.817  1.00  0.00     0.032 C 
BRANCH   4   5
ATOM      5  C   UNL     1      14.480  52.129  34.590  1.00  0.00     0.034 C 
BRANCH   5   6
ATOM      6  C   UNL     1      14.249  53.592  34.184  1.00  0.00    -0.077 C 
ATOM      7  C   UNL     1      13.351  54.387  35.107  1.00  0.00     0.039 C 
ATOM      8  C   UNL     1      14.806  54.297  33.156  1.00  0.00    -0.023 CG0
ATOM      9  G   UNL     1      15.785  53.875  32.076  1.00  0.00     0.000 G0
ENDBRANCH   5   6
ENDBRANCH   4   5
ENDBRANCH   2   4
BRANCH   1  10
ATOM     10  C   UNL     1      17.851  51.909  33.677  1.00  0.00     0.111 C 
BRANCH  10  11
ATOM     11  C   UNL     1      18.084  52.904  32.581  1.00  0.00     0.163 C 
ATOM     12  O   UNL     1      18.998  52.683  31.740  1.00  0.00    -0.294 OA
BRANCH  11  13
ATOM     13  C   UNL     1      17.229  54.112  32.455  1.00  0.00    -0.002 C 
ATOM     14  C   UNL     1      17.727  55.364  32.675  1.00  0.00    -0.069 C 
ATOM     15  C   UNL     1      16.889  56.602  32.443  1.00  0.00     0.039 C 
ATOM     16  C   UNL     1      19.138  55.566  33.176  1.00  0.00     0.039 C 
BRANCH  13  17
ATOM     17  C   UNL     1      15.789  53.869  32.054  1.00  0.00     0.066 CG0
ATOM     18  G   UNL     1      14.817  54.302  33.136  1.00  0.00     0.000 G0
ENDBRANCH  13  17
ENDBRANCH  11  13
ENDBRANCH  10  11
ENDBRANCH   1  10
TORSDOF 0
ENDMDL
MODEL 7
REMARK VINA RESULT:    -3.010     13.225     14.718
REMARK INTER + INTRA:          -4.360
REMARK INTER:                  -4.578
REMARK INTRA:                   0.217
REMARK UNBOUND:                -0.118
REMARK SMILES CC1=CCC(=C(C)C)C(=O)CC(C)=CCC1
REMARK SMILES IDX 12 1 14 2 13 3 15 4 16 5 2 6 1 7 3 8 11 10 9 11 10 12 5 13
REMARK SMILES IDX 6 14 7 15 8 16 4 17
REMARK H PARENT
REMARK Flexibility Score: 60.00
ROOT
ATOM      1  C   UNL     1      14.508  52.215  32.528  1.00  0.00    -0.070 C 
ATOM      2  C   UNL     1      15.475  51.635  31.762  1.00  0.00    -0.027 C 
ATOM      3  C   UNL     1      13.345  51.337  32.932  1.00  0.00     0.039 C 
ENDROOT
BRANCH   2   4
ATOM      4  C   UNL     1      16.794  52.175  31.221  1.00  0.00     0.032 C 
BRANCH   4   5
ATOM      5  C   UNL     1      18.085  51.648  31.861  1.00  0.00     0.034 C 
BRANCH   5   6
ATOM      6  C   UNL     1      18.678  52.422  33.046  1.00  0.00    -0.077 C 
ATOM      7  C   UNL     1      19.943  53.197  32.746  1.00  0.00     0.039 C 
ATOM      8  C   UNL     1      18.180  52.578  34.308  1.00  0.00    -0.023 CG0
ATOM      9  G   UNL     1      16.926  52.023  34.957  1.00  0.00     0.000 G0
ENDBRANCH   5   6
ENDBRANCH   4   5
ENDBRANCH   2   4
BRANCH   1  10
ATOM     10  C   UNL     1      14.470  53.657  33.012  1.00  0.00     0.111 C 
BRANCH  10  11
ATOM     11  C   UNL     1      15.583  53.951  33.971  1.00  0.00     0.163 C 
ATOM     12  O   UNL     1      16.286  54.984  33.793  1.00  0.00    -0.294 OA
BRANCH  11  13
ATOM     13  C   UNL     1      15.834  53.068  35.139  1.00  0.00    -0.002 C 
ATOM     14  C   UNL     1      15.119  53.193  36.295  1.00  0.00    -0.069 C 
ATOM     15  C   UNL     1      15.297  52.228  37.445  1.00  0.00     0.039 C 
ATOM     16  C   UNL     1      14.125  54.317  36.480  1.00  0.00     0.039 C 
BRANCH  13  17
ATOM     17  C   UNL     1      16.911  52.019  34.960  1.00  0.00     0.066 CG0
ATOM     18  G   UNL     1      18.158  52.589  34.311  1.00  0.00     0.000 G0
ENDBRANCH  13  17
ENDBRANCH  11  13
ENDBRANCH  10  11
ENDBRANCH   1  10
TORSDOF 0
ENDMDL
MODEL 8
REMARK VINA RESULT:    -2.973     13.248     14.409
REMARK INTER + INTRA:          -4.308
REMARK INTER:                  -4.417
REMARK INTRA:                   0.109
REMARK UNBOUND:                -0.118
REMARK SMILES CC1=CCC(=C(C)C)C(=O)CC(C)=CCC1
REMARK SMILES IDX 12 1 14 2 13 3 15 4 16 5 2 6 1 7 3 8 11 10 9 11 10 12 5 13
REMARK SMILES IDX 6 14 7 15 8 16 4 17
REMARK H PARENT
REMARK Flexibility Score: 60.00
ROOT
ATOM      1  C   UNL     1      14.895  51.689  33.208  1.00  0.00    -0.070 C 
ATOM      2  C   UNL     1      14.488  51.648  34.510  1.00  0.00    -0.027 C 
ATOM      3  C   UNL     1      13.811  51.824  32.164  1.00  0.00     0.039 C 
ENDROOT
BRANCH   2   4
ATOM      4  C   UNL     1      15.276  51.575  35.812  1.00  0.00     0.032 C 
BRANCH   4   5
ATOM      5  C   UNL     1      15.430  52.874  36.614  1.00  0.00     0.034 C 
BRANCH   5   6
ATOM      6  C   UNL     1      15.812  54.154  35.859  1.00  0.00    -0.077 C 
ATOM      7  C   UNL     1      14.857  55.316  36.028  1.00  0.00     0.039 C 
ATOM      8  C   UNL     1      16.934  54.419  35.126  1.00  0.00    -0.023 CG0
ATOM      9  G   UNL     1      18.129  53.547  34.789  1.00  0.00     0.000 G0
ENDBRANCH   5   6
ENDBRANCH   4   5
ENDBRANCH   2   4
BRANCH   1  10
ATOM     10  C   UNL     1      16.324  51.604  32.696  1.00  0.00     0.111 C 
BRANCH  10  11
ATOM     11  C   UNL     1      16.965  52.956  32.607  1.00  0.00     0.163 C 
ATOM     12  O   UNL     1      16.384  53.865  31.953  1.00  0.00    -0.294 OA
BRANCH  11  13
ATOM     13  C   UNL     1      18.242  53.240  33.310  1.00  0.00    -0.002 C 
ATOM     14  C   UNL     1      19.436  53.242  32.648  1.00  0.00    -0.069 C 
ATOM     15  C   UNL     1      20.723  53.636  33.336  1.00  0.00     0.039 C 
ATOM     16  C   UNL     1      19.523  52.833  31.196  1.00  0.00     0.039 C 
BRANCH  13  17
ATOM     17  C   UNL     1      18.134  53.544  34.789  1.00  0.00     0.066 CG0
ATOM     18  G   UNL     1      16.935  54.419  35.104  1.00  0.00     0.000 G0
ENDBRANCH  13  17
ENDBRANCH  11  13
ENDBRANCH  10  11
ENDBRANCH   1  10
TORSDOF 0
ENDMDL
MODEL 9
REMARK VINA RESULT:    -2.907      3.118      4.481
REMARK INTER + INTRA:          -4.215
REMARK INTER:                  -4.325
REMARK INTRA:                   0.110
REMARK UNBOUND:                -0.118
REMARK SMILES CC1=CCC(=C(C)C)C(=O)CC(C)=CCC1
REMARK SMILES IDX 12 1 14 2 13 3 15 4 16 5 2 6 1 7 3 8 11 10 9 11 10 12 5 13
REMARK SMILES IDX 6 14 7 15 8 16 4 17
REMARK H PARENT
REMARK Flexibility Score: 60.00
ROOT
ATOM      1  C   UNL     1      16.315  60.797  21.657  1.00  0.00    -0.070 C 
ATOM      2  C   UNL     1      15.546  61.792  21.130  1.00  0.00    -0.027 C 
ATOM      3  C   UNL     1      17.507  61.226  22.482  1.00  0.00     0.039 C 
ENDROOT
BRANCH   2   4
ATOM      4  C   UNL     1      14.262  61.750  20.310  1.00  0.00     0.032 C 
BRANCH   4   5
ATOM      5  C   UNL     1      12.955  62.108  21.030  1.00  0.00     0.034 C 
BRANCH   5   6
ATOM      6  C   UNL     1      12.646  61.414  22.364  1.00  0.00    -0.077 C 
ATOM      7  C   UNL     1      12.225  62.334  23.490  1.00  0.00     0.039 C 
ATOM      8  C   UNL     1      12.616  60.080  22.654  1.00  0.00    -0.023 CG0
ATOM      9  G   UNL     1      12.907  58.868  21.788  1.00  0.00     0.000 G0
ENDBRANCH   5   6
ENDBRANCH   4   5
ENDBRANCH   2   4
BRANCH   1  10
ATOM     10  C   UNL     1      16.107  59.299  21.493  1.00  0.00     0.111 C 
BRANCH  10  11
ATOM     11  C   UNL     1      15.319  58.719  22.628  1.00  0.00     0.163 C 
ATOM     12  O   UNL     1      15.745  58.868  23.806  1.00  0.00    -0.294 OA
BRANCH  11  13
ATOM     13  C   UNL     1      14.034  58.016  22.381  1.00  0.00    -0.002 C 
ATOM     14  C   UNL     1      13.873  56.695  22.685  1.00  0.00    -0.069 C 
ATOM     15  C   UNL     1      12.537  56.004  22.535  1.00  0.00     0.039 C 
ATOM     16  C   UNL     1      15.035  55.860  23.171  1.00  0.00     0.039 C 
BRANCH  13  17
ATOM     17  C   UNL     1      12.919  58.856  21.794  1.00  0.00     0.066 CG0
ATOM     18  G   UNL     1      12.617  60.075  22.644  1.00  0.00     0.000 G0
ENDBRANCH  13  17
ENDBRANCH  11  13
ENDBRANCH  10  11
ENDBRANCH   1  10
TORSDOF 0
ENDMDL
