MODEL 1
REMARK VINA RESULT:    -3.784      0.000      0.000
REMARK INTER + INTRA:          -4.845
REMARK INTER:                  -5.333
REMARK INTRA:                   0.488
REMARK UNBOUND:                 0.488
REMARK SMILES CC1=CCC(=C(C)C)C(=O)CC(C)=CCC1
REMARK SMILES IDX 12 1 14 2 13 3 15 4 16 5 2 6 1 7 3 8 11 10 9 11 10 12 5 13
REMARK SMILES IDX 6 14 7 15 8 16 4 17
REMARK H PARENT
REMARK Flexibility Score: 60.00
ROOT
ATOM      1  C   UNL     1      -3.189  27.168  52.303  1.00  0.00    -0.070 C 
ATOM      2  C   UNL     1      -3.054  27.918  51.183  1.00  0.00    -0.027 C 
ATOM      3  C   UNL     1      -4.566  27.028  52.899  1.00  0.00     0.039 C 
ENDROOT
BRANCH   2   4
ATOM      4  C   UNL     1      -1.763  28.118  50.420  1.00  0.00     0.032 C 
BRANCH   4   5
ATOM      5  C   UNL     1      -1.351  29.597  50.385  1.00  0.00     0.034 C 
BRANCH   5   6
ATOM      6  C   UNL     1      -1.537  30.313  51.714  1.00  0.00    -0.077 C 
ATOM      7  C   UNL     1      -2.600  31.377  51.826  1.00  0.00     0.039 C 
ATOM      8  C   UNL     1      -0.808  30.033  52.820  1.00  0.00    -0.023 CG0
ATOM      9  G   UNL     1       0.342  29.055  52.884  1.00  0.00     0.000 G0
ENDBRANCH   5   6
ENDBRANCH   4   5
ENDBRANCH   2   4
BRANCH   1  10
ATOM     10  C   UNL     1      -2.023  26.475  52.978  1.00  0.00     0.111 C 
BRANCH  10  11
ATOM     11  C   UNL     1      -1.346  27.389  53.962  1.00  0.00     0.163 C 
ATOM     12  O   UNL     1      -1.977  27.775  54.982  1.00  0.00    -0.294 OA
BRANCH  11  13
ATOM     13  C   UNL     1       0.060  27.827  53.766  1.00  0.00    -0.002 C 
ATOM     14  C   UNL     1       1.081  27.141  54.349  1.00  0.00    -0.069 C 
ATOM     15  C   UNL     1       0.824  25.871  55.128  1.00  0.00     0.039 C 
ATOM     16  C   UNL     1       2.513  27.602  54.204  1.00  0.00     0.039 C 
BRANCH  13  17
ATOM     17  C   UNL     1       0.342  29.051  52.902  1.00  0.00     0.066 CG0
ATOM     18  G   UNL     1      -0.808  30.030  52.838  1.00  0.00     0.000 G0
ENDBRANCH  13  17
ENDBRANCH  11  13
ENDBRANCH  10  11
ENDBRANCH   1  10
TORSDOF 0
ENDMDL
MODEL 2
REMARK VINA RESULT:    -3.766      2.022      2.966
REMARK INTER + INTRA:          -4.819
REMARK INTER:                  -5.270
REMARK INTRA:                   0.452
REMARK UNBOUND:                 0.488
REMARK SMILES CC1=CCC(=C(C)C)C(=O)CC(C)=CCC1
REMARK SMILES IDX 12 1 14 2 13 3 15 4 16 5 2 6 1 7 3 8 11 10 9 11 10 12 5 13
REMARK SMILES IDX 6 14 7 15 8 16 4 17
REMARK H PARENT
REMARK Flexibility Score: 60.00
ROOT
ATOM      1  C   UNL     1      -1.917  27.911  51.669  1.00  0.00    -0.070 C 
ATOM      2  C   UNL     1      -3.242  28.044  51.915  1.00  0.00    -0.027 C 
ATOM      3  C   UNL     1      -1.331  28.678  50.512  1.00  0.00     0.039 C 
ENDROOT
BRANCH   2   4
ATOM      4  C   UNL     1      -3.983  27.398  53.065  1.00  0.00     0.032 C 
BRANCH   4   5
ATOM      5  C   UNL     1      -4.533  28.446  54.044  1.00  0.00     0.034 C 
BRANCH   5   6
ATOM      6  C   UNL     1      -3.531  29.535  54.396  1.00  0.00    -0.077 C 
ATOM      7  C   UNL     1      -3.773  30.937  53.896  1.00  0.00     0.039 C 
ATOM      8  C   UNL     1      -2.432  29.318  55.156  1.00  0.00    -0.023 CG0
ATOM      9  G   UNL     1      -1.985  27.975  55.685  1.00  0.00     0.000 G0
ENDBRANCH   5   6
ENDBRANCH   4   5
ENDBRANCH   2   4
BRANCH   1  10
ATOM     10  C   UNL     1      -1.008  27.025  52.498  1.00  0.00     0.111 C 
BRANCH  10  11
ATOM     11  C   UNL     1      -0.407  27.790  53.644  1.00  0.00     0.163 C 
ATOM     12  O   UNL     1       0.354  28.766  53.404  1.00  0.00    -0.294 OA
BRANCH  11  13
ATOM     13  C   UNL     1      -0.710  27.433  55.053  1.00  0.00    -0.002 C 
ATOM     14  C   UNL     1       0.134  26.627  55.755  1.00  0.00    -0.069 C 
ATOM     15  C   UNL     1       1.440  26.154  55.156  1.00  0.00     0.039 C 
ATOM     16  C   UNL     1      -0.184  26.210  57.172  1.00  0.00     0.039 C 
BRANCH  13  17
ATOM     17  C   UNL     1      -1.976  27.982  55.703  1.00  0.00     0.066 CG0
ATOM     18  G   UNL     1      -2.424  29.309  55.136  1.00  0.00     0.000 G0
ENDBRANCH  13  17
ENDBRANCH  11  13
ENDBRANCH  10  11
ENDBRANCH   1  10
TORSDOF 0
ENDMDL
MODEL 3
REMARK VINA RESULT:    -3.679      2.471      4.349
REMARK INTER + INTRA:          -4.696
REMARK INTER:                  -4.985
REMARK INTRA:                   0.289
REMARK UNBOUND:                 0.488
REMARK SMILES CC1=CCC(=C(C)C)C(=O)CC(C)=CCC1
REMARK SMILES IDX 12 1 14 2 13 3 15 4 16 5 2 6 1 7 3 8 11 10 9 11 10 12 5 13
REMARK SMILES IDX 6 14 7 15 8 16 4 17
REMARK H PARENT
REMARK Flexibility Score: 60.00
ROOT
ATOM      1  C   UNL     1      -0.530  27.032  53.769  1.00  0.00    -0.070 C 
ATOM      2  C   UNL     1      -0.920  26.399  52.638  1.00  0.00    -0.027 C 
ATOM      3  C   UNL     1       0.404  26.305  54.702  1.00  0.00     0.039 C 
ENDROOT
BRANCH   2   4
ATOM      4  C   UNL     1      -1.802  26.997  51.565  1.00  0.00     0.032 C 
BRANCH   4   5
ATOM      5  C   UNL     1      -3.291  26.759  51.859  1.00  0.00     0.034 C 
BRANCH   5   6
ATOM      6  C   UNL     1      -4.145  28.011  51.729  1.00  0.00    -0.077 C 
ATOM      7  C   UNL     1      -4.401  28.578  50.355  1.00  0.00     0.039 C 
ATOM      8  C   UNL     1      -4.708  28.642  52.786  1.00  0.00    -0.023 CG0
ATOM      9  G   UNL     1      -4.508  28.267  54.236  1.00  0.00     0.000 G0
ENDBRANCH   5   6
ENDBRANCH   4   5
ENDBRANCH   2   4
BRANCH   1  10
ATOM     10  C   UNL     1      -0.994  28.428  54.136  1.00  0.00     0.111 C 
BRANCH  10  11
ATOM     11  C   UNL     1      -2.088  28.381  55.167  1.00  0.00     0.163 C 
ATOM     12  O   UNL     1      -1.886  27.779  56.255  1.00  0.00    -0.294 OA
BRANCH  11  13
ATOM     13  C   UNL     1      -3.393  29.050  54.936  1.00  0.00    -0.002 C 
ATOM     14  C   UNL     1      -3.587  30.336  55.339  1.00  0.00    -0.069 C 
ATOM     15  C   UNL     1      -2.461  31.144  55.944  1.00  0.00     0.039 C 
ATOM     16  C   UNL     1      -4.925  31.016  55.161  1.00  0.00     0.039 C 
BRANCH  13  17
ATOM     17  C   UNL     1      -4.510  28.279  54.240  1.00  0.00     0.066 CG0
ATOM     18  G   UNL     1      -4.695  28.654  52.788  1.00  0.00     0.000 G0
ENDBRANCH  13  17
ENDBRANCH  11  13
ENDBRANCH  10  11
ENDBRANCH   1  10
TORSDOF 0
ENDMDL
MODEL 4
REMARK VINA RESULT:    -3.479      1.647      4.135
REMARK INTER + INTRA:          -4.414
REMARK INTER:                  -5.436
REMARK INTRA:                   1.022
REMARK UNBOUND:                 0.488
REMARK SMILES CC1=CCC(=C(C)C)C(=O)CC(C)=CCC1
REMARK SMILES IDX 12 1 14 2 13 3 15 4 16 5 2 6 1 7 3 8 11 10 9 11 10 12 5 13
REMARK SMILES IDX 6 14 7 15 8 16 4 17
REMARK H PARENT
REMARK Flexibility Score: 60.00
ROOT
ATOM      1  C   UNL     1      -1.992  26.259  51.919  1.00  0.00    -0.070 C 
ATOM      2  C   UNL     1      -1.122  25.880  52.885  1.00  0.00    -0.027 C 
ATOM      3  C   UNL     1      -3.256  25.457  51.749  1.00  0.00     0.039 C 
ENDROOT
BRANCH   2   4
ATOM      4  C   UNL     1       0.161  26.601  53.233  1.00  0.00     0.032 C 
BRANCH   4   5
ATOM      5  C   UNL     1       0.206  26.991  54.718  1.00  0.00     0.034 C 
BRANCH   5   6
ATOM      6  C   UNL     1      -0.978  27.837  55.161  1.00  0.00    -0.077 C 
ATOM      7  C   UNL     1      -1.742  27.431  56.396  1.00  0.00     0.039 C 
ATOM      8  C   UNL     1      -1.378  28.956  54.513  1.00  0.00    -0.023 CG0
ATOM      9  G   UNL     1      -0.786  29.480  53.225  1.00  0.00     0.000 G0
ENDBRANCH   5   6
ENDBRANCH   4   5
ENDBRANCH   2   4
BRANCH   1  10
ATOM     10  C   UNL     1      -1.746  27.444  51.006  1.00  0.00     0.111 C 
BRANCH  10  11
ATOM     11  C   UNL     1      -2.516  28.650  51.466  1.00  0.00     0.163 C 
ATOM     12  O   UNL     1      -3.764  28.689  51.294  1.00  0.00    -0.294 OA
BRANCH  11  13
ATOM     13  C   UNL     1      -1.839  29.787  52.140  1.00  0.00    -0.002 C 
ATOM     14  C   UNL     1      -2.139  31.068  51.795  1.00  0.00    -0.069 C 
ATOM     15  C   UNL     1      -3.229  31.373  50.792  1.00  0.00     0.039 C 
ATOM     16  C   UNL     1      -1.423  32.237  52.433  1.00  0.00     0.039 C 
BRANCH  13  17
ATOM     17  C   UNL     1      -0.805  29.497  53.224  1.00  0.00     0.066 CG0
ATOM     18  G   UNL     1      -1.400  28.951  54.502  1.00  0.00     0.000 G0
ENDBRANCH  13  17
ENDBRANCH  11  13
ENDBRANCH  10  11
ENDBRANCH   1  10
TORSDOF 0
ENDMDL
MODEL 5
REMARK VINA RESULT:    -3.401      2.033      3.453
REMARK INTER + INTRA:          -4.305
REMARK INTER:                  -4.889
REMARK INTRA:                   0.584
REMARK UNBOUND:                 0.488
REMARK SMILES CC1=CCC(=C(C)C)C(=O)CC(C)=CCC1
REMARK SMILES IDX 12 1 14 2 13 3 15 4 16 5 2 6 1 7 3 8 11 10 9 11 10 12 5 13
REMARK SMILES IDX 6 14 7 15 8 16 4 17
REMARK H PARENT
REMARK Flexibility Score: 60.00
ROOT
ATOM      1  C   UNL     1      -1.784  29.953  50.938  1.00  0.00    -0.070 C 
ATOM      2  C   UNL     1      -1.604  31.090  51.652  1.00  0.00    -0.027 C 
ATOM      3  C   UNL     1      -0.674  29.510  50.020  1.00  0.00     0.039 C 
ENDROOT
BRANCH   2   4
ATOM      4  C   UNL     1      -2.582  31.649  52.661  1.00  0.00     0.032 C 
BRANCH   4   5
ATOM      5  C   UNL     1      -1.978  31.689  54.073  1.00  0.00     0.034 C 
BRANCH   5   6
ATOM      6  C   UNL     1      -2.585  30.667  55.023  1.00  0.00    -0.077 C 
ATOM      7  C   UNL     1      -3.590  31.132  56.046  1.00  0.00     0.039 C 
ATOM      8  C   UNL     1      -2.283  29.348  54.991  1.00  0.00    -0.023 CG0
ATOM      9  G   UNL     1      -1.253  28.708  54.090  1.00  0.00     0.000 G0
ENDBRANCH   5   6
ENDBRANCH   4   5
ENDBRANCH   2   4
BRANCH   1  10
ATOM     10  C   UNL     1      -3.047  29.119  51.020  1.00  0.00     0.111 C 
BRANCH  10  11
ATOM     11  C   UNL     1      -3.083  28.315  52.290  1.00  0.00     0.163 C 
ATOM     12  O   UNL     1      -4.196  27.997  52.788  1.00  0.00    -0.294 OA
BRANCH  11  13
ATOM     13  C   UNL     1      -1.832  27.868  52.955  1.00  0.00    -0.002 C 
ATOM     14  C   UNL     1      -1.217  26.720  52.562  1.00  0.00    -0.069 C 
ATOM     15  C   UNL     1      -1.730  25.921  51.385  1.00  0.00     0.039 C 
ATOM     16  C   UNL     1       0.027  26.222  53.262  1.00  0.00     0.039 C 
BRANCH  13  17
ATOM     17  C   UNL     1      -1.248  28.715  54.081  1.00  0.00     0.066 CG0
ATOM     18  G   UNL     1      -2.292  29.343  54.975  1.00  0.00     0.000 G0
ENDBRANCH  13  17
ENDBRANCH  11  13
ENDBRANCH  10  11
ENDBRANCH   1  10
TORSDOF 0
ENDMDL
MODEL 6
REMARK VINA RESULT:    -3.289      2.007      3.673
REMARK INTER + INTRA:          -4.147
REMARK INTER:                  -4.936
REMARK INTRA:                   0.789
REMARK UNBOUND:                 0.488
REMARK SMILES CC1=CCC(=C(C)C)C(=O)CC(C)=CCC1
REMARK SMILES IDX 12 1 14 2 13 3 15 4 16 5 2 6 1 7 3 8 11 10 9 11 10 12 5 13
REMARK SMILES IDX 6 14 7 15 8 16 4 17
REMARK H PARENT
REMARK Flexibility Score: 60.00
ROOT
ATOM      1  C   UNL     1      -1.651  30.380  52.869  1.00  0.00    -0.070 C 
ATOM      2  C   UNL     1      -2.418  31.081  52.001  1.00  0.00    -0.027 C 
ATOM      3  C   UNL     1      -0.217  30.110  52.490  1.00  0.00     0.039 C 
ENDROOT
BRANCH   2   4
ATOM      4  C   UNL     1      -3.853  31.493  52.244  1.00  0.00     0.032 C 
BRANCH   4   5
ATOM      5  C   UNL     1      -4.813  30.300  52.116  1.00  0.00     0.034 C 
BRANCH   5   6
ATOM      6  C   UNL     1      -4.404  29.304  51.041  1.00  0.00    -0.077 C 
ATOM      7  C   UNL     1      -4.530  29.704  49.592  1.00  0.00     0.039 C 
ATOM      8  C   UNL     1      -3.913  28.073  51.314  1.00  0.00    -0.023 CG0
ATOM      9  G   UNL     1      -3.780  27.470  52.693  1.00  0.00     0.000 G0
ENDBRANCH   5   6
ENDBRANCH   4   5
ENDBRANCH   2   4
BRANCH   1  10
ATOM     10  C   UNL     1      -2.170  29.856  54.193  1.00  0.00     0.111 C 
BRANCH  10  11
ATOM     11  C   UNL     1      -1.947  28.374  54.313  1.00  0.00     0.163 C 
ATOM     12  O   UNL     1      -1.438  27.909  55.369  1.00  0.00    -0.294 OA
BRANCH  11  13
ATOM     13  C   UNL     1      -2.335  27.445  53.222  1.00  0.00    -0.002 C 
ATOM     14  C   UNL     1      -1.423  26.578  52.701  1.00  0.00    -0.069 C 
ATOM     15  C   UNL     1      -0.029  26.472  53.275  1.00  0.00     0.039 C 
ATOM     16  C   UNL     1      -1.785  25.662  51.554  1.00  0.00     0.039 C 
BRANCH  13  17
ATOM     17  C   UNL     1      -3.766  27.473  52.697  1.00  0.00     0.066 CG0
ATOM     18  G   UNL     1      -3.898  28.085  51.321  1.00  0.00     0.000 G0
ENDBRANCH  13  17
ENDBRANCH  11  13
ENDBRANCH  10  11
ENDBRANCH   1  10
TORSDOF 0
ENDMDL
MODEL 7
REMARK VINA RESULT:    -3.281      1.879      2.640
REMARK INTER + INTRA:          -4.135
REMARK INTER:                  -4.738
REMARK INTRA:                   0.603
REMARK UNBOUND:                 0.488
REMARK SMILES CC1=CCC(=C(C)C)C(=O)CC(C)=CCC1
REMARK SMILES IDX 12 1 14 2 13 3 15 4 16 5 2 6 1 7 3 8 11 10 9 11 10 12 5 13
REMARK SMILES IDX 6 14 7 15 8 16 4 17
REMARK H PARENT
REMARK Flexibility Score: 60.00
ROOT
ATOM      1  C   UNL     1      -3.307  30.644  54.693  1.00  0.00    -0.070 C 
ATOM      2  C   UNL     1      -3.169  31.278  53.504  1.00  0.00    -0.027 C 
ATOM      3  C   UNL     1      -4.685  30.566  55.298  1.00  0.00     0.039 C 
ENDROOT
BRANCH   2   4
ATOM      4  C   UNL     1      -1.877  31.399  52.727  1.00  0.00     0.032 C 
BRANCH   4   5
ATOM      5  C   UNL     1      -1.992  30.759  51.335  1.00  0.00     0.034 C 
BRANCH   5   6
ATOM      6  C   UNL     1      -2.498  29.324  51.366  1.00  0.00    -0.077 C 
ATOM      7  C   UNL     1      -3.750  28.978  50.599  1.00  0.00     0.039 C 
ATOM      8  C   UNL     1      -1.872  28.327  52.033  1.00  0.00    -0.023 CG0
ATOM      9  G   UNL     1      -0.653  28.493  52.910  1.00  0.00     0.000 G0
ENDBRANCH   5   6
ENDBRANCH   4   5
ENDBRANCH   2   4
BRANCH   1  10
ATOM     10  C   UNL     1      -2.142  30.019  55.436  1.00  0.00     0.111 C 
BRANCH  10  11
ATOM     11  C   UNL     1      -2.018  28.556  55.114  1.00  0.00     0.163 C 
ATOM     12  O   UNL     1      -2.929  27.764  55.479  1.00  0.00    -0.294 OA
BRANCH  11  13
ATOM     13  C   UNL     1      -0.855  28.029  54.356  1.00  0.00    -0.002 C 
ATOM     14  C   UNL     1       0.003  27.148  54.940  1.00  0.00    -0.069 C 
ATOM     15  C   UNL     1      -0.252  26.613  56.331  1.00  0.00     0.039 C 
ATOM     16  C   UNL     1       1.221  26.640  54.202  1.00  0.00     0.039 C 
BRANCH  13  17
ATOM     17  C   UNL     1      -0.638  28.485  52.917  1.00  0.00     0.066 CG0
ATOM     18  G   UNL     1      -1.852  28.310  52.034  1.00  0.00     0.000 G0
ENDBRANCH  13  17
ENDBRANCH  11  13
ENDBRANCH  10  11
ENDBRANCH   1  10
TORSDOF 0
ENDMDL
MODEL 8
REMARK VINA RESULT:    -3.204      8.409     10.120
REMARK INTER + INTRA:          -4.027
REMARK INTER:                  -4.342
REMARK INTRA:                   0.315
REMARK UNBOUND:                 0.488
REMARK SMILES CC1=CCC(=C(C)C)C(=O)CC(C)=CCC1
REMARK SMILES IDX 12 1 14 2 13 3 15 4 16 5 2 6 1 7 3 8 11 10 9 11 10 12 5 13
REMARK SMILES IDX 6 14 7 15 8 16 4 17
REMARK H PARENT
REMARK Flexibility Score: 60.00
ROOT
ATOM      1  C   UNL     1      -0.370  33.574  61.567  1.00  0.00    -0.070 C 
ATOM      2  C   UNL     1      -0.325  32.250  61.285  1.00  0.00    -0.027 C 
ATOM      3  C   UNL     1       0.005  34.015  62.959  1.00  0.00     0.039 C 
ENDROOT
BRANCH   2   4
ATOM      4  C   UNL     1      -0.609  31.638  59.931  1.00  0.00     0.032 C 
BRANCH   4   5
ATOM      5  C   UNL     1      -2.113  31.413  59.718  1.00  0.00     0.034 C 
BRANCH   5   6
ATOM      6  C   UNL     1      -2.633  31.980  58.405  1.00  0.00    -0.077 C 
ATOM      7  C   UNL     1      -2.193  31.343  57.112  1.00  0.00     0.039 C 
ATOM      8  C   UNL     1      -3.492  33.024  58.333  1.00  0.00    -0.023 CG0
ATOM      9  G   UNL     1      -3.987  33.832  59.510  1.00  0.00     0.000 G0
ENDBRANCH   5   6
ENDBRANCH   4   5
ENDBRANCH   2   4
BRANCH   1  10
ATOM     10  C   UNL     1      -0.784  34.621  60.552  1.00  0.00     0.111 C 
BRANCH  10  11
ATOM     11  C   UNL     1      -2.172  35.127  60.832  1.00  0.00     0.163 C 
ATOM     12  O   UNL     1      -2.444  35.586  61.973  1.00  0.00    -0.294 OA
BRANCH  11  13
ATOM     13  C   UNL     1      -3.222  35.116  59.782  1.00  0.00    -0.002 C 
ATOM     14  C   UNL     1      -3.487  36.242  59.064  1.00  0.00    -0.069 C 
ATOM     15  C   UNL     1      -2.665  37.498  59.247  1.00  0.00     0.039 C 
ATOM     16  C   UNL     1      -4.588  36.266  58.028  1.00  0.00     0.039 C 
BRANCH  13  17
ATOM     17  C   UNL     1      -3.996  33.828  59.518  1.00  0.00     0.066 CG0
ATOM     18  G   UNL     1      -3.476  33.036  58.342  1.00  0.00     0.000 G0
ENDBRANCH  13  17
ENDBRANCH  11  13
ENDBRANCH  10  11
ENDBRANCH   1  10
TORSDOF 0
ENDMDL
MODEL 9
REMARK VINA RESULT:    -3.167      2.288      4.438
REMARK INTER + INTRA:          -3.975
REMARK INTER:                  -4.541
REMARK INTRA:                   0.566
REMARK UNBOUND:                 0.488
REMARK SMILES CC1=CCC(=C(C)C)C(=O)CC(C)=CCC1
REMARK SMILES IDX 12 1 14 2 13 3 15 4 16 5 2 6 1 7 3 8 11 10 9 11 10 12 5 13
REMARK SMILES IDX 6 14 7 15 8 16 4 17
REMARK H PARENT
REMARK Flexibility Score: 60.00
ROOT
ATOM      1  C   UNL     1      -1.035  27.464  53.001  1.00  0.00    -0.070 C 
ATOM      2  C   UNL     1      -1.658  27.324  54.195  1.00  0.00    -0.027 C 
ATOM      3  C   UNL     1      -1.357  26.473  51.912  1.00  0.00     0.039 C 
ENDROOT
BRANCH   2   4
ATOM      4  C   UNL     1      -1.500  28.257  55.374  1.00  0.00     0.032 C 
BRANCH   4   5
ATOM      5  C   UNL     1      -2.810  28.994  55.692  1.00  0.00     0.034 C 
BRANCH   5   6
ATOM      6  C   UNL     1      -2.809  30.452  55.257  1.00  0.00    -0.077 C 
ATOM      7  C   UNL     1      -2.602  31.522  56.299  1.00  0.00     0.039 C 
ATOM      8  C   UNL     1      -2.967  30.846  53.972  1.00  0.00    -0.023 CG0
ATOM      9  G   UNL     1      -3.256  29.930  52.805  1.00  0.00     0.000 G0
ENDBRANCH   5   6
ENDBRANCH   4   5
ENDBRANCH   2   4
BRANCH   1  10
ATOM     10  C   UNL     1      -0.032  28.565  52.717  1.00  0.00     0.111 C 
BRANCH  10  11
ATOM     11  C   UNL     1      -0.723  29.829  52.285  1.00  0.00     0.163 C 
ATOM     12  O   UNL     1      -0.095  30.921  52.324  1.00  0.00    -0.294 OA
BRANCH  11  13
ATOM     13  C   UNL     1      -2.123  29.811  51.791  1.00  0.00    -0.002 C 
ATOM     14  C   UNL     1      -2.381  29.687  50.460  1.00  0.00    -0.069 C 
ATOM     15  C   UNL     1      -1.263  29.471  49.464  1.00  0.00     0.039 C 
ATOM     16  C   UNL     1      -3.797  29.720  49.933  1.00  0.00     0.039 C 
BRANCH  13  17
ATOM     17  C   UNL     1      -3.266  29.931  52.794  1.00  0.00     0.066 CG0
ATOM     18  G   UNL     1      -2.960  30.844  53.958  1.00  0.00     0.000 G0
ENDBRANCH  13  17
ENDBRANCH  11  13
ENDBRANCH  10  11
ENDBRANCH   1  10
TORSDOF 0
ENDMDL
