MODEL 1
REMARK VINA RESULT:    -5.042      0.000      0.000
REMARK INTER + INTRA:          -5.042
REMARK INTER:                  -5.042
REMARK INTRA:                   0.000
REMARK UNBOUND:                 0.000
REMARK SMILES O=c1ccc2ccccc2o1
REMARK SMILES IDX 7 1 8 2 9 3 10 4 5 5 6 6 4 7 3 8 2 9 1 10 11 11
REMARK H PARENT
REMARK Flexibility Score: inf
ROOT
ATOM      1  C   UNL     1      27.114  11.371 -31.602  1.00  0.00     0.001 A 
ATOM      2  C   UNL     1      26.742  10.047 -31.860  1.00  0.00     0.004 A 
ATOM      3  C   UNL     1      27.512   9.254 -32.718  1.00  0.00     0.048 A 
ATOM      4  C   UNL     1      28.658   9.783 -33.321  1.00  0.00     0.138 A 
ATOM      5  C   UNL     1      29.033  11.121 -33.061  1.00  0.00     0.018 A 
ATOM      6  C   UNL     1      28.258  11.911 -32.200  1.00  0.00     0.012 A 
ATOM      7  C   UNL     1      30.183  11.622 -33.678  1.00  0.00     0.019 A 
ATOM      8  C   UNL     1      30.921  10.796 -34.526  1.00  0.00     0.094 A 
ATOM      9  C   UNL     1      30.488   9.482 -34.737  1.00  0.00     0.336 A 
ATOM     10  O   UNL     1      31.141   8.721 -35.499  1.00  0.00    -0.246 OA
ATOM     11  O   UNL     1      29.390   9.029 -34.138  1.00  0.00    -0.423 OA
ENDROOT
TORSDOF 0
ENDMDL
MODEL 2
REMARK VINA RESULT:    -4.774      1.198      2.277
REMARK INTER + INTRA:          -4.774
REMARK INTER:                  -4.774
REMARK INTRA:                   0.000
REMARK UNBOUND:                 0.000
REMARK SMILES O=c1ccc2ccccc2o1
REMARK SMILES IDX 7 1 8 2 9 3 10 4 5 5 6 6 4 7 3 8 2 9 1 10 11 11
REMARK H PARENT
REMARK Flexibility Score: inf
ROOT
ATOM      1  C   UNL     1      27.651  12.212 -31.887  1.00  0.00     0.001 A 
ATOM      2  C   UNL     1      28.648  13.125 -32.249  1.00  0.00     0.004 A 
ATOM      3  C   UNL     1      29.707  12.722 -33.069  1.00  0.00     0.048 A 
ATOM      4  C   UNL     1      29.772  11.403 -33.533  1.00  0.00     0.138 A 
ATOM      5  C   UNL     1      28.765  10.481 -33.166  1.00  0.00     0.018 A 
ATOM      6  C   UNL     1      27.707  10.891 -32.343  1.00  0.00     0.012 A 
ATOM      7  C   UNL     1      28.857   9.170 -33.643  1.00  0.00     0.019 A 
ATOM      8  C   UNL     1      29.930   8.812 -34.459  1.00  0.00     0.094 A 
ATOM      9  C   UNL     1      30.890   9.779 -34.780  1.00  0.00     0.336 A 
ATOM     10  O   UNL     1      31.866   9.474 -35.515  1.00  0.00    -0.246 OA
ATOM     11  O   UNL     1      30.780  11.019 -34.313  1.00  0.00    -0.423 OA
ENDROOT
TORSDOF 0
ENDMDL
MODEL 3
REMARK VINA RESULT:    -4.737      1.715      3.862
REMARK INTER + INTRA:          -4.737
REMARK INTER:                  -4.737
REMARK INTRA:                   0.000
REMARK UNBOUND:                 0.000
REMARK SMILES O=c1ccc2ccccc2o1
REMARK SMILES IDX 7 1 8 2 9 3 10 4 5 5 6 6 4 7 3 8 2 9 1 10 11 11
REMARK H PARENT
REMARK Flexibility Score: inf
ROOT
ATOM      1  C   UNL     1      30.871  11.193 -34.108  1.00  0.00     0.001 A 
ATOM      2  C   UNL     1      30.508   9.920 -34.561  1.00  0.00     0.004 A 
ATOM      3  C   UNL     1      29.270   9.373 -34.206  1.00  0.00     0.048 A 
ATOM      4  C   UNL     1      28.388  10.101 -33.398  1.00  0.00     0.138 A 
ATOM      5  C   UNL     1      28.756  11.387 -32.941  1.00  0.00     0.018 A 
ATOM      6  C   UNL     1      29.998  11.929 -33.300  1.00  0.00     0.012 A 
ATOM      7  C   UNL     1      27.855  12.090 -32.135  1.00  0.00     0.019 A 
ATOM      8  C   UNL     1      26.631  11.506 -31.807  1.00  0.00     0.094 A 
ATOM      9  C   UNL     1      26.336  10.229 -32.296  1.00  0.00     0.336 A 
ATOM     10  O   UNL     1      25.237   9.686 -32.010  1.00  0.00    -0.246 OA
ATOM     11  O   UNL     1      27.211   9.581 -33.061  1.00  0.00    -0.423 OA
ENDROOT
TORSDOF 0
ENDMDL
MODEL 4
REMARK VINA RESULT:    -4.709     11.329     12.128
REMARK INTER + INTRA:          -4.709
REMARK INTER:                  -4.709
REMARK INTRA:                   0.000
REMARK UNBOUND:                 0.000
REMARK SMILES O=c1ccc2ccccc2o1
REMARK SMILES IDX 7 1 8 2 9 3 10 4 5 5 6 6 4 7 3 8 2 9 1 10 11 11
REMARK H PARENT
REMARK Flexibility Score: inf
ROOT
ATOM      1  C   UNL     1      30.473   5.395 -24.356  1.00  0.00     0.001 A 
ATOM      2  C   UNL     1      31.702   5.710 -24.947  1.00  0.00     0.004 A 
ATOM      3  C   UNL     1      32.595   6.569 -24.298  1.00  0.00     0.048 A 
ATOM      4  C   UNL     1      32.264   7.114 -23.053  1.00  0.00     0.138 A 
ATOM      5  C   UNL     1      31.023   6.796 -22.456  1.00  0.00     0.018 A 
ATOM      6  C   UNL     1      30.131   5.935 -23.112  1.00  0.00     0.012 A 
ATOM      7  C   UNL     1      30.718   7.356 -21.212  1.00  0.00     0.019 A 
ATOM      8  C   UNL     1      31.640   8.206 -20.601  1.00  0.00     0.094 A 
ATOM      9  C   UNL     1      32.849   8.477 -21.251  1.00  0.00     0.336 A 
ATOM     10  O   UNL     1      33.692   9.242 -20.715  1.00  0.00    -0.246 OA
ATOM     11  O   UNL     1      33.114   7.931 -22.435  1.00  0.00    -0.423 OA
ENDROOT
TORSDOF 0
ENDMDL
MODEL 5
REMARK VINA RESULT:    -4.634     10.951     11.460
REMARK INTER + INTRA:          -4.634
REMARK INTER:                  -4.634
REMARK INTRA:                   0.000
REMARK UNBOUND:                 0.000
REMARK SMILES O=c1ccc2ccccc2o1
REMARK SMILES IDX 7 1 8 2 9 3 10 4 5 5 6 6 4 7 3 8 2 9 1 10 11 11
REMARK H PARENT
REMARK Flexibility Score: inf
ROOT
ATOM      1  C   UNL     1      31.986   8.227 -20.654  1.00  0.00     0.001 A 
ATOM      2  C   UNL     1      30.798   7.531 -20.400  1.00  0.00     0.004 A 
ATOM      3  C   UNL     1      30.269   6.669 -21.367  1.00  0.00     0.048 A 
ATOM      4  C   UNL     1      30.926   6.498 -22.590  1.00  0.00     0.138 A 
ATOM      5  C   UNL     1      32.126   7.202 -22.845  1.00  0.00     0.018 A 
ATOM      6  C   UNL     1      32.651   8.065 -21.873  1.00  0.00     0.012 A 
ATOM      7  C   UNL     1      32.760   7.012 -24.076  1.00  0.00     0.019 A 
ATOM      8  C   UNL     1      32.197   6.142 -25.009  1.00  0.00     0.094 A 
ATOM      9  C   UNL     1      31.007   5.480 -24.688  1.00  0.00     0.336 A 
ATOM     10  O   UNL     1      30.483   4.691 -25.517  1.00  0.00    -0.246 OA
ATOM     11  O   UNL     1      30.423   5.678 -23.509  1.00  0.00    -0.423 OA
ENDROOT
TORSDOF 0
ENDMDL
MODEL 6
REMARK VINA RESULT:    -4.632      2.438      4.066
REMARK INTER + INTRA:          -4.632
REMARK INTER:                  -4.632
REMARK INTRA:                   0.000
REMARK UNBOUND:                 0.000
REMARK SMILES O=c1ccc2ccccc2o1
REMARK SMILES IDX 7 1 8 2 9 3 10 4 5 5 6 6 4 7 3 8 2 9 1 10 11 11
REMARK H PARENT
REMARK Flexibility Score: inf
ROOT
ATOM      1  C   UNL     1      30.163  12.017 -33.309  1.00  0.00     0.001 A 
ATOM      2  C   UNL     1      29.333  12.899 -32.609  1.00  0.00     0.004 A 
ATOM      3  C   UNL     1      28.053  12.495 -32.214  1.00  0.00     0.048 A 
ATOM      4  C   UNL     1      27.600  11.206 -32.515  1.00  0.00     0.138 A 
ATOM      5  C   UNL     1      28.440  10.315 -33.222  1.00  0.00     0.018 A 
ATOM      6  C   UNL     1      29.721  10.726 -33.617  1.00  0.00     0.012 A 
ATOM      7  C   UNL     1      27.960   9.034 -33.510  1.00  0.00     0.019 A 
ATOM      8  C   UNL     1      26.678   8.674 -33.095  1.00  0.00     0.094 A 
ATOM      9  C   UNL     1      25.903   9.608 -32.399  1.00  0.00     0.336 A 
ATOM     10  O   UNL     1      24.743   9.302 -32.017  1.00  0.00    -0.246 OA
ATOM     11  O   UNL     1      26.383  10.821 -32.139  1.00  0.00    -0.423 OA
ENDROOT
TORSDOF 0
ENDMDL
MODEL 7
REMARK VINA RESULT:    -4.535     11.949     12.506
REMARK INTER + INTRA:          -4.535
REMARK INTER:                  -4.535
REMARK INTRA:                   0.000
REMARK UNBOUND:                 0.000
REMARK SMILES O=c1ccc2ccccc2o1
REMARK SMILES IDX 7 1 8 2 9 3 10 4 5 5 6 6 4 7 3 8 2 9 1 10 11 11
REMARK H PARENT
REMARK Flexibility Score: inf
ROOT
ATOM      1  C   UNL     1      29.390   6.757 -22.280  1.00  0.00     0.001 A 
ATOM      2  C   UNL     1      30.049   5.956 -23.220  1.00  0.00     0.004 A 
ATOM      3  C   UNL     1      31.447   5.943 -23.276  1.00  0.00     0.048 A 
ATOM      4  C   UNL     1      32.191   6.730 -22.389  1.00  0.00     0.138 A 
ATOM      5  C   UNL     1      31.524   7.538 -21.439  1.00  0.00     0.018 A 
ATOM      6  C   UNL     1      30.123   7.547 -21.389  1.00  0.00     0.012 A 
ATOM      7  C   UNL     1      32.294   8.312 -20.567  1.00  0.00     0.019 A 
ATOM      8  C   UNL     1      33.685   8.268 -20.657  1.00  0.00     0.094 A 
ATOM      9  C   UNL     1      34.276   7.444 -21.622  1.00  0.00     0.336 A 
ATOM     10  O   UNL     1      35.530   7.391 -21.719  1.00  0.00    -0.246 OA
ATOM     11  O   UNL     1      33.521   6.717 -22.441  1.00  0.00    -0.423 OA
ENDROOT
TORSDOF 0
ENDMDL
MODEL 8
REMARK VINA RESULT:    -4.499     11.822     12.580
REMARK INTER + INTRA:          -4.499
REMARK INTER:                  -4.499
REMARK INTRA:                   0.000
REMARK UNBOUND:                 0.000
REMARK SMILES O=c1ccc2ccccc2o1
REMARK SMILES IDX 7 1 8 2 9 3 10 4 5 5 6 6 4 7 3 8 2 9 1 10 11 11
REMARK H PARENT
REMARK Flexibility Score: inf
ROOT
ATOM      1  C   UNL     1      33.921   8.447 -20.648  1.00  0.00     0.001 A 
ATOM      2  C   UNL     1      34.563   7.603 -21.561  1.00  0.00     0.004 A 
ATOM      3  C   UNL     1      33.812   6.764 -22.392  1.00  0.00     0.048 A 
ATOM      4  C   UNL     1      32.415   6.768 -22.314  1.00  0.00     0.138 A 
ATOM      5  C   UNL     1      31.767   7.620 -21.391  1.00  0.00     0.018 A 
ATOM      6  C   UNL     1      32.525   8.458 -20.561  1.00  0.00     0.012 A 
ATOM      7  C   UNL     1      30.370   7.602 -21.336  1.00  0.00     0.019 A 
ATOM      8  C   UNL     1      29.662   6.750 -22.183  1.00  0.00     0.094 A 
ATOM      9  C   UNL     1      30.372   5.934 -23.071  1.00  0.00     0.336 A 
ATOM     10  O   UNL     1      29.750   5.159 -23.844  1.00  0.00    -0.246 OA
ATOM     11  O   UNL     1      31.701   5.970 -23.105  1.00  0.00    -0.423 OA
ENDROOT
TORSDOF 0
ENDMDL
MODEL 9
REMARK VINA RESULT:    -4.459     12.276     12.797
REMARK INTER + INTRA:          -4.459
REMARK INTER:                  -4.459
REMARK INTRA:                   0.000
REMARK UNBOUND:                 0.000
REMARK SMILES O=c1ccc2ccccc2o1
REMARK SMILES IDX 7 1 8 2 9 3 10 4 5 5 6 6 4 7 3 8 2 9 1 10 11 11
REMARK H PARENT
REMARK Flexibility Score: inf
ROOT
ATOM      1  C   UNL     1      29.740   6.378 -22.802  1.00  0.00     0.001 A 
ATOM      2  C   UNL     1      29.486   6.836 -21.504  1.00  0.00     0.004 A 
ATOM      3  C   UNL     1      30.537   7.292 -20.701  1.00  0.00     0.048 A 
ATOM      4  C   UNL     1      31.847   7.294 -21.195  1.00  0.00     0.138 A 
ATOM      5  C   UNL     1      32.102   6.832 -22.506  1.00  0.00     0.018 A 
ATOM      6  C   UNL     1      31.045   6.375 -23.306  1.00  0.00     0.012 A 
ATOM      7  C   UNL     1      33.420   6.845 -22.972  1.00  0.00     0.019 A 
ATOM      8  C   UNL     1      34.437   7.310 -22.137  1.00  0.00     0.094 A 
ATOM      9  C   UNL     1      34.109   7.752 -20.850  1.00  0.00     0.336 A 
ATOM     10  O   UNL     1      35.012   8.174 -20.082  1.00  0.00    -0.246 OA
ATOM     11  O   UNL     1      32.847   7.728 -20.431  1.00  0.00    -0.423 OA
ENDROOT
TORSDOF 0
ENDMDL
