MODEL 1
REMARK VINA RESULT:    -2.669      0.000      0.000
REMARK INTER + INTRA:          -5.085
REMARK INTER:                  -3.918
REMARK INTRA:                  -1.168
REMARK UNBOUND:                -1.168
REMARK SMILES CCCCCC(=O)CCCCC
REMARK SMILES IDX 6 1 7 2 5 3 4 4 3 5 2 6 1 7 8 8 9 9 10 10 11 11 12 12
REMARK H PARENT
REMARK Flexibility Score: inf
ROOT
ATOM      1  C   UNL     1     142.880 149.002 141.013  1.00  0.00     0.132 C 
ATOM      2  O   UNL     1     143.610 149.982 140.980  1.00  0.00    -0.300 OA
ENDROOT
BRANCH   1   3
ATOM      3  C   UNL     1     143.283 147.800 141.828  1.00  0.00     0.075 C 
BRANCH   3   4
ATOM      4  C   UNL     1     142.988 146.479 141.097  1.00  0.00     0.008 C 
BRANCH   4   5
ATOM      5  C   UNL     1     142.246 145.444 141.971  1.00  0.00     0.000 C 
BRANCH   5   6
ATOM      6  C   UNL     1     141.785 145.997 143.330  1.00  0.00    -0.003 C 
ATOM      7  C   UNL     1     142.344 145.215 144.516  1.00  0.00     0.004 C 
ENDBRANCH   5   6
ENDBRANCH   4   5
ENDBRANCH   3   4
ENDBRANCH   1   3
BRANCH   1   8
ATOM      8  C   UNL     1     141.618 148.989 140.192  1.00  0.00     0.075 C 
BRANCH   8   9
ATOM      9  C   UNL     1     140.363 148.909 141.072  1.00  0.00     0.008 C 
BRANCH   9  10
ATOM     10  C   UNL     1     139.501 147.678 140.743  1.00  0.00     0.000 C 
BRANCH  10  11
ATOM     11  C   UNL     1     139.758 147.139 139.328  1.00  0.00    -0.003 C 
ATOM     12  C   UNL     1     139.715 145.613 139.261  1.00  0.00     0.004 C 
ENDBRANCH  10  11
ENDBRANCH   9  10
ENDBRANCH   8   9
ENDBRANCH   1   8
TORSDOF 8
ENDMDL
MODEL 2
REMARK VINA RESULT:    -2.558      7.803      9.384
REMARK INTER + INTRA:          -4.922
REMARK INTER:                  -3.916
REMARK INTRA:                  -1.006
REMARK UNBOUND:                -1.168
REMARK SMILES CCCCCC(=O)CCCCC
REMARK SMILES IDX 6 1 7 2 5 3 4 4 3 5 2 6 1 7 8 8 9 9 10 10 11 11 12 12
REMARK H PARENT
REMARK Flexibility Score: inf
ROOT
ATOM      1  C   UNL     1     145.905 140.985 140.117  1.00  0.00     0.132 C 
ATOM      2  O   UNL     1     145.501 140.323 139.172  1.00  0.00    -0.300 OA
ENDROOT
BRANCH   1   3
ATOM      3  C   UNL     1     145.152 140.958 141.421  1.00  0.00     0.075 C 
BRANCH   3   4
ATOM      4  C   UNL     1     145.221 139.581 142.102  1.00  0.00     0.008 C 
BRANCH   4   5
ATOM      5  C   UNL     1     146.163 139.546 143.326  1.00  0.00     0.000 C 
BRANCH   5   6
ATOM      6  C   UNL     1     145.463 139.869 144.657  1.00  0.00    -0.003 C 
ATOM      7  C   UNL     1     144.524 138.760 145.125  1.00  0.00     0.004 C 
ENDBRANCH   5   6
ENDBRANCH   4   5
ENDBRANCH   3   4
ENDBRANCH   1   3
BRANCH   1   8
ATOM      8  C   UNL     1     147.118 141.861 139.943  1.00  0.00     0.075 C 
BRANCH   8   9
ATOM      9  C   UNL     1     148.229 141.505 140.941  1.00  0.00     0.008 C 
BRANCH   9  10
ATOM     10  C   UNL     1     149.194 140.446 140.380  1.00  0.00     0.000 C 
BRANCH  10  11
ATOM     11  C   UNL     1     148.987 139.064 141.016  1.00  0.00    -0.003 C 
ATOM     12  C   UNL     1     148.211 138.108 140.110  1.00  0.00     0.004 C 
ENDBRANCH  10  11
ENDBRANCH   9  10
ENDBRANCH   8   9
ENDBRANCH   1   8
TORSDOF 8
ENDMDL
MODEL 3
REMARK VINA RESULT:    -2.545      0.948      3.709
REMARK INTER + INTRA:          -4.903
REMARK INTER:                  -3.543
REMARK INTRA:                  -1.360
REMARK UNBOUND:                -1.168
REMARK SMILES CCCCCC(=O)CCCCC
REMARK SMILES IDX 6 1 7 2 5 3 4 4 3 5 2 6 1 7 8 8 9 9 10 10 11 11 12 12
REMARK H PARENT
REMARK Flexibility Score: inf
ROOT
ATOM      1  C   UNL     1     142.797 149.258 140.911  1.00  0.00     0.132 C 
ATOM      2  O   UNL     1     143.599 150.178 140.844  1.00  0.00    -0.300 OA
ENDROOT
BRANCH   1   3
ATOM      3  C   UNL     1     141.378 149.470 140.450  1.00  0.00     0.075 C 
BRANCH   3   4
ATOM      4  C   UNL     1     140.362 148.751 141.352  1.00  0.00     0.008 C 
BRANCH   4   5
ATOM      5  C   UNL     1     139.545 147.666 140.616  1.00  0.00     0.000 C 
BRANCH   5   6
ATOM      6  C   UNL     1     139.962 147.464 139.150  1.00  0.00    -0.003 C 
ATOM      7  C   UNL     1     139.361 146.208 138.523  1.00  0.00     0.004 C 
ENDBRANCH   5   6
ENDBRANCH   4   5
ENDBRANCH   3   4
ENDBRANCH   1   3
BRANCH   1   8
ATOM      8  C   UNL     1     143.226 147.943 141.508  1.00  0.00     0.075 C 
BRANCH   8   9
ATOM      9  C   UNL     1     143.502 146.888 140.429  1.00  0.00     0.008 C 
BRANCH   9  10
ATOM     10  C   UNL     1     142.678 145.607 140.645  1.00  0.00     0.000 C 
BRANCH  10  11
ATOM     11  C   UNL     1     142.185 145.460 142.092  1.00  0.00    -0.003 C 
ATOM     12  C   UNL     1     140.924 144.604 142.202  1.00  0.00     0.004 C 
ENDBRANCH  10  11
ENDBRANCH   9  10
ENDBRANCH   8   9
ENDBRANCH   1   8
TORSDOF 8
ENDMDL
MODEL 4
REMARK VINA RESULT:    -2.538      7.533      9.213
REMARK INTER + INTRA:          -4.892
REMARK INTER:                  -3.888
REMARK INTRA:                  -1.004
REMARK UNBOUND:                -1.168
REMARK SMILES CCCCCC(=O)CCCCC
REMARK SMILES IDX 6 1 7 2 5 3 4 4 3 5 2 6 1 7 8 8 9 9 10 10 11 11 12 12
REMARK H PARENT
REMARK Flexibility Score: inf
ROOT
ATOM      1  C   UNL     1     135.659 140.695 140.104  1.00  0.00     0.132 C 
ATOM      2  O   UNL     1     136.115 141.320 139.158  1.00  0.00    -0.300 OA
ENDROOT
BRANCH   1   3
ATOM      3  C   UNL     1     136.398 140.684 141.417  1.00  0.00     0.075 C 
BRANCH   3   4
ATOM      4  C   UNL     1     136.397 142.066 142.093  1.00  0.00     0.008 C 
BRANCH   4   5
ATOM      5  C   UNL     1     135.563 142.115 143.393  1.00  0.00     0.000 C 
BRANCH   5   6
ATOM      6  C   UNL     1     136.404 142.337 144.661  1.00  0.00    -0.003 C 
ATOM      7  C   UNL     1     137.892 142.518 144.370  1.00  0.00     0.004 C 
ENDBRANCH   5   6
ENDBRANCH   4   5
ENDBRANCH   3   4
ENDBRANCH   1   3
BRANCH   1   8
ATOM      8  C   UNL     1     134.394 139.897 139.924  1.00  0.00     0.075 C 
BRANCH   8   9
ATOM      9  C   UNL     1     133.363 140.204 141.020  1.00  0.00     0.008 C 
BRANCH   9  10
ATOM     10  C   UNL     1     132.349 141.274 140.581  1.00  0.00     0.000 C 
BRANCH  10  11
ATOM     11  C   UNL     1     132.679 142.665 141.144  1.00  0.00    -0.003 C 
ATOM     12  C   UNL     1     133.329 143.581 140.108  1.00  0.00     0.004 C 
ENDBRANCH  10  11
ENDBRANCH   9  10
ENDBRANCH   8   9
ENDBRANCH   1   8
TORSDOF 8
ENDMDL
MODEL 5
REMARK VINA RESULT:    -2.496     12.349     14.093
REMARK INTER + INTRA:          -4.831
REMARK INTER:                  -3.801
REMARK INTRA:                  -1.030
REMARK UNBOUND:                -1.168
REMARK SMILES CCCCCC(=O)CCCCC
REMARK SMILES IDX 6 1 7 2 5 3 4 4 3 5 2 6 1 7 8 8 9 9 10 10 11 11 12 12
REMARK H PARENT
REMARK Flexibility Score: inf
ROOT
ATOM      1  C   UNL     1     138.654 132.614 140.859  1.00  0.00     0.132 C 
ATOM      2  O   UNL     1     137.711 132.048 140.327  1.00  0.00    -0.300 OA
ENDROOT
BRANCH   1   3
ATOM      3  C   UNL     1     140.054 132.104 140.632  1.00  0.00     0.075 C 
BRANCH   3   4
ATOM      4  C   UNL     1     140.423 132.071 139.139  1.00  0.00     0.008 C 
BRANCH   4   5
ATOM      5  C   UNL     1     140.999 133.407 138.618  1.00  0.00     0.000 C 
BRANCH   5   6
ATOM      6  C   UNL     1     141.809 134.184 139.668  1.00  0.00    -0.003 C 
ATOM      7  C   UNL     1     141.935 135.672 139.347  1.00  0.00     0.004 C 
ENDBRANCH   5   6
ENDBRANCH   4   5
ENDBRANCH   3   4
ENDBRANCH   1   3
BRANCH   1   8
ATOM      8  C   UNL     1     138.397 133.778 141.779  1.00  0.00     0.075 C 
BRANCH   8   9
ATOM      9  C   UNL     1     138.573 135.124 141.063  1.00  0.00     0.008 C 
BRANCH   9  10
ATOM     10  C   UNL     1     139.338 136.145 141.923  1.00  0.00     0.000 C 
BRANCH  10  11
ATOM     11  C   UNL     1     139.898 135.526 143.212  1.00  0.00    -0.003 C 
ATOM     12  C   UNL     1     139.512 136.318 144.462  1.00  0.00     0.004 C 
ENDBRANCH  10  11
ENDBRANCH   9  10
ENDBRANCH   8   9
ENDBRANCH   1   8
TORSDOF 8
ENDMDL
MODEL 6
REMARK VINA RESULT:    -2.483      1.686      2.921
REMARK INTER + INTRA:          -4.812
REMARK INTER:                  -3.538
REMARK INTRA:                  -1.274
REMARK UNBOUND:                -1.168
REMARK SMILES CCCCCC(=O)CCCCC
REMARK SMILES IDX 6 1 7 2 5 3 4 4 3 5 2 6 1 7 8 8 9 9 10 10 11 11 12 12
REMARK H PARENT
REMARK Flexibility Score: inf
ROOT
ATOM      1  C   UNL     1     140.839 148.904 140.172  1.00  0.00     0.132 C 
ATOM      2  O   UNL     1     140.474 148.882 139.006  1.00  0.00    -0.300 OA
ENDROOT
BRANCH   1   3
ATOM      3  C   UNL     1     140.163 148.012 141.181  1.00  0.00     0.075 C 
BRANCH   3   4
ATOM      4  C   UNL     1     140.242 146.527 140.787  1.00  0.00     0.008 C 
BRANCH   4   5
ATOM      5  C   UNL     1     141.202 145.704 141.674  1.00  0.00     0.000 C 
BRANCH   5   6
ATOM      6  C   UNL     1     141.660 146.443 142.942  1.00  0.00    -0.003 C 
ATOM      7  C   UNL     1     142.193 145.506 144.023  1.00  0.00     0.004 C 
ENDBRANCH   5   6
ENDBRANCH   4   5
ENDBRANCH   3   4
ENDBRANCH   1   3
BRANCH   1   8
ATOM      8  C   UNL     1     141.921 149.864 140.593  1.00  0.00     0.075 C 
BRANCH   8   9
ATOM      9  C   UNL     1     143.228 149.137 140.940  1.00  0.00     0.008 C 
BRANCH   9  10
ATOM     10  C   UNL     1     143.931 148.579 139.690  1.00  0.00     0.000 C 
BRANCH  10  11
ATOM     11  C   UNL     1     144.031 147.047 139.706  1.00  0.00    -0.003 C 
ATOM     12  C   UNL     1     143.237 146.392 138.576  1.00  0.00     0.004 C 
ENDBRANCH  10  11
ENDBRANCH   9  10
ENDBRANCH   8   9
ENDBRANCH   1   8
TORSDOF 8
ENDMDL
MODEL 7
REMARK VINA RESULT:    -2.473      8.264     10.234
REMARK INTER + INTRA:          -4.797
REMARK INTER:                  -3.809
REMARK INTRA:                  -0.988
REMARK UNBOUND:                -1.168
REMARK SMILES CCCCCC(=O)CCCCC
REMARK SMILES IDX 6 1 7 2 5 3 4 4 3 5 2 6 1 7 8 8 9 9 10 10 11 11 12 12
REMARK H PARENT
REMARK Flexibility Score: inf
ROOT
ATOM      1  C   UNL     1     148.884 138.914 141.005  1.00  0.00     0.132 C 
ATOM      2  O   UNL     1     149.713 138.108 140.608  1.00  0.00    -0.300 OA
ENDROOT
BRANCH   1   3
ATOM      3  C   UNL     1     149.056 140.377 140.688  1.00  0.00     0.075 C 
BRANCH   3   4
ATOM      4  C   UNL     1     149.248 140.625 139.182  1.00  0.00     0.008 C 
BRANCH   4   5
ATOM      5  C   UNL     1     148.012 141.251 138.499  1.00  0.00     0.000 C 
BRANCH   5   6
ATOM      6  C   UNL     1     147.094 142.019 139.463  1.00  0.00    -0.003 C 
ATOM      7  C   UNL     1     145.616 141.918 139.093  1.00  0.00     0.004 C 
ENDBRANCH   5   6
ENDBRANCH   4   5
ENDBRANCH   3   4
ENDBRANCH   1   3
BRANCH   1   8
ATOM      8  C   UNL     1     147.734 138.438 141.853  1.00  0.00     0.075 C 
BRANCH   8   9
ATOM      9  C   UNL     1     146.377 138.793 141.229  1.00  0.00     0.008 C 
BRANCH   9  10
ATOM     10  C   UNL     1     145.577 139.777 142.100  1.00  0.00     0.000 C 
BRANCH  10  11
ATOM     11  C   UNL     1     146.096 139.843 143.544  1.00  0.00    -0.003 C 
ATOM     12  C   UNL     1     145.139 139.196 144.545  1.00  0.00     0.004 C 
ENDBRANCH  10  11
ENDBRANCH   9  10
ENDBRANCH   8   9
ENDBRANCH   1   8
TORSDOF 8
ENDMDL
MODEL 8
REMARK VINA RESULT:    -2.468      8.455      9.531
REMARK INTER + INTRA:          -4.789
REMARK INTER:                  -3.910
REMARK INTRA:                  -0.879
REMARK UNBOUND:                -1.168
REMARK SMILES CCCCCC(=O)CCCCC
REMARK SMILES IDX 6 1 7 2 5 3 4 4 3 5 2 6 1 7 8 8 9 9 10 10 11 11 12 12
REMARK H PARENT
REMARK Flexibility Score: inf
ROOT
ATOM      1  C   UNL     1     146.639 138.733 140.889  1.00  0.00     0.132 C 
ATOM      2  O   UNL     1     146.953 137.954 140.000  1.00  0.00    -0.300 OA
ENDROOT
BRANCH   1   3
ATOM      3  C   UNL     1     145.195 139.127 141.061  1.00  0.00     0.075 C 
BRANCH   3   4
ATOM      4  C   UNL     1     144.975 139.988 142.316  1.00  0.00     0.008 C 
BRANCH   4   5
ATOM      5  C   UNL     1     143.996 139.357 143.331  1.00  0.00     0.000 C 
BRANCH   5   6
ATOM      6  C   UNL     1     144.612 139.116 144.719  1.00  0.00    -0.003 C 
ATOM      7  C   UNL     1     145.618 140.192 145.124  1.00  0.00     0.004 C 
ENDBRANCH   5   6
ENDBRANCH   4   5
ENDBRANCH   3   4
ENDBRANCH   1   3
BRANCH   1   8
ATOM      8  C   UNL     1     147.711 139.330 141.763  1.00  0.00     0.075 C 
BRANCH   8   9
ATOM      9  C   UNL     1     148.630 140.275 140.977  1.00  0.00     0.008 C 
BRANCH   9  10
ATOM     10  C   UNL     1     148.123 141.727 140.996  1.00  0.00     0.000 C 
BRANCH  10  11
ATOM     11  C   UNL     1     147.266 142.068 139.767  1.00  0.00    -0.003 C 
ATOM     12  C   UNL     1     147.762 141.384 138.494  1.00  0.00     0.004 C 
ENDBRANCH  10  11
ENDBRANCH   9  10
ENDBRANCH   8   9
ENDBRANCH   1   8
TORSDOF 8
ENDMDL
MODEL 9
REMARK VINA RESULT:    -2.444     11.332     12.925
REMARK INTER + INTRA:          -4.755
REMARK INTER:                  -3.830
REMARK INTRA:                  -0.924
REMARK UNBOUND:                -1.168
REMARK SMILES CCCCCC(=O)CCCCC
REMARK SMILES IDX 6 1 7 2 5 3 4 4 3 5 2 6 1 7 8 8 9 9 10 10 11 11 12 12
REMARK H PARENT
REMARK Flexibility Score: inf
ROOT
ATOM      1  C   UNL     1     141.014 135.511 140.218  1.00  0.00     0.132 C 
ATOM      2  O   UNL     1     140.395 135.780 139.198  1.00  0.00    -0.300 OA
ENDROOT
BRANCH   1   3
ATOM      3  C   UNL     1     140.953 136.449 141.395  1.00  0.00     0.075 C 
BRANCH   3   4
ATOM      4  C   UNL     1     139.564 136.462 142.055  1.00  0.00     0.008 C 
BRANCH   4   5
ATOM      5  C   UNL     1     139.486 135.613 143.343  1.00  0.00     0.000 C 
BRANCH   5   6
ATOM      6  C   UNL     1     139.200 136.434 144.611  1.00  0.00    -0.003 C 
ATOM      7  C   UNL     1     139.033 137.926 144.334  1.00  0.00     0.004 C 
ENDBRANCH   5   6
ENDBRANCH   4   5
ENDBRANCH   3   4
ENDBRANCH   1   3
BRANCH   1   8
ATOM      8  C   UNL     1     141.873 134.275 140.260  1.00  0.00     0.075 C 
BRANCH   8   9
ATOM      9  C   UNL     1     141.265 133.185 141.153  1.00  0.00     0.008 C 
BRANCH   9  10
ATOM     10  C   UNL     1     140.352 132.230 140.363  1.00  0.00     0.000 C 
BRANCH  10  11
ATOM     11  C   UNL     1     138.930 132.164 140.939  1.00  0.00    -0.003 C 
ATOM     12  C   UNL     1     138.077 133.370 140.544  1.00  0.00     0.004 C 
ENDBRANCH  10  11
ENDBRANCH   9  10
ENDBRANCH   8   9
ENDBRANCH   1   8
TORSDOF 8
ENDMDL
