MODEL 1
REMARK VINA RESULT:    -5.060      0.000      0.000
REMARK INTER + INTRA:          -6.361
REMARK INTER:                  -6.095
REMARK INTRA:                  -0.266
REMARK UNBOUND:                -0.266
REMARK SMILES NC(=O)C[C@H]([NH3+])C(=O)[O-]
REMARK SMILES IDX 4 1 5 2 6 3 7 7 8 8 9 9 2 10 3 11 1 12
REMARK H PARENT 6 4 6 5 6 6 1 13 1 14
REMARK Flexibility Score: inf
ROOT
ATOM      1  C   UNL     1      37.019  26.137  35.488  1.00  0.00     0.171 C 
ENDROOT
BRANCH   1   2
ATOM      2  C   UNL     1      37.588  26.437  34.087  1.00  0.00     0.237 C 
BRANCH   2   3
ATOM      3  N   UNL     1      37.063  27.702  33.553  1.00  0.00    -0.350 N 
ATOM      4  H   UNL     1      36.026  27.650  33.427  1.00  0.00     0.345 HD
ATOM      5  H   UNL     1      37.292  28.488  34.204  1.00  0.00     0.345 HD
ATOM      6  H   UNL     1      37.509  27.909  32.630  1.00  0.00     0.345 HD
ENDBRANCH   2   3
BRANCH   2   7
ATOM      7  C   UNL     1      37.253  25.305  33.153  1.00  0.00     0.100 C 
ATOM      8  O   UNL     1      38.121  24.868  32.351  1.00  0.00    -0.544 OA
ATOM      9  O   UNL     1      35.992  24.722  33.180  1.00  0.00    -0.544 OA
ENDBRANCH   2   7
ENDBRANCH   1   2
BRANCH   1  10
ATOM     10  C   UNL     1      37.026  27.357  36.363  1.00  0.00     0.223 C 
ATOM     11  O   UNL     1      38.107  27.969  36.574  1.00  0.00    -0.275 OA
ATOM     12  N   UNL     1      35.812  27.851  36.930  1.00  0.00    -0.369 N 
ATOM     13  H   UNL     1      34.904  27.369  36.747  1.00  0.00     0.159 HD
ATOM     14  H   UNL     1      35.820  28.705  37.529  1.00  0.00     0.159 HD
ENDBRANCH   1  10
TORSDOF 4
ENDMDL
MODEL 2
REMARK VINA RESULT:    -4.853      1.324      1.393
REMARK INTER + INTRA:          -6.112
REMARK INTER:                  -5.858
REMARK INTRA:                  -0.254
REMARK UNBOUND:                -0.266
REMARK SMILES NC(=O)C[C@H]([NH3+])C(=O)[O-]
REMARK SMILES IDX 4 1 5 2 6 3 7 7 8 8 9 9 2 10 3 11 1 12
REMARK H PARENT 6 4 6 5 6 6 1 13 1 14
REMARK Flexibility Score: inf
ROOT
ATOM      1  C   UNL     1      36.614  25.850  35.596  1.00  0.00     0.171 C 
ENDROOT
BRANCH   1   2
ATOM      2  C   UNL     1      36.774  25.935  34.066  1.00  0.00     0.237 C 
BRANCH   2   3
ATOM      3  N   UNL     1      36.955  27.325  33.621  1.00  0.00    -0.350 N 
ATOM      4  H   UNL     1      36.688  27.995  34.379  1.00  0.00     0.345 HD
ATOM      5  H   UNL     1      37.952  27.488  33.352  1.00  0.00     0.345 HD
ATOM      6  H   UNL     1      36.362  27.507  32.779  1.00  0.00     0.345 HD
ENDBRANCH   2   3
BRANCH   2   7
ATOM      7  C   UNL     1      35.568  25.332  33.397  1.00  0.00     0.100 C 
ATOM      8  O   UNL     1      34.926  25.992  32.536  1.00  0.00    -0.544 OA
ATOM      9  O   UNL     1      35.166  24.040  33.709  1.00  0.00    -0.544 OA
ENDBRANCH   2   7
ENDBRANCH   1   2
BRANCH   1  10
ATOM     10  C   UNL     1      36.878  27.172  36.257  1.00  0.00     0.223 C 
ATOM     11  O   UNL     1      38.033  27.674  36.210  1.00  0.00    -0.275 OA
ATOM     12  N   UNL     1      35.825  27.881  36.910  1.00  0.00    -0.369 N 
ATOM     13  H   UNL     1      34.858  27.490  36.940  1.00  0.00     0.159 HD
ATOM     14  H   UNL     1      36.012  28.804  37.360  1.00  0.00     0.159 HD
ENDBRANCH   1  10
TORSDOF 4
ENDMDL
MODEL 3
REMARK VINA RESULT:    -4.721      1.346      4.010
REMARK INTER + INTRA:          -5.953
REMARK INTER:                  -5.703
REMARK INTRA:                  -0.250
REMARK UNBOUND:                -0.266
REMARK SMILES NC(=O)C[C@H]([NH3+])C(=O)[O-]
REMARK SMILES IDX 4 1 5 2 6 3 7 7 8 8 9 9 2 10 3 11 1 12
REMARK H PARENT 6 4 6 5 6 6 1 13 1 14
REMARK Flexibility Score: inf
ROOT
ATOM      1  C   UNL     1      38.086  26.231  34.868  1.00  0.00     0.171 C 
ENDROOT
BRANCH   1   2
ATOM      2  C   UNL     1      36.944  26.052  35.887  1.00  0.00     0.237 C 
BRANCH   2   3
ATOM      3  N   UNL     1      35.654  25.833  35.217  1.00  0.00    -0.350 N 
ATOM      4  H   UNL     1      35.332  26.706  34.738  1.00  0.00     0.345 HD
ATOM      5  H   UNL     1      35.742  25.066  34.512  1.00  0.00     0.345 HD
ATOM      6  H   UNL     1      34.935  25.543  35.918  1.00  0.00     0.345 HD
ENDBRANCH   2   3
BRANCH   2   7
ATOM      7  C   UNL     1      36.864  27.263  36.777  1.00  0.00     0.100 C 
ATOM      8  O   UNL     1      35.815  27.499  37.433  1.00  0.00    -0.544 OA
ATOM      9  O   UNL     1      37.952  28.120  36.894  1.00  0.00    -0.544 OA
ENDBRANCH   2   7
ENDBRANCH   1   2
BRANCH   1  10
ATOM     10  C   UNL     1      37.562  26.531  33.494  1.00  0.00     0.223 C 
ATOM     11  O   UNL     1      37.452  25.600  32.651  1.00  0.00    -0.275 OA
ATOM     12  N   UNL     1      37.156  27.854  33.143  1.00  0.00    -0.369 N 
ATOM     13  H   UNL     1      37.220  28.632  33.836  1.00  0.00     0.159 HD
ATOM     14  H   UNL     1      36.783  28.055  32.189  1.00  0.00     0.159 HD
ENDBRANCH   1  10
TORSDOF 4
ENDMDL
MODEL 4
REMARK VINA RESULT:    -4.553      2.309      3.807
REMARK INTER + INTRA:          -5.751
REMARK INTER:                  -5.638
REMARK INTRA:                  -0.113
REMARK UNBOUND:                -0.266
REMARK SMILES NC(=O)C[C@H]([NH3+])C(=O)[O-]
REMARK SMILES IDX 4 1 5 2 6 3 7 7 8 8 9 9 2 10 3 11 1 12
REMARK H PARENT 6 4 6 5 6 6 1 13 1 14
REMARK Flexibility Score: inf
ROOT
ATOM      1  C   UNL     1      36.441  25.076  33.223  1.00  0.00     0.171 C 
ENDROOT
BRANCH   1   2
ATOM      2  C   UNL     1      36.840  26.497  33.667  1.00  0.00     0.237 C 
BRANCH   2   3
ATOM      3  N   UNL     1      38.024  26.975  32.938  1.00  0.00    -0.350 N 
ATOM      4  H   UNL     1      38.373  26.244  32.277  1.00  0.00     0.345 HD
ATOM      5  H   UNL     1      37.790  27.841  32.402  1.00  0.00     0.345 HD
ATOM      6  H   UNL     1      38.784  27.214  33.616  1.00  0.00     0.345 HD
ENDBRANCH   2   3
BRANCH   2   7
ATOM      7  C   UNL     1      37.106  26.508  35.148  1.00  0.00     0.100 C 
ATOM      8  O   UNL     1      38.124  27.095  35.604  1.00  0.00    -0.544 OA
ATOM      9  O   UNL     1      36.224  25.888  36.024  1.00  0.00    -0.544 OA
ENDBRANCH   2   7
ENDBRANCH   1   2
BRANCH   1  10
ATOM     10  C   UNL     1      34.975  24.979  32.919  1.00  0.00     0.223 C 
ATOM     11  O   UNL     1      34.288  24.058  33.436  1.00  0.00    -0.275 OA
ATOM     12  N   UNL     1      34.343  25.943  32.075  1.00  0.00    -0.369 N 
ATOM     13  H   UNL     1      34.893  26.725  31.656  1.00  0.00     0.159 HD
ATOM     14  H   UNL     1      33.321  25.877  31.874  1.00  0.00     0.159 HD
ENDBRANCH   1  10
TORSDOF 4
ENDMDL
MODEL 5
REMARK VINA RESULT:    -4.486      2.798      3.908
REMARK INTER + INTRA:          -5.669
REMARK INTER:                  -5.375
REMARK INTRA:                  -0.294
REMARK UNBOUND:                -0.266
REMARK SMILES NC(=O)C[C@H]([NH3+])C(=O)[O-]
REMARK SMILES IDX 4 1 5 2 6 3 7 7 8 8 9 9 2 10 3 11 1 12
REMARK H PARENT 6 4 6 5 6 6 1 13 1 14
REMARK Flexibility Score: inf
ROOT
ATOM      1  C   UNL     1      35.257  24.287  33.317  1.00  0.00     0.171 C 
ENDROOT
BRANCH   1   2
ATOM      2  C   UNL     1      36.099  25.133  34.293  1.00  0.00     0.237 C 
BRANCH   2   3
ATOM      3  N   UNL     1      35.250  26.004  35.119  1.00  0.00    -0.350 N 
ATOM      4  H   UNL     1      34.258  25.671  35.113  1.00  0.00     0.345 HD
ATOM      5  H   UNL     1      35.602  26.019  36.103  1.00  0.00     0.345 HD
ATOM      6  H   UNL     1      35.284  26.982  34.751  1.00  0.00     0.345 HD
ENDBRANCH   2   3
BRANCH   2   7
ATOM      7  C   UNL     1      37.091  25.960  33.521  1.00  0.00     0.100 C 
ATOM      8  O   UNL     1      37.083  27.216  33.623  1.00  0.00    -0.544 OA
ATOM      9  O   UNL     1      38.032  25.345  32.706  1.00  0.00    -0.544 OA
ENDBRANCH   2   7
ENDBRANCH   1   2
BRANCH   1  10
ATOM     10  C   UNL     1      33.983  24.984  32.935  1.00  0.00     0.223 C 
ATOM     11  O   UNL     1      34.032  26.080  32.315  1.00  0.00    -0.275 OA
ATOM     12  N   UNL     1      32.717  24.398  33.237  1.00  0.00    -0.369 N 
ATOM     13  H   UNL     1      32.658  23.480  33.731  1.00  0.00     0.159 HD
ATOM     14  H   UNL     1      31.834  24.882  32.961  1.00  0.00     0.159 HD
ENDBRANCH   1  10
TORSDOF 4
ENDMDL
MODEL 6
REMARK VINA RESULT:    -4.383     20.790     21.731
REMARK INTER + INTRA:          -5.546
REMARK INTER:                  -5.425
REMARK INTRA:                  -0.122
REMARK UNBOUND:                -0.266
REMARK SMILES NC(=O)C[C@H]([NH3+])C(=O)[O-]
REMARK SMILES IDX 4 1 5 2 6 3 7 7 8 8 9 9 2 10 3 11 1 12
REMARK H PARENT 6 4 6 5 6 6 1 13 1 14
REMARK Flexibility Score: inf
ROOT
ATOM      1  C   UNL     1      22.048  12.678  37.009  1.00  0.00     0.171 C 
ENDROOT
BRANCH   1   2
ATOM      2  C   UNL     1      21.206  11.643  37.781  1.00  0.00     0.237 C 
BRANCH   2   3
ATOM      3  N   UNL     1      20.140  11.082  36.940  1.00  0.00    -0.350 N 
ATOM      4  H   UNL     1      19.503  10.474  37.505  1.00  0.00     0.345 HD
ATOM      5  H   UNL     1      19.583  11.853  36.505  1.00  0.00     0.345 HD
ATOM      6  H   UNL     1      20.559  10.514  36.168  1.00  0.00     0.345 HD
ENDBRANCH   2   3
BRANCH   2   7
ATOM      7  C   UNL     1      20.613  12.287  39.006  1.00  0.00     0.100 C 
ATOM      8  O   UNL     1      20.948  11.892  40.154  1.00  0.00    -0.544 OA
ATOM      9  O   UNL     1      19.706  13.332  38.878  1.00  0.00    -0.544 OA
ENDBRANCH   2   7
ENDBRANCH   1   2
BRANCH   1  10
ATOM     10  C   UNL     1      21.192  13.757  36.412  1.00  0.00     0.223 C 
ATOM     11  O   UNL     1      20.362  13.469  35.509  1.00  0.00    -0.275 OA
ATOM     12  N   UNL     1      21.286  15.101  36.884  1.00  0.00    -0.369 N 
ATOM     13  H   UNL     1      21.952  15.354  37.647  1.00  0.00     0.159 HD
ATOM     14  H   UNL     1      20.681  15.847  36.473  1.00  0.00     0.159 HD
ENDBRANCH   1  10
TORSDOF 4
ENDMDL
MODEL 7
REMARK VINA RESULT:    -4.350     20.791     21.607
REMARK INTER + INTRA:          -5.507
REMARK INTER:                  -5.256
REMARK INTRA:                  -0.250
REMARK UNBOUND:                -0.266
REMARK SMILES NC(=O)C[C@H]([NH3+])C(=O)[O-]
REMARK SMILES IDX 4 1 5 2 6 3 7 7 8 8 9 9 2 10 3 11 1 12
REMARK H PARENT 6 4 6 5 6 6 1 13 1 14
REMARK Flexibility Score: inf
ROOT
ATOM      1  C   UNL     1      20.469  13.436  38.232  1.00  0.00     0.171 C 
ENDROOT
BRANCH   1   2
ATOM      2  C   UNL     1      20.925  12.750  36.930  1.00  0.00     0.237 C 
BRANCH   2   3
ATOM      3  N   UNL     1      22.319  12.290  37.024  1.00  0.00    -0.350 N 
ATOM      4  H   UNL     1      22.463  11.424  36.456  1.00  0.00     0.345 HD
ATOM      5  H   UNL     1      22.966  13.037  36.683  1.00  0.00     0.345 HD
ATOM      6  H   UNL     1      22.559  12.089  38.022  1.00  0.00     0.345 HD
ENDBRANCH   2   3
BRANCH   2   7
ATOM      7  C   UNL     1      20.774  13.703  35.775  1.00  0.00     0.100 C 
ATOM      8  O   UNL     1      21.325  14.835  35.812  1.00  0.00    -0.544 OA
ATOM      9  O   UNL     1      20.041  13.335  34.654  1.00  0.00    -0.544 OA
ENDBRANCH   2   7
ENDBRANCH   1   2
BRANCH   1  10
ATOM     10  C   UNL     1      20.103  12.435  39.289  1.00  0.00     0.223 C 
ATOM     11  O   UNL     1      20.989  11.676  39.764  1.00  0.00    -0.275 OA
ATOM     12  N   UNL     1      18.766  12.360  39.785  1.00  0.00    -0.369 N 
ATOM     13  H   UNL     1      18.024  12.996  39.418  1.00  0.00     0.159 HD
ATOM     14  H   UNL     1      18.518  11.669  40.528  1.00  0.00     0.159 HD
ENDBRANCH   1  10
TORSDOF 4
ENDMDL
MODEL 8
REMARK VINA RESULT:    -4.328     20.910     21.879
REMARK INTER + INTRA:          -5.479
REMARK INTER:                  -5.222
REMARK INTRA:                  -0.257
REMARK UNBOUND:                -0.266
REMARK SMILES NC(=O)C[C@H]([NH3+])C(=O)[O-]
REMARK SMILES IDX 4 1 5 2 6 3 7 7 8 8 9 9 2 10 3 11 1 12
REMARK H PARENT 6 4 6 5 6 6 1 13 1 14
REMARK Flexibility Score: inf
ROOT
ATOM      1  C   UNL     1      20.526  13.298  37.799  1.00  0.00     0.171 C 
ENDROOT
BRANCH   1   2
ATOM      2  C   UNL     1      19.588  14.112  38.712  1.00  0.00     0.237 C 
BRANCH   2   3
ATOM      3  N   UNL     1      20.137  15.447  38.993  1.00  0.00    -0.350 N 
ATOM      4  H   UNL     1      19.766  15.817  39.898  1.00  0.00     0.345 HD
ATOM      5  H   UNL     1      21.180  15.403  39.040  1.00  0.00     0.345 HD
ATOM      6  H   UNL     1      19.878  16.105  38.223  1.00  0.00     0.345 HD
ENDBRANCH   2   3
BRANCH   2   7
ATOM      7  C   UNL     1      19.362  13.366  40.000  1.00  0.00     0.100 C 
ATOM      8  O   UNL     1      18.494  12.454  40.059  1.00  0.00    -0.544 OA
ATOM      9  O   UNL     1      20.120  13.664  41.125  1.00  0.00    -0.544 OA
ENDBRANCH   2   7
ENDBRANCH   1   2
BRANCH   1  10
ATOM     10  C   UNL     1      20.678  13.935  36.448  1.00  0.00     0.223 C 
ATOM     11  O   UNL     1      21.537  14.840  36.277  1.00  0.00    -0.275 OA
ATOM     12  N   UNL     1      19.880  13.500  35.347  1.00  0.00    -0.369 N 
ATOM     13  H   UNL     1      19.178  12.736  35.466  1.00  0.00     0.159 HD
ATOM     14  H   UNL     1      19.996  13.939  34.407  1.00  0.00     0.159 HD
ENDBRANCH   1  10
TORSDOF 4
ENDMDL
MODEL 9
REMARK VINA RESULT:    -4.110     21.627     22.347
REMARK INTER + INTRA:          -5.217
REMARK INTER:                  -5.052
REMARK INTRA:                  -0.164
REMARK UNBOUND:                -0.266
REMARK SMILES NC(=O)C[C@H]([NH3+])C(=O)[O-]
REMARK SMILES IDX 4 1 5 2 6 3 7 7 8 8 9 9 2 10 3 11 1 12
REMARK H PARENT 6 4 6 5 6 6 1 13 1 14
REMARK Flexibility Score: inf
ROOT
ATOM      1  C   UNL     1      20.231  11.766  38.743  1.00  0.00     0.171 C 
ENDROOT
BRANCH   1   2
ATOM      2  C   UNL     1      20.348  12.895  39.786  1.00  0.00     0.237 C 
BRANCH   2   3
ATOM      3  N   UNL     1      19.954  12.433  41.125  1.00  0.00    -0.350 N 
ATOM      4  H   UNL     1      19.511  11.487  41.076  1.00  0.00     0.345 HD
ATOM      5  H   UNL     1      20.792  12.388  41.749  1.00  0.00     0.345 HD
ATOM      6  H   UNL     1      19.275  13.107  41.547  1.00  0.00     0.345 HD
ENDBRANCH   2   3
BRANCH   2   7
ATOM      7  C   UNL     1      19.490  14.060  39.370  1.00  0.00     0.100 C 
ATOM      8  O   UNL     1      18.238  13.934  39.309  1.00  0.00    -0.544 OA
ATOM      9  O   UNL     1      20.070  15.285  39.067  1.00  0.00    -0.544 OA
ENDBRANCH   2   7
ENDBRANCH   1   2
BRANCH   1  10
ATOM     10  C   UNL     1      20.970  12.099  37.479  1.00  0.00     0.223 C 
ATOM     11  O   UNL     1      22.229  12.089  37.471  1.00  0.00    -0.275 OA
ATOM     12  N   UNL     1      20.257  12.392  36.278  1.00  0.00    -0.369 N 
ATOM     13  H   UNL     1      19.213  12.383  36.261  1.00  0.00     0.159 HD
ATOM     14  H   UNL     1      20.775  12.613  35.399  1.00  0.00     0.159 HD
ENDBRANCH   1  10
TORSDOF 4
ENDMDL
