MODEL 1
REMARK VINA RESULT:    -4.694      0.000      0.000
REMARK INTER + INTRA:          -6.805
REMARK INTER:                  -6.341
REMARK INTRA:                  -0.464
REMARK UNBOUND:                -0.464
REMARK SMILES CCCCCCCC(=O)[O-]
REMARK SMILES IDX 5 1 6 2 7 3 8 4 9 5 10 6 4 7 3 8 2 9 1 10
REMARK H PARENT
REMARK Flexibility Score: inf
ROOT
ATOM      1  C   UNL     1      52.648  52.146  21.157  1.00  0.00     0.000 C 
ENDROOT
BRANCH   1   2
ATOM      2  C   UNL     1      51.515  51.112  21.222  1.00  0.00     0.006 C 
BRANCH   2   3
ATOM      3  C   UNL     1      50.736  51.185  22.542  1.00  0.00     0.053 C 
BRANCH   3   4
ATOM      4  C   UNL     1      49.334  51.670  22.335  1.00  0.00     0.041 C 
ATOM      5  O   UNL     1      49.122  52.848  21.943  1.00  0.00    -0.550 OA
ATOM      6  O   UNL     1      48.260  50.832  22.608  1.00  0.00    -0.550 OA
ENDBRANCH   3   4
ENDBRANCH   2   3
ENDBRANCH   1   2
BRANCH   1   7
ATOM      7  C   UNL     1      52.871  52.803  22.527  1.00  0.00     0.000 C 
BRANCH   7   8
ATOM      8  C   UNL     1      52.637  54.322  22.502  1.00  0.00    -0.000 C 
BRANCH   8   9
ATOM      9  C   UNL     1      52.083  54.812  21.157  1.00  0.00    -0.003 C 
ATOM     10  C   UNL     1      52.491  56.258  20.889  1.00  0.00     0.004 C 
ENDBRANCH   8   9
ENDBRANCH   7   8
ENDBRANCH   1   7
TORSDOF 6
ENDMDL
MODEL 2
REMARK VINA RESULT:    -4.642      2.275      4.574
REMARK INTER + INTRA:          -6.735
REMARK INTER:                  -6.419
REMARK INTRA:                  -0.317
REMARK UNBOUND:                -0.464
REMARK SMILES CCCCCCCC(=O)[O-]
REMARK SMILES IDX 5 1 6 2 7 3 8 4 9 5 10 6 4 7 3 8 2 9 1 10
REMARK H PARENT
REMARK Flexibility Score: inf
ROOT
ATOM      1  C   UNL     1      52.636  52.111  21.180  1.00  0.00     0.000 C 
ENDROOT
BRANCH   1   2
ATOM      2  C   UNL     1      51.980  53.482  21.405  1.00  0.00     0.006 C 
BRANCH   2   3
ATOM      3  C   UNL     1      52.693  54.296  22.494  1.00  0.00     0.053 C 
BRANCH   3   4
ATOM      4  C   UNL     1      52.423  53.750  23.863  1.00  0.00     0.041 C 
ATOM      5  O   UNL     1      53.327  53.140  24.491  1.00  0.00    -0.550 OA
ATOM      6  O   UNL     1      51.162  53.884  24.430  1.00  0.00    -0.550 OA
ENDBRANCH   3   4
ENDBRANCH   2   3
ENDBRANCH   1   2
BRANCH   1   7
ATOM      7  C   UNL     1      51.573  51.016  21.010  1.00  0.00     0.000 C 
BRANCH   7   8
ATOM      8  C   UNL     1      50.771  50.763  22.296  1.00  0.00    -0.000 C 
BRANCH   8   9
ATOM      9  C   UNL     1      49.989  49.443  22.255  1.00  0.00    -0.003 C 
ATOM     10  C   UNL     1      50.507  48.466  23.308  1.00  0.00     0.004 C 
ENDBRANCH   8   9
ENDBRANCH   7   8
ENDBRANCH   1   7
TORSDOF 6
ENDMDL
MODEL 3
REMARK VINA RESULT:    -4.641      2.069      2.860
REMARK INTER + INTRA:          -6.733
REMARK INTER:                  -6.456
REMARK INTRA:                  -0.277
REMARK UNBOUND:                -0.464
REMARK SMILES CCCCCCCC(=O)[O-]
REMARK SMILES IDX 5 1 6 2 7 3 8 4 9 5 10 6 4 7 3 8 2 9 1 10
REMARK H PARENT
REMARK Flexibility Score: inf
ROOT
ATOM      1  C   UNL     1      51.519  51.224  21.029  1.00  0.00     0.000 C 
ENDROOT
BRANCH   1   2
ATOM      2  C   UNL     1      50.824  50.777  22.324  1.00  0.00     0.006 C 
BRANCH   2   3
ATOM      3  C   UNL     1      50.082  49.445  22.156  1.00  0.00     0.053 C 
BRANCH   3   4
ATOM      4  C   UNL     1      49.976  48.698  23.450  1.00  0.00     0.041 C 
ATOM      5  O   UNL     1      48.965  48.845  24.185  1.00  0.00    -0.550 OA
ATOM      6  O   UNL     1      51.012  47.869  23.862  1.00  0.00    -0.550 OA
ENDBRANCH   3   4
ENDBRANCH   2   3
ENDBRANCH   1   2
BRANCH   1   7
ATOM      7  C   UNL     1      52.647  52.223  21.328  1.00  0.00     0.000 C 
BRANCH   7   8
ATOM      8  C   UNL     1      52.119  53.608  21.733  1.00  0.00    -0.000 C 
BRANCH   8   9
ATOM      9  C   UNL     1      53.013  54.300  22.772  1.00  0.00    -0.003 C 
ATOM     10  C   UNL     1      53.808  53.278  23.579  1.00  0.00     0.004 C 
ENDBRANCH   8   9
ENDBRANCH   7   8
ENDBRANCH   1   7
TORSDOF 6
ENDMDL
MODEL 4
REMARK VINA RESULT:    -4.462      2.715      5.201
REMARK INTER + INTRA:          -6.492
REMARK INTER:                  -6.267
REMARK INTRA:                  -0.225
REMARK UNBOUND:                -0.464
REMARK SMILES CCCCCCCC(=O)[O-]
REMARK SMILES IDX 5 1 6 2 7 3 8 4 9 5 10 6 4 7 3 8 2 9 1 10
REMARK H PARENT
REMARK Flexibility Score: inf
ROOT
ATOM      1  C   UNL     1      50.512  50.805  21.434  1.00  0.00     0.000 C 
ENDROOT
BRANCH   1   2
ATOM      2  C   UNL     1      51.887  51.440  21.179  1.00  0.00     0.006 C 
BRANCH   2   3
ATOM      3  C   UNL     1      51.904  52.940  21.503  1.00  0.00     0.053 C 
BRANCH   3   4
ATOM      4  C   UNL     1      52.345  53.200  22.911  1.00  0.00     0.041 C 
ATOM      5  O   UNL     1      51.493  53.416  23.812  1.00  0.00    -0.550 OA
ATOM      6  O   UNL     1      53.699  53.241  23.221  1.00  0.00    -0.550 OA
ENDBRANCH   3   4
ENDBRANCH   2   3
ENDBRANCH   1   2
BRANCH   1   7
ATOM      7  C   UNL     1      50.651  49.493  22.220  1.00  0.00     0.000 C 
BRANCH   7   8
ATOM      8  C   UNL     1      49.533  49.302  23.257  1.00  0.00    -0.000 C 
BRANCH   8   9
ATOM      9  C   UNL     1      49.674  47.990  24.043  1.00  0.00    -0.003 C 
ATOM     10  C   UNL     1      51.079  47.411  23.897  1.00  0.00     0.004 C 
ENDBRANCH   8   9
ENDBRANCH   7   8
ENDBRANCH   1   7
TORSDOF 6
ENDMDL
MODEL 5
REMARK VINA RESULT:    -4.433      1.506      2.118
REMARK INTER + INTRA:          -6.452
REMARK INTER:                  -5.923
REMARK INTRA:                  -0.530
REMARK UNBOUND:                -0.464
REMARK SMILES CCCCCCCC(=O)[O-]
REMARK SMILES IDX 5 1 6 2 7 3 8 4 9 5 10 6 4 7 3 8 2 9 1 10
REMARK H PARENT
REMARK Flexibility Score: inf
ROOT
ATOM      1  C   UNL     1      51.441  51.256  21.083  1.00  0.00     0.000 C 
ENDROOT
BRANCH   1   2
ATOM      2  C   UNL     1      50.771  50.949  22.431  1.00  0.00     0.006 C 
BRANCH   2   3
ATOM      3  C   UNL     1      49.387  51.601  22.554  1.00  0.00     0.053 C 
BRANCH   3   4
ATOM      4  C   UNL     1      49.216  52.300  23.868  1.00  0.00     0.041 C 
ATOM      5  O   UNL     1      50.091  53.110  24.272  1.00  0.00    -0.550 OA
ATOM      6  O   UNL     1      48.109  52.030  24.662  1.00  0.00    -0.550 OA
ENDBRANCH   3   4
ENDBRANCH   2   3
ENDBRANCH   1   2
BRANCH   1   7
ATOM      7  C   UNL     1      52.651  52.182  21.271  1.00  0.00     0.000 C 
BRANCH   7   8
ATOM      8  C   UNL     1      52.250  53.657  21.432  1.00  0.00    -0.000 C 
BRANCH   8   9
ATOM      9  C   UNL     1      52.910  54.320  22.649  1.00  0.00    -0.003 C 
ATOM     10  C   UNL     1      53.718  53.306  23.455  1.00  0.00     0.004 C 
ENDBRANCH   8   9
ENDBRANCH   7   8
ENDBRANCH   1   7
TORSDOF 6
ENDMDL
MODEL 6
REMARK VINA RESULT:    -4.260      2.096      4.138
REMARK INTER + INTRA:          -6.218
REMARK INTER:                  -5.731
REMARK INTRA:                  -0.487
REMARK UNBOUND:                -0.464
REMARK SMILES CCCCCCCC(=O)[O-]
REMARK SMILES IDX 5 1 6 2 7 3 8 4 9 5 10 6 4 7 3 8 2 9 1 10
REMARK H PARENT
REMARK Flexibility Score: inf
ROOT
ATOM      1  C   UNL     1      52.441  51.822  21.262  1.00  0.00     0.000 C 
ENDROOT
BRANCH   1   2
ATOM      2  C   UNL     1      52.329  53.274  20.774  1.00  0.00     0.006 C 
BRANCH   2   3
ATOM      3  C   UNL     1      51.895  54.231  21.892  1.00  0.00     0.053 C 
BRANCH   3   4
ATOM      4  C   UNL     1      52.461  53.829  23.220  1.00  0.00     0.041 C 
ATOM      5  O   UNL     1      51.696  53.462  24.150  1.00  0.00    -0.550 OA
ATOM      6  O   UNL     1      53.831  53.894  23.441  1.00  0.00    -0.550 OA
ENDBRANCH   3   4
ENDBRANCH   2   3
ENDBRANCH   1   2
BRANCH   1   7
ATOM      7  C   UNL     1      51.175  51.026  20.912  1.00  0.00     0.000 C 
BRANCH   7   8
ATOM      8  C   UNL     1      50.227  50.862  22.111  1.00  0.00    -0.000 C 
BRANCH   8   9
ATOM      9  C   UNL     1      49.061  51.860  22.082  1.00  0.00    -0.003 C 
ATOM     10  C   UNL     1      48.440  52.018  23.467  1.00  0.00     0.004 C 
ENDBRANCH   8   9
ENDBRANCH   7   8
ENDBRANCH   1   7
TORSDOF 6
ENDMDL
MODEL 7
REMARK VINA RESULT:    -4.021      2.662      3.693
REMARK INTER + INTRA:          -5.896
REMARK INTER:                  -5.649
REMARK INTRA:                  -0.247
REMARK UNBOUND:                -0.464
REMARK SMILES CCCCCCCC(=O)[O-]
REMARK SMILES IDX 5 1 6 2 7 3 8 4 9 5 10 6 4 7 3 8 2 9 1 10
REMARK H PARENT
REMARK Flexibility Score: inf
ROOT
ATOM      1  C   UNL     1      50.916  53.564  24.106  1.00  0.00     0.000 C 
ENDROOT
BRANCH   1   2
ATOM      2  C   UNL     1      49.631  52.743  24.292  1.00  0.00     0.006 C 
BRANCH   2   3
ATOM      3  C   UNL     1      48.890  53.109  25.585  1.00  0.00     0.053 C 
BRANCH   3   4
ATOM      4  C   UNL     1      47.477  52.611  25.576  1.00  0.00     0.041 C 
ATOM      5  O   UNL     1      47.202  51.494  25.066  1.00  0.00    -0.550 OA
ATOM      6  O   UNL     1      46.459  53.399  26.099  1.00  0.00    -0.550 OA
ENDBRANCH   3   4
ENDBRANCH   2   3
ENDBRANCH   1   2
BRANCH   1   7
ATOM      7  C   UNL     1      51.324  53.616  22.626  1.00  0.00     0.000 C 
BRANCH   7   8
ATOM      8  C   UNL     1      52.738  53.065  22.381  1.00  0.00    -0.000 C 
BRANCH   8   9
ATOM      9  C   UNL     1      52.803  52.122  21.172  1.00  0.00    -0.003 C 
ATOM     10  C   UNL     1      51.565  51.233  21.102  1.00  0.00     0.004 C 
ENDBRANCH   8   9
ENDBRANCH   7   8
ENDBRANCH   1   7
TORSDOF 6
ENDMDL
MODEL 8
REMARK VINA RESULT:    -3.911      1.952      2.735
REMARK INTER + INTRA:          -5.747
REMARK INTER:                  -5.294
REMARK INTRA:                  -0.453
REMARK UNBOUND:                -0.464
REMARK SMILES CCCCCCCC(=O)[O-]
REMARK SMILES IDX 5 1 6 2 7 3 8 4 9 5 10 6 4 7 3 8 2 9 1 10
REMARK H PARENT
REMARK Flexibility Score: inf
ROOT
ATOM      1  C   UNL     1      50.062  52.632  23.658  1.00  0.00     0.000 C 
ENDROOT
BRANCH   1   2
ATOM      2  C   UNL     1      49.174  52.263  22.460  1.00  0.00     0.006 C 
BRANCH   2   3
ATOM      3  C   UNL     1      48.352  50.993  22.714  1.00  0.00     0.053 C 
BRANCH   3   4
ATOM      4  C   UNL     1      49.220  49.777  22.809  1.00  0.00     0.041 C 
ATOM      5  O   UNL     1      50.052  49.520  21.899  1.00  0.00    -0.550 OA
ATOM      6  O   UNL     1      49.086  48.907  23.884  1.00  0.00    -0.550 OA
ENDBRANCH   3   4
ENDBRANCH   2   3
ENDBRANCH   1   2
BRANCH   1   7
ATOM      7  C   UNL     1      51.423  53.166  23.189  1.00  0.00     0.000 C 
BRANCH   7   8
ATOM      8  C   UNL     1      51.335  53.926  21.856  1.00  0.00    -0.000 C 
BRANCH   8   9
ATOM      9  C   UNL     1      52.269  53.350  20.784  1.00  0.00    -0.003 C 
ATOM     10  C   UNL     1      52.803  51.982  21.199  1.00  0.00     0.004 C 
ENDBRANCH   8   9
ENDBRANCH   7   8
ENDBRANCH   1   7
TORSDOF 6
ENDMDL
MODEL 9
REMARK VINA RESULT:    -3.848      2.729      4.856
REMARK INTER + INTRA:          -5.662
REMARK INTER:                  -5.201
REMARK INTRA:                  -0.461
REMARK UNBOUND:                -0.464
REMARK SMILES CCCCCCCC(=O)[O-]
REMARK SMILES IDX 5 1 6 2 7 3 8 4 9 5 10 6 4 7 3 8 2 9 1 10
REMARK H PARENT
REMARK Flexibility Score: inf
ROOT
ATOM      1  C   UNL     1      49.913  53.102  22.268  1.00  0.00     0.000 C 
ENDROOT
BRANCH   1   2
ATOM      2  C   UNL     1      50.520  53.287  23.667  1.00  0.00     0.006 C 
BRANCH   2   3
ATOM      3  C   UNL     1      51.979  52.816  23.734  1.00  0.00     0.053 C 
BRANCH   3   4
ATOM      4  C   UNL     1      52.780  53.319  22.573  1.00  0.00     0.041 C 
ATOM      5  O   UNL     1      53.307  52.508  21.768  1.00  0.00    -0.550 OA
ATOM      6  O   UNL     1      52.976  54.684  22.402  1.00  0.00    -0.550 OA
ENDBRANCH   3   4
ENDBRANCH   2   3
ENDBRANCH   1   2
BRANCH   1   7
ATOM      7  C   UNL     1      49.545  51.632  22.019  1.00  0.00     0.000 C 
BRANCH   7   8
ATOM      8  C   UNL     1      48.788  51.002  23.199  1.00  0.00    -0.000 C 
BRANCH   8   9
ATOM      9  C   UNL     1      49.090  49.506  23.363  1.00  0.00    -0.003 C 
ATOM     10  C   UNL     1      50.380  49.123  22.642  1.00  0.00     0.004 C 
ENDBRANCH   8   9
ENDBRANCH   7   8
ENDBRANCH   1   7
TORSDOF 6
ENDMDL
