MODEL 1
REMARK VINA RESULT:    -4.458      0.000      0.000
REMARK INTER + INTRA:          -9.946
REMARK INTER:                  -8.367
REMARK INTRA:                  -1.578
REMARK UNBOUND:                -1.578
REMARK SMILES O=C([O-])CCCCCCCCCCCCCCC(=O)[O-]
REMARK SMILES IDX 10 1 9 2 8 3 7 4 6 5 5 6 4 7 2 8 1 9 3 10 11 11 12 12 13 13
REMARK SMILES IDX 14 14 15 15 16 16 17 17 18 18 19 19 20 20
REMARK H PARENT
REMARK Flexibility Score: inf
ROOT
ATOM      1  C   UNL     1     -23.360  88.187 -28.244  1.00  0.00     0.000 C 
ENDROOT
BRANCH   1   2
ATOM      2  C   UNL     1     -23.305  89.513 -29.019  1.00  0.00     0.000 C 
BRANCH   2   3
ATOM      3  C   UNL     1     -23.211  90.737 -28.090  1.00  0.00     0.000 C 
BRANCH   3   4
ATOM      4  C   UNL     1     -24.473  91.614 -28.140  1.00  0.00     0.000 C 
BRANCH   4   5
ATOM      5  C   UNL     1     -24.147  93.115 -28.213  1.00  0.00     0.000 C 
BRANCH   5   6
ATOM      6  C   UNL     1     -25.323  93.902 -28.810  1.00  0.00     0.006 C 
BRANCH   6   7
ATOM      7  C   UNL     1     -25.661  95.154 -27.987  1.00  0.00     0.053 C 
BRANCH   7   8
ATOM      8  C   UNL     1     -26.551  94.833 -26.826  1.00  0.00     0.041 C 
ATOM      9  O   UNL     1     -26.342  95.362 -25.702  1.00  0.00    -0.550 OA
ATOM     10  O   UNL     1     -27.634  93.978 -26.993  1.00  0.00    -0.550 OA
ENDBRANCH   7   8
ENDBRANCH   6   7
ENDBRANCH   5   6
ENDBRANCH   4   5
ENDBRANCH   3   4
ENDBRANCH   2   3
ENDBRANCH   1   2
BRANCH   1  11
ATOM     11  C   UNL     1     -24.748  87.530 -28.294  1.00  0.00     0.000 C 
BRANCH  11  12
ATOM     12  C   UNL     1     -25.284  87.270 -26.881  1.00  0.00     0.000 C 
BRANCH  12  13
ATOM     13  C   UNL     1     -25.285  88.560 -26.047  1.00  0.00     0.000 C 
BRANCH  13  14
ATOM     14  C   UNL     1     -24.538  88.403 -24.713  1.00  0.00     0.000 C 
BRANCH  14  15
ATOM     15  C   UNL     1     -23.105  88.950 -24.769  1.00  0.00     0.000 C 
BRANCH  15  16
ATOM     16  C   UNL     1     -22.082  87.844 -24.482  1.00  0.00     0.006 C 
BRANCH  16  17
ATOM     17  C   UNL     1     -22.779  86.504 -24.225  1.00  0.00     0.053 C 
BRANCH  17  18
ATOM     18  C   UNL     1     -21.928  85.627 -23.364  1.00  0.00     0.041 C 
ATOM     19  O   UNL     1     -21.737  84.422 -23.679  1.00  0.00    -0.550 OA
ATOM     20  O   UNL     1     -21.306  86.150 -22.236  1.00  0.00    -0.550 OA
ENDBRANCH  17  18
ENDBRANCH  16  17
ENDBRANCH  15  16
ENDBRANCH  14  15
ENDBRANCH  13  14
ENDBRANCH  12  13
ENDBRANCH  11  12
ENDBRANCH   1  11
TORSDOF 15
ENDMDL
MODEL 2
REMARK VINA RESULT:    -4.307      3.034      5.347
REMARK INTER + INTRA:          -9.662
REMARK INTER:                  -8.026
REMARK INTRA:                  -1.636
REMARK UNBOUND:                -1.578
REMARK SMILES O=C([O-])CCCCCCCCCCCCCCC(=O)[O-]
REMARK SMILES IDX 10 1 9 2 8 3 7 4 6 5 5 6 4 7 2 8 1 9 3 10 11 11 12 12 13 13
REMARK SMILES IDX 14 14 15 15 16 16 17 17 18 18 19 19 20 20
REMARK H PARENT
REMARK Flexibility Score: inf
ROOT
ATOM      1  C   UNL     1     -22.868  93.734 -33.133  1.00  0.00     0.000 C 
ENDROOT
BRANCH   1   2
ATOM      2  C   UNL     1     -23.328  93.845 -31.670  1.00  0.00     0.000 C 
BRANCH   2   3
ATOM      3  C   UNL     1     -24.321  95.000 -31.448  1.00  0.00     0.000 C 
BRANCH   3   4
ATOM      4  C   UNL     1     -23.839  95.997 -30.382  1.00  0.00     0.000 C 
BRANCH   4   5
ATOM      5  C   UNL     1     -24.868  96.206 -29.259  1.00  0.00     0.000 C 
BRANCH   5   6
ATOM      6  C   UNL     1     -24.758  95.097 -28.202  1.00  0.00     0.006 C 
BRANCH   6   7
ATOM      7  C   UNL     1     -26.025  94.233 -28.133  1.00  0.00     0.053 C 
BRANCH   7   8
ATOM      8  C   UNL     1     -26.838  94.535 -26.911  1.00  0.00     0.041 C 
ATOM      9  O   UNL     1     -26.320  95.148 -25.940  1.00  0.00    -0.550 OA
ATOM     10  O   UNL     1     -28.178  94.172 -26.859  1.00  0.00    -0.550 OA
ENDBRANCH   7   8
ENDBRANCH   6   7
ENDBRANCH   5   6
ENDBRANCH   4   5
ENDBRANCH   3   4
ENDBRANCH   2   3
ENDBRANCH   1   2
BRANCH   1  11
ATOM     11  C   UNL     1     -23.111  92.337 -33.724  1.00  0.00     0.000 C 
BRANCH  11  12
ATOM     12  C   UNL     1     -22.800  91.243 -32.694  1.00  0.00     0.000 C 
BRANCH  12  13
ATOM     13  C   UNL     1     -24.015  90.328 -32.481  1.00  0.00     0.000 C 
BRANCH  13  14
ATOM     14  C   UNL     1     -24.275  90.025 -30.997  1.00  0.00     0.000 C 
BRANCH  14  15
ATOM     15  C   UNL     1     -23.131  90.494 -30.088  1.00  0.00     0.000 C 
BRANCH  15  16
ATOM     16  C   UNL     1     -23.649  91.432 -28.990  1.00  0.00     0.006 C 
BRANCH  16  17
ATOM     17  C   UNL     1     -23.189  90.964 -27.606  1.00  0.00     0.053 C 
BRANCH  17  18
ATOM     18  C   UNL     1     -24.078  89.874 -27.098  1.00  0.00     0.041 C 
ATOM     19  O   UNL     1     -25.328  90.029 -27.086  1.00  0.00    -0.550 OA
ATOM     20  O   UNL     1     -23.531  88.667 -26.681  1.00  0.00    -0.550 OA
ENDBRANCH  17  18
ENDBRANCH  16  17
ENDBRANCH  15  16
ENDBRANCH  14  15
ENDBRANCH  13  14
ENDBRANCH  12  13
ENDBRANCH  11  12
ENDBRANCH   1  11
TORSDOF 15
ENDMDL
MODEL 3
REMARK VINA RESULT:    -4.282     12.693     15.855
REMARK INTER + INTRA:          -9.616
REMARK INTER:                  -7.326
REMARK INTRA:                  -2.290
REMARK UNBOUND:                -1.578
REMARK SMILES O=C([O-])CCCCCCCCCCCCCCC(=O)[O-]
REMARK SMILES IDX 10 1 9 2 8 3 7 4 6 5 5 6 4 7 2 8 1 9 3 10 11 11 12 12 13 13
REMARK SMILES IDX 14 14 15 15 16 16 17 17 18 18 19 19 20 20
REMARK H PARENT
REMARK Flexibility Score: inf
ROOT
ATOM      1  C   UNL     1     -36.607  83.986 -18.330  1.00  0.00     0.000 C 
ENDROOT
BRANCH   1   2
ATOM      2  C   UNL     1     -35.341  84.818 -18.596  1.00  0.00     0.000 C 
BRANCH   2   3
ATOM      3  C   UNL     1     -34.094  83.943 -18.813  1.00  0.00     0.000 C 
BRANCH   3   4
ATOM      4  C   UNL     1     -33.937  83.490 -20.273  1.00  0.00     0.000 C 
BRANCH   4   5
ATOM      5  C   UNL     1     -33.403  82.053 -20.393  1.00  0.00     0.000 C 
BRANCH   5   6
ATOM      6  C   UNL     1     -32.642  81.644 -19.123  1.00  0.00     0.006 C 
BRANCH   6   7
ATOM      7  C   UNL     1     -31.131  81.889 -19.248  1.00  0.00     0.053 C 
BRANCH   7   8
ATOM      8  C   UNL     1     -30.432  80.733 -19.896  1.00  0.00     0.041 C 
ATOM      9  O   UNL     1     -30.539  79.575 -19.413  1.00  0.00    -0.550 OA
ATOM     10  O   UNL     1     -29.691  80.930 -21.055  1.00  0.00    -0.550 OA
ENDBRANCH   7   8
ENDBRANCH   6   7
ENDBRANCH   5   6
ENDBRANCH   4   5
ENDBRANCH   3   4
ENDBRANCH   2   3
ENDBRANCH   1   2
BRANCH   1  11
ATOM     11  C   UNL     1     -36.289  82.580 -17.799  1.00  0.00     0.000 C 
BRANCH  11  12
ATOM     12  C   UNL     1     -36.752  81.503 -18.788  1.00  0.00     0.000 C 
BRANCH  12  13
ATOM     13  C   UNL     1     -37.572  82.121 -19.930  1.00  0.00     0.000 C 
BRANCH  13  14
ATOM     14  C   UNL     1     -37.095  81.663 -21.318  1.00  0.00     0.000 C 
BRANCH  14  15
ATOM     15  C   UNL     1     -37.425  82.678 -22.421  1.00  0.00     0.000 C 
BRANCH  15  16
ATOM     16  C   UNL     1     -37.549  84.094 -21.847  1.00  0.00     0.006 C 
BRANCH  16  17
ATOM     17  C   UNL     1     -36.414  84.993 -22.351  1.00  0.00     0.053 C 
BRANCH  17  18
ATOM     18  C   UNL     1     -36.957  86.094 -23.206  1.00  0.00     0.041 C 
ATOM     19  O   UNL     1     -38.042  85.939 -23.826  1.00  0.00    -0.550 OA
ATOM     20  O   UNL     1     -36.288  87.309 -23.283  1.00  0.00    -0.550 OA
ENDBRANCH  17  18
ENDBRANCH  16  17
ENDBRANCH  15  16
ENDBRANCH  14  15
ENDBRANCH  13  14
ENDBRANCH  12  13
ENDBRANCH  11  12
ENDBRANCH   1  11
TORSDOF 15
ENDMDL
MODEL 4
REMARK VINA RESULT:    -4.273     12.716     15.552
REMARK INTER + INTRA:          -9.599
REMARK INTER:                  -7.736
REMARK INTRA:                  -1.862
REMARK UNBOUND:                -1.578
REMARK SMILES O=C([O-])CCCCCCCCCCCCCCC(=O)[O-]
REMARK SMILES IDX 10 1 9 2 8 3 7 4 6 5 5 6 4 7 2 8 1 9 3 10 11 11 12 12 13 13
REMARK SMILES IDX 14 14 15 15 16 16 17 17 18 18 19 19 20 20
REMARK H PARENT
REMARK Flexibility Score: inf
ROOT
ATOM      1  C   UNL     1     -36.538  81.705 -18.500  1.00  0.00     0.000 C 
ENDROOT
BRANCH   1   2
ATOM      2  C   UNL     1     -36.269  82.798 -17.454  1.00  0.00     0.000 C 
BRANCH   2   3
ATOM      3  C   UNL     1     -36.347  84.216 -18.047  1.00  0.00     0.000 C 
BRANCH   3   4
ATOM      4  C   UNL     1     -34.966  84.773 -18.429  1.00  0.00     0.000 C 
BRANCH   4   5
ATOM      5  C   UNL     1     -34.318  84.002 -19.590  1.00  0.00     0.000 C 
BRANCH   5   6
ATOM      6  C   UNL     1     -32.938  83.462 -19.186  1.00  0.00     0.006 C 
BRANCH   6   7
ATOM      7  C   UNL     1     -32.904  81.927 -19.149  1.00  0.00     0.053 C 
BRANCH   7   8
ATOM      8  C   UNL     1     -31.525  81.395 -19.396  1.00  0.00     0.041 C 
ATOM      9  O   UNL     1     -31.342  80.160 -19.560  1.00  0.00    -0.550 OA
ATOM     10  O   UNL     1     -30.448  82.269 -19.484  1.00  0.00    -0.550 OA
ENDBRANCH   7   8
ENDBRANCH   6   7
ENDBRANCH   5   6
ENDBRANCH   4   5
ENDBRANCH   3   4
ENDBRANCH   2   3
ENDBRANCH   1   2
BRANCH   1  11
ATOM     11  C   UNL     1     -37.539  82.151 -19.576  1.00  0.00     0.000 C 
BRANCH  11  12
ATOM     12  C   UNL     1     -37.207  81.516 -20.933  1.00  0.00     0.000 C 
BRANCH  12  13
ATOM     13  C   UNL     1     -37.473  82.501 -22.081  1.00  0.00     0.000 C 
BRANCH  13  14
ATOM     14  C   UNL     1     -37.436  83.967 -21.623  1.00  0.00     0.000 C 
BRANCH  14  15
ATOM     15  C   UNL     1     -38.182  84.905 -22.583  1.00  0.00     0.000 C 
BRANCH  15  16
ATOM     16  C   UNL     1     -37.227  85.936 -23.197  1.00  0.00     0.006 C 
BRANCH  16  17
ATOM     17  C   UNL     1     -35.835  85.842 -22.564  1.00  0.00     0.053 C 
BRANCH  17  18
ATOM     18  C   UNL     1     -34.810  85.504 -23.600  1.00  0.00     0.041 C 
ATOM     19  O   UNL     1     -34.788  84.358 -24.120  1.00  0.00    -0.550 OA
ATOM     20  O   UNL     1     -33.906  86.471 -24.025  1.00  0.00    -0.550 OA
ENDBRANCH  17  18
ENDBRANCH  16  17
ENDBRANCH  15  16
ENDBRANCH  14  15
ENDBRANCH  13  14
ENDBRANCH  12  13
ENDBRANCH  11  12
ENDBRANCH   1  11
TORSDOF 15
ENDMDL
MODEL 5
REMARK VINA RESULT:    -4.233     13.317     16.149
REMARK INTER + INTRA:          -9.523
REMARK INTER:                  -7.293
REMARK INTRA:                  -2.230
REMARK UNBOUND:                -1.578
REMARK SMILES O=C([O-])CCCCCCCCCCCCCCC(=O)[O-]
REMARK SMILES IDX 10 1 9 2 8 3 7 4 6 5 5 6 4 7 2 8 1 9 3 10 11 11 12 12 13 13
REMARK SMILES IDX 14 14 15 15 16 16 17 17 18 18 19 19 20 20
REMARK H PARENT
REMARK Flexibility Score: inf
ROOT
ATOM      1  C   UNL     1     -34.835  84.541 -19.283  1.00  0.00     0.000 C 
ENDROOT
BRANCH   1   2
ATOM      2  C   UNL     1     -33.586  83.644 -19.288  1.00  0.00     0.000 C 
BRANCH   2   3
ATOM      3  C   UNL     1     -33.398  82.902 -20.623  1.00  0.00     0.000 C 
BRANCH   3   4
ATOM      4  C   UNL     1     -33.205  81.388 -20.435  1.00  0.00     0.000 C 
BRANCH   4   5
ATOM      5  C   UNL     1     -33.121  80.982 -18.955  1.00  0.00     0.000 C 
BRANCH   5   6
ATOM      6  C   UNL     1     -31.814  80.228 -18.668  1.00  0.00     0.006 C 
BRANCH   6   7
ATOM      7  C   UNL     1     -30.947  80.068 -19.925  1.00  0.00     0.053 C 
BRANCH   7   8
ATOM      8  C   UNL     1     -30.750  78.627 -20.286  1.00  0.00     0.041 C 
ATOM      9  O   UNL     1     -31.125  77.719 -19.498  1.00  0.00    -0.550 OA
ATOM     10  O   UNL     1     -30.187  78.286 -21.510  1.00  0.00    -0.550 OA
ENDBRANCH   7   8
ENDBRANCH   6   7
ENDBRANCH   5   6
ENDBRANCH   4   5
ENDBRANCH   3   4
ENDBRANCH   2   3
ENDBRANCH   1   2
BRANCH   1  11
ATOM     11  C   UNL     1     -35.531  84.575 -17.914  1.00  0.00     0.000 C 
BRANCH  11  12
ATOM     12  C   UNL     1     -36.801  83.714 -17.922  1.00  0.00     0.000 C 
BRANCH  12  13
ATOM     13  C   UNL     1     -36.459  82.229 -17.734  1.00  0.00     0.000 C 
BRANCH  13  14
ATOM     14  C   UNL     1     -36.668  81.407 -19.016  1.00  0.00     0.000 C 
BRANCH  14  15
ATOM     15  C   UNL     1     -37.727  82.017 -19.945  1.00  0.00     0.000 C 
BRANCH  15  16
ATOM     16  C   UNL     1     -37.132  82.342 -21.320  1.00  0.00     0.006 C 
BRANCH  16  17
ATOM     17  C   UNL     1     -37.408  83.799 -21.708  1.00  0.00     0.053 C 
BRANCH  17  18
ATOM     18  C   UNL     1     -36.582  84.192 -22.891  1.00  0.00     0.041 C 
ATOM     19  O   UNL     1     -36.966  83.906 -24.056  1.00  0.00    -0.550 OA
ATOM     20  O   UNL     1     -35.409  84.915 -22.711  1.00  0.00    -0.550 OA
ENDBRANCH  17  18
ENDBRANCH  16  17
ENDBRANCH  15  16
ENDBRANCH  14  15
ENDBRANCH  13  14
ENDBRANCH  12  13
ENDBRANCH  11  12
ENDBRANCH   1  11
TORSDOF 15
ENDMDL
MODEL 6
REMARK VINA RESULT:    -4.220      2.906      8.349
REMARK INTER + INTRA:          -9.498
REMARK INTER:                  -7.947
REMARK INTRA:                  -1.551
REMARK UNBOUND:                -1.578
REMARK SMILES O=C([O-])CCCCCCCCCCCCCCC(=O)[O-]
REMARK SMILES IDX 10 1 9 2 8 3 7 4 6 5 5 6 4 7 2 8 1 9 3 10 11 11 12 12 13 13
REMARK SMILES IDX 14 14 15 15 16 16 17 17 18 18 19 19 20 20
REMARK H PARENT
REMARK Flexibility Score: inf
ROOT
ATOM      1  C   UNL     1     -22.915  90.451 -29.464  1.00  0.00     0.000 C 
ENDROOT
BRANCH   1   2
ATOM      2  C   UNL     1     -23.192  89.260 -28.533  1.00  0.00     0.000 C 
BRANCH   2   3
ATOM      3  C   UNL     1     -24.600  88.670 -28.730  1.00  0.00     0.000 C 
BRANCH   3   4
ATOM      4  C   UNL     1     -25.408  88.620 -27.424  1.00  0.00     0.000 C 
BRANCH   4   5
ATOM      5  C   UNL     1     -24.758  89.436 -26.295  1.00  0.00     0.000 C 
BRANCH   5   6
ATOM      6  C   UNL     1     -24.626  88.594 -25.017  1.00  0.00     0.006 C 
BRANCH   6   7
ATOM      7  C   UNL     1     -23.733  87.362 -25.223  1.00  0.00     0.053 C 
BRANCH   7   8
ATOM      8  C   UNL     1     -22.428  87.493 -24.498  1.00  0.00     0.041 C 
ATOM      9  O   UNL     1     -21.855  88.612 -24.422  1.00  0.00    -0.550 OA
ATOM     10  O   UNL     1     -21.864  86.387 -23.874  1.00  0.00    -0.550 OA
ENDBRANCH   7   8
ENDBRANCH   6   7
ENDBRANCH   5   6
ENDBRANCH   4   5
ENDBRANCH   3   4
ENDBRANCH   2   3
ENDBRANCH   1   2
BRANCH   1  11
ATOM     11  C   UNL     1     -24.034  91.502 -29.429  1.00  0.00     0.000 C 
BRANCH  11  12
ATOM     12  C   UNL     1     -23.868  92.441 -28.227  1.00  0.00     0.000 C 
BRANCH  12  13
ATOM     13  C   UNL     1     -25.214  93.064 -27.826  1.00  0.00     0.000 C 
BRANCH  13  14
ATOM     14  C   UNL     1     -25.629  94.220 -28.749  1.00  0.00     0.000 C 
BRANCH  14  15
ATOM     15  C   UNL     1     -24.823  95.501 -28.493  1.00  0.00     0.000 C 
BRANCH  15  16
ATOM     16  C   UNL     1     -24.308  96.099 -29.808  1.00  0.00     0.006 C 
BRANCH  16  17
ATOM     17  C   UNL     1     -24.318  95.054 -30.928  1.00  0.00     0.053 C 
BRANCH  17  18
ATOM     18  C   UNL     1     -23.493  95.519 -32.086  1.00  0.00     0.041 C 
ATOM     19  O   UNL     1     -23.034  94.687 -32.912  1.00  0.00    -0.550 OA
ATOM     20  O   UNL     1     -23.268  96.877 -32.280  1.00  0.00    -0.550 OA
ENDBRANCH  17  18
ENDBRANCH  16  17
ENDBRANCH  15  16
ENDBRANCH  14  15
ENDBRANCH  13  14
ENDBRANCH  12  13
ENDBRANCH  11  12
ENDBRANCH   1  11
TORSDOF 15
ENDMDL
MODEL 7
REMARK VINA RESULT:    -4.208      1.498      7.966
REMARK INTER + INTRA:          -9.477
REMARK INTER:                  -7.814
REMARK INTRA:                  -1.663
REMARK UNBOUND:                -1.578
REMARK SMILES O=C([O-])CCCCCCCCCCCCCCC(=O)[O-]
REMARK SMILES IDX 10 1 9 2 8 3 7 4 6 5 5 6 4 7 2 8 1 9 3 10 11 11 12 12 13 13
REMARK SMILES IDX 14 14 15 15 16 16 17 17 18 18 19 19 20 20
REMARK H PARENT
REMARK Flexibility Score: inf
ROOT
ATOM      1  C   UNL     1     -23.312  89.641 -29.221  1.00  0.00     0.000 C 
ENDROOT
BRANCH   1   2
ATOM      2  C   UNL     1     -23.239  90.175 -27.782  1.00  0.00     0.000 C 
BRANCH   2   3
ATOM      3  C   UNL     1     -24.504  89.853 -26.966  1.00  0.00     0.000 C 
BRANCH   3   4
ATOM      4  C   UNL     1     -24.248  88.809 -25.867  1.00  0.00     0.000 C 
BRANCH   4   5
ATOM      5  C   UNL     1     -23.127  89.227 -24.903  1.00  0.00     0.000 C 
BRANCH   5   6
ATOM      6  C   UNL     1     -22.155  88.064 -24.654  1.00  0.00     0.006 C 
BRANCH   6   7
ATOM      7  C   UNL     1     -22.883  86.721 -24.507  1.00  0.00     0.053 C 
BRANCH   7   8
ATOM      8  C   UNL     1     -22.196  85.820 -23.526  1.00  0.00     0.041 C 
ATOM      9  O   UNL     1     -21.330  86.284 -22.738  1.00  0.00    -0.550 OA
ATOM     10  O   UNL     1     -22.538  84.475 -23.457  1.00  0.00    -0.550 OA
ENDBRANCH   7   8
ENDBRANCH   6   7
ENDBRANCH   5   6
ENDBRANCH   4   5
ENDBRANCH   3   4
ENDBRANCH   2   3
ENDBRANCH   1   2
BRANCH   1  11
ATOM     11  C   UNL     1     -24.740  89.661 -29.787  1.00  0.00     0.000 C 
BRANCH  11  12
ATOM     12  C   UNL     1     -24.844  90.615 -30.984  1.00  0.00     0.000 C 
BRANCH  12  13
ATOM     13  C   UNL     1     -23.498  91.303 -31.257  1.00  0.00     0.000 C 
BRANCH  13  14
ATOM     14  C   UNL     1     -23.570  92.830 -31.098  1.00  0.00     0.000 C 
BRANCH  14  15
ATOM     15  C   UNL     1     -24.757  93.280 -30.236  1.00  0.00     0.000 C 
BRANCH  15  16
ATOM     16  C   UNL     1     -24.305  93.618 -28.810  1.00  0.00     0.006 C 
BRANCH  16  17
ATOM     17  C   UNL     1     -25.461  93.470 -27.816  1.00  0.00     0.053 C 
BRANCH  17  18
ATOM     18  C   UNL     1     -25.888  94.809 -27.305  1.00  0.00     0.041 C 
ATOM     19  O   UNL     1     -25.445  95.861 -27.836  1.00  0.00    -0.550 OA
ATOM     20  O   UNL     1     -26.812  94.896 -26.270  1.00  0.00    -0.550 OA
ENDBRANCH  17  18
ENDBRANCH  16  17
ENDBRANCH  15  16
ENDBRANCH  14  15
ENDBRANCH  13  14
ENDBRANCH  12  13
ENDBRANCH  11  12
ENDBRANCH   1  11
TORSDOF 15
ENDMDL
MODEL 8
REMARK VINA RESULT:    -4.205      5.985      9.173
REMARK INTER + INTRA:          -9.470
REMARK INTER:                  -7.084
REMARK INTRA:                  -2.386
REMARK UNBOUND:                -1.578
REMARK SMILES O=C([O-])CCCCCCCCCCCCCCC(=O)[O-]
REMARK SMILES IDX 10 1 9 2 8 3 7 4 6 5 5 6 4 7 2 8 1 9 3 10 11 11 12 12 13 13
REMARK SMILES IDX 14 14 15 15 16 16 17 17 18 18 19 19 20 20
REMARK H PARENT
REMARK Flexibility Score: inf
ROOT
ATOM      1  C   UNL     1     -20.588  79.419 -23.248  1.00  0.00     0.000 C 
ENDROOT
BRANCH   1   2
ATOM      2  C   UNL     1     -20.613  80.869 -23.757  1.00  0.00     0.000 C 
BRANCH   2   3
ATOM      3  C   UNL     1     -21.125  80.978 -25.204  1.00  0.00     0.000 C 
BRANCH   3   4
ATOM      4  C   UNL     1     -22.415  81.808 -25.313  1.00  0.00     0.000 C 
BRANCH   4   5
ATOM      5  C   UNL     1     -22.392  83.057 -24.418  1.00  0.00     0.000 C 
BRANCH   5   6
ATOM      6  C   UNL     1     -23.639  83.923 -24.654  1.00  0.00     0.006 C 
BRANCH   6   7
ATOM      7  C   UNL     1     -23.799  85.013 -23.585  1.00  0.00     0.053 C 
BRANCH   7   8
ATOM      8  C   UNL     1     -23.030  86.250 -23.933  1.00  0.00     0.041 C 
ATOM      9  O   UNL     1     -21.798  86.324 -23.681  1.00  0.00    -0.550 OA
ATOM     10  O   UNL     1     -23.665  87.309 -24.571  1.00  0.00    -0.550 OA
ENDBRANCH   7   8
ENDBRANCH   6   7
ENDBRANCH   5   6
ENDBRANCH   4   5
ENDBRANCH   3   4
ENDBRANCH   2   3
ENDBRANCH   1   2
BRANCH   1  11
ATOM     11  C   UNL     1     -21.350  78.455 -24.171  1.00  0.00     0.000 C 
BRANCH  11  12
ATOM     12  C   UNL     1     -22.509  77.782 -23.425  1.00  0.00     0.000 C 
BRANCH  12  13
ATOM     13  C   UNL     1     -23.126  78.736 -22.392  1.00  0.00     0.000 C 
BRANCH  13  14
ATOM     14  C   UNL     1     -24.301  79.547 -22.961  1.00  0.00     0.000 C 
BRANCH  14  15
ATOM     15  C   UNL     1     -24.378  80.965 -22.379  1.00  0.00     0.000 C 
BRANCH  15  16
ATOM     16  C   UNL     1     -23.274  81.194 -21.340  1.00  0.00     0.006 C 
BRANCH  16  17
ATOM     17  C   UNL     1     -23.488  82.516 -20.594  1.00  0.00     0.053 C 
BRANCH  17  18
ATOM     18  C   UNL     1     -22.174  83.161 -20.284  1.00  0.00     0.041 C 
ATOM     19  O   UNL     1     -21.562  82.875 -19.222  1.00  0.00    -0.550 OA
ATOM     20  O   UNL     1     -21.603  84.046 -21.191  1.00  0.00    -0.550 OA
ENDBRANCH  17  18
ENDBRANCH  16  17
ENDBRANCH  15  16
ENDBRANCH  14  15
ENDBRANCH  13  14
ENDBRANCH  12  13
ENDBRANCH  11  12
ENDBRANCH   1  11
TORSDOF 15
ENDMDL
MODEL 9
REMARK VINA RESULT:    -4.170      3.489      7.732
REMARK INTER + INTRA:          -9.404
REMARK INTER:                  -6.917
REMARK INTRA:                  -2.488
REMARK UNBOUND:                -1.578
REMARK SMILES O=C([O-])CCCCCCCCCCCCCCC(=O)[O-]
REMARK SMILES IDX 10 1 9 2 8 3 7 4 6 5 5 6 4 7 2 8 1 9 3 10 11 11 12 12 13 13
REMARK SMILES IDX 14 14 15 15 16 16 17 17 18 18 19 19 20 20
REMARK H PARENT
REMARK Flexibility Score: inf
ROOT
ATOM      1  C   UNL     1     -26.720  91.698 -30.871  1.00  0.00     0.000 C 
ENDROOT
BRANCH   1   2
ATOM      2  C   UNL     1     -26.334  90.292 -30.384  1.00  0.00     0.000 C 
BRANCH   2   3
ATOM      3  C   UNL     1     -24.969  89.833 -30.926  1.00  0.00     0.000 C 
BRANCH   3   4
ATOM      4  C   UNL     1     -24.019  91.008 -31.207  1.00  0.00     0.000 C 
BRANCH   4   5
ATOM      5  C   UNL     1     -22.876  91.102 -30.184  1.00  0.00     0.000 C 
BRANCH   5   6
ATOM      6  C   UNL     1     -22.974  89.973 -29.147  1.00  0.00     0.006 C 
BRANCH   6   7
ATOM      7  C   UNL     1     -23.230  90.508 -27.730  1.00  0.00     0.053 C 
BRANCH   7   8
ATOM      8  C   UNL     1     -23.922  89.495 -26.870  1.00  0.00     0.041 C 
ATOM      9  O   UNL     1     -25.138  89.637 -26.576  1.00  0.00    -0.550 OA
ATOM     10  O   UNL     1     -23.232  88.373 -26.424  1.00  0.00    -0.550 OA
ENDBRANCH   7   8
ENDBRANCH   6   7
ENDBRANCH   5   6
ENDBRANCH   4   5
ENDBRANCH   3   4
ENDBRANCH   2   3
ENDBRANCH   1   2
BRANCH   1  11
ATOM     11  C   UNL     1     -27.120  92.633 -29.720  1.00  0.00     0.000 C 
BRANCH  11  12
ATOM     12  C   UNL     1     -26.596  92.108 -28.377  1.00  0.00     0.000 C 
BRANCH  12  13
ATOM     13  C   UNL     1     -25.921  93.229 -27.574  1.00  0.00     0.000 C 
BRANCH  13  14
ATOM     14  C   UNL     1     -24.729  93.854 -28.315  1.00  0.00     0.000 C 
BRANCH  14  15
ATOM     15  C   UNL     1     -24.834  95.381 -28.425  1.00  0.00     0.000 C 
BRANCH  15  16
ATOM     16  C   UNL     1     -24.340  95.870 -29.792  1.00  0.00     0.006 C 
BRANCH  16  17
ATOM     17  C   UNL     1     -24.206  94.704 -30.777  1.00  0.00     0.053 C 
BRANCH  17  18
ATOM     18  C   UNL     1     -23.393  95.112 -31.964  1.00  0.00     0.041 C 
ATOM     19  O   UNL     1     -22.882  94.238 -32.713  1.00  0.00    -0.550 OA
ATOM     20  O   UNL     1     -23.237  96.458 -32.272  1.00  0.00    -0.550 OA
ENDBRANCH  17  18
ENDBRANCH  16  17
ENDBRANCH  15  16
ENDBRANCH  14  15
ENDBRANCH  13  14
ENDBRANCH  12  13
ENDBRANCH  11  12
ENDBRANCH   1  11
TORSDOF 15
ENDMDL
