MODEL 1
REMARK VINA RESULT:    -2.837      0.000      0.000
REMARK INTER + INTRA:          -3.454
REMARK INTER:                  -3.418
REMARK INTRA:                  -0.036
REMARK UNBOUND:                -0.036
REMARK SMILES CCCCCO
REMARK SMILES IDX 4 1 3 2 2 3 1 4 5 5 6 6
REMARK H PARENT 6 7
REMARK Flexibility Score: inf
ROOT
ATOM      1  C   UNL     1     173.175 174.180 152.358  1.00  0.00     0.028 C 
ENDROOT
BRANCH   1   2
ATOM      2  C   UNL     1     174.639 173.909 151.981  1.00  0.00     0.002 C 
BRANCH   2   3
ATOM      3  C   UNL     1     174.821 173.909 150.459  1.00  0.00    -0.003 C 
ATOM      4  C   UNL     1     173.546 173.464 149.750  1.00  0.00     0.004 C 
ENDBRANCH   2   3
ENDBRANCH   1   2
BRANCH   1   5
ATOM      5  C   UNL     1     172.793 173.514 153.684  1.00  0.00     0.156 C 
BRANCH   5   6
ATOM      6  O   UNL     1     172.528 174.480 154.666  1.00  0.00    -0.396 OA
ATOM      7  H   UNL     1     172.311 173.990 155.502  1.00  0.00     0.210 HD
ENDBRANCH   5   6
ENDBRANCH   1   5
TORSDOF 4
ENDMDL
MODEL 2
REMARK VINA RESULT:    -2.762      0.660      1.241
REMARK INTER + INTRA:          -3.363
REMARK INTER:                  -3.347
REMARK INTRA:                  -0.015
REMARK UNBOUND:                -0.036
REMARK SMILES CCCCCO
REMARK SMILES IDX 4 1 3 2 2 3 1 4 5 5 6 6
REMARK H PARENT 6 7
REMARK Flexibility Score: inf
ROOT
ATOM      1  C   UNL     1     173.444 173.868 152.592  1.00  0.00     0.028 C 
ENDROOT
BRANCH   1   2
ATOM      2  C   UNL     1     172.670 174.294 151.336  1.00  0.00     0.002 C 
BRANCH   2   3
ATOM      3  C   UNL     1     173.295 173.687 150.074  1.00  0.00    -0.003 C 
ATOM      4  C   UNL     1     174.800 173.931 150.032  1.00  0.00     0.004 C 
ENDBRANCH   2   3
ENDBRANCH   1   2
BRANCH   1   5
ATOM      5  C   UNL     1     172.510 173.595 153.775  1.00  0.00     0.156 C 
BRANCH   5   6
ATOM      6  O   UNL     1     172.777 174.479 154.831  1.00  0.00    -0.396 OA
ATOM      7  H   UNL     1     172.038 174.377 155.487  1.00  0.00     0.210 HD
ENDBRANCH   5   6
ENDBRANCH   1   5
TORSDOF 4
ENDMDL
MODEL 3
REMARK VINA RESULT:    -2.734      1.817      2.459
REMARK INTER + INTRA:          -3.330
REMARK INTER:                  -3.313
REMARK INTRA:                  -0.017
REMARK UNBOUND:                -0.036
REMARK SMILES CCCCCO
REMARK SMILES IDX 4 1 3 2 2 3 1 4 5 5 6 6
REMARK H PARENT 6 7
REMARK Flexibility Score: inf
ROOT
ATOM      1  C   UNL     1     172.364 173.775 151.178  1.00  0.00     0.028 C 
ENDROOT
BRANCH   1   2
ATOM      2  C   UNL     1     173.220 173.542 149.925  1.00  0.00     0.002 C 
BRANCH   2   3
ATOM      3  C   UNL     1     174.687 173.901 150.189  1.00  0.00    -0.003 C 
ATOM      4  C   UNL     1     174.953 174.072 151.682  1.00  0.00     0.004 C 
ENDBRANCH   2   3
ENDBRANCH   1   2
BRANCH   1   5
ATOM      5  C   UNL     1     171.495 175.030 151.052  1.00  0.00     0.156 C 
BRANCH   5   6
ATOM      6  O   UNL     1     170.595 175.120 152.124  1.00  0.00    -0.396 OA
ATOM      7  H   UNL     1     171.133 175.306 152.938  1.00  0.00     0.210 HD
ENDBRANCH   5   6
ENDBRANCH   1   5
TORSDOF 4
ENDMDL
MODEL 4
REMARK VINA RESULT:    -2.695      1.970      2.228
REMARK INTER + INTRA:          -3.283
REMARK INTER:                  -3.194
REMARK INTRA:                  -0.089
REMARK UNBOUND:                -0.036
REMARK SMILES CCCCCO
REMARK SMILES IDX 4 1 3 2 2 3 1 4 5 5 6 6
REMARK H PARENT 6 7
REMARK Flexibility Score: inf
ROOT
ATOM      1  C   UNL     1     174.404 174.154 152.097  1.00  0.00     0.028 C 
ENDROOT
BRANCH   1   2
ATOM      2  C   UNL     1     174.909 173.918 150.667  1.00  0.00     0.002 C 
BRANCH   2   3
ATOM      3  C   UNL     1     173.752 173.561 149.728  1.00  0.00    -0.003 C 
ATOM      4  C   UNL     1     173.133 172.217 150.102  1.00  0.00     0.004 C 
ENDBRANCH   2   3
ENDBRANCH   1   2
BRANCH   1   5
ATOM      5  C   UNL     1     175.345 173.551 153.145  1.00  0.00     0.156 C 
BRANCH   5   6
ATOM      6  O   UNL     1     175.350 172.151 153.060  1.00  0.00    -0.396 OA
ATOM      7  H   UNL     1     175.585 171.919 152.124  1.00  0.00     0.210 HD
ENDBRANCH   5   6
ENDBRANCH   1   5
TORSDOF 4
ENDMDL
MODEL 5
REMARK VINA RESULT:    -2.694      2.701      3.552
REMARK INTER + INTRA:          -3.281
REMARK INTER:                  -3.183
REMARK INTRA:                  -0.098
REMARK UNBOUND:                -0.036
REMARK SMILES CCCCCO
REMARK SMILES IDX 4 1 3 2 2 3 1 4 5 5 6 6
REMARK H PARENT 6 7
REMARK Flexibility Score: inf
ROOT
ATOM      1  C   UNL     1     173.963 172.026 150.128  1.00  0.00     0.028 C 
ENDROOT
BRANCH   1   2
ATOM      2  C   UNL     1     174.569 173.399 149.803  1.00  0.00     0.002 C 
BRANCH   2   3
ATOM      3  C   UNL     1     174.921 174.161 151.086  1.00  0.00    -0.003 C 
ATOM      4  C   UNL     1     173.814 174.029 152.127  1.00  0.00     0.004 C 
ENDBRANCH   2   3
ENDBRANCH   1   2
BRANCH   1   5
ATOM      5  C   UNL     1     175.040 170.950 150.299  1.00  0.00     0.156 C 
BRANCH   5   6
ATOM      6  O   UNL     1     175.306 170.726 151.657  1.00  0.00    -0.396 OA
ATOM      7  H   UNL     1     174.548 170.195 152.016  1.00  0.00     0.210 HD
ENDBRANCH   5   6
ENDBRANCH   1   5
TORSDOF 4
ENDMDL
MODEL 6
REMARK VINA RESULT:    -2.618      3.957      4.313
REMARK INTER + INTRA:          -3.190
REMARK INTER:                  -3.181
REMARK INTRA:                  -0.009
REMARK UNBOUND:                -0.036
REMARK SMILES CCCCCO
REMARK SMILES IDX 4 1 3 2 2 3 1 4 5 5 6 6
REMARK H PARENT 6 7
REMARK Flexibility Score: inf
ROOT
ATOM      1  C   UNL     1     174.581 170.470 151.407  1.00  0.00     0.028 C 
ENDROOT
BRANCH   1   2
ATOM      2  C   UNL     1     174.956 171.317 150.183  1.00  0.00     0.002 C 
BRANCH   2   3
ATOM      3  C   UNL     1     174.053 172.551 150.071  1.00  0.00    -0.003 C 
ATOM      4  C   UNL     1     174.878 173.826 149.929  1.00  0.00     0.004 C 
ENDBRANCH   2   3
ENDBRANCH   1   2
BRANCH   1   5
ATOM      5  C   UNL     1     175.190 169.066 151.342  1.00  0.00     0.156 C 
BRANCH   5   6
ATOM      6  O   UNL     1     176.094 168.868 152.396  1.00  0.00    -0.396 OA
ATOM      7  H   UNL     1     177.000 169.068 152.042  1.00  0.00     0.210 HD
ENDBRANCH   5   6
ENDBRANCH   1   5
TORSDOF 4
ENDMDL
MODEL 7
REMARK VINA RESULT:    -2.599     14.985     15.268
REMARK INTER + INTRA:          -3.167
REMARK INTER:                  -3.151
REMARK INTRA:                  -0.016
REMARK UNBOUND:                -0.036
REMARK SMILES CCCCCO
REMARK SMILES IDX 4 1 3 2 2 3 1 4 5 5 6 6
REMARK H PARENT 6 7
REMARK Flexibility Score: inf
ROOT
ATOM      1  C   UNL     1     172.850 158.274 150.461  1.00  0.00     0.028 C 
ENDROOT
BRANCH   1   2
ATOM      2  C   UNL     1     173.486 159.663 150.313  1.00  0.00     0.002 C 
BRANCH   2   3
ATOM      3  C   UNL     1     174.911 159.677 150.876  1.00  0.00    -0.003 C 
ATOM      4  C   UNL     1     175.928 160.029 149.795  1.00  0.00     0.004 C 
ENDBRANCH   2   3
ENDBRANCH   1   2
BRANCH   1   5
ATOM      5  C   UNL     1     171.786 158.246 151.563  1.00  0.00     0.156 C 
BRANCH   5   6
ATOM      6  O   UNL     1     171.935 157.106 152.367  1.00  0.00    -0.396 OA
ATOM      7  H   UNL     1     172.856 156.766 152.219  1.00  0.00     0.210 HD
ENDBRANCH   5   6
ENDBRANCH   1   5
TORSDOF 4
ENDMDL
MODEL 8
REMARK VINA RESULT:    -2.545     12.292     12.931
REMARK INTER + INTRA:          -3.101
REMARK INTER:                  -3.069
REMARK INTRA:                  -0.033
REMARK UNBOUND:                -0.036
REMARK SMILES CCCCCO
REMARK SMILES IDX 4 1 3 2 2 3 1 4 5 5 6 6
REMARK H PARENT 6 7
REMARK Flexibility Score: inf
ROOT
ATOM      1  C   UNL     1     160.867 176.114 152.683  1.00  0.00     0.028 C 
ENDROOT
BRANCH   1   2
ATOM      2  C   UNL     1     160.384 175.051 151.685  1.00  0.00     0.002 C 
BRANCH   2   3
ATOM      3  C   UNL     1     160.731 175.451 150.247  1.00  0.00    -0.003 C 
ATOM      4  C   UNL     1     162.098 176.125 150.177  1.00  0.00     0.004 C 
ENDBRANCH   2   3
ENDBRANCH   1   2
BRANCH   1   5
ATOM      5  C   UNL     1     161.035 175.542 154.093  1.00  0.00     0.156 C 
BRANCH   5   6
ATOM      6  O   UNL     1     159.828 174.999 154.556  1.00  0.00    -0.396 OA
ATOM      7  H   UNL     1     159.968 174.752 155.508  1.00  0.00     0.210 HD
ENDBRANCH   5   6
ENDBRANCH   1   5
TORSDOF 4
ENDMDL
MODEL 9
REMARK VINA RESULT:     0.128     16.739     17.582
REMARK INTER + INTRA:           0.118
REMARK INTER:                  -1.174
REMARK INTRA:                   1.292
REMARK UNBOUND:                -0.036
REMARK SMILES CCCCCO
REMARK SMILES IDX 4 1 3 2 2 3 1 4 5 5 6 6
REMARK H PARENT 6 7
REMARK Flexibility Score: inf
ROOT
ATOM      1  C   UNL     1     161.190 173.501 165.371  1.00  0.00     0.028 C 
ENDROOT
BRANCH   1   2
ATOM      2  C   UNL     1     161.343 175.009 165.613  1.00  0.00     0.002 C 
BRANCH   2   3
ATOM      3  C   UNL     1     162.626 175.541 164.965  1.00  0.00    -0.003 C 
ATOM      4  C   UNL     1     163.849 174.764 165.443  1.00  0.00     0.004 C 
ENDBRANCH   2   3
ENDBRANCH   1   2
BRANCH   1   5
ATOM      5  C   UNL     1     162.406 172.714 165.872  1.00  0.00     0.156 C 
BRANCH   5   6
ATOM      6  O   UNL     1     162.587 171.546 165.117  1.00  0.00    -0.396 OA
ATOM      7  H   UNL     1     162.420 171.786 164.169  1.00  0.00     0.210 HD
ENDBRANCH   5   6
ENDBRANCH   1   5
TORSDOF 4
ENDMDL
