MODEL 1
REMARK VINA RESULT:    -3.360      0.000      0.000
REMARK INTER + INTRA:          -5.428
REMARK INTER:                  -4.734
REMARK INTRA:                  -0.694
REMARK UNBOUND:                -0.694
REMARK SMILES CCCCCCCCC(=O)[O-]
REMARK SMILES IDX 6 1 7 2 8 3 9 4 10 5 11 6 5 7 4 8 3 9 2 10 1 11
REMARK H PARENT
REMARK Flexibility Score: inf
ROOT
ATOM      1  C   UNL     1      -1.871   9.922  37.277  1.00  0.00     0.000 C 
ENDROOT
BRANCH   1   2
ATOM      2  C   UNL     1      -2.343   9.365  38.631  1.00  0.00     0.006 C 
BRANCH   2   3
ATOM      3  C   UNL     1      -2.107   7.853  38.749  1.00  0.00     0.053 C 
BRANCH   3   4
ATOM      4  C   UNL     1      -2.999   7.228  39.776  1.00  0.00     0.041 C 
ATOM      5  O   UNL     1      -3.248   7.832  40.852  1.00  0.00    -0.550 OA
ATOM      6  O   UNL     1      -3.582   5.990  39.532  1.00  0.00    -0.550 OA
ENDBRANCH   3   4
ENDBRANCH   2   3
ENDBRANCH   1   2
BRANCH   1   7
ATOM      7  C   UNL     1      -1.507   8.814  36.276  1.00  0.00     0.000 C 
BRANCH   7   8
ATOM      8  C   UNL     1      -0.114   9.006  35.658  1.00  0.00    -0.000 C 
BRANCH   8   9
ATOM      9  C   UNL     1       0.974   8.427  36.570  1.00  0.00    -0.000 C 
BRANCH   9  10
ATOM     10  C   UNL     1       1.820   9.543  37.195  1.00  0.00    -0.003 C 
ATOM     11  C   UNL     1       1.601   9.621  38.703  1.00  0.00     0.004 C 
ENDBRANCH   9  10
ENDBRANCH   8   9
ENDBRANCH   7   8
ENDBRANCH   1   7
TORSDOF 7
ENDMDL
MODEL 2
REMARK VINA RESULT:    -3.283      3.294      4.955
REMARK INTER + INTRA:          -5.321
REMARK INTER:                  -4.692
REMARK INTRA:                  -0.629
REMARK UNBOUND:                -0.694
REMARK SMILES CCCCCCCCC(=O)[O-]
REMARK SMILES IDX 6 1 7 2 8 3 9 4 10 5 11 6 5 7 4 8 3 9 2 10 1 11
REMARK H PARENT
REMARK Flexibility Score: inf
ROOT
ATOM      1  C   UNL     1      -2.117   9.604  37.782  1.00  0.00     0.000 C 
ENDROOT
BRANCH   1   2
ATOM      2  C   UNL     1      -1.528   9.360  36.382  1.00  0.00     0.006 C 
BRANCH   2   3
ATOM      3  C   UNL     1      -1.373   7.865  36.072  1.00  0.00     0.053 C 
BRANCH   3   4
ATOM      4  C   UNL     1      -0.312   7.614  35.046  1.00  0.00     0.041 C 
ATOM      5  O   UNL     1      -0.437   6.670  34.223  1.00  0.00    -0.550 OA
ATOM      6  O   UNL     1       0.801   8.444  34.977  1.00  0.00    -0.550 OA
ENDBRANCH   3   4
ENDBRANCH   2   3
ENDBRANCH   1   2
BRANCH   1   7
ATOM      7  C   UNL     1      -1.093   9.370  38.904  1.00  0.00     0.000 C 
BRANCH   7   8
ATOM      8  C   UNL     1      -1.458   8.178  39.802  1.00  0.00    -0.000 C 
BRANCH   8   9
ATOM      9  C   UNL     1      -2.973   7.946  39.816  1.00  0.00    -0.000 C 
BRANCH   9  10
ATOM     10  C   UNL     1      -3.302   6.448  39.808  1.00  0.00    -0.003 C 
ATOM     11  C   UNL     1      -2.357   5.682  38.887  1.00  0.00     0.004 C 
ENDBRANCH   9  10
ENDBRANCH   8   9
ENDBRANCH   7   8
ENDBRANCH   1   7
TORSDOF 7
ENDMDL
MODEL 3
REMARK VINA RESULT:    -3.259      3.018      4.933
REMARK INTER + INTRA:          -5.287
REMARK INTER:                  -4.710
REMARK INTRA:                  -0.576
REMARK UNBOUND:                -0.694
REMARK SMILES CCCCCCCCC(=O)[O-]
REMARK SMILES IDX 6 1 7 2 8 3 9 4 10 5 11 6 5 7 4 8 3 9 2 10 1 11
REMARK H PARENT
REMARK Flexibility Score: inf
ROOT
ATOM      1  C   UNL     1      -1.424   9.337  36.909  1.00  0.00     0.000 C 
ENDROOT
BRANCH   1   2
ATOM      2  C   UNL     1      -0.779   7.982  36.571  1.00  0.00     0.006 C 
BRANCH   2   3
ATOM      3  C   UNL     1      -1.547   7.235  35.472  1.00  0.00     0.053 C 
BRANCH   3   4
ATOM      4  C   UNL     1      -0.726   6.140  34.863  1.00  0.00     0.041 C 
ATOM      5  O   UNL     1      -0.661   5.012  35.420  1.00  0.00    -0.550 OA
ATOM      6  O   UNL     1      -0.056   6.355  33.665  1.00  0.00    -0.550 OA
ENDBRANCH   3   4
ENDBRANCH   2   3
ENDBRANCH   1   2
BRANCH   1   7
ATOM      7  C   UNL     1      -2.223   9.300  38.222  1.00  0.00     0.000 C 
BRANCH   7   8
ATOM      8  C   UNL     1      -1.851   8.103  39.110  1.00  0.00    -0.000 C 
BRANCH   8   9
ATOM      9  C   UNL     1      -3.052   7.646  39.945  1.00  0.00    -0.000 C 
BRANCH   9  10
ATOM     10  C   UNL     1      -3.363   6.165  39.698  1.00  0.00    -0.003 C 
ATOM     11  C   UNL     1      -2.347   5.540  38.747  1.00  0.00     0.004 C 
ENDBRANCH   9  10
ENDBRANCH   8   9
ENDBRANCH   7   8
ENDBRANCH   1   7
TORSDOF 7
ENDMDL
MODEL 4
REMARK VINA RESULT:    -3.228      2.385      3.517
REMARK INTER + INTRA:          -5.243
REMARK INTER:                  -4.465
REMARK INTRA:                  -0.777
REMARK UNBOUND:                -0.694
REMARK SMILES CCCCCCCCC(=O)[O-]
REMARK SMILES IDX 6 1 7 2 8 3 9 4 10 5 11 6 5 7 4 8 3 9 2 10 1 11
REMARK H PARENT
REMARK Flexibility Score: inf
ROOT
ATOM      1  C   UNL     1      -1.603   7.534  40.314  1.00  0.00     0.000 C 
ENDROOT
BRANCH   1   2
ATOM      2  C   UNL     1      -2.686   8.085  39.372  1.00  0.00     0.006 C 
BRANCH   2   3
ATOM      3  C   UNL     1      -2.218   9.340  38.622  1.00  0.00     0.053 C 
BRANCH   3   4
ATOM      4  C   UNL     1      -1.779   9.025  37.226  1.00  0.00     0.041 C 
ATOM      5  O   UNL     1      -1.672   9.944  36.373  1.00  0.00    -0.550 OA
ATOM      6  O   UNL     1      -1.458   7.720  36.874  1.00  0.00    -0.550 OA
ENDBRANCH   3   4
ENDBRANCH   2   3
ENDBRANCH   1   2
BRANCH   1   7
ATOM      7  C   UNL     1      -0.729   8.643  40.923  1.00  0.00     0.000 C 
BRANCH   7   8
ATOM      8  C   UNL     1       0.770   8.311  40.875  1.00  0.00    -0.000 C 
BRANCH   8   9
ATOM      9  C   UNL     1       1.263   8.211  39.426  1.00  0.00    -0.000 C 
BRANCH   9  10
ATOM     10  C   UNL     1       1.556   9.600  38.847  1.00  0.00    -0.003 C 
ATOM     11  C   UNL     1       1.918   9.515  37.367  1.00  0.00     0.004 C 
ENDBRANCH   9  10
ENDBRANCH   8   9
ENDBRANCH   7   8
ENDBRANCH   1   7
TORSDOF 7
ENDMDL
MODEL 5
REMARK VINA RESULT:    -3.215      2.808      4.559
REMARK INTER + INTRA:          -5.225
REMARK INTER:                  -4.381
REMARK INTRA:                  -0.843
REMARK UNBOUND:                -0.694
REMARK SMILES CCCCCCCCC(=O)[O-]
REMARK SMILES IDX 6 1 7 2 8 3 9 4 10 5 11 6 5 7 4 8 3 9 2 10 1 11
REMARK H PARENT
REMARK Flexibility Score: inf
ROOT
ATOM      1  C   UNL     1      -1.864   8.623  39.382  1.00  0.00     0.000 C 
ENDROOT
BRANCH   1   2
ATOM      2  C   UNL     1      -2.233   9.351  38.078  1.00  0.00     0.006 C 
BRANCH   2   3
ATOM      3  C   UNL     1      -1.524   8.748  36.857  1.00  0.00     0.053 C 
BRANCH   3   4
ATOM      4  C   UNL     1      -0.036   8.741  37.023  1.00  0.00     0.041 C 
ATOM      5  O   UNL     1       0.599   9.825  37.094  1.00  0.00    -0.550 OA
ATOM      6  O   UNL     1       0.648   7.535  37.131  1.00  0.00    -0.550 OA
ENDBRANCH   3   4
ENDBRANCH   2   3
ENDBRANCH   1   2
BRANCH   1   7
ATOM      7  C   UNL     1      -3.035   7.809  39.955  1.00  0.00     0.000 C 
BRANCH   7   8
ATOM      8  C   UNL     1      -3.007   6.337  39.516  1.00  0.00    -0.000 C 
BRANCH   8   9
ATOM      9  C   UNL     1      -1.602   5.745  39.675  1.00  0.00    -0.000 C 
BRANCH   9  10
ATOM     10  C   UNL     1      -1.243   4.849  38.484  1.00  0.00    -0.003 C 
ATOM     11  C   UNL     1      -2.143   5.138  37.286  1.00  0.00     0.004 C 
ENDBRANCH   9  10
ENDBRANCH   8   9
ENDBRANCH   7   8
ENDBRANCH   1   7
TORSDOF 7
ENDMDL
MODEL 6
REMARK VINA RESULT:    -3.206      2.082      2.703
REMARK INTER + INTRA:          -5.212
REMARK INTER:                  -4.438
REMARK INTRA:                  -0.773
REMARK UNBOUND:                -0.694
REMARK SMILES CCCCCCCCC(=O)[O-]
REMARK SMILES IDX 6 1 7 2 8 3 9 4 10 5 11 6 5 7 4 8 3 9 2 10 1 11
REMARK H PARENT
REMARK Flexibility Score: inf
ROOT
ATOM      1  C   UNL     1      -2.189   8.599  38.481  1.00  0.00     0.000 C 
ENDROOT
BRANCH   1   2
ATOM      2  C   UNL     1      -2.851   8.175  39.803  1.00  0.00     0.006 C 
BRANCH   2   3
ATOM      3  C   UNL     1      -3.248   6.692  39.801  1.00  0.00     0.053 C 
BRANCH   3   4
ATOM      4  C   UNL     1      -2.065   5.797  40.002  1.00  0.00     0.041 C 
ATOM      5  O   UNL     1      -1.534   5.692  41.139  1.00  0.00    -0.550 OA
ATOM      6  O   UNL     1      -1.565   5.053  38.939  1.00  0.00    -0.550 OA
ENDBRANCH   3   4
ENDBRANCH   2   3
ENDBRANCH   1   2
BRANCH   1   7
ATOM      7  C   UNL     1      -1.433   9.933  38.599  1.00  0.00     0.000 C 
BRANCH   7   8
ATOM      8  C   UNL     1       0.079   9.742  38.794  1.00  0.00    -0.000 C 
BRANCH   8   9
ATOM      9  C   UNL     1       0.456   9.833  40.277  1.00  0.00    -0.000 C 
BRANCH   9  10
ATOM     10  C   UNL     1       0.789   8.449  40.846  1.00  0.00    -0.003 C 
ATOM     11  C   UNL     1       1.234   7.492  39.744  1.00  0.00     0.004 C 
ENDBRANCH   9  10
ENDBRANCH   8   9
ENDBRANCH   7   8
ENDBRANCH   1   7
TORSDOF 7
ENDMDL
MODEL 7
REMARK VINA RESULT:    -3.168      2.498      4.192
REMARK INTER + INTRA:          -5.158
REMARK INTER:                  -4.382
REMARK INTRA:                  -0.776
REMARK UNBOUND:                -0.694
REMARK SMILES CCCCCCCCC(=O)[O-]
REMARK SMILES IDX 6 1 7 2 8 3 9 4 10 5 11 6 5 7 4 8 3 9 2 10 1 11
REMARK H PARENT
REMARK Flexibility Score: inf
ROOT
ATOM      1  C   UNL     1       0.093   9.068  39.435  1.00  0.00     0.000 C 
ENDROOT
BRANCH   1   2
ATOM      2  C   UNL     1       0.414   9.555  40.858  1.00  0.00     0.006 C 
BRANCH   2   3
ATOM      3  C   UNL     1       0.725   8.393  41.812  1.00  0.00     0.053 C 
BRANCH   3   4
ATOM      4  C   UNL     1      -0.513   7.862  42.466  1.00  0.00     0.041 C 
ATOM      5  O   UNL     1      -1.322   8.648  43.024  1.00  0.00    -0.550 OA
ATOM      6  O   UNL     1      -0.789   6.500  42.433  1.00  0.00    -0.550 OA
ENDBRANCH   3   4
ENDBRANCH   2   3
ENDBRANCH   1   2
BRANCH   1   7
ATOM      7  C   UNL     1      -1.193   9.695  38.872  1.00  0.00     0.000 C 
BRANCH   7   8
ATOM      8  C   UNL     1      -2.270   8.649  38.545  1.00  0.00    -0.000 C 
BRANCH   8   9
ATOM      9  C   UNL     1      -2.995   8.194  39.817  1.00  0.00    -0.000 C 
BRANCH   9  10
ATOM     10  C   UNL     1      -3.198   6.674  39.820  1.00  0.00    -0.003 C 
ATOM     11  C   UNL     1      -2.066   5.965  39.084  1.00  0.00     0.004 C 
ENDBRANCH   9  10
ENDBRANCH   8   9
ENDBRANCH   7   8
ENDBRANCH   1   7
TORSDOF 7
ENDMDL
