MODEL 1
REMARK VINA RESULT:    -5.171      0.000      0.000
REMARK INTER + INTRA:          -8.527
REMARK INTER:                  -7.892
REMARK INTRA:                  -0.635
REMARK UNBOUND:                -0.635
REMARK SMILES O=C([O-])CCCCCCCCC(=O)[O-]
REMARK SMILES IDX 7 1 6 2 5 3 4 4 2 5 1 6 3 7 8 8 9 9 10 10 11 11 12 12 13 13
REMARK SMILES IDX 14 14
REMARK H PARENT
REMARK Flexibility Score: inf
ROOT
ATOM      1  C   UNL     1      14.539  16.936  63.372  1.00  0.00     0.000 C 
ENDROOT
BRANCH   1   2
ATOM      2  C   UNL     1      15.688  16.404  62.497  1.00  0.00     0.000 C 
BRANCH   2   3
ATOM      3  C   UNL     1      15.194  15.749  61.195  1.00  0.00     0.006 C 
BRANCH   3   4
ATOM      4  C   UNL     1      15.572  16.570  59.955  1.00  0.00     0.053 C 
BRANCH   4   5
ATOM      5  C   UNL     1      16.119  15.707  58.860  1.00  0.00     0.041 C 
ATOM      6  O   UNL     1      15.606  14.581  58.624  1.00  0.00    -0.550 OA
ATOM      7  O   UNL     1      17.214  16.133  58.120  1.00  0.00    -0.550 OA
ENDBRANCH   4   5
ENDBRANCH   3   4
ENDBRANCH   2   3
ENDBRANCH   1   2
BRANCH   1   8
ATOM      8  C   UNL     1      13.253  16.084  63.356  1.00  0.00     0.000 C 
BRANCH   8   9
ATOM      9  C   UNL     1      12.945  15.343  64.670  1.00  0.00     0.000 C 
BRANCH   9  10
ATOM     10  C   UNL     1      13.779  14.066  64.845  1.00  0.00     0.006 C 
BRANCH  10  11
ATOM     11  C   UNL     1      13.751  13.215  63.572  1.00  0.00     0.053 C 
BRANCH  11  12
ATOM     12  C   UNL     1      14.348  11.868  63.830  1.00  0.00     0.041 C 
ATOM     13  O   UNL     1      15.450  11.552  63.307  1.00  0.00    -0.550 OA
ATOM     14  O   UNL     1      13.666  10.941  64.608  1.00  0.00    -0.550 OA
ENDBRANCH  11  12
ENDBRANCH  10  11
ENDBRANCH   9  10
ENDBRANCH   8   9
ENDBRANCH   1   8
TORSDOF 9
ENDMDL
MODEL 2
REMARK VINA RESULT:    -5.151      0.702      5.778
REMARK INTER + INTRA:          -8.496
REMARK INTER:                  -8.093
REMARK INTRA:                  -0.403
REMARK UNBOUND:                -0.635
REMARK SMILES O=C([O-])CCCCCCCCC(=O)[O-]
REMARK SMILES IDX 7 1 6 2 5 3 4 4 2 5 1 6 3 7 8 8 9 9 10 10 11 11 12 12 13 13
REMARK SMILES IDX 14 14
REMARK H PARENT
REMARK Flexibility Score: inf
ROOT
ATOM      1  C   UNL     1      13.917  15.912  63.268  1.00  0.00     0.000 C 
ENDROOT
BRANCH   1   2
ATOM      2  C   UNL     1      14.052  15.373  64.703  1.00  0.00     0.000 C 
BRANCH   2   3
ATOM      3  C   UNL     1      13.713  13.876  64.814  1.00  0.00     0.006 C 
BRANCH   3   4
ATOM      4  C   UNL     1      14.010  13.118  63.513  1.00  0.00     0.053 C 
BRANCH   4   5
ATOM      5  C   UNL     1      14.460  11.714  63.777  1.00  0.00     0.041 C 
ATOM      6  O   UNL     1      15.543  11.293  63.290  1.00  0.00    -0.550 OA
ATOM      7  O   UNL     1      13.668  10.860  64.534  1.00  0.00    -0.550 OA
ENDBRANCH   4   5
ENDBRANCH   3   4
ENDBRANCH   2   3
ENDBRANCH   1   2
BRANCH   1   8
ATOM      8  C   UNL     1      15.061  16.837  62.803  1.00  0.00     0.000 C 
BRANCH   8   9
ATOM      9  C   UNL     1      15.933  16.276  61.665  1.00  0.00     0.000 C 
BRANCH   9  10
ATOM     10  C   UNL     1      15.600  16.892  60.298  1.00  0.00     0.006 C 
BRANCH  10  11
ATOM     11  C   UNL     1      16.802  16.809  59.353  1.00  0.00     0.053 C 
BRANCH  11  12
ATOM     12  C   UNL     1      16.628  15.684  58.383  1.00  0.00     0.041 C 
ATOM     13  O   UNL     1      17.426  15.549  57.418  1.00  0.00    -0.550 OA
ATOM     14  O   UNL     1      15.556  14.811  58.515  1.00  0.00    -0.550 OA
ENDBRANCH  11  12
ENDBRANCH  10  11
ENDBRANCH   9  10
ENDBRANCH   8   9
ENDBRANCH   1   8
TORSDOF 9
ENDMDL
MODEL 3
REMARK VINA RESULT:    -5.147      1.185      5.846
REMARK INTER + INTRA:          -8.491
REMARK INTER:                  -7.919
REMARK INTRA:                  -0.571
REMARK UNBOUND:                -0.635
REMARK SMILES O=C([O-])CCCCCCCCC(=O)[O-]
REMARK SMILES IDX 7 1 6 2 5 3 4 4 2 5 1 6 3 7 8 8 9 9 10 10 11 11 12 12 13 13
REMARK SMILES IDX 14 14
REMARK H PARENT
REMARK Flexibility Score: inf
ROOT
ATOM      1  C   UNL     1      15.008  16.788  63.129  1.00  0.00     0.000 C 
ENDROOT
BRANCH   1   2
ATOM      2  C   UNL     1      13.832  15.795  63.118  1.00  0.00     0.000 C 
BRANCH   2   3
ATOM      3  C   UNL     1      14.130  14.508  63.907  1.00  0.00     0.006 C 
BRANCH   3   4
ATOM      4  C   UNL     1      13.597  13.257  63.196  1.00  0.00     0.053 C 
BRANCH   4   5
ATOM      5  C   UNL     1      14.183  12.001  63.763  1.00  0.00     0.041 C 
ATOM      6  O   UNL     1      13.540  11.329  64.613  1.00  0.00    -0.550 OA
ATOM      7  O   UNL     1      15.452  11.588  63.377  1.00  0.00    -0.550 OA
ENDBRANCH   4   5
ENDBRANCH   3   4
ENDBRANCH   2   3
ENDBRANCH   1   2
BRANCH   1   8
ATOM      8  C   UNL     1      15.978  16.671  61.936  1.00  0.00     0.000 C 
BRANCH   8   9
ATOM      9  C   UNL     1      15.334  16.218  60.612  1.00  0.00     0.000 C 
BRANCH   9  10
ATOM     10  C   UNL     1      16.020  14.986  60.005  1.00  0.00     0.006 C 
BRANCH  10  11
ATOM     11  C   UNL     1      16.460  15.258  58.564  1.00  0.00     0.053 C 
BRANCH  11  12
ATOM     12  C   UNL     1      17.921  15.576  58.513  1.00  0.00     0.041 C 
ATOM     13  O   UNL     1      18.678  15.231  59.459  1.00  0.00    -0.550 OA
ATOM     14  O   UNL     1      18.440  16.295  57.444  1.00  0.00    -0.550 OA
ENDBRANCH  11  12
ENDBRANCH  10  11
ENDBRANCH   9  10
ENDBRANCH   8   9
ENDBRANCH   1   8
TORSDOF 9
ENDMDL
MODEL 4
REMARK VINA RESULT:    -5.044      1.188      1.837
REMARK INTER + INTRA:          -8.333
REMARK INTER:                  -7.725
REMARK INTRA:                  -0.608
REMARK UNBOUND:                -0.635
REMARK SMILES O=C([O-])CCCCCCCCC(=O)[O-]
REMARK SMILES IDX 7 1 6 2 5 3 4 4 2 5 1 6 3 7 8 8 9 9 10 10 11 11 12 12 13 13
REMARK SMILES IDX 14 14
REMARK H PARENT
REMARK Flexibility Score: inf
ROOT
ATOM      1  C   UNL     1      15.582  16.329  62.362  1.00  0.00     0.000 C 
ENDROOT
BRANCH   1   2
ATOM      2  C   UNL     1      15.014  16.654  60.970  1.00  0.00     0.000 C 
BRANCH   2   3
ATOM      3  C   UNL     1      15.494  15.674  59.885  1.00  0.00     0.006 C 
BRANCH   3   4
ATOM      4  C   UNL     1      17.017  15.483  59.910  1.00  0.00     0.053 C 
BRANCH   4   5
ATOM      5  C   UNL     1      17.719  16.489  59.052  1.00  0.00     0.041 C 
ATOM      6  O   UNL     1      18.104  17.583  59.543  1.00  0.00    -0.550 OA
ATOM      7  O   UNL     1      17.923  16.231  57.702  1.00  0.00    -0.550 OA
ENDBRANCH   4   5
ENDBRANCH   3   4
ENDBRANCH   2   3
ENDBRANCH   1   2
BRANCH   1   8
ATOM      8  C   UNL     1      14.537  16.239  63.493  1.00  0.00     0.000 C 
BRANCH   8   9
ATOM      9  C   UNL     1      14.559  14.927  64.300  1.00  0.00     0.000 C 
BRANCH   9  10
ATOM     10  C   UNL     1      13.431  13.963  63.903  1.00  0.00     0.006 C 
BRANCH  10  11
ATOM     11  C   UNL     1      13.915  12.953  62.859  1.00  0.00     0.053 C 
BRANCH  11  12
ATOM     12  C   UNL     1      14.448  11.725  63.526  1.00  0.00     0.041 C 
ATOM     13  O   UNL     1      13.763  11.130  64.400  1.00  0.00    -0.550 OA
ATOM     14  O   UNL     1      15.722  11.263  63.219  1.00  0.00    -0.550 OA
ENDBRANCH  11  12
ENDBRANCH  10  11
ENDBRANCH   9  10
ENDBRANCH   8   9
ENDBRANCH   1   8
TORSDOF 9
ENDMDL
MODEL 5
REMARK VINA RESULT:    -4.992      2.085      5.891
REMARK INTER + INTRA:          -8.253
REMARK INTER:                  -7.687
REMARK INTRA:                  -0.566
REMARK UNBOUND:                -0.635
REMARK SMILES O=C([O-])CCCCCCCCC(=O)[O-]
REMARK SMILES IDX 7 1 6 2 5 3 4 4 2 5 1 6 3 7 8 8 9 9 10 10 11 11 12 12 13 13
REMARK SMILES IDX 14 14
REMARK H PARENT
REMARK Flexibility Score: inf
ROOT
ATOM      1  C   UNL     1      15.287  16.531  62.411  1.00  0.00     0.000 C 
ENDROOT
BRANCH   1   2
ATOM      2  C   UNL     1      14.715  15.500  63.401  1.00  0.00     0.000 C 
BRANCH   2   3
ATOM      3  C   UNL     1      14.335  14.171  62.725  1.00  0.00     0.006 C 
BRANCH   3   4
ATOM      4  C   UNL     1      13.535  13.255  63.661  1.00  0.00     0.053 C 
BRANCH   4   5
ATOM      5  C   UNL     1      14.217  11.938  63.870  1.00  0.00     0.041 C 
ATOM      6  O   UNL     1      13.640  11.020  64.512  1.00  0.00    -0.550 OA
ATOM      7  O   UNL     1      15.501  11.733  63.381  1.00  0.00    -0.550 OA
ENDBRANCH   4   5
ENDBRANCH   3   4
ENDBRANCH   2   3
ENDBRANCH   1   2
BRANCH   1   8
ATOM      8  C   UNL     1      15.128  16.168  60.920  1.00  0.00     0.000 C 
BRANCH   8   9
ATOM      9  C   UNL     1      16.111  16.874  59.968  1.00  0.00     0.000 C 
BRANCH   9  10
ATOM     10  C   UNL     1      17.163  15.921  59.382  1.00  0.00     0.006 C 
BRANCH  10  11
ATOM     11  C   UNL     1      18.579  16.437  59.652  1.00  0.00     0.053 C 
BRANCH  11  12
ATOM     12  C   UNL     1      18.798  16.623  61.120  1.00  0.00     0.041 C 
ATOM     13  O   UNL     1      18.693  15.645  61.906  1.00  0.00    -0.550 OA
ATOM     14  O   UNL     1      19.070  17.887  61.628  1.00  0.00    -0.550 OA
ENDBRANCH  11  12
ENDBRANCH  10  11
ENDBRANCH   9  10
ENDBRANCH   8   9
ENDBRANCH   1   8
TORSDOF 9
ENDMDL
MODEL 6
REMARK VINA RESULT:    -4.843     12.013     13.155
REMARK INTER + INTRA:          -8.026
REMARK INTER:                  -7.682
REMARK INTRA:                  -0.344
REMARK UNBOUND:                -0.635
REMARK SMILES O=C([O-])CCCCCCCCC(=O)[O-]
REMARK SMILES IDX 7 1 6 2 5 3 4 4 2 5 1 6 3 7 8 8 9 9 10 10 11 11 12 12 13 13
REMARK SMILES IDX 14 14
REMARK H PARENT
REMARK Flexibility Score: inf
ROOT
ATOM      1  C   UNL     1      17.186  23.949  71.622  1.00  0.00     0.000 C 
ENDROOT
BRANCH   1   2
ATOM      2  C   UNL     1      18.090  24.605  70.563  1.00  0.00     0.000 C 
BRANCH   2   3
ATOM      3  C   UNL     1      17.948  26.137  70.522  1.00  0.00     0.006 C 
BRANCH   3   4
ATOM      4  C   UNL     1      19.184  26.847  71.090  1.00  0.00     0.053 C 
BRANCH   4   5
ATOM      5  C   UNL     1      19.157  28.319  70.814  1.00  0.00     0.041 C 
ATOM      6  O   UNL     1      18.081  28.881  70.476  1.00  0.00    -0.550 OA
ATOM      7  O   UNL     1      20.325  29.065  70.900  1.00  0.00    -0.550 OA
ENDBRANCH   4   5
ENDBRANCH   3   4
ENDBRANCH   2   3
ENDBRANCH   1   2
BRANCH   1   8
ATOM      8  C   UNL     1      17.364  22.425  71.784  1.00  0.00     0.000 C 
BRANCH   8   9
ATOM      9  C   UNL     1      18.401  21.785  70.843  1.00  0.00     0.000 C 
BRANCH   9  10
ATOM     10  C   UNL     1      17.881  20.513  70.159  1.00  0.00     0.006 C 
BRANCH  10  11
ATOM     11  C   UNL     1      16.643  19.970  70.880  1.00  0.00     0.053 C 
BRANCH  11  12
ATOM     12  C   UNL     1      16.496  18.502  70.634  1.00  0.00     0.041 C 
ATOM     13  O   UNL     1      16.764  17.676  71.547  1.00  0.00    -0.550 OA
ATOM     14  O   UNL     1      16.109  18.041  69.382  1.00  0.00    -0.550 OA
ENDBRANCH  11  12
ENDBRANCH  10  11
ENDBRANCH   9  10
ENDBRANCH   8   9
ENDBRANCH   1   8
TORSDOF 9
ENDMDL
MODEL 7
REMARK VINA RESULT:    -4.718     11.456     13.655
REMARK INTER + INTRA:          -7.835
REMARK INTER:                  -7.461
REMARK INTRA:                  -0.374
REMARK UNBOUND:                -0.635
REMARK SMILES O=C([O-])CCCCCCCCC(=O)[O-]
REMARK SMILES IDX 7 1 6 2 5 3 4 4 2 5 1 6 3 7 8 8 9 9 10 10 11 11 12 12 13 13
REMARK SMILES IDX 14 14
REMARK H PARENT
REMARK Flexibility Score: inf
ROOT
ATOM      1  C   UNL     1      17.160  22.547  71.726  1.00  0.00     0.000 C 
ENDROOT
BRANCH   1   2
ATOM      2  C   UNL     1      18.263  21.798  70.958  1.00  0.00     0.000 C 
BRANCH   2   3
ATOM      3  C   UNL     1      17.740  20.548  70.228  1.00  0.00     0.006 C 
BRANCH   3   4
ATOM      4  C   UNL     1      16.593  19.872  70.990  1.00  0.00     0.053 C 
BRANCH   4   5
ATOM      5  C   UNL     1      16.494  18.412  70.668  1.00  0.00     0.041 C 
ATOM      6  O   UNL     1      16.240  18.038  69.493  1.00  0.00    -0.550 OA
ATOM      7  O   UNL     1      16.652  17.466  71.673  1.00  0.00    -0.550 OA
ENDBRANCH   4   5
ENDBRANCH   3   4
ENDBRANCH   2   3
ENDBRANCH   1   2
BRANCH   1   8
ATOM      8  C   UNL     1      17.295  24.083  71.738  1.00  0.00     0.000 C 
BRANCH   8   9
ATOM      9  C   UNL     1      18.067  24.680  70.548  1.00  0.00     0.000 C 
BRANCH   9  10
ATOM     10  C   UNL     1      18.611  26.088  70.834  1.00  0.00     0.006 C 
BRANCH  10  11
ATOM     11  C   UNL     1      17.479  27.120  70.846  1.00  0.00     0.053 C 
BRANCH  11  12
ATOM     12  C   UNL     1      17.314  27.732  69.492  1.00  0.00     0.041 C 
ATOM     13  O   UNL     1      16.194  28.183  69.131  1.00  0.00    -0.550 OA
ATOM     14  O   UNL     1      18.384  27.761  68.606  1.00  0.00    -0.550 OA
ENDBRANCH  11  12
ENDBRANCH  10  11
ENDBRANCH   9  10
ENDBRANCH   8   9
ENDBRANCH   1   8
TORSDOF 9
ENDMDL
MODEL 8
REMARK VINA RESULT:    -4.685      3.021      6.350
REMARK INTER + INTRA:          -7.784
REMARK INTER:                  -7.218
REMARK INTRA:                  -0.566
REMARK UNBOUND:                -0.635
REMARK SMILES O=C([O-])CCCCCCCCC(=O)[O-]
REMARK SMILES IDX 7 1 6 2 5 3 4 4 2 5 1 6 3 7 8 8 9 9 10 10 11 11 12 12 13 13
REMARK SMILES IDX 14 14
REMARK H PARENT
REMARK Flexibility Score: inf
ROOT
ATOM      1  C   UNL     1      15.416  15.900  60.867  1.00  0.00     0.000 C 
ENDROOT
BRANCH   1   2
ATOM      2  C   UNL     1      15.651  16.558  62.238  1.00  0.00     0.000 C 
BRANCH   2   3
ATOM      3  C   UNL     1      14.486  16.329  63.217  1.00  0.00     0.006 C 
BRANCH   3   4
ATOM      4  C   UNL     1      13.954  14.891  63.157  1.00  0.00     0.053 C 
BRANCH   4   5
ATOM      5  C   UNL     1      14.262  14.130  64.410  1.00  0.00     0.041 C 
ATOM      6  O   UNL     1      14.595  12.917  64.348  1.00  0.00    -0.550 OA
ATOM      7  O   UNL     1      14.152  14.751  65.647  1.00  0.00    -0.550 OA
ENDBRANCH   4   5
ENDBRANCH   3   4
ENDBRANCH   2   3
ENDBRANCH   1   2
BRANCH   1   8
ATOM      8  C   UNL     1      16.687  15.665  60.024  1.00  0.00     0.000 C 
BRANCH   8   9
ATOM      9  C   UNL     1      17.205  16.901  59.266  1.00  0.00     0.000 C 
BRANCH   9  10
ATOM     10  C   UNL     1      18.626  17.305  59.684  1.00  0.00     0.006 C 
BRANCH  10  11
ATOM     11  C   UNL     1      19.103  16.474  60.878  1.00  0.00     0.053 C 
BRANCH  11  12
ATOM     12  C   UNL     1      19.801  17.342  61.876  1.00  0.00     0.041 C 
ATOM     13  O   UNL     1      21.057  17.326  61.962  1.00  0.00    -0.550 OA
ATOM     14  O   UNL     1      19.062  18.135  62.745  1.00  0.00    -0.550 OA
ENDBRANCH  11  12
ENDBRANCH  10  11
ENDBRANCH   9  10
ENDBRANCH   8   9
ENDBRANCH   1   8
TORSDOF 9
ENDMDL
MODEL 9
REMARK VINA RESULT:    -4.676      2.933      4.189
REMARK INTER + INTRA:          -7.772
REMARK INTER:                  -7.006
REMARK INTRA:                  -0.766
REMARK UNBOUND:                -0.635
REMARK SMILES O=C([O-])CCCCCCCCC(=O)[O-]
REMARK SMILES IDX 7 1 6 2 5 3 4 4 2 5 1 6 3 7 8 8 9 9 10 10 11 11 12 12 13 13
REMARK SMILES IDX 14 14
REMARK H PARENT
REMARK Flexibility Score: inf
ROOT
ATOM      1  C   UNL     1      16.206  15.932  59.100  1.00  0.00     0.000 C 
ENDROOT
BRANCH   1   2
ATOM      2  C   UNL     1      17.385  16.920  59.057  1.00  0.00     0.000 C 
BRANCH   2   3
ATOM      3  C   UNL     1      18.676  16.336  59.655  1.00  0.00     0.006 C 
BRANCH   3   4
ATOM      4  C   UNL     1      19.440  17.365  60.499  1.00  0.00     0.053 C 
BRANCH   4   5
ATOM      5  C   UNL     1      19.205  17.169  61.965  1.00  0.00     0.041 C 
ATOM      6  O   UNL     1      19.132  18.164  62.734  1.00  0.00    -0.550 OA
ATOM      7  O   UNL     1      19.096  15.887  62.487  1.00  0.00    -0.550 OA
ENDBRANCH   4   5
ENDBRANCH   3   4
ENDBRANCH   2   3
ENDBRANCH   1   2
BRANCH   1   8
ATOM      8  C   UNL     1      15.555  15.745  60.486  1.00  0.00     0.000 C 
BRANCH   8   9
ATOM      9  C   UNL     1      15.318  17.045  61.276  1.00  0.00     0.000 C 
BRANCH   9  10
ATOM     10  C   UNL     1      15.441  16.852  62.794  1.00  0.00     0.006 C 
BRANCH  10  11
ATOM     11  C   UNL     1      14.138  16.304  63.384  1.00  0.00     0.053 C 
BRANCH  11  12
ATOM     12  C   UNL     1      14.387  15.011  64.093  1.00  0.00     0.041 C 
ATOM     13  O   UNL     1      14.642  13.966  63.437  1.00  0.00    -0.550 OA
ATOM     14  O   UNL     1      14.291  14.946  65.477  1.00  0.00    -0.550 OA
ENDBRANCH  11  12
ENDBRANCH  10  11
ENDBRANCH   9  10
ENDBRANCH   8   9
ENDBRANCH   1   8
TORSDOF 9
ENDMDL
