MODEL 1
REMARK VINA RESULT:    -3.671      0.000      0.000
REMARK INTER + INTRA:         -11.393
REMARK INTER:                  -7.962
REMARK INTRA:                  -3.430
REMARK UNBOUND:                -3.430
REMARK SMILES CCCCCCCCCCCCCCCCCCCCCC(=O)[O-]
REMARK SMILES IDX 12 1 11 2 10 3 9 4 8 5 7 6 6 7 5 8 4 9 3 10 2 11 1 12 13 13
REMARK SMILES IDX 14 14 15 15 16 16 17 17 18 18 19 19 20 20 21 21 22 22 23 23
REMARK SMILES IDX 24 24
REMARK H PARENT
REMARK Flexibility Score: inf
ROOT
ATOM      1  C   UNL     1      26.359  26.902  23.059  1.00  0.00     0.000 C 
ENDROOT
BRANCH   1   2
ATOM      2  C   UNL     1      27.881  27.060  22.935  1.00  0.00     0.000 C 
BRANCH   2   3
ATOM      3  C   UNL     1      28.309  28.533  22.830  1.00  0.00     0.000 C 
BRANCH   3   4
ATOM      4  C   UNL     1      28.039  29.125  21.435  1.00  0.00    -0.000 C 
BRANCH   4   5
ATOM      5  C   UNL     1      29.121  28.736  20.415  1.00  0.00    -0.000 C 
BRANCH   5   6
ATOM      6  C   UNL     1      28.535  28.430  19.026  1.00  0.00    -0.000 C 
BRANCH   6   7
ATOM      7  C   UNL     1      27.044  28.054  19.076  1.00  0.00    -0.000 C 
BRANCH   7   8
ATOM      8  C   UNL     1      26.724  26.708  18.391  1.00  0.00    -0.000 C 
BRANCH   8   9
ATOM      9  C   UNL     1      27.967  25.815  18.255  1.00  0.00    -0.000 C 
BRANCH   9  10
ATOM     10  C   UNL     1      27.590  24.332  18.406  1.00  0.00    -0.000 C 
BRANCH  10  11
ATOM     11  C   UNL     1      26.134  24.047  18.008  1.00  0.00    -0.003 C 
ATOM     12  C   UNL     1      25.352  23.317  19.101  1.00  0.00     0.004 C 
ENDBRANCH  10  11
ENDBRANCH   9  10
ENDBRANCH   8   9
ENDBRANCH   7   8
ENDBRANCH   6   7
ENDBRANCH   5   6
ENDBRANCH   4   5
ENDBRANCH   3   4
ENDBRANCH   2   3
ENDBRANCH   1   2
BRANCH   1  13
ATOM     13  C   UNL     1      25.877  25.618  22.373  1.00  0.00     0.000 C 
BRANCH  13  14
ATOM     14  C   UNL     1      24.648  25.896  21.493  1.00  0.00     0.000 C 
BRANCH  14  15
ATOM     15  C   UNL     1      24.347  27.403  21.361  1.00  0.00     0.000 C 
BRANCH  15  16
ATOM     16  C   UNL     1      22.845  27.731  21.317  1.00  0.00     0.000 C 
BRANCH  16  17
ATOM     17  C   UNL     1      22.092  27.234  22.562  1.00  0.00     0.000 C 
BRANCH  17  18
ATOM     18  C   UNL     1      22.340  28.115  23.798  1.00  0.00     0.000 C 
BRANCH  18  19
ATOM     19  C   UNL     1      23.176  27.408  24.881  1.00  0.00     0.000 C 
BRANCH  19  20
ATOM     20  C   UNL     1      22.961  25.886  24.896  1.00  0.00     0.006 C 
BRANCH  20  21
ATOM     21  C   UNL     1      24.052  25.142  25.678  1.00  0.00     0.053 C 
BRANCH  21  22
ATOM     22  C   UNL     1      23.441  24.237  26.701  1.00  0.00     0.041 C 
ATOM     23  O   UNL     1      22.622  24.696  27.543  1.00  0.00    -0.550 OA
ATOM     24  O   UNL     1      23.778  22.887  26.732  1.00  0.00    -0.550 OA
ENDBRANCH  21  22
ENDBRANCH  20  21
ENDBRANCH  19  20
ENDBRANCH  18  19
ENDBRANCH  17  18
ENDBRANCH  16  17
ENDBRANCH  15  16
ENDBRANCH  14  15
ENDBRANCH  13  14
ENDBRANCH   1  13
TORSDOF 20
ENDMDL
MODEL 2
REMARK VINA RESULT:    -3.610      1.485      2.673
REMARK INTER + INTRA:         -11.262
REMARK INTER:                  -7.465
REMARK INTRA:                  -3.797
REMARK UNBOUND:                -3.430
REMARK SMILES CCCCCCCCCCCCCCCCCCCCCC(=O)[O-]
REMARK SMILES IDX 12 1 11 2 10 3 9 4 8 5 7 6 6 7 5 8 4 9 3 10 2 11 1 12 13 13
REMARK SMILES IDX 14 14 15 15 16 16 17 17 18 18 19 19 20 20 21 21 22 22 23 23
REMARK SMILES IDX 24 24
REMARK H PARENT
REMARK Flexibility Score: inf
ROOT
ATOM      1  C   UNL     1      25.949  24.285  21.512  1.00  0.00     0.000 C 
ENDROOT
BRANCH   1   2
ATOM      2  C   UNL     1      26.663  25.623  21.272  1.00  0.00     0.000 C 
BRANCH   2   3
ATOM      3  C   UNL     1      27.463  26.087  22.500  1.00  0.00     0.000 C 
BRANCH   3   4
ATOM      4  C   UNL     1      27.068  27.503  22.956  1.00  0.00    -0.000 C 
BRANCH   4   5
ATOM      5  C   UNL     1      28.281  28.336  23.400  1.00  0.00    -0.000 C 
BRANCH   5   6
ATOM      6  C   UNL     1      28.908  29.125  22.238  1.00  0.00    -0.000 C 
BRANCH   6   7
ATOM      7  C   UNL     1      30.073  28.375  21.566  1.00  0.00    -0.000 C 
BRANCH   7   8
ATOM      8  C   UNL     1      30.040  28.442  20.024  1.00  0.00    -0.000 C 
BRANCH   8   9
ATOM      9  C   UNL     1      28.656  28.841  19.488  1.00  0.00    -0.000 C 
BRANCH   9  10
ATOM     10  C   UNL     1      28.217  27.893  18.360  1.00  0.00    -0.000 C 
BRANCH  10  11
ATOM     11  C   UNL     1      26.700  27.656  18.340  1.00  0.00    -0.003 C 
ATOM     12  C   UNL     1      25.917  28.752  19.065  1.00  0.00     0.004 C 
ENDBRANCH  10  11
ENDBRANCH   9  10
ENDBRANCH   8   9
ENDBRANCH   7   8
ENDBRANCH   6   7
ENDBRANCH   5   6
ENDBRANCH   4   5
ENDBRANCH   3   4
ENDBRANCH   2   3
ENDBRANCH   1   2
BRANCH   1  13
ATOM     13  C   UNL     1      24.491  24.342  21.042  1.00  0.00     0.000 C 
BRANCH  13  14
ATOM     14  C   UNL     1      24.208  25.656  20.297  1.00  0.00     0.000 C 
BRANCH  14  15
ATOM     15  C   UNL     1      22.977  26.398  20.858  1.00  0.00     0.000 C 
BRANCH  15  16
ATOM     16  C   UNL     1      23.331  27.537  21.828  1.00  0.00     0.000 C 
BRANCH  16  17
ATOM     17  C   UNL     1      22.285  27.717  22.940  1.00  0.00     0.000 C 
BRANCH  17  18
ATOM     18  C   UNL     1      22.512  26.771  24.130  1.00  0.00     0.000 C 
BRANCH  18  19
ATOM     19  C   UNL     1      23.879  26.977  24.809  1.00  0.00     0.000 C 
BRANCH  19  20
ATOM     20  C   UNL     1      24.620  25.655  25.061  1.00  0.00     0.006 C 
BRANCH  20  21
ATOM     21  C   UNL     1      23.790  24.426  24.666  1.00  0.00     0.053 C 
BRANCH  21  22
ATOM     22  C   UNL     1      23.422  23.629  25.878  1.00  0.00     0.041 C 
ATOM     23  O   UNL     1      23.542  24.134  27.027  1.00  0.00    -0.550 OA
ATOM     24  O   UNL     1      22.951  22.326  25.742  1.00  0.00    -0.550 OA
ENDBRANCH  21  22
ENDBRANCH  20  21
ENDBRANCH  19  20
ENDBRANCH  18  19
ENDBRANCH  17  18
ENDBRANCH  16  17
ENDBRANCH  15  16
ENDBRANCH  14  15
ENDBRANCH  13  14
ENDBRANCH   1  13
TORSDOF 20
ENDMDL
MODEL 3
REMARK VINA RESULT:    -3.530      3.702      5.923
REMARK INTER + INTRA:         -11.087
REMARK INTER:                  -7.070
REMARK INTRA:                  -4.017
REMARK UNBOUND:                -3.430
REMARK SMILES CCCCCCCCCCCCCCCCCCCCCC(=O)[O-]
REMARK SMILES IDX 12 1 11 2 10 3 9 4 8 5 7 6 6 7 5 8 4 9 3 10 2 11 1 12 13 13
REMARK SMILES IDX 14 14 15 15 16 16 17 17 18 18 19 19 20 20 21 21 22 22 23 23
REMARK SMILES IDX 24 24
REMARK H PARENT
REMARK Flexibility Score: inf
ROOT
ATOM      1  C   UNL     1      23.338  26.239  24.841  1.00  0.00     0.000 C 
ENDROOT
BRANCH   1   2
ATOM      2  C   UNL     1      24.846  26.139  25.109  1.00  0.00     0.000 C 
BRANCH   2   3
ATOM      3  C   UNL     1      25.629  25.665  23.874  1.00  0.00     0.000 C 
BRANCH   3   4
ATOM      4  C   UNL     1      25.959  26.819  22.909  1.00  0.00    -0.000 C 
BRANCH   4   5
ATOM      5  C   UNL     1      26.844  26.367  21.737  1.00  0.00    -0.000 C 
BRANCH   5   6
ATOM      6  C   UNL     1      26.749  24.853  21.478  1.00  0.00    -0.000 C 
BRANCH   6   7
ATOM      7  C   UNL     1      26.669  24.507  19.980  1.00  0.00    -0.000 C 
BRANCH   7   8
ATOM      8  C   UNL     1      25.279  24.004  19.538  1.00  0.00    -0.000 C 
BRANCH   8   9
ATOM      9  C   UNL     1      24.727  22.919  20.476  1.00  0.00    -0.000 C 
BRANCH   9  10
ATOM     10  C   UNL     1      23.295  23.261  20.920  1.00  0.00    -0.000 C 
BRANCH  10  11
ATOM     11  C   UNL     1      23.140  23.303  22.447  1.00  0.00    -0.003 C 
ATOM     12  C   UNL     1      24.161  22.424  23.172  1.00  0.00     0.004 C 
ENDBRANCH  10  11
ENDBRANCH   9  10
ENDBRANCH   8   9
ENDBRANCH   7   8
ENDBRANCH   6   7
ENDBRANCH   5   6
ENDBRANCH   4   5
ENDBRANCH   3   4
ENDBRANCH   2   3
ENDBRANCH   1   2
BRANCH   1  13
ATOM     13  C   UNL     1      22.882  27.702  24.777  1.00  0.00     0.000 C 
BRANCH  13  14
ATOM     14  C   UNL     1      22.255  28.020  23.410  1.00  0.00     0.000 C 
BRANCH  14  15
ATOM     15  C   UNL     1      22.065  26.759  22.542  1.00  0.00     0.000 C 
BRANCH  15  16
ATOM     16  C   UNL     1      22.616  26.904  21.113  1.00  0.00     0.000 C 
BRANCH  16  17
ATOM     17  C   UNL     1      22.579  28.356  20.607  1.00  0.00     0.000 C 
BRANCH  17  18
ATOM     18  C   UNL     1      23.906  28.797  19.968  1.00  0.00     0.000 C 
BRANCH  18  19
ATOM     19  C   UNL     1      24.679  27.631  19.324  1.00  0.00     0.000 C 
BRANCH  19  20
ATOM     20  C   UNL     1      25.789  28.108  18.373  1.00  0.00     0.006 C 
BRANCH  20  21
ATOM     21  C   UNL     1      26.037  27.131  17.216  1.00  0.00     0.053 C 
BRANCH  21  22
ATOM     22  C   UNL     1      27.504  26.901  17.028  1.00  0.00     0.041 C 
ATOM     23  O   UNL     1      28.279  26.915  18.022  1.00  0.00    -0.550 OA
ATOM     24  O   UNL     1      28.019  26.678  15.754  1.00  0.00    -0.550 OA
ENDBRANCH  21  22
ENDBRANCH  20  21
ENDBRANCH  19  20
ENDBRANCH  18  19
ENDBRANCH  17  18
ENDBRANCH  16  17
ENDBRANCH  15  16
ENDBRANCH  14  15
ENDBRANCH  13  14
ENDBRANCH   1  13
TORSDOF 20
ENDMDL
MODEL 4
REMARK VINA RESULT:    -3.517      3.403      7.431
REMARK INTER + INTRA:         -11.060
REMARK INTER:                  -7.739
REMARK INTRA:                  -3.320
REMARK UNBOUND:                -3.430
REMARK SMILES CCCCCCCCCCCCCCCCCCCCCC(=O)[O-]
REMARK SMILES IDX 12 1 11 2 10 3 9 4 8 5 7 6 6 7 5 8 4 9 3 10 2 11 1 12 13 13
REMARK SMILES IDX 14 14 15 15 16 16 17 17 18 18 19 19 20 20 21 21 22 22 23 23
REMARK SMILES IDX 24 24
REMARK H PARENT
REMARK Flexibility Score: inf
ROOT
ATOM      1  C   UNL     1      22.620  21.244  24.235  1.00  0.00     0.000 C 
ENDROOT
BRANCH   1   2
ATOM      2  C   UNL     1      22.433  20.851  25.708  1.00  0.00     0.000 C 
BRANCH   2   3
ATOM      3  C   UNL     1      23.696  21.107  26.546  1.00  0.00     0.000 C 
BRANCH   3   4
ATOM      4  C   UNL     1      23.393  21.878  27.843  1.00  0.00    -0.000 C 
BRANCH   4   5
ATOM      5  C   UNL     1      22.758  23.252  27.574  1.00  0.00    -0.000 C 
BRANCH   5   6
ATOM      6  C   UNL     1      23.672  24.169  26.745  1.00  0.00    -0.000 C 
BRANCH   6   7
ATOM      7  C   UNL     1      22.902  25.298  26.035  1.00  0.00    -0.000 C 
BRANCH   7   8
ATOM      8  C   UNL     1      23.756  26.077  25.012  1.00  0.00    -0.000 C 
BRANCH   8   9
ATOM      9  C   UNL     1      23.317  27.544  24.884  1.00  0.00    -0.000 C 
BRANCH   9  10
ATOM     10  C   UNL     1      22.324  27.715  23.722  1.00  0.00    -0.000 C 
BRANCH  10  11
ATOM     11  C   UNL     1      22.808  27.050  22.425  1.00  0.00    -0.003 C 
ATOM     12  C   UNL     1      22.756  27.989  21.220  1.00  0.00     0.004 C 
ENDBRANCH  10  11
ENDBRANCH   9  10
ENDBRANCH   8   9
ENDBRANCH   7   8
ENDBRANCH   6   7
ENDBRANCH   5   6
ENDBRANCH   4   5
ENDBRANCH   3   4
ENDBRANCH   2   3
ENDBRANCH   1   2
BRANCH   1  13
ATOM     13  C   UNL     1      24.105  21.381  23.882  1.00  0.00     0.000 C 
BRANCH  13  14
ATOM     14  C   UNL     1      24.422  22.801  23.389  1.00  0.00     0.000 C 
BRANCH  14  15
ATOM     15  C   UNL     1      23.307  23.374  22.490  1.00  0.00     0.000 C 
BRANCH  15  16
ATOM     16  C   UNL     1      23.787  23.758  21.079  1.00  0.00     0.000 C 
BRANCH  16  17
ATOM     17  C   UNL     1      25.318  23.862  20.981  1.00  0.00     0.000 C 
BRANCH  17  18
ATOM     18  C   UNL     1      25.823  25.311  21.075  1.00  0.00     0.000 C 
BRANCH  18  19
ATOM     19  C   UNL     1      26.678  25.569  22.329  1.00  0.00     0.000 C 
BRANCH  19  20
ATOM     20  C   UNL     1      26.555  27.012  22.845  1.00  0.00     0.006 C 
BRANCH  20  21
ATOM     21  C   UNL     1      27.914  27.713  22.973  1.00  0.00     0.053 C 
BRANCH  21  22
ATOM     22  C   UNL     1      28.280  28.390  21.690  1.00  0.00     0.041 C 
ATOM     23  O   UNL     1      27.395  28.619  20.821  1.00  0.00    -0.550 OA
ATOM     24  O   UNL     1      29.598  28.765  21.447  1.00  0.00    -0.550 OA
ENDBRANCH  21  22
ENDBRANCH  20  21
ENDBRANCH  19  20
ENDBRANCH  18  19
ENDBRANCH  17  18
ENDBRANCH  16  17
ENDBRANCH  15  16
ENDBRANCH  14  15
ENDBRANCH  13  14
ENDBRANCH   1  13
TORSDOF 20
ENDMDL
MODEL 5
REMARK VINA RESULT:    -3.513     11.900     15.164
REMARK INTER + INTRA:         -11.050
REMARK INTER:                  -6.889
REMARK INTRA:                  -4.161
REMARK UNBOUND:                -3.430
REMARK SMILES CCCCCCCCCCCCCCCCCCCCCC(=O)[O-]
REMARK SMILES IDX 12 1 11 2 10 3 9 4 8 5 7 6 6 7 5 8 4 9 3 10 2 11 1 12 13 13
REMARK SMILES IDX 14 14 15 15 16 16 17 17 18 18 19 19 20 20 21 21 22 22 23 23
REMARK SMILES IDX 24 24
REMARK H PARENT
REMARK Flexibility Score: inf
ROOT
ATOM      1  C   UNL     1      24.726  11.973  20.204  1.00  0.00     0.000 C 
ENDROOT
BRANCH   1   2
ATOM      2  C   UNL     1      25.581  11.355  21.319  1.00  0.00     0.000 C 
BRANCH   2   3
ATOM      3  C   UNL     1      26.274  12.422  22.183  1.00  0.00     0.000 C 
BRANCH   3   4
ATOM      4  C   UNL     1      27.332  11.819  23.123  1.00  0.00    -0.000 C 
BRANCH   4   5
ATOM      5  C   UNL     1      27.263  10.284  23.177  1.00  0.00    -0.000 C 
BRANCH   5   6
ATOM      6  C   UNL     1      27.560   9.732  24.581  1.00  0.00    -0.000 C 
BRANCH   6   7
ATOM      7  C   UNL     1      26.291   9.555  25.434  1.00  0.00    -0.000 C 
BRANCH   7   8
ATOM      8  C   UNL     1      26.355  10.286  26.792  1.00  0.00    -0.000 C 
BRANCH   8   9
ATOM      9  C   UNL     1      27.612  11.160  26.924  1.00  0.00    -0.000 C 
BRANCH   9  10
ATOM     10  C   UNL     1      27.232  12.606  27.282  1.00  0.00    -0.000 C 
BRANCH  10  11
ATOM     11  C   UNL     1      26.203  13.207  26.313  1.00  0.00    -0.003 C 
ATOM     12  C   UNL     1      25.227  14.163  27.000  1.00  0.00     0.004 C 
ENDBRANCH  10  11
ENDBRANCH   9  10
ENDBRANCH   8   9
ENDBRANCH   7   8
ENDBRANCH   6   7
ENDBRANCH   5   6
ENDBRANCH   4   5
ENDBRANCH   3   4
ENDBRANCH   2   3
ENDBRANCH   1   2
BRANCH   1  13
ATOM     13  C   UNL     1      23.232  11.737  20.457  1.00  0.00     0.000 C 
BRANCH  13  14
ATOM     14  C   UNL     1      23.006  10.418  21.210  1.00  0.00     0.000 C 
BRANCH  14  15
ATOM     15  C   UNL     1      22.184  10.611  22.502  1.00  0.00     0.000 C 
BRANCH  15  16
ATOM     16  C   UNL     1      22.971  10.297  23.786  1.00  0.00     0.000 C 
BRANCH  16  17
ATOM     17  C   UNL     1      23.342  11.561  24.579  1.00  0.00     0.000 C 
BRANCH  17  18
ATOM     18  C   UNL     1      22.604  12.814  24.080  1.00  0.00     0.000 C 
BRANCH  18  19
ATOM     19  C   UNL     1      23.557  13.971  23.729  1.00  0.00     0.000 C 
BRANCH  19  20
ATOM     20  C   UNL     1      23.052  14.817  22.549  1.00  0.00     0.006 C 
BRANCH  20  21
ATOM     21  C   UNL     1      24.192  15.495  21.777  1.00  0.00     0.053 C 
BRANCH  21  22
ATOM     22  C   UNL     1      23.973  16.974  21.706  1.00  0.00     0.041 C 
ATOM     23  O   UNL     1      23.795  17.534  20.591  1.00  0.00    -0.550 OA
ATOM     24  O   UNL     1      23.970  17.737  22.870  1.00  0.00    -0.550 OA
ENDBRANCH  21  22
ENDBRANCH  20  21
ENDBRANCH  19  20
ENDBRANCH  18  19
ENDBRANCH  17  18
ENDBRANCH  16  17
ENDBRANCH  15  16
ENDBRANCH  14  15
ENDBRANCH  13  14
ENDBRANCH   1  13
TORSDOF 20
ENDMDL
MODEL 6
REMARK VINA RESULT:    -3.481     11.330     14.973
REMARK INTER + INTRA:         -10.981
REMARK INTER:                  -6.986
REMARK INTRA:                  -3.995
REMARK UNBOUND:                -3.430
REMARK SMILES CCCCCCCCCCCCCCCCCCCCCC(=O)[O-]
REMARK SMILES IDX 12 1 11 2 10 3 9 4 8 5 7 6 6 7 5 8 4 9 3 10 2 11 1 12 13 13
REMARK SMILES IDX 14 14 15 15 16 16 17 17 18 18 19 19 20 20 21 21 22 22 23 23
REMARK SMILES IDX 24 24
REMARK H PARENT
REMARK Flexibility Score: inf
ROOT
ATOM      1  C   UNL     1      25.453  13.781  23.756  1.00  0.00     0.000 C 
ENDROOT
BRANCH   1   2
ATOM      2  C   UNL     1      26.055  13.318  22.422  1.00  0.00     0.000 C 
BRANCH   2   3
ATOM      3  C   UNL     1      27.093  12.200  22.606  1.00  0.00     0.000 C 
BRANCH   3   4
ATOM      4  C   UNL     1      26.445  10.850  22.964  1.00  0.00    -0.000 C 
BRANCH   4   5
ATOM      5  C   UNL     1      27.006  10.257  24.266  1.00  0.00    -0.000 C 
BRANCH   5   6
ATOM      6  C   UNL     1      26.106  10.549  25.479  1.00  0.00    -0.000 C 
BRANCH   6   7
ATOM      7  C   UNL     1      26.773  11.481  26.507  1.00  0.00    -0.000 C 
BRANCH   7   8
ATOM      8  C   UNL     1      25.788  12.461  27.179  1.00  0.00    -0.000 C 
BRANCH   8   9
ATOM      9  C   UNL     1      26.509  13.539  28.004  1.00  0.00    -0.000 C 
BRANCH   9  10
ATOM     10  C   UNL     1      25.605  14.766  28.204  1.00  0.00    -0.000 C 
BRANCH  10  11
ATOM     11  C   UNL     1      24.470  14.842  27.172  1.00  0.00    -0.003 C 
ATOM     12  C   UNL     1      24.258  16.254  26.623  1.00  0.00     0.004 C 
ENDBRANCH  10  11
ENDBRANCH   9  10
ENDBRANCH   8   9
ENDBRANCH   7   8
ENDBRANCH   6   7
ENDBRANCH   5   6
ENDBRANCH   4   5
ENDBRANCH   3   4
ENDBRANCH   2   3
ENDBRANCH   1   2
BRANCH   1  13
ATOM     13  C   UNL     1      23.923  13.848  23.680  1.00  0.00     0.000 C 
BRANCH  13  14
ATOM     14  C   UNL     1      23.288  12.612  24.338  1.00  0.00     0.000 C 
BRANCH  14  15
ATOM     15  C   UNL     1      22.315  11.878  23.392  1.00  0.00     0.000 C 
BRANCH  15  16
ATOM     16  C   UNL     1      22.833  10.509  22.916  1.00  0.00     0.000 C 
BRANCH  16  17
ATOM     17  C   UNL     1      22.719  10.329  21.394  1.00  0.00     0.000 C 
BRANCH  17  18
ATOM     18  C   UNL     1      23.688  11.231  20.613  1.00  0.00     0.000 C 
BRANCH  18  19
ATOM     19  C   UNL     1      22.967  12.281  19.748  1.00  0.00     0.000 C 
BRANCH  19  20
ATOM     20  C   UNL     1      23.728  13.614  19.676  1.00  0.00     0.006 C 
BRANCH  20  21
ATOM     21  C   UNL     1      22.926  14.785  20.259  1.00  0.00     0.053 C 
BRANCH  21  22
ATOM     22  C   UNL     1      23.738  16.042  20.238  1.00  0.00     0.041 C 
ATOM     23  O   UNL     1      24.011  16.600  19.140  1.00  0.00    -0.550 OA
ATOM     24  O   UNL     1      24.201  16.596  21.427  1.00  0.00    -0.550 OA
ENDBRANCH  21  22
ENDBRANCH  20  21
ENDBRANCH  19  20
ENDBRANCH  18  19
ENDBRANCH  17  18
ENDBRANCH  16  17
ENDBRANCH  15  16
ENDBRANCH  14  15
ENDBRANCH  13  14
ENDBRANCH   1  13
TORSDOF 20
ENDMDL
MODEL 7
REMARK VINA RESULT:    -3.475      3.700      6.544
REMARK INTER + INTRA:         -10.969
REMARK INTER:                  -8.286
REMARK INTRA:                  -2.682
REMARK UNBOUND:                -3.430
REMARK SMILES CCCCCCCCCCCCCCCCCCCCCC(=O)[O-]
REMARK SMILES IDX 12 1 11 2 10 3 9 4 8 5 7 6 6 7 5 8 4 9 3 10 2 11 1 12 13 13
REMARK SMILES IDX 14 14 15 15 16 16 17 17 18 18 19 19 20 20 21 21 22 22 23 23
REMARK SMILES IDX 24 24
REMARK H PARENT
REMARK Flexibility Score: inf
ROOT
ATOM      1  C   UNL     1      24.536  23.817  21.521  1.00  0.00     0.000 C 
ENDROOT
BRANCH   1   2
ATOM      2  C   UNL     1      25.640  24.044  20.479  1.00  0.00     0.000 C 
BRANCH   2   3
ATOM      3  C   UNL     1      25.444  23.179  19.223  1.00  0.00     0.000 C 
BRANCH   3   4
ATOM      4  C   UNL     1      24.264  22.201  19.361  1.00  0.00    -0.000 C 
BRANCH   4   5
ATOM      5  C   UNL     1      24.515  20.873  18.629  1.00  0.00    -0.000 C 
BRANCH   5   6
ATOM      6  C   UNL     1      24.893  19.734  19.592  1.00  0.00    -0.000 C 
BRANCH   6   7
ATOM      7  C   UNL     1      24.002  19.691  20.846  1.00  0.00    -0.000 C 
BRANCH   7   8
ATOM      8  C   UNL     1      24.207  18.424  21.703  1.00  0.00    -0.000 C 
BRANCH   8   9
ATOM      9  C   UNL     1      24.144  18.723  23.210  1.00  0.00    -0.000 C 
BRANCH   9  10
ATOM     10  C   UNL     1      24.004  20.233  23.458  1.00  0.00    -0.000 C 
BRANCH  10  11
ATOM     11  C   UNL     1      24.519  20.658  24.841  1.00  0.00    -0.003 C 
ATOM     12  C   UNL     1      25.541  19.678  25.421  1.00  0.00     0.004 C 
ENDBRANCH  10  11
ENDBRANCH   9  10
ENDBRANCH   8   9
ENDBRANCH   7   8
ENDBRANCH   6   7
ENDBRANCH   5   6
ENDBRANCH   4   5
ENDBRANCH   3   4
ENDBRANCH   2   3
ENDBRANCH   1   2
BRANCH   1  13
ATOM     13  C   UNL     1      25.096  23.891  22.947  1.00  0.00     0.000 C 
BRANCH  13  14
ATOM     14  C   UNL     1      25.975  25.139  23.125  1.00  0.00     0.000 C 
BRANCH  14  15
ATOM     15  C   UNL     1      25.407  26.114  24.178  1.00  0.00     0.000 C 
BRANCH  15  16
ATOM     16  C   UNL     1      24.417  25.458  25.156  1.00  0.00     0.000 C 
BRANCH  16  17
ATOM     17  C   UNL     1      23.047  26.155  25.171  1.00  0.00     0.000 C 
BRANCH  17  18
ATOM     18  C   UNL     1      23.130  27.638  24.775  1.00  0.00     0.000 C 
BRANCH  18  19
ATOM     19  C   UNL     1      22.171  28.008  23.629  1.00  0.00     0.000 C 
BRANCH  19  20
ATOM     20  C   UNL     1      22.364  27.125  22.386  1.00  0.00     0.006 C 
BRANCH  20  21
ATOM     21  C   UNL     1      22.664  27.942  21.122  1.00  0.00     0.053 C 
BRANCH  21  22
ATOM     22  C   UNL     1      23.812  27.343  20.370  1.00  0.00     0.041 C 
ATOM     23  O   UNL     1      24.996  27.579  20.732  1.00  0.00    -0.550 OA
ATOM     24  O   UNL     1      23.577  26.530  19.265  1.00  0.00    -0.550 OA
ENDBRANCH  21  22
ENDBRANCH  20  21
ENDBRANCH  19  20
ENDBRANCH  18  19
ENDBRANCH  17  18
ENDBRANCH  16  17
ENDBRANCH  15  16
ENDBRANCH  14  15
ENDBRANCH  13  14
ENDBRANCH   1  13
TORSDOF 20
ENDMDL
MODEL 8
REMARK VINA RESULT:    -3.447     11.919     14.797
REMARK INTER + INTRA:         -10.907
REMARK INTER:                  -7.382
REMARK INTRA:                  -3.525
REMARK UNBOUND:                -3.430
REMARK SMILES CCCCCCCCCCCCCCCCCCCCCC(=O)[O-]
REMARK SMILES IDX 12 1 11 2 10 3 9 4 8 5 7 6 6 7 5 8 4 9 3 10 2 11 1 12 13 13
REMARK SMILES IDX 14 14 15 15 16 16 17 17 18 18 19 19 20 20 21 21 22 22 23 23
REMARK SMILES IDX 24 24
REMARK H PARENT
REMARK Flexibility Score: inf
ROOT
ATOM      1  C   UNL     1      24.636  12.283  20.438  1.00  0.00     0.000 C 
ENDROOT
BRANCH   1   2
ATOM      2  C   UNL     1      25.599  11.270  21.073  1.00  0.00     0.000 C 
BRANCH   2   3
ATOM      3  C   UNL     1      26.421  11.883  22.218  1.00  0.00     0.000 C 
BRANCH   3   4
ATOM      4  C   UNL     1      26.025  13.341  22.510  1.00  0.00    -0.000 C 
BRANCH   4   5
ATOM      5  C   UNL     1      26.044  13.665  24.013  1.00  0.00    -0.000 C 
BRANCH   5   6
ATOM      6  C   UNL     1      24.690  14.194  24.517  1.00  0.00    -0.000 C 
BRANCH   6   7
ATOM      7  C   UNL     1      23.776  14.677  23.376  1.00  0.00    -0.000 C 
BRANCH   7   8
ATOM      8  C   UNL     1      23.786  16.209  23.186  1.00  0.00    -0.000 C 
BRANCH   8   9
ATOM      9  C   UNL     1      23.996  16.613  21.718  1.00  0.00    -0.000 C 
BRANCH   9  10
ATOM     10  C   UNL     1      23.235  15.663  20.779  1.00  0.00    -0.000 C 
BRANCH  10  11
ATOM     11  C   UNL     1      23.512  15.948  19.296  1.00  0.00    -0.003 C 
ATOM     12  C   UNL     1      24.096  17.340  19.056  1.00  0.00     0.004 C 
ENDBRANCH  10  11
ENDBRANCH   9  10
ENDBRANCH   8   9
ENDBRANCH   7   8
ENDBRANCH   6   7
ENDBRANCH   5   6
ENDBRANCH   4   5
ENDBRANCH   3   4
ENDBRANCH   2   3
ENDBRANCH   1   2
BRANCH   1  13
ATOM     13  C   UNL     1      23.176  11.860  20.636  1.00  0.00     0.000 C 
BRANCH  13  14
ATOM     14  C   UNL     1      23.084  10.377  21.030  1.00  0.00     0.000 C 
BRANCH  14  15
ATOM     15  C   UNL     1      22.316  10.165  22.350  1.00  0.00     0.000 C 
BRANCH  15  16
ATOM     16  C   UNL     1      22.521  11.296  23.373  1.00  0.00     0.000 C 
BRANCH  16  17
ATOM     17  C   UNL     1      22.450  10.801  24.827  1.00  0.00     0.000 C 
BRANCH  17  18
ATOM     18  C   UNL     1      23.607   9.856  25.190  1.00  0.00     0.000 C 
BRANCH  18  19
ATOM     19  C   UNL     1      24.899  10.605  25.566  1.00  0.00     0.000 C 
BRANCH  19  20
ATOM     20  C   UNL     1      26.168   9.811  25.216  1.00  0.00     0.006 C 
BRANCH  20  21
ATOM     21  C   UNL     1      26.746   9.059  26.423  1.00  0.00     0.053 C 
BRANCH  21  22
ATOM     22  C   UNL     1      27.242  10.023  27.455  1.00  0.00     0.041 C 
ATOM     23  O   UNL     1      26.862   9.917  28.652  1.00  0.00    -0.550 OA
ATOM     24  O   UNL     1      28.119  11.042  27.097  1.00  0.00    -0.550 OA
ENDBRANCH  21  22
ENDBRANCH  20  21
ENDBRANCH  19  20
ENDBRANCH  18  19
ENDBRANCH  17  18
ENDBRANCH  16  17
ENDBRANCH  15  16
ENDBRANCH  14  15
ENDBRANCH  13  14
ENDBRANCH   1  13
TORSDOF 20
ENDMDL
MODEL 9
REMARK VINA RESULT:    -3.426     13.482     16.230
REMARK INTER + INTRA:         -10.861
REMARK INTER:                  -6.802
REMARK INTRA:                  -4.059
REMARK UNBOUND:                -3.430
REMARK SMILES CCCCCCCCCCCCCCCCCCCCCC(=O)[O-]
REMARK SMILES IDX 12 1 11 2 10 3 9 4 8 5 7 6 6 7 5 8 4 9 3 10 2 11 1 12 13 13
REMARK SMILES IDX 14 14 15 15 16 16 17 17 18 18 19 19 20 20 21 21 22 22 23 23
REMARK SMILES IDX 24 24
REMARK H PARENT
REMARK Flexibility Score: inf
ROOT
ATOM      1  C   UNL     1      22.560  10.296  22.061  1.00  0.00     0.000 C 
ENDROOT
BRANCH   1   2
ATOM      2  C   UNL     1      22.219  10.888  23.436  1.00  0.00     0.000 C 
BRANCH   2   3
ATOM      3  C   UNL     1      22.928  10.148  24.582  1.00  0.00     0.000 C 
BRANCH   3   4
ATOM      4  C   UNL     1      23.394  11.102  25.697  1.00  0.00    -0.000 C 
BRANCH   4   5
ATOM      5  C   UNL     1      23.079  12.573  25.379  1.00  0.00    -0.000 C 
BRANCH   5   6
ATOM      6  C   UNL     1      23.565  13.529  26.483  1.00  0.00    -0.000 C 
BRANCH   6   7
ATOM      7  C   UNL     1      25.099  13.602  26.577  1.00  0.00    -0.000 C 
BRANCH   7   8
ATOM      8  C   UNL     1      25.634  13.473  28.019  1.00  0.00    -0.000 C 
BRANCH   8   9
ATOM      9  C   UNL     1      25.231  12.143  28.673  1.00  0.00    -0.000 C 
BRANCH   9  10
ATOM     10  C   UNL     1      26.417  11.165  28.693  1.00  0.00    -0.000 C 
BRANCH  10  11
ATOM     11  C   UNL     1      26.564  10.382  27.380  1.00  0.00    -0.003 C 
ATOM     12  C   UNL     1      27.926  10.585  26.715  1.00  0.00     0.004 C 
ENDBRANCH  10  11
ENDBRANCH   9  10
ENDBRANCH   8   9
ENDBRANCH   7   8
ENDBRANCH   6   7
ENDBRANCH   5   6
ENDBRANCH   4   5
ENDBRANCH   3   4
ENDBRANCH   2   3
ENDBRANCH   1   2
BRANCH   1  13
ATOM     13  C   UNL     1      22.604  11.387  20.984  1.00  0.00     0.000 C 
BRANCH  13  14
ATOM     14  C   UNL     1      23.977  11.423  20.296  1.00  0.00     0.000 C 
BRANCH  14  15
ATOM     15  C   UNL     1      24.638  12.814  20.373  1.00  0.00     0.000 C 
BRANCH  15  16
ATOM     16  C   UNL     1      23.973  13.758  21.390  1.00  0.00     0.000 C 
BRANCH  16  17
ATOM     17  C   UNL     1      24.838  13.989  22.639  1.00  0.00     0.000 C 
BRANCH  17  18
ATOM     18  C   UNL     1      26.210  13.300  22.549  1.00  0.00     0.000 C 
BRANCH  18  19
ATOM     19  C   UNL     1      26.444  12.278  23.677  1.00  0.00     0.000 C 
BRANCH  19  20
ATOM     20  C   UNL     1      26.252  10.826  23.210  1.00  0.00     0.006 C 
BRANCH  20  21
ATOM     21  C   UNL     1      27.131  10.473  22.002  1.00  0.00     0.053 C 
BRANCH  21  22
ATOM     22  C   UNL     1      28.336   9.698  22.436  1.00  0.00     0.041 C 
ATOM     23  O   UNL     1      28.290   8.992  23.480  1.00  0.00    -0.550 OA
ATOM     24  O   UNL     1      29.511   9.759  21.695  1.00  0.00    -0.550 OA
ENDBRANCH  21  22
ENDBRANCH  20  21
ENDBRANCH  19  20
ENDBRANCH  18  19
ENDBRANCH  17  18
ENDBRANCH  16  17
ENDBRANCH  15  16
ENDBRANCH  14  15
ENDBRANCH  13  14
ENDBRANCH   1  13
TORSDOF 20
ENDMDL
