MODEL 1
REMARK VINA RESULT:    -4.384      0.000      0.000
REMARK INTER + INTRA:          -9.892
REMARK INTER:                  -8.228
REMARK INTRA:                  -1.664
REMARK UNBOUND:                -1.664
REMARK SMILES O=C([O-])CCCCCCCCCCCCCCC(=O)[O-]
REMARK SMILES IDX 10 1 9 2 8 3 7 4 6 5 5 6 4 7 2 8 1 9 3 10 11 11 12 12 13 13
REMARK SMILES IDX 14 14 15 15 16 16 17 17 18 18 19 19 20 20
REMARK H PARENT
REMARK Flexibility Score: inf
ROOT
ATOM      1  C   UNL     1       8.450  -1.663  39.762  1.00  0.00     0.000 C 
ENDROOT
BRANCH   1   2
ATOM      2  C   UNL     1       7.465  -2.822  39.546  1.00  0.00     0.000 C 
BRANCH   2   3
ATOM      3  C   UNL     1       7.790  -3.586  38.257  1.00  0.00     0.000 C 
BRANCH   3   4
ATOM      4  C   UNL     1       6.725  -3.326  37.180  1.00  0.00     0.000 C 
BRANCH   4   5
ATOM      5  C   UNL     1       7.313  -3.304  35.760  1.00  0.00     0.000 C 
BRANCH   5   6
ATOM      6  C   UNL     1       8.742  -3.874  35.703  1.00  0.00     0.006 C 
BRANCH   6   7
ATOM      7  C   UNL     1       8.905  -4.913  34.585  1.00  0.00     0.053 C 
BRANCH   7   8
ATOM      8  C   UNL     1      10.092  -4.617  33.720  1.00  0.00     0.041 C 
ATOM      9  O   UNL     1      10.417  -5.409  32.798  1.00  0.00    -0.550 OA
ATOM     10  O   UNL     1      10.818  -3.447  33.911  1.00  0.00    -0.550 OA
ENDBRANCH   7   8
ENDBRANCH   6   7
ENDBRANCH   5   6
ENDBRANCH   4   5
ENDBRANCH   3   4
ENDBRANCH   2   3
ENDBRANCH   1   2
BRANCH   1  11
ATOM     11  C   UNL     1       8.581  -1.265  41.242  1.00  0.00     0.000 C 
BRANCH  11  12
ATOM     12  C   UNL     1       8.889  -2.463  42.152  1.00  0.00     0.000 C 
BRANCH  12  13
ATOM     13  C   UNL     1      10.401  -2.687  42.272  1.00  0.00     0.000 C 
BRANCH  13  14
ATOM     14  C   UNL     1      10.745  -4.180  42.172  1.00  0.00     0.000 C 
BRANCH  14  15
ATOM     15  C   UNL     1      10.217  -4.833  40.880  1.00  0.00     0.000 C 
BRANCH  15  16
ATOM     16  C   UNL     1       9.410  -6.131  41.088  1.00  0.00     0.006 C 
BRANCH  16  17
ATOM     17  C   UNL     1       7.923  -5.914  41.405  1.00  0.00     0.053 C 
BRANCH  17  18
ATOM     18  C   UNL     1       7.660  -5.892  42.879  1.00  0.00     0.041 C 
ATOM     19  O   UNL     1       6.800  -5.106  43.356  1.00  0.00    -0.550 OA
ATOM     20  O   UNL     1       8.339  -6.764  43.720  1.00  0.00    -0.550 OA
ENDBRANCH  17  18
ENDBRANCH  16  17
ENDBRANCH  15  16
ENDBRANCH  14  15
ENDBRANCH  13  14
ENDBRANCH  12  13
ENDBRANCH  11  12
ENDBRANCH   1  11
TORSDOF 15
ENDMDL
MODEL 2
REMARK VINA RESULT:    -4.365      2.796      6.619
REMARK INTER + INTRA:          -9.857
REMARK INTER:                  -7.711
REMARK INTRA:                  -2.146
REMARK UNBOUND:                -1.664
REMARK SMILES O=C([O-])CCCCCCCCCCCCCCC(=O)[O-]
REMARK SMILES IDX 10 1 9 2 8 3 7 4 6 5 5 6 4 7 2 8 1 9 3 10 11 11 12 12 13 13
REMARK SMILES IDX 14 14 15 15 16 16 17 17 18 18 19 19 20 20
REMARK H PARENT
REMARK Flexibility Score: inf
ROOT
ATOM      1  C   UNL     1      11.092  -1.545  41.167  1.00  0.00     0.000 C 
ENDROOT
BRANCH   1   2
ATOM      2  C   UNL     1      10.712  -2.409  42.378  1.00  0.00     0.000 C 
BRANCH   2   3
ATOM      3  C   UNL     1       9.424  -1.898  43.035  1.00  0.00     0.000 C 
BRANCH   3   4
ATOM      4  C   UNL     1       8.238  -2.822  42.715  1.00  0.00     0.000 C 
BRANCH   4   5
ATOM      5  C   UNL     1       8.642  -4.304  42.662  1.00  0.00     0.000 C 
BRANCH   5   6
ATOM      6  C   UNL     1       7.433  -5.240  42.479  1.00  0.00     0.006 C 
BRANCH   6   7
ATOM      7  C   UNL     1       7.710  -6.346  41.452  1.00  0.00     0.053 C 
BRANCH   7   8
ATOM      8  C   UNL     1       7.843  -7.688  42.105  1.00  0.00     0.041 C 
ATOM      9  O   UNL     1       8.432  -7.798  43.212  1.00  0.00    -0.550 OA
ATOM     10  O   UNL     1       7.288  -8.812  41.506  1.00  0.00    -0.550 OA
ENDBRANCH   7   8
ENDBRANCH   6   7
ENDBRANCH   5   6
ENDBRANCH   4   5
ENDBRANCH   3   4
ENDBRANCH   2   3
ENDBRANCH   1   2
BRANCH   1  11
ATOM     11  C   UNL     1      11.417  -2.384  39.920  1.00  0.00     0.000 C 
BRANCH  11  12
ATOM     12  C   UNL     1      11.427  -3.892  40.207  1.00  0.00     0.000 C 
BRANCH  12  13
ATOM     13  C   UNL     1      10.336  -4.611  39.405  1.00  0.00     0.000 C 
BRANCH  13  14
ATOM     14  C   UNL     1       9.445  -3.603  38.663  1.00  0.00     0.000 C 
BRANCH  14  15
ATOM     15  C   UNL     1       7.976  -3.648  39.122  1.00  0.00     0.000 C 
BRANCH  15  16
ATOM     16  C   UNL     1       7.155  -2.380  38.808  1.00  0.00     0.006 C 
BRANCH  16  17
ATOM     17  C   UNL     1       6.208  -2.514  37.606  1.00  0.00     0.053 C 
BRANCH  17  18
ATOM     18  C   UNL     1       6.082  -1.231  36.845  1.00  0.00     0.041 C 
ATOM     19  O   UNL     1       5.279  -0.342  37.232  1.00  0.00    -0.550 OA
ATOM     20  O   UNL     1       6.876  -1.002  35.729  1.00  0.00    -0.550 OA
ENDBRANCH  17  18
ENDBRANCH  16  17
ENDBRANCH  15  16
ENDBRANCH  14  15
ENDBRANCH  13  14
ENDBRANCH  12  13
ENDBRANCH  11  12
ENDBRANCH   1  11
TORSDOF 15
ENDMDL
MODEL 3
REMARK VINA RESULT:    -4.357      3.810      5.858
REMARK INTER + INTRA:          -9.841
REMARK INTER:                  -8.273
REMARK INTRA:                  -1.569
REMARK UNBOUND:                -1.664
REMARK SMILES O=C([O-])CCCCCCCCCCCCCCC(=O)[O-]
REMARK SMILES IDX 10 1 9 2 8 3 7 4 6 5 5 6 4 7 2 8 1 9 3 10 11 11 12 12 13 13
REMARK SMILES IDX 14 14 15 15 16 16 17 17 18 18 19 19 20 20
REMARK H PARENT
REMARK Flexibility Score: inf
ROOT
ATOM      1  C   UNL     1       7.970  -4.935  42.325  1.00  0.00     0.000 C 
ENDROOT
BRANCH   1   2
ATOM      2  C   UNL     1       9.500  -4.814  42.372  1.00  0.00     0.000 C 
BRANCH   2   3
ATOM      3  C   UNL     1       9.934  -3.343  42.399  1.00  0.00     0.000 C 
BRANCH   3   4
ATOM      4  C   UNL     1       8.734  -2.421  42.671  1.00  0.00     0.000 C 
BRANCH   4   5
ATOM      5  C   UNL     1       8.618  -1.283  41.645  1.00  0.00     0.000 C 
BRANCH   5   6
ATOM      6  C   UNL     1       8.831  -1.767  40.199  1.00  0.00     0.006 C 
BRANCH   6   7
ATOM      7  C   UNL     1       7.566  -2.408  39.612  1.00  0.00     0.053 C 
BRANCH   7   8
ATOM      8  C   UNL     1       7.895  -3.519  38.663  1.00  0.00     0.041 C 
ATOM      9  O   UNL     1       8.846  -4.305  38.914  1.00  0.00    -0.550 OA
ATOM     10  O   UNL     1       7.130  -3.707  37.518  1.00  0.00    -0.550 OA
ENDBRANCH   7   8
ENDBRANCH   6   7
ENDBRANCH   5   6
ENDBRANCH   4   5
ENDBRANCH   3   4
ENDBRANCH   2   3
ENDBRANCH   1   2
BRANCH   1  11
ATOM     11  C   UNL     1       7.500  -6.271  41.725  1.00  0.00     0.000 C 
BRANCH  11  12
ATOM     12  C   UNL     1       8.648  -7.275  41.544  1.00  0.00     0.000 C 
BRANCH  12  13
ATOM     13  C   UNL     1       8.259  -8.656  42.086  1.00  0.00     0.000 C 
BRANCH  13  14
ATOM     14  C   UNL     1       8.287  -8.671  43.621  1.00  0.00     0.000 C 
BRANCH  14  15
ATOM     15  C   UNL     1       7.493  -9.845  44.224  1.00  0.00     0.000 C 
BRANCH  15  16
ATOM     16  C   UNL     1       6.492 -10.518  43.263  1.00  0.00     0.006 C 
BRANCH  16  17
ATOM     17  C   UNL     1       6.450 -12.051  43.355  1.00  0.00     0.053 C 
BRANCH  17  18
ATOM     18  C   UNL     1       7.278 -12.701  42.290  1.00  0.00     0.041 C 
ATOM     19  O   UNL     1       7.779 -13.839  42.484  1.00  0.00    -0.550 OA
ATOM     20  O   UNL     1       7.466 -12.065  41.069  1.00  0.00    -0.550 OA
ENDBRANCH  17  18
ENDBRANCH  16  17
ENDBRANCH  15  16
ENDBRANCH  14  15
ENDBRANCH  13  14
ENDBRANCH  12  13
ENDBRANCH  11  12
ENDBRANCH   1  11
TORSDOF 15
ENDMDL
MODEL 4
REMARK VINA RESULT:    -4.334      2.606      7.348
REMARK INTER + INTRA:          -9.799
REMARK INTER:                  -8.485
REMARK INTRA:                  -1.313
REMARK UNBOUND:                -1.664
REMARK SMILES O=C([O-])CCCCCCCCCCCCCCC(=O)[O-]
REMARK SMILES IDX 10 1 9 2 8 3 7 4 6 5 5 6 4 7 2 8 1 9 3 10 11 11 12 12 13 13
REMARK SMILES IDX 14 14 15 15 16 16 17 17 18 18 19 19 20 20
REMARK H PARENT
REMARK Flexibility Score: inf
ROOT
ATOM      1  C   UNL     1       8.913  -3.136  42.483  1.00  0.00     0.000 C 
ENDROOT
BRANCH   1   2
ATOM      2  C   UNL     1       7.679  -3.879  43.015  1.00  0.00     0.000 C 
BRANCH   2   3
ATOM      3  C   UNL     1       7.500  -5.226  42.304  1.00  0.00     0.000 C 
BRANCH   3   4
ATOM      4  C   UNL     1       8.577  -6.229  42.746  1.00  0.00     0.000 C 
BRANCH   4   5
ATOM      5  C   UNL     1       8.134  -7.083  43.943  1.00  0.00     0.000 C 
BRANCH   5   6
ATOM      6  C   UNL     1       8.646  -8.532  43.858  1.00  0.00     0.006 C 
BRANCH   6   7
ATOM      7  C   UNL     1       7.503  -9.554  43.916  1.00  0.00     0.053 C 
BRANCH   7   8
ATOM      8  C   UNL     1       7.093 -10.007  42.548  1.00  0.00     0.041 C 
ATOM      9  O   UNL     1       6.510 -11.112  42.395  1.00  0.00    -0.550 OA
ATOM     10  O   UNL     1       7.324  -9.193  41.446  1.00  0.00    -0.550 OA
ENDBRANCH   7   8
ENDBRANCH   6   7
ENDBRANCH   5   6
ENDBRANCH   4   5
ENDBRANCH   3   4
ENDBRANCH   2   3
ENDBRANCH   1   2
BRANCH   1  11
ATOM     11  C   UNL     1       8.638  -1.646  42.216  1.00  0.00     0.000 C 
BRANCH  11  12
ATOM     12  C   UNL     1       8.615  -1.307  40.719  1.00  0.00     0.000 C 
BRANCH  12  13
ATOM     13  C   UNL     1       9.409  -2.340  39.910  1.00  0.00     0.000 C 
BRANCH  13  14
ATOM     14  C   UNL     1       8.578  -2.876  38.735  1.00  0.00     0.000 C 
BRANCH  14  15
ATOM     15  C   UNL     1       7.070  -2.940  39.045  1.00  0.00     0.000 C 
BRANCH  15  16
ATOM     16  C   UNL     1       6.154  -2.354  37.952  1.00  0.00     0.006 C 
BRANCH  16  17
ATOM     17  C   UNL     1       6.898  -1.706  36.774  1.00  0.00     0.053 C 
BRANCH  17  18
ATOM     18  C   UNL     1       6.720  -2.479  35.504  1.00  0.00     0.041 C 
ATOM     19  O   UNL     1       6.291  -1.906  34.469  1.00  0.00    -0.550 OA
ATOM     20  O   UNL     1       7.063  -3.825  35.454  1.00  0.00    -0.550 OA
ENDBRANCH  17  18
ENDBRANCH  16  17
ENDBRANCH  15  16
ENDBRANCH  14  15
ENDBRANCH  13  14
ENDBRANCH  12  13
ENDBRANCH  11  12
ENDBRANCH   1  11
TORSDOF 15
ENDMDL
MODEL 5
REMARK VINA RESULT:    -4.326      2.301      3.460
REMARK INTER + INTRA:          -9.784
REMARK INTER:                  -7.649
REMARK INTRA:                  -2.134
REMARK UNBOUND:                -1.664
REMARK SMILES O=C([O-])CCCCCCCCCCCCCCC(=O)[O-]
REMARK SMILES IDX 10 1 9 2 8 3 7 4 6 5 5 6 4 7 2 8 1 9 3 10 11 11 12 12 13 13
REMARK SMILES IDX 14 14 15 15 16 16 17 17 18 18 19 19 20 20
REMARK H PARENT
REMARK Flexibility Score: inf
ROOT
ATOM      1  C   UNL     1      11.423  -4.071  41.924  1.00  0.00     0.000 C 
ENDROOT
BRANCH   1   2
ATOM      2  C   UNL     1      11.608  -4.326  40.421  1.00  0.00     0.000 C 
BRANCH   2   3
ATOM      3  C   UNL     1      10.309  -4.839  39.787  1.00  0.00     0.000 C 
BRANCH   3   4
ATOM      4  C   UNL     1       9.623  -3.734  38.968  1.00  0.00     0.000 C 
BRANCH   4   5
ATOM      5  C   UNL     1       8.091  -3.852  38.983  1.00  0.00     0.000 C 
BRANCH   5   6
ATOM      6  C   UNL     1       7.392  -2.527  38.631  1.00  0.00     0.006 C 
BRANCH   6   7
ATOM      7  C   UNL     1       6.331  -2.705  37.537  1.00  0.00     0.053 C 
BRANCH   7   8
ATOM      8  C   UNL     1       6.942  -2.728  36.169  1.00  0.00     0.041 C 
ATOM      9  O   UNL     1       7.166  -1.651  35.558  1.00  0.00    -0.550 OA
ATOM     10  O   UNL     1       7.296  -3.937  35.585  1.00  0.00    -0.550 OA
ENDBRANCH   7   8
ENDBRANCH   6   7
ENDBRANCH   5   6
ENDBRANCH   4   5
ENDBRANCH   3   4
ENDBRANCH   2   3
ENDBRANCH   1   2
BRANCH   1  11
ATOM     11  C   UNL     1      11.668  -2.603  42.311  1.00  0.00     0.000 C 
BRANCH  11  12
ATOM     12  C   UNL     1      10.462  -1.701  42.007  1.00  0.00     0.000 C 
BRANCH  12  13
ATOM     13  C   UNL     1       9.315  -1.971  42.988  1.00  0.00     0.000 C 
BRANCH  13  14
ATOM     14  C   UNL     1       8.177  -2.743  42.304  1.00  0.00     0.000 C 
BRANCH  14  15
ATOM     15  C   UNL     1       7.717  -3.972  43.110  1.00  0.00     0.000 C 
BRANCH  15  16
ATOM     16  C   UNL     1       7.646  -5.288  42.309  1.00  0.00     0.006 C 
BRANCH  16  17
ATOM     17  C   UNL     1       8.594  -6.391  42.806  1.00  0.00     0.053 C 
BRANCH  17  18
ATOM     18  C   UNL     1       8.037  -7.760  42.569  1.00  0.00     0.041 C 
ATOM     19  O   UNL     1       7.543  -8.057  41.451  1.00  0.00    -0.550 OA
ATOM     20  O   UNL     1       8.095  -8.718  43.573  1.00  0.00    -0.550 OA
ENDBRANCH  17  18
ENDBRANCH  16  17
ENDBRANCH  15  16
ENDBRANCH  14  15
ENDBRANCH  13  14
ENDBRANCH  12  13
ENDBRANCH  11  12
ENDBRANCH   1  11
TORSDOF 15
ENDMDL
MODEL 6
REMARK VINA RESULT:    -4.303      2.319      7.294
REMARK INTER + INTRA:          -9.740
REMARK INTER:                  -8.635
REMARK INTRA:                  -1.105
REMARK UNBOUND:                -1.664
REMARK SMILES O=C([O-])CCCCCCCCCCCCCCC(=O)[O-]
REMARK SMILES IDX 10 1 9 2 8 3 7 4 6 5 5 6 4 7 2 8 1 9 3 10 11 11 12 12 13 13
REMARK SMILES IDX 14 14 15 15 16 16 17 17 18 18 19 19 20 20
REMARK H PARENT
REMARK Flexibility Score: inf
ROOT
ATOM      1  C   UNL     1       8.294  -2.639  41.822  1.00  0.00     0.000 C 
ENDROOT
BRANCH   1   2
ATOM      2  C   UNL     1       8.386  -4.000  42.527  1.00  0.00     0.000 C 
BRANCH   2   3
ATOM      3  C   UNL     1       9.632  -4.771  42.073  1.00  0.00     0.000 C 
BRANCH   3   4
ATOM      4  C   UNL     1       9.244  -6.011  41.253  1.00  0.00     0.000 C 
BRANCH   4   5
ATOM      5  C   UNL     1       7.857  -6.558  41.629  1.00  0.00     0.000 C 
BRANCH   5   6
ATOM      6  C   UNL     1       7.935  -7.881  42.410  1.00  0.00     0.006 C 
BRANCH   6   7
ATOM      7  C   UNL     1       7.774  -9.103  41.496  1.00  0.00     0.053 C 
BRANCH   7   8
ATOM      8  C   UNL     1       6.742 -10.055  42.017  1.00  0.00     0.041 C 
ATOM      9  O   UNL     1       6.713 -10.351  43.240  1.00  0.00    -0.550 OA
ATOM     10  O   UNL     1       5.790 -10.589  41.157  1.00  0.00    -0.550 OA
ENDBRANCH   7   8
ENDBRANCH   6   7
ENDBRANCH   5   6
ENDBRANCH   4   5
ENDBRANCH   3   4
ENDBRANCH   2   3
ENDBRANCH   1   2
BRANCH   1  11
ATOM     11  C   UNL     1       8.754  -2.699  40.356  1.00  0.00     0.000 C 
BRANCH  11  12
ATOM     12  C   UNL     1       7.604  -3.015  39.388  1.00  0.00     0.000 C 
BRANCH  12  13
ATOM     13  C   UNL     1       7.160  -1.755  38.635  1.00  0.00     0.000 C 
BRANCH  13  14
ATOM     14  C   UNL     1       6.038  -2.078  37.637  1.00  0.00     0.000 C 
BRANCH  14  15
ATOM     15  C   UNL     1       6.237  -1.398  36.269  1.00  0.00     0.000 C 
BRANCH  15  16
ATOM     16  C   UNL     1       6.828  -2.304  35.170  1.00  0.00     0.006 C 
BRANCH  16  17
ATOM     17  C   UNL     1       7.164  -3.731  35.630  1.00  0.00     0.053 C 
BRANCH  17  18
ATOM     18  C   UNL     1       8.618  -4.047  35.463  1.00  0.00     0.041 C 
ATOM     19  O   UNL     1       9.408  -3.924  36.435  1.00  0.00    -0.550 OA
ATOM     20  O   UNL     1       9.095  -4.511  34.244  1.00  0.00    -0.550 OA
ENDBRANCH  17  18
ENDBRANCH  16  17
ENDBRANCH  15  16
ENDBRANCH  14  15
ENDBRANCH  13  14
ENDBRANCH  12  13
ENDBRANCH  11  12
ENDBRANCH   1  11
TORSDOF 15
ENDMDL
MODEL 7
REMARK VINA RESULT:    -4.271      2.838      3.942
REMARK INTER + INTRA:          -9.680
REMARK INTER:                  -8.110
REMARK INTRA:                  -1.570
REMARK UNBOUND:                -1.664
REMARK SMILES O=C([O-])CCCCCCCCCCCCCCC(=O)[O-]
REMARK SMILES IDX 10 1 9 2 8 3 7 4 6 5 5 6 4 7 2 8 1 9 3 10 11 11 12 12 13 13
REMARK SMILES IDX 14 14 15 15 16 16 17 17 18 18 19 19 20 20
REMARK H PARENT
REMARK Flexibility Score: inf
ROOT
ATOM      1  C   UNL     1      11.080  -3.491  40.565  1.00  0.00     0.000 C 
ENDROOT
BRANCH   1   2
ATOM      2  C   UNL     1      10.479  -2.334  39.752  1.00  0.00     0.000 C 
BRANCH   2   3
ATOM      3  C   UNL     1       9.392  -1.607  40.554  1.00  0.00     0.000 C 
BRANCH   3   4
ATOM      4  C   UNL     1       8.047  -1.638  39.812  1.00  0.00     0.000 C 
BRANCH   4   5
ATOM      5  C   UNL     1       7.732  -3.019  39.217  1.00  0.00     0.000 C 
BRANCH   5   6
ATOM      6  C   UNL     1       6.728  -2.947  38.053  1.00  0.00     0.006 C 
BRANCH   6   7
ATOM      7  C   UNL     1       6.538  -1.513  37.542  1.00  0.00     0.053 C 
BRANCH   7   8
ATOM      8  C   UNL     1       6.424  -1.465  36.048  1.00  0.00     0.041 C 
ATOM      9  O   UNL     1       5.651  -0.638  35.499  1.00  0.00    -0.550 OA
ATOM     10  O   UNL     1       7.199  -2.311  35.264  1.00  0.00    -0.550 OA
ENDBRANCH   7   8
ENDBRANCH   6   7
ENDBRANCH   5   6
ENDBRANCH   4   5
ENDBRANCH   3   4
ENDBRANCH   2   3
ENDBRANCH   1   2
BRANCH   1  11
ATOM     11  C   UNL     1      10.611  -3.493  42.029  1.00  0.00     0.000 C 
BRANCH  11  12
ATOM     12  C   UNL     1       9.790  -4.740  42.386  1.00  0.00     0.000 C 
BRANCH  12  13
ATOM     13  C   UNL     1       8.331  -4.372  42.679  1.00  0.00     0.000 C 
BRANCH  13  14
ATOM     14  C   UNL     1       7.398  -5.561  42.408  1.00  0.00     0.000 C 
BRANCH  14  15
ATOM     15  C   UNL     1       7.949  -6.526  41.341  1.00  0.00     0.000 C 
BRANCH  15  16
ATOM     16  C   UNL     1       7.716  -8.022  41.631  1.00  0.00     0.006 C 
BRANCH  16  17
ATOM     17  C   UNL     1       8.050  -8.454  43.067  1.00  0.00     0.053 C 
BRANCH  17  18
ATOM     18  C   UNL     1       7.345  -9.717  43.453  1.00  0.00     0.041 C 
ATOM     19  O   UNL     1       7.457 -10.174  44.620  1.00  0.00    -0.550 OA
ATOM     20  O   UNL     1       6.535 -10.371  42.533  1.00  0.00    -0.550 OA
ENDBRANCH  17  18
ENDBRANCH  16  17
ENDBRANCH  15  16
ENDBRANCH  14  15
ENDBRANCH  13  14
ENDBRANCH  12  13
ENDBRANCH  11  12
ENDBRANCH   1  11
TORSDOF 15
ENDMDL
MODEL 8
REMARK VINA RESULT:    -4.202      1.295      7.329
REMARK INTER + INTRA:          -9.551
REMARK INTER:                  -7.704
REMARK INTRA:                  -1.847
REMARK UNBOUND:                -1.664
REMARK SMILES O=C([O-])CCCCCCCCCCCCCCC(=O)[O-]
REMARK SMILES IDX 10 1 9 2 8 3 7 4 6 5 5 6 4 7 2 8 1 9 3 10 11 11 12 12 13 13
REMARK SMILES IDX 14 14 15 15 16 16 17 17 18 18 19 19 20 20
REMARK H PARENT
REMARK Flexibility Score: inf
ROOT
ATOM      1  C   UNL     1      10.544  -3.343  39.382  1.00  0.00     0.000 C 
ENDROOT
BRANCH   1   2
ATOM      2  C   UNL     1      10.424  -2.804  40.815  1.00  0.00     0.000 C 
BRANCH   2   3
ATOM      3  C   UNL     1      11.067  -3.768  41.820  1.00  0.00     0.000 C 
BRANCH   3   4
ATOM      4  C   UNL     1      10.021  -4.727  42.409  1.00  0.00     0.000 C 
BRANCH   4   5
ATOM      5  C   UNL     1       8.667  -4.043  42.660  1.00  0.00     0.000 C 
BRANCH   5   6
ATOM      6  C   UNL     1       7.475  -4.987  42.425  1.00  0.00     0.006 C 
BRANCH   6   7
ATOM      7  C   UNL     1       7.836  -6.155  41.497  1.00  0.00     0.053 C 
BRANCH   7   8
ATOM      8  C   UNL     1       7.775  -7.471  42.211  1.00  0.00     0.041 C 
ATOM      9  O   UNL     1       7.615  -8.536  41.560  1.00  0.00    -0.550 OA
ATOM     10  O   UNL     1       7.928  -7.523  43.590  1.00  0.00    -0.550 OA
ENDBRANCH   7   8
ENDBRANCH   6   7
ENDBRANCH   5   6
ENDBRANCH   4   5
ENDBRANCH   3   4
ENDBRANCH   2   3
ENDBRANCH   1   2
BRANCH   1  11
ATOM     11  C   UNL     1       9.196  -3.817  38.813  1.00  0.00     0.000 C 
BRANCH  11  12
ATOM     12  C   UNL     1       8.049  -2.842  39.117  1.00  0.00     0.000 C 
BRANCH  12  13
ATOM     13  C   UNL     1       6.908  -3.004  38.106  1.00  0.00     0.000 C 
BRANCH  13  14
ATOM     14  C   UNL     1       7.339  -2.529  36.710  1.00  0.00     0.000 C 
BRANCH  14  15
ATOM     15  C   UNL     1       7.077  -3.577  35.611  1.00  0.00     0.000 C 
BRANCH  15  16
ATOM     16  C   UNL     1       8.282  -4.476  35.267  1.00  0.00     0.006 C 
BRANCH  16  17
ATOM     17  C   UNL     1       9.633  -3.745  35.222  1.00  0.00     0.053 C 
BRANCH  17  18
ATOM     18  C   UNL     1      10.415  -4.085  33.992  1.00  0.00     0.041 C 
ATOM     19  O   UNL     1      11.619  -3.731  33.889  1.00  0.00    -0.550 OA
ATOM     20  O   UNL     1       9.826  -4.824  32.974  1.00  0.00    -0.550 OA
ENDBRANCH  17  18
ENDBRANCH  16  17
ENDBRANCH  15  16
ENDBRANCH  14  15
ENDBRANCH  13  14
ENDBRANCH  12  13
ENDBRANCH  11  12
ENDBRANCH   1  11
TORSDOF 15
ENDMDL
MODEL 9
REMARK VINA RESULT:    -4.104      2.961      4.395
REMARK INTER + INTRA:          -9.367
REMARK INTER:                  -7.552
REMARK INTRA:                  -1.815
REMARK UNBOUND:                -1.664
REMARK SMILES O=C([O-])CCCCCCCCCCCCCCC(=O)[O-]
REMARK SMILES IDX 10 1 9 2 8 3 7 4 6 5 5 6 4 7 2 8 1 9 3 10 11 11 12 12 13 13
REMARK SMILES IDX 14 14 15 15 16 16 17 17 18 18 19 19 20 20
REMARK H PARENT
REMARK Flexibility Score: inf
ROOT
ATOM      1  C   UNL     1       9.629  -2.546  42.761  1.00  0.00     0.000 C 
ENDROOT
BRANCH   1   2
ATOM      2  C   UNL     1      10.716  -3.161  41.867  1.00  0.00     0.000 C 
BRANCH   2   3
ATOM      3  C   UNL     1      11.024  -2.251  40.672  1.00  0.00     0.000 C 
BRANCH   3   4
ATOM      4  C   UNL     1      11.073  -3.057  39.364  1.00  0.00     0.000 C 
BRANCH   4   5
ATOM      5  C   UNL     1       9.975  -4.130  39.290  1.00  0.00     0.000 C 
BRANCH   5   6
ATOM      6  C   UNL     1       8.940  -3.841  38.188  1.00  0.00     0.006 C 
BRANCH   6   7
ATOM      7  C   UNL     1       7.800  -2.943  38.687  1.00  0.00     0.053 C 
BRANCH   7   8
ATOM      8  C   UNL     1       6.678  -2.867  37.697  1.00  0.00     0.041 C 
ATOM      9  O   UNL     1       5.626  -2.236  37.980  1.00  0.00    -0.550 OA
ATOM     10  O   UNL     1       6.809  -3.464  36.450  1.00  0.00    -0.550 OA
ENDBRANCH   7   8
ENDBRANCH   6   7
ENDBRANCH   5   6
ENDBRANCH   4   5
ENDBRANCH   3   4
ENDBRANCH   2   3
ENDBRANCH   1   2
BRANCH   1  11
ATOM     11  C   UNL     1       8.217  -3.033  42.395  1.00  0.00     0.000 C 
BRANCH  11  12
ATOM     12  C   UNL     1       7.952  -4.476  42.849  1.00  0.00     0.000 C 
BRANCH  12  13
ATOM     13  C   UNL     1       7.503  -5.348  41.670  1.00  0.00     0.000 C 
BRANCH  13  14
ATOM     14  C   UNL     1       8.395  -6.592  41.535  1.00  0.00     0.000 C 
BRANCH  14  15
ATOM     15  C   UNL     1       8.828  -7.171  42.895  1.00  0.00     0.000 C 
BRANCH  15  16
ATOM     16  C   UNL     1       8.205  -8.535  43.252  1.00  0.00     0.006 C 
BRANCH  16  17
ATOM     17  C   UNL     1       7.450  -9.214  42.098  1.00  0.00     0.053 C 
BRANCH  17  18
ATOM     18  C   UNL     1       6.911 -10.554  42.492  1.00  0.00     0.041 C 
ATOM     19  O   UNL     1       6.237 -10.680  43.547  1.00  0.00    -0.550 OA
ATOM     20  O   UNL     1       7.122 -11.657  41.674  1.00  0.00    -0.550 OA
ENDBRANCH  17  18
ENDBRANCH  16  17
ENDBRANCH  15  16
ENDBRANCH  14  15
ENDBRANCH  13  14
ENDBRANCH  12  13
ENDBRANCH  11  12
ENDBRANCH   1  11
TORSDOF 15
ENDMDL
