MODEL 1
REMARK VINA RESULT:    -4.981      0.000      0.000
REMARK INTER + INTRA:         -17.642
REMARK INTER:                 -13.135
REMARK INTRA:                  -4.508
REMARK UNBOUND:                -4.508
REMARK SMILES CCCCCCCCCCCCCCCCCCCCCCCCCCCCCC(=O)[O-]
REMARK SMILES IDX 16 1 17 2 18 3 19 4 20 5 21 6 22 7 23 8 24 9 25 10 26 11
REMARK SMILES IDX 27 12 28 13 29 14 30 15 31 16 32 17 15 18 14 19 13 20 12 21
REMARK SMILES IDX 11 22 10 23 9 24 8 25 7 26 6 27 5 28 4 29 3 30 2 31 1 32
REMARK H PARENT
REMARK Flexibility Score: inf
ROOT
ATOM      1  C   UNL     1      18.082  57.051  16.648  1.00  0.00     0.000 C 
ENDROOT
BRANCH   1   2
ATOM      2  C   UNL     1      16.609  56.768  16.993  1.00  0.00     0.000 C 
BRANCH   2   3
ATOM      3  C   UNL     1      15.918  55.892  15.932  1.00  0.00     0.000 C 
BRANCH   3   4
ATOM      4  C   UNL     1      14.902  54.893  16.519  1.00  0.00     0.000 C 
BRANCH   4   5
ATOM      5  C   UNL     1      15.190  53.441  16.096  1.00  0.00     0.000 C 
BRANCH   5   6
ATOM      6  C   UNL     1      15.782  52.604  17.250  1.00  0.00     0.000 C 
BRANCH   6   7
ATOM      7  C   UNL     1      15.374  53.094  18.649  1.00  0.00     0.000 C 
BRANCH   7   8
ATOM      8  C   UNL     1      16.568  53.220  19.609  1.00  0.00     0.000 C 
BRANCH   8   9
ATOM      9  C   UNL     1      17.769  53.933  18.966  1.00  0.00     0.000 C 
BRANCH   9  10
ATOM     10  C   UNL     1      19.104  53.245  19.293  1.00  0.00     0.000 C 
BRANCH  10  11
ATOM     11  C   UNL     1      20.012  53.187  18.055  1.00  0.00     0.000 C 
BRANCH  11  12
ATOM     12  C   UNL     1      19.571  52.119  17.040  1.00  0.00     0.000 C 
BRANCH  12  13
ATOM     13  C   UNL     1      19.633  52.595  15.573  1.00  0.00     0.006 C 
BRANCH  13  14
ATOM     14  C   UNL     1      18.688  53.775  15.306  1.00  0.00     0.053 C 
BRANCH  14  15
ATOM     15  C   UNL     1      18.864  54.280  13.909  1.00  0.00     0.041 C 
ATOM     16  O   UNL     1      18.238  55.302  13.522  1.00  0.00    -0.550 OA
ATOM     17  O   UNL     1      19.754  53.651  13.048  1.00  0.00    -0.550 OA
ENDBRANCH  14  15
ENDBRANCH  13  14
ENDBRANCH  12  13
ENDBRANCH  11  12
ENDBRANCH  10  11
ENDBRANCH   9  10
ENDBRANCH   8   9
ENDBRANCH   7   8
ENDBRANCH   6   7
ENDBRANCH   5   6
ENDBRANCH   4   5
ENDBRANCH   3   4
ENDBRANCH   2   3
ENDBRANCH   1   2
BRANCH   1  18
ATOM     18  C   UNL     1      18.964  57.186  17.898  1.00  0.00     0.000 C 
BRANCH  18  19
ATOM     19  C   UNL     1      20.448  56.891  17.614  1.00  0.00     0.000 C 
BRANCH  19  20
ATOM     20  C   UNL     1      20.741  56.771  16.109  1.00  0.00     0.000 C 
BRANCH  20  21
ATOM     21  C   UNL     1      21.820  55.720  15.805  1.00  0.00     0.000 C 
BRANCH  21  22
ATOM     22  C   UNL     1      23.072  55.873  16.688  1.00  0.00     0.000 C 
BRANCH  22  23
ATOM     23  C   UNL     1      24.186  56.756  16.091  1.00  0.00     0.000 C 
BRANCH  23  24
ATOM     24  C   UNL     1      25.528  56.039  15.845  1.00  0.00    -0.000 C 
BRANCH  24  25
ATOM     25  C   UNL     1      25.870  54.925  16.855  1.00  0.00    -0.000 C 
BRANCH  25  26
ATOM     26  C   UNL     1      26.447  55.414  18.195  1.00  0.00    -0.000 C 
BRANCH  26  27
ATOM     27  C   UNL     1      27.022  54.271  19.048  1.00  0.00    -0.000 C 
BRANCH  27  28
ATOM     28  C   UNL     1      27.240  54.674  20.519  1.00  0.00    -0.000 C 
BRANCH  28  29
ATOM     29  C   UNL     1      28.371  55.694  20.761  1.00  0.00    -0.000 C 
BRANCH  29  30
ATOM     30  C   UNL     1      29.693  55.397  20.024  1.00  0.00    -0.000 C 
BRANCH  30  31
ATOM     31  C   UNL     1      30.412  56.638  19.468  1.00  0.00    -0.003 C 
ATOM     32  C   UNL     1      29.624  57.337  18.362  1.00  0.00     0.004 C 
ENDBRANCH  30  31
ENDBRANCH  29  30
ENDBRANCH  28  29
ENDBRANCH  27  28
ENDBRANCH  26  27
ENDBRANCH  25  26
ENDBRANCH  24  25
ENDBRANCH  23  24
ENDBRANCH  22  23
ENDBRANCH  21  22
ENDBRANCH  20  21
ENDBRANCH  19  20
ENDBRANCH  18  19
ENDBRANCH   1  18
TORSDOF 28
ENDMDL
MODEL 2
REMARK VINA RESULT:    -4.914     12.609     16.601
REMARK INTER + INTRA:         -17.465
REMARK INTER:                 -11.524
REMARK INTRA:                  -5.941
REMARK UNBOUND:                -4.508
REMARK SMILES CCCCCCCCCCCCCCCCCCCCCCCCCCCCCC(=O)[O-]
REMARK SMILES IDX 16 1 17 2 18 3 19 4 20 5 21 6 22 7 23 8 24 9 25 10 26 11
REMARK SMILES IDX 27 12 28 13 29 14 30 15 31 16 32 17 15 18 14 19 13 20 12 21
REMARK SMILES IDX 11 22 10 23 9 24 8 25 7 26 6 27 5 28 4 29 3 30 2 31 1 32
REMARK H PARENT
REMARK Flexibility Score: inf
ROOT
ATOM      1  C   UNL     1      28.073  66.663   9.582  1.00  0.00     0.000 C 
ENDROOT
BRANCH   1   2
ATOM      2  C   UNL     1      27.969  67.960   8.760  1.00  0.00     0.000 C 
BRANCH   2   3
ATOM      3  C   UNL     1      29.000  69.016   9.201  1.00  0.00     0.000 C 
BRANCH   3   4
ATOM      4  C   UNL     1      29.884  69.537   8.052  1.00  0.00     0.000 C 
BRANCH   4   5
ATOM      5  C   UNL     1      29.716  68.718   6.760  1.00  0.00     0.000 C 
BRANCH   5   6
ATOM      6  C   UNL     1      30.948  67.837   6.463  1.00  0.00     0.000 C 
BRANCH   6   7
ATOM      7  C   UNL     1      30.626  66.567   5.658  1.00  0.00     0.000 C 
BRANCH   7   8
ATOM      8  C   UNL     1      29.323  65.888   6.109  1.00  0.00     0.000 C 
BRANCH   8   9
ATOM      9  C   UNL     1      28.314  65.726   4.961  1.00  0.00     0.000 C 
BRANCH   9  10
ATOM     10  C   UNL     1      26.995  66.467   5.228  1.00  0.00     0.000 C 
BRANCH  10  11
ATOM     11  C   UNL     1      25.896  65.493   5.678  1.00  0.00     0.000 C 
BRANCH  11  12
ATOM     12  C   UNL     1      26.009  65.110   7.164  1.00  0.00     0.000 C 
BRANCH  12  13
ATOM     13  C   UNL     1      25.230  63.829   7.534  1.00  0.00     0.006 C 
BRANCH  13  14
ATOM     14  C   UNL     1      23.787  64.131   7.961  1.00  0.00     0.053 C 
BRANCH  14  15
ATOM     15  C   UNL     1      22.823  63.659   6.919  1.00  0.00     0.041 C 
ATOM     16  O   UNL     1      22.561  62.432   6.808  1.00  0.00    -0.550 OA
ATOM     17  O   UNL     1      22.180  64.577   6.100  1.00  0.00    -0.550 OA
ENDBRANCH  14  15
ENDBRANCH  13  14
ENDBRANCH  12  13
ENDBRANCH  11  12
ENDBRANCH  10  11
ENDBRANCH   9  10
ENDBRANCH   8   9
ENDBRANCH   7   8
ENDBRANCH   6   7
ENDBRANCH   5   6
ENDBRANCH   4   5
ENDBRANCH   3   4
ENDBRANCH   2   3
ENDBRANCH   1   2
BRANCH   1  18
ATOM     18  C   UNL     1      29.494  66.411  10.108  1.00  0.00     0.000 C 
BRANCH  18  19
ATOM     19  C   UNL     1      30.006  64.996   9.786  1.00  0.00     0.000 C 
BRANCH  19  20
ATOM     20  C   UNL     1      31.319  65.020   8.986  1.00  0.00     0.000 C 
BRANCH  20  21
ATOM     21  C   UNL     1      31.844  63.608   8.681  1.00  0.00     0.000 C 
BRANCH  21  22
ATOM     22  C   UNL     1      31.863  63.287   7.176  1.00  0.00     0.000 C 
BRANCH  22  23
ATOM     23  C   UNL     1      30.763  62.315   6.703  1.00  0.00     0.000 C 
BRANCH  23  24
ATOM     24  C   UNL     1      30.433  62.381   5.199  1.00  0.00    -0.000 C 
BRANCH  24  25
ATOM     25  C   UNL     1      28.997  61.961   4.825  1.00  0.00    -0.000 C 
BRANCH  25  26
ATOM     26  C   UNL     1      27.942  62.198   5.921  1.00  0.00    -0.000 C 
BRANCH  26  27
ATOM     27  C   UNL     1      27.244  60.903   6.365  1.00  0.00    -0.000 C 
BRANCH  27  28
ATOM     28  C   UNL     1      27.200  60.741   7.897  1.00  0.00    -0.000 C 
BRANCH  28  29
ATOM     29  C   UNL     1      27.989  61.801   8.692  1.00  0.00    -0.000 C 
BRANCH  29  30
ATOM     30  C   UNL     1      27.728  61.811  10.212  1.00  0.00    -0.000 C 
BRANCH  30  31
ATOM     31  C   UNL     1      28.701  60.954  11.039  1.00  0.00    -0.003 C 
ATOM     32  C   UNL     1      30.088  60.854  10.407  1.00  0.00     0.004 C 
ENDBRANCH  30  31
ENDBRANCH  29  30
ENDBRANCH  28  29
ENDBRANCH  27  28
ENDBRANCH  26  27
ENDBRANCH  25  26
ENDBRANCH  24  25
ENDBRANCH  23  24
ENDBRANCH  22  23
ENDBRANCH  21  22
ENDBRANCH  20  21
ENDBRANCH  19  20
ENDBRANCH  18  19
ENDBRANCH   1  18
TORSDOF 28
ENDMDL
MODEL 3
REMARK VINA RESULT:    -4.902      1.834      3.658
REMARK INTER + INTRA:         -17.433
REMARK INTER:                 -13.633
REMARK INTRA:                  -3.800
REMARK UNBOUND:                -4.508
REMARK SMILES CCCCCCCCCCCCCCCCCCCCCCCCCCCCCC(=O)[O-]
REMARK SMILES IDX 16 1 17 2 18 3 19 4 20 5 21 6 22 7 23 8 24 9 25 10 26 11
REMARK SMILES IDX 27 12 28 13 29 14 30 15 31 16 32 17 15 18 14 19 13 20 12 21
REMARK SMILES IDX 11 22 10 23 9 24 8 25 7 26 6 27 5 28 4 29 3 30 2 31 1 32
REMARK H PARENT
REMARK Flexibility Score: inf
ROOT
ATOM      1  C   UNL     1      19.467  56.703  17.083  1.00  0.00     0.000 C 
ENDROOT
BRANCH   1   2
ATOM      2  C   UNL     1      19.124  56.744  15.583  1.00  0.00     0.000 C 
BRANCH   2   3
ATOM      3  C   UNL     1      18.073  55.688  15.194  1.00  0.00     0.000 C 
BRANCH   3   4
ATOM      4  C   UNL     1      18.370  54.980  13.858  1.00  0.00     0.000 C 
BRANCH   4   5
ATOM      5  C   UNL     1      19.541  53.986  13.965  1.00  0.00     0.000 C 
BRANCH   5   6
ATOM      6  C   UNL     1      19.350  52.983  15.122  1.00  0.00     0.000 C 
BRANCH   6   7
ATOM      7  C   UNL     1      20.615  52.758  15.966  1.00  0.00     0.000 C 
BRANCH   7   8
ATOM      8  C   UNL     1      20.415  53.114  17.448  1.00  0.00     0.000 C 
BRANCH   8   9
ATOM      9  C   UNL     1      19.320  52.266  18.116  1.00  0.00     0.000 C 
BRANCH   9  10
ATOM     10  C   UNL     1      18.462  53.081  19.097  1.00  0.00     0.000 C 
BRANCH  10  11
ATOM     11  C   UNL     1      17.286  53.753  18.374  1.00  0.00     0.000 C 
BRANCH  11  12
ATOM     12  C   UNL     1      16.479  54.691  19.289  1.00  0.00     0.000 C 
BRANCH  12  13
ATOM     13  C   UNL     1      15.262  55.338  18.593  1.00  0.00     0.006 C 
BRANCH  13  14
ATOM     14  C   UNL     1      15.646  56.596  17.803  1.00  0.00     0.053 C 
BRANCH  14  15
ATOM     15  C   UNL     1      14.787  56.731  16.586  1.00  0.00     0.041 C 
ATOM     16  O   UNL     1      14.388  57.867  16.216  1.00  0.00    -0.550 OA
ATOM     17  O   UNL     1      14.463  55.609  15.834  1.00  0.00    -0.550 OA
ENDBRANCH  14  15
ENDBRANCH  13  14
ENDBRANCH  12  13
ENDBRANCH  11  12
ENDBRANCH  10  11
ENDBRANCH   9  10
ENDBRANCH   8   9
ENDBRANCH   7   8
ENDBRANCH   6   7
ENDBRANCH   5   6
ENDBRANCH   4   5
ENDBRANCH   3   4
ENDBRANCH   2   3
ENDBRANCH   1   2
BRANCH   1  18
ATOM     18  C   UNL     1      20.978  56.601  17.339  1.00  0.00     0.000 C 
BRANCH  18  19
ATOM     19  C   UNL     1      21.781  56.315  16.057  1.00  0.00     0.000 C 
BRANCH  19  20
ATOM     20  C   UNL     1      23.040  55.477  16.333  1.00  0.00     0.000 C 
BRANCH  20  21
ATOM     21  C   UNL     1      24.223  56.337  16.805  1.00  0.00     0.000 C 
BRANCH  21  22
ATOM     22  C   UNL     1      25.465  56.193  15.908  1.00  0.00     0.000 C 
BRANCH  22  23
ATOM     23  C   UNL     1      26.777  55.880  16.657  1.00  0.00     0.000 C 
BRANCH  23  24
ATOM     24  C   UNL     1      26.721  54.654  17.588  1.00  0.00    -0.000 C 
BRANCH  24  25
ATOM     25  C   UNL     1      26.659  54.979  19.095  1.00  0.00    -0.000 C 
BRANCH  25  26
ATOM     26  C   UNL     1      27.985  54.805  19.856  1.00  0.00    -0.000 C 
BRANCH  26  27
ATOM     27  C   UNL     1      28.118  55.765  21.049  1.00  0.00    -0.000 C 
BRANCH  27  28
ATOM     28  C   UNL     1      29.274  56.769  20.884  1.00  0.00    -0.000 C 
BRANCH  28  29
ATOM     29  C   UNL     1      29.832  56.900  19.452  1.00  0.00    -0.000 C 
BRANCH  29  30
ATOM     30  C   UNL     1      29.867  58.335  18.888  1.00  0.00    -0.000 C 
BRANCH  30  31
ATOM     31  C   UNL     1      30.686  59.334  19.724  1.00  0.00    -0.003 C 
ATOM     32  C   UNL     1      32.184  59.040  19.702  1.00  0.00     0.004 C 
ENDBRANCH  30  31
ENDBRANCH  29  30
ENDBRANCH  28  29
ENDBRANCH  27  28
ENDBRANCH  26  27
ENDBRANCH  25  26
ENDBRANCH  24  25
ENDBRANCH  23  24
ENDBRANCH  22  23
ENDBRANCH  21  22
ENDBRANCH  20  21
ENDBRANCH  19  20
ENDBRANCH  18  19
ENDBRANCH   1  18
TORSDOF 28
ENDMDL
MODEL 4
REMARK VINA RESULT:    -4.898     12.311     15.816
REMARK INTER + INTRA:         -17.422
REMARK INTER:                 -11.922
REMARK INTRA:                  -5.500
REMARK UNBOUND:                -4.508
REMARK SMILES CCCCCCCCCCCCCCCCCCCCCCCCCCCCCC(=O)[O-]
REMARK SMILES IDX 16 1 17 2 18 3 19 4 20 5 21 6 22 7 23 8 24 9 25 10 26 11
REMARK SMILES IDX 27 12 28 13 29 14 30 15 31 16 32 17 15 18 14 19 13 20 12 21
REMARK SMILES IDX 11 22 10 23 9 24 8 25 7 26 6 27 5 28 4 29 3 30 2 31 1 32
REMARK H PARENT
REMARK Flexibility Score: inf
ROOT
ATOM      1  C   UNL     1      27.657  62.403   8.836  1.00  0.00     0.000 C 
ENDROOT
BRANCH   1   2
ATOM      2  C   UNL     1      27.103  61.183   8.079  1.00  0.00     0.000 C 
BRANCH   2   3
ATOM      3  C   UNL     1      27.551  61.155   6.606  1.00  0.00     0.000 C 
BRANCH   3   4
ATOM      4  C   UNL     1      28.997  61.639   6.388  1.00  0.00     0.000 C 
BRANCH   4   5
ATOM      5  C   UNL     1      29.268  62.055   4.931  1.00  0.00     0.000 C 
BRANCH   5   6
ATOM      6  C   UNL     1      27.964  62.287   4.139  1.00  0.00     0.000 C 
BRANCH   6   7
ATOM      7  C   UNL     1      27.853  63.690   3.518  1.00  0.00     0.000 C 
BRANCH   7   8
ATOM      8  C   UNL     1      28.852  64.690   4.122  1.00  0.00     0.000 C 
BRANCH   8   9
ATOM      9  C   UNL     1      28.167  65.959   4.655  1.00  0.00     0.000 C 
BRANCH   9  10
ATOM     10  C   UNL     1      26.798  66.206   4.002  1.00  0.00     0.000 C 
BRANCH  10  11
ATOM     11  C   UNL     1      25.694  66.322   5.063  1.00  0.00     0.000 C 
BRANCH  11  12
ATOM     12  C   UNL     1      26.027  65.562   6.359  1.00  0.00     0.000 C 
BRANCH  12  13
ATOM     13  C   UNL     1      25.490  64.116   6.384  1.00  0.00     0.006 C 
BRANCH  13  14
ATOM     14  C   UNL     1      24.391  63.924   7.438  1.00  0.00     0.053 C 
BRANCH  14  15
ATOM     15  C   UNL     1      23.074  63.661   6.779  1.00  0.00     0.041 C 
ATOM     16  O   UNL     1      22.539  62.524   6.863  1.00  0.00    -0.550 OA
ATOM     17  O   UNL     1      22.415  64.684   6.109  1.00  0.00    -0.550 OA
ENDBRANCH  14  15
ENDBRANCH  13  14
ENDBRANCH  12  13
ENDBRANCH  11  12
ENDBRANCH  10  11
ENDBRANCH   9  10
ENDBRANCH   8   9
ENDBRANCH   7   8
ENDBRANCH   6   7
ENDBRANCH   5   6
ENDBRANCH   4   5
ENDBRANCH   3   4
ENDBRANCH   2   3
ENDBRANCH   1   2
BRANCH   1  18
ATOM     18  C   UNL     1      27.943  62.100  10.314  1.00  0.00     0.000 C 
BRANCH  18  19
ATOM     19  C   UNL     1      28.392  60.646  10.546  1.00  0.00     0.000 C 
BRANCH  19  20
ATOM     20  C   UNL     1      29.700  60.562  11.350  1.00  0.00     0.000 C 
BRANCH  20  21
ATOM     21  C   UNL     1      30.918  61.032  10.538  1.00  0.00     0.000 C 
BRANCH  21  22
ATOM     22  C   UNL     1      31.670  62.197  11.205  1.00  0.00     0.000 C 
BRANCH  22  23
ATOM     23  C   UNL     1      31.114  63.600  10.886  1.00  0.00     0.000 C 
BRANCH  23  24
ATOM     24  C   UNL     1      31.743  64.289   9.659  1.00  0.00    -0.000 C 
BRANCH  24  25
ATOM     25  C   UNL     1      31.198  63.821   8.295  1.00  0.00    -0.000 C 
BRANCH  25  26
ATOM     26  C   UNL     1      30.361  64.864   7.533  1.00  0.00    -0.000 C 
BRANCH  26  27
ATOM     27  C   UNL     1      30.108  66.139   8.354  1.00  0.00    -0.000 C 
BRANCH  27  28
ATOM     28  C   UNL     1      28.645  66.272   8.818  1.00  0.00    -0.000 C 
BRANCH  28  29
ATOM     29  C   UNL     1      28.455  66.557  10.322  1.00  0.00    -0.000 C 
BRANCH  29  30
ATOM     30  C   UNL     1      29.281  67.736  10.876  1.00  0.00    -0.000 C 
BRANCH  30  31
ATOM     31  C   UNL     1      30.558  67.328  11.631  1.00  0.00    -0.003 C 
ATOM     32  C   UNL     1      30.388  67.363  13.148  1.00  0.00     0.004 C 
ENDBRANCH  30  31
ENDBRANCH  29  30
ENDBRANCH  28  29
ENDBRANCH  27  28
ENDBRANCH  26  27
ENDBRANCH  25  26
ENDBRANCH  24  25
ENDBRANCH  23  24
ENDBRANCH  22  23
ENDBRANCH  21  22
ENDBRANCH  20  21
ENDBRANCH  19  20
ENDBRANCH  18  19
ENDBRANCH   1  18
TORSDOF 28
ENDMDL
MODEL 5
REMARK VINA RESULT:    -4.868     12.283     15.395
REMARK INTER + INTRA:         -17.343
REMARK INTER:                 -11.346
REMARK INTRA:                  -5.997
REMARK UNBOUND:                -4.508
REMARK SMILES CCCCCCCCCCCCCCCCCCCCCCCCCCCCCC(=O)[O-]
REMARK SMILES IDX 16 1 17 2 18 3 19 4 20 5 21 6 22 7 23 8 24 9 25 10 26 11
REMARK SMILES IDX 27 12 28 13 29 14 30 15 31 16 32 17 15 18 14 19 13 20 12 21
REMARK SMILES IDX 11 22 10 23 9 24 8 25 7 26 6 27 5 28 4 29 3 30 2 31 1 32
REMARK H PARENT
REMARK Flexibility Score: inf
ROOT
ATOM      1  C   UNL     1      29.800  63.176   6.927  1.00  0.00     0.000 C 
ENDROOT
BRANCH   1   2
ATOM      2  C   UNL     1      30.672  63.158   8.196  1.00  0.00     0.000 C 
BRANCH   2   3
ATOM      3  C   UNL     1      30.710  64.528   8.899  1.00  0.00     0.000 C 
BRANCH   3   4
ATOM      4  C   UNL     1      29.635  64.695   9.990  1.00  0.00     0.000 C 
BRANCH   4   5
ATOM      5  C   UNL     1      28.336  65.318   9.448  1.00  0.00     0.000 C 
BRANCH   5   6
ATOM      6  C   UNL     1      28.270  66.840   9.699  1.00  0.00     0.000 C 
BRANCH   6   7
ATOM      7  C   UNL     1      27.832  67.655   8.471  1.00  0.00     0.000 C 
BRANCH   7   8
ATOM      8  C   UNL     1      28.925  67.748   7.395  1.00  0.00     0.000 C 
BRANCH   8   9
ATOM      9  C   UNL     1      28.662  66.812   6.204  1.00  0.00     0.000 C 
BRANCH   9  10
ATOM     10  C   UNL     1      27.168  66.500   6.020  1.00  0.00     0.000 C 
BRANCH  10  11
ATOM     11  C   UNL     1      26.967  65.104   5.415  1.00  0.00     0.000 C 
BRANCH  11  12
ATOM     12  C   UNL     1      25.646  64.447   5.852  1.00  0.00     0.000 C 
BRANCH  12  13
ATOM     13  C   UNL     1      25.270  64.730   7.322  1.00  0.00     0.006 C 
BRANCH  13  14
ATOM     14  C   UNL     1      24.476  63.577   7.950  1.00  0.00     0.053 C 
BRANCH  14  15
ATOM     15  C   UNL     1      23.069  63.574   7.443  1.00  0.00     0.041 C 
ATOM     16  O   UNL     1      22.603  62.554   6.871  1.00  0.00    -0.550 OA
ATOM     17  O   UNL     1      22.255  64.682   7.643  1.00  0.00    -0.550 OA
ENDBRANCH  14  15
ENDBRANCH  13  14
ENDBRANCH  12  13
ENDBRANCH  11  12
ENDBRANCH  10  11
ENDBRANCH   9  10
ENDBRANCH   8   9
ENDBRANCH   7   8
ENDBRANCH   6   7
ENDBRANCH   5   6
ENDBRANCH   4   5
ENDBRANCH   3   4
ENDBRANCH   2   3
ENDBRANCH   1   2
BRANCH   1  18
ATOM     18  C   UNL     1      29.169  61.808   6.628  1.00  0.00     0.000 C 
BRANCH  18  19
ATOM     19  C   UNL     1      27.681  61.741   7.017  1.00  0.00     0.000 C 
BRANCH  19  20
ATOM     20  C   UNL     1      27.456  60.971   8.328  1.00  0.00     0.000 C 
BRANCH  20  21
ATOM     21  C   UNL     1      27.272  61.908   9.533  1.00  0.00     0.000 C 
BRANCH  21  22
ATOM     22  C   UNL     1      28.218  61.576  10.701  1.00  0.00     0.000 C 
BRANCH  22  23
ATOM     23  C   UNL     1      28.903  60.197  10.612  1.00  0.00     0.000 C 
BRANCH  23  24
ATOM     24  C   UNL     1      30.444  60.231  10.604  1.00  0.00    -0.000 C 
BRANCH  24  25
ATOM     25  C   UNL     1      31.089  60.902  11.834  1.00  0.00    -0.000 C 
BRANCH  25  26
ATOM     26  C   UNL     1      31.981  62.117  11.521  1.00  0.00    -0.000 C 
BRANCH  26  27
ATOM     27  C   UNL     1      32.159  63.052  12.729  1.00  0.00    -0.000 C 
BRANCH  27  28
ATOM     28  C   UNL     1      32.449  64.509  12.321  1.00  0.00    -0.000 C 
BRANCH  28  29
ATOM     29  C   UNL     1      31.738  65.583  13.170  1.00  0.00    -0.000 C 
BRANCH  29  30
ATOM     30  C   UNL     1      32.058  67.042  12.786  1.00  0.00    -0.000 C 
BRANCH  30  31
ATOM     31  C   UNL     1      31.045  67.692  11.828  1.00  0.00    -0.003 C 
ATOM     32  C   UNL     1      31.651  68.042  10.470  1.00  0.00     0.004 C 
ENDBRANCH  30  31
ENDBRANCH  29  30
ENDBRANCH  28  29
ENDBRANCH  27  28
ENDBRANCH  26  27
ENDBRANCH  25  26
ENDBRANCH  24  25
ENDBRANCH  23  24
ENDBRANCH  22  23
ENDBRANCH  21  22
ENDBRANCH  20  21
ENDBRANCH  19  20
ENDBRANCH  18  19
ENDBRANCH   1  18
TORSDOF 28
ENDMDL
MODEL 6
REMARK VINA RESULT:    -4.791     12.595     16.310
REMARK INTER + INTRA:         -17.142
REMARK INTER:                 -11.627
REMARK INTRA:                  -5.515
REMARK UNBOUND:                -4.508
REMARK SMILES CCCCCCCCCCCCCCCCCCCCCCCCCCCCCC(=O)[O-]
REMARK SMILES IDX 16 1 17 2 18 3 19 4 20 5 21 6 22 7 23 8 24 9 25 10 26 11
REMARK SMILES IDX 27 12 28 13 29 14 30 15 31 16 32 17 15 18 14 19 13 20 12 21
REMARK SMILES IDX 11 22 10 23 9 24 8 25 7 26 6 27 5 28 4 29 3 30 2 31 1 32
REMARK H PARENT
REMARK Flexibility Score: inf
ROOT
ATOM      1  C   UNL     1      26.993  60.663   7.433  1.00  0.00     0.000 C 
ENDROOT
BRANCH   1   2
ATOM      2  C   UNL     1      27.439  61.476   8.661  1.00  0.00     0.000 C 
BRANCH   2   3
ATOM      3  C   UNL     1      27.783  60.578   9.864  1.00  0.00     0.000 C 
BRANCH   3   4
ATOM      4  C   UNL     1      28.953  61.105  10.717  1.00  0.00     0.000 C 
BRANCH   4   5
ATOM      5  C   UNL     1      30.002  61.858   9.878  1.00  0.00     0.000 C 
BRANCH   5   6
ATOM      6  C   UNL     1      30.493  63.144  10.577  1.00  0.00     0.000 C 
BRANCH   6   7
ATOM      7  C   UNL     1      31.031  64.211   9.610  1.00  0.00     0.000 C 
BRANCH   7   8
ATOM      8  C   UNL     1      29.933  64.822   8.724  1.00  0.00     0.000 C 
BRANCH   8   9
ATOM      9  C   UNL     1      28.664  65.176   9.517  1.00  0.00     0.000 C 
BRANCH   9  10
ATOM     10  C   UNL     1      27.635  65.938   8.668  1.00  0.00     0.000 C 
BRANCH  10  11
ATOM     11  C   UNL     1      26.570  64.985   8.106  1.00  0.00     0.000 C 
BRANCH  11  12
ATOM     12  C   UNL     1      26.101  65.378   6.694  1.00  0.00     0.000 C 
BRANCH  12  13
ATOM     13  C   UNL     1      25.094  64.384   6.077  1.00  0.00     0.006 C 
BRANCH  13  14
ATOM     14  C   UNL     1      24.366  63.557   7.145  1.00  0.00     0.053 C 
BRANCH  14  15
ATOM     15  C   UNL     1      22.932  63.362   6.768  1.00  0.00     0.041 C 
ATOM     16  O   UNL     1      22.445  62.202   6.710  1.00  0.00    -0.550 OA
ATOM     17  O   UNL     1      22.120  64.462   6.525  1.00  0.00    -0.550 OA
ENDBRANCH  14  15
ENDBRANCH  13  14
ENDBRANCH  12  13
ENDBRANCH  11  12
ENDBRANCH  10  11
ENDBRANCH   9  10
ENDBRANCH   8   9
ENDBRANCH   7   8
ENDBRANCH   6   7
ENDBRANCH   5   6
ENDBRANCH   4   5
ENDBRANCH   3   4
ENDBRANCH   2   3
ENDBRANCH   1   2
BRANCH   1  18
ATOM     18  C   UNL     1      27.409  61.320   6.109  1.00  0.00     0.000 C 
BRANCH  18  19
ATOM     19  C   UNL     1      28.452  62.436   6.301  1.00  0.00     0.000 C 
BRANCH  19  20
ATOM     20  C   UNL     1      28.666  63.259   5.020  1.00  0.00     0.000 C 
BRANCH  20  21
ATOM     21  C   UNL     1      29.425  64.570   5.287  1.00  0.00     0.000 C 
BRANCH  21  22
ATOM     22  C   UNL     1      29.696  65.377   4.005  1.00  0.00     0.000 C 
BRANCH  22  23
ATOM     23  C   UNL     1      29.315  66.869   4.082  1.00  0.00     0.000 C 
BRANCH  23  24
ATOM     24  C   UNL     1      28.619  67.300   5.387  1.00  0.00    -0.000 C 
BRANCH  24  25
ATOM     25  C   UNL     1      29.557  67.855   6.478  1.00  0.00    -0.000 C 
BRANCH  25  26
ATOM     26  C   UNL     1      29.518  69.384   6.656  1.00  0.00    -0.000 C 
BRANCH  26  27
ATOM     27  C   UNL     1      30.147  69.845   7.981  1.00  0.00    -0.000 C 
BRANCH  27  28
ATOM     28  C   UNL     1      30.137  68.748   9.063  1.00  0.00    -0.000 C 
BRANCH  28  29
ATOM     29  C   UNL     1      29.071  68.921  10.165  1.00  0.00    -0.000 C 
BRANCH  29  30
ATOM     30  C   UNL     1      29.345  68.149  11.471  1.00  0.00    -0.000 C 
BRANCH  30  31
ATOM     31  C   UNL     1      30.754  67.540  11.576  1.00  0.00    -0.003 C 
ATOM     32  C   UNL     1      31.060  66.984  12.965  1.00  0.00     0.004 C 
ENDBRANCH  30  31
ENDBRANCH  29  30
ENDBRANCH  28  29
ENDBRANCH  27  28
ENDBRANCH  26  27
ENDBRANCH  25  26
ENDBRANCH  24  25
ENDBRANCH  23  24
ENDBRANCH  22  23
ENDBRANCH  21  22
ENDBRANCH  20  21
ENDBRANCH  19  20
ENDBRANCH  18  19
ENDBRANCH   1  18
TORSDOF 28
ENDMDL
MODEL 7
REMARK VINA RESULT:    -4.770     12.387     16.179
REMARK INTER + INTRA:         -17.085
REMARK INTER:                 -11.647
REMARK INTRA:                  -5.438
REMARK UNBOUND:                -4.508
REMARK SMILES CCCCCCCCCCCCCCCCCCCCCCCCCCCCCC(=O)[O-]
REMARK SMILES IDX 16 1 17 2 18 3 19 4 20 5 21 6 22 7 23 8 24 9 25 10 26 11
REMARK SMILES IDX 27 12 28 13 29 14 30 15 31 16 32 17 15 18 14 19 13 20 12 21
REMARK SMILES IDX 11 22 10 23 9 24 8 25 7 26 6 27 5 28 4 29 3 30 2 31 1 32
REMARK H PARENT
REMARK Flexibility Score: inf
ROOT
ATOM      1  C   UNL     1      27.617  62.294   8.884  1.00  0.00     0.000 C 
ENDROOT
BRANCH   1   2
ATOM      2  C   UNL     1      27.217  61.105   7.992  1.00  0.00     0.000 C 
BRANCH   2   3
ATOM      3  C   UNL     1      27.747  61.247   6.554  1.00  0.00     0.000 C 
BRANCH   3   4
ATOM      4  C   UNL     1      29.081  62.014   6.458  1.00  0.00     0.000 C 
BRANCH   4   5
ATOM      5  C   UNL     1      29.339  62.575   5.048  1.00  0.00     0.000 C 
BRANCH   5   6
ATOM      6  C   UNL     1      28.097  62.463   4.139  1.00  0.00     0.000 C 
BRANCH   6   7
ATOM      7  C   UNL     1      27.859  63.698   3.255  1.00  0.00     0.000 C 
BRANCH   7   8
ATOM      8  C   UNL     1      28.693  64.914   3.690  1.00  0.00     0.000 C 
BRANCH   8   9
ATOM      9  C   UNL     1      27.851  66.194   3.812  1.00  0.00     0.000 C 
BRANCH   9  10
ATOM     10  C   UNL     1      26.343  65.919   3.695  1.00  0.00     0.000 C 
BRANCH  10  11
ATOM     11  C   UNL     1      25.585  66.484   4.905  1.00  0.00     0.000 C 
BRANCH  11  12
ATOM     12  C   UNL     1      25.857  65.700   6.201  1.00  0.00     0.000 C 
BRANCH  12  13
ATOM     13  C   UNL     1      25.458  64.211   6.119  1.00  0.00     0.006 C 
BRANCH  13  14
ATOM     14  C   UNL     1      24.509  63.801   7.253  1.00  0.00     0.053 C 
BRANCH  14  15
ATOM     15  C   UNL     1      23.126  63.586   6.725  1.00  0.00     0.041 C 
ATOM     16  O   UNL     1      22.550  62.478   6.891  1.00  0.00    -0.550 OA
ATOM     17  O   UNL     1      22.454  64.623   6.091  1.00  0.00    -0.550 OA
ENDBRANCH  14  15
ENDBRANCH  13  14
ENDBRANCH  12  13
ENDBRANCH  11  12
ENDBRANCH  10  11
ENDBRANCH   9  10
ENDBRANCH   8   9
ENDBRANCH   7   8
ENDBRANCH   6   7
ENDBRANCH   5   6
ENDBRANCH   4   5
ENDBRANCH   3   4
ENDBRANCH   2   3
ENDBRANCH   1   2
BRANCH   1  18
ATOM     18  C   UNL     1      27.745  61.904  10.363  1.00  0.00     0.000 C 
BRANCH  18  19
ATOM     19  C   UNL     1      28.480  60.566  10.564  1.00  0.00     0.000 C 
BRANCH  19  20
ATOM     20  C   UNL     1      29.935  60.764  11.019  1.00  0.00     0.000 C 
BRANCH  20  21
ATOM     21  C   UNL     1      30.850  61.219   9.870  1.00  0.00     0.000 C 
BRANCH  21  22
ATOM     22  C   UNL     1      31.700  62.450  10.233  1.00  0.00     0.000 C 
BRANCH  22  23
ATOM     23  C   UNL     1      31.131  63.800   9.748  1.00  0.00     0.000 C 
BRANCH  23  24
ATOM     24  C   UNL     1      30.529  64.691  10.851  1.00  0.00    -0.000 C 
BRANCH  24  25
ATOM     25  C   UNL     1      31.396  65.898  11.263  1.00  0.00    -0.000 C 
BRANCH  25  26
ATOM     26  C   UNL     1      30.624  67.211  11.483  1.00  0.00    -0.000 C 
BRANCH  26  27
ATOM     27  C   UNL     1      30.466  68.033  10.193  1.00  0.00    -0.000 C 
BRANCH  27  28
ATOM     28  C   UNL     1      29.090  68.715  10.082  1.00  0.00    -0.000 C 
BRANCH  28  29
ATOM     29  C   UNL     1      28.152  68.133   9.004  1.00  0.00    -0.000 C 
BRANCH  29  30
ATOM     30  C   UNL     1      28.037  66.595   8.993  1.00  0.00    -0.000 C 
BRANCH  30  31
ATOM     31  C   UNL     1      28.796  65.902   7.848  1.00  0.00    -0.003 C 
ATOM     32  C   UNL     1      29.397  66.888   6.850  1.00  0.00     0.004 C 
ENDBRANCH  30  31
ENDBRANCH  29  30
ENDBRANCH  28  29
ENDBRANCH  27  28
ENDBRANCH  26  27
ENDBRANCH  25  26
ENDBRANCH  24  25
ENDBRANCH  23  24
ENDBRANCH  22  23
ENDBRANCH  21  22
ENDBRANCH  20  21
ENDBRANCH  19  20
ENDBRANCH  18  19
ENDBRANCH   1  18
TORSDOF 28
ENDMDL
MODEL 8
REMARK VINA RESULT:    -4.734      1.173      2.042
REMARK INTER + INTRA:         -16.991
REMARK INTER:                 -13.354
REMARK INTRA:                  -3.636
REMARK UNBOUND:                -4.508
REMARK SMILES CCCCCCCCCCCCCCCCCCCCCCCCCCCCCC(=O)[O-]
REMARK SMILES IDX 16 1 17 2 18 3 19 4 20 5 21 6 22 7 23 8 24 9 25 10 26 11
REMARK SMILES IDX 27 12 28 13 29 14 30 15 31 16 32 17 15 18 14 19 13 20 12 21
REMARK SMILES IDX 11 22 10 23 9 24 8 25 7 26 6 27 5 28 4 29 3 30 2 31 1 32
REMARK H PARENT
REMARK Flexibility Score: inf
ROOT
ATOM      1  C   UNL     1      18.733  56.954  17.618  1.00  0.00     0.000 C 
ENDROOT
BRANCH   1   2
ATOM      2  C   UNL     1      18.339  56.948  16.130  1.00  0.00     0.000 C 
BRANCH   2   3
ATOM      3  C   UNL     1      16.867  56.550  15.916  1.00  0.00     0.000 C 
BRANCH   3   4
ATOM      4  C   UNL     1      15.871  57.700  16.162  1.00  0.00     0.000 C 
BRANCH   4   5
ATOM      5  C   UNL     1      14.613  57.240  16.919  1.00  0.00     0.000 C 
BRANCH   5   6
ATOM      6  C   UNL     1      14.699  55.761  17.350  1.00  0.00     0.000 C 
BRANCH   6   7
ATOM      7  C   UNL     1      14.871  55.563  18.865  1.00  0.00     0.000 C 
BRANCH   7   8
ATOM      8  C   UNL     1      16.237  54.965  19.238  1.00  0.00     0.000 C 
BRANCH   8   9
ATOM      9  C   UNL     1      16.146  53.480  19.623  1.00  0.00     0.000 C 
BRANCH   9  10
ATOM     10  C   UNL     1      17.495  52.755  19.493  1.00  0.00     0.000 C 
BRANCH  10  11
ATOM     11  C   UNL     1      18.603  53.726  19.061  1.00  0.00     0.000 C 
BRANCH  11  12
ATOM     12  C   UNL     1      19.509  53.148  17.959  1.00  0.00     0.000 C 
BRANCH  12  13
ATOM     13  C   UNL     1      18.799  52.980  16.599  1.00  0.00     0.006 C 
BRANCH  13  14
ATOM     14  C   UNL     1      19.793  52.778  15.447  1.00  0.00     0.053 C 
BRANCH  14  15
ATOM     15  C   UNL     1      19.623  53.848  14.416  1.00  0.00     0.041 C 
ATOM     16  O   UNL     1      20.630  54.438  13.943  1.00  0.00    -0.550 OA
ATOM     17  O   UNL     1      18.356  54.163  13.942  1.00  0.00    -0.550 OA
ENDBRANCH  14  15
ENDBRANCH  13  14
ENDBRANCH  12  13
ENDBRANCH  11  12
ENDBRANCH  10  11
ENDBRANCH   9  10
ENDBRANCH   8   9
ENDBRANCH   7   8
ENDBRANCH   6   7
ENDBRANCH   5   6
ENDBRANCH   4   5
ENDBRANCH   3   4
ENDBRANCH   2   3
ENDBRANCH   1   2
BRANCH   1  18
ATOM     18  C   UNL     1      20.254  56.959  17.824  1.00  0.00     0.000 C 
BRANCH  18  19
ATOM     19  C   UNL     1      21.032  56.702  16.521  1.00  0.00     0.000 C 
BRANCH  19  20
ATOM     20  C   UNL     1      22.167  55.682  16.712  1.00  0.00     0.000 C 
BRANCH  20  21
ATOM     21  C   UNL     1      23.548  56.275  16.387  1.00  0.00     0.000 C 
BRANCH  21  22
ATOM     22  C   UNL     1      24.705  55.320  16.728  1.00  0.00     0.000 C 
BRANCH  22  23
ATOM     23  C   UNL     1      26.108  55.835  16.347  1.00  0.00     0.000 C 
BRANCH  23  24
ATOM     24  C   UNL     1      27.229  55.481  17.344  1.00  0.00    -0.000 C 
BRANCH  24  25
ATOM     25  C   UNL     1      26.799  54.576  18.517  1.00  0.00    -0.000 C 
BRANCH  25  26
ATOM     26  C   UNL     1      27.011  55.178  19.917  1.00  0.00    -0.000 C 
BRANCH  26  27
ATOM     27  C   UNL     1      28.171  54.518  20.680  1.00  0.00    -0.000 C 
BRANCH  27  28
ATOM     28  C   UNL     1      29.487  55.312  20.574  1.00  0.00    -0.000 C 
BRANCH  28  29
ATOM     29  C   UNL     1      29.334  56.846  20.622  1.00  0.00    -0.000 C 
BRANCH  29  30
ATOM     30  C   UNL     1      29.670  57.581  19.308  1.00  0.00    -0.000 C 
BRANCH  30  31
ATOM     31  C   UNL     1      31.155  57.944  19.135  1.00  0.00    -0.003 C 
ATOM     32  C   UNL     1      31.942  56.880  18.372  1.00  0.00     0.004 C 
ENDBRANCH  30  31
ENDBRANCH  29  30
ENDBRANCH  28  29
ENDBRANCH  27  28
ENDBRANCH  26  27
ENDBRANCH  25  26
ENDBRANCH  24  25
ENDBRANCH  23  24
ENDBRANCH  22  23
ENDBRANCH  21  22
ENDBRANCH  20  21
ENDBRANCH  19  20
ENDBRANCH  18  19
ENDBRANCH   1  18
TORSDOF 28
ENDMDL
MODEL 9
REMARK VINA RESULT:    -4.712     12.445     16.223
REMARK INTER + INTRA:         -16.934
REMARK INTER:                 -10.888
REMARK INTRA:                  -6.046
REMARK UNBOUND:                -4.508
REMARK SMILES CCCCCCCCCCCCCCCCCCCCCCCCCCCCCC(=O)[O-]
REMARK SMILES IDX 16 1 17 2 18 3 19 4 20 5 21 6 22 7 23 8 24 9 25 10 26 11
REMARK SMILES IDX 27 12 28 13 29 14 30 15 31 16 32 17 15 18 14 19 13 20 12 21
REMARK SMILES IDX 11 22 10 23 9 24 8 25 7 26 6 27 5 28 4 29 3 30 2 31 1 32
REMARK H PARENT
REMARK Flexibility Score: inf
ROOT
ATOM      1  C   UNL     1      27.848  60.724  10.030  1.00  0.00     0.000 C 
ENDROOT
BRANCH   1   2
ATOM      2  C   UNL     1      27.551  62.221   9.824  1.00  0.00     0.000 C 
BRANCH   2   3
ATOM      3  C   UNL     1      27.493  62.606   8.334  1.00  0.00     0.000 C 
BRANCH   3   4
ATOM      4  C   UNL     1      26.566  61.704   7.496  1.00  0.00     0.000 C 
BRANCH   4   5
ATOM      5  C   UNL     1      27.342  60.826   6.498  1.00  0.00     0.000 C 
BRANCH   5   6
ATOM      6  C   UNL     1      28.493  61.594   5.816  1.00  0.00     0.000 C 
BRANCH   6   7
ATOM      7  C   UNL     1      28.116  62.201   4.454  1.00  0.00     0.000 C 
BRANCH   7   8
ATOM      8  C   UNL     1      28.562  63.664   4.308  1.00  0.00     0.000 C 
BRANCH   8   9
ATOM      9  C   UNL     1      29.444  64.132   5.477  1.00  0.00     0.000 C 
BRANCH   9  10
ATOM     10  C   UNL     1      28.854  65.347   6.210  1.00  0.00     0.000 C 
BRANCH  10  11
ATOM     11  C   UNL     1      27.799  66.053   5.346  1.00  0.00     0.000 C 
BRANCH  11  12
ATOM     12  C   UNL     1      26.493  66.335   6.108  1.00  0.00     0.000 C 
BRANCH  12  13
ATOM     13  C   UNL     1      25.244  65.711   5.449  1.00  0.00     0.006 C 
BRANCH  13  14
ATOM     14  C   UNL     1      24.983  64.280   5.940  1.00  0.00     0.053 C 
BRANCH  14  15
ATOM     15  C   UNL     1      23.745  64.233   6.778  1.00  0.00     0.041 C 
ATOM     16  O   UNL     1      23.826  64.018   8.016  1.00  0.00    -0.550 OA
ATOM     17  O   UNL     1      22.505  64.473   6.201  1.00  0.00    -0.550 OA
ENDBRANCH  14  15
ENDBRANCH  13  14
ENDBRANCH  12  13
ENDBRANCH  11  12
ENDBRANCH  10  11
ENDBRANCH   9  10
ENDBRANCH   8   9
ENDBRANCH   7   8
ENDBRANCH   6   7
ENDBRANCH   5   6
ENDBRANCH   4   5
ENDBRANCH   3   4
ENDBRANCH   2   3
ENDBRANCH   1   2
BRANCH   1  18
ATOM     18  C   UNL     1      29.155  60.484  10.800  1.00  0.00     0.000 C 
BRANCH  18  19
ATOM     19  C   UNL     1      30.103  61.697  10.755  1.00  0.00     0.000 C 
BRANCH  19  20
ATOM     20  C   UNL     1      31.349  61.430   9.895  1.00  0.00     0.000 C 
BRANCH  20  21
ATOM     21  C   UNL     1      31.077  61.623   8.395  1.00  0.00     0.000 C 
BRANCH  21  22
ATOM     22  C   UNL     1      31.864  62.799   7.788  1.00  0.00     0.000 C 
BRANCH  22  23
ATOM     23  C   UNL     1      32.386  63.829   8.810  1.00  0.00     0.000 C 
BRANCH  23  24
ATOM     24  C   UNL     1      32.280  65.301   8.369  1.00  0.00    -0.000 C 
BRANCH  24  25
ATOM     25  C   UNL     1      31.156  66.108   9.050  1.00  0.00    -0.000 C 
BRANCH  25  26
ATOM     26  C   UNL     1      30.240  65.294   9.982  1.00  0.00    -0.000 C 
BRANCH  26  27
ATOM     27  C   UNL     1      28.762  65.701   9.869  1.00  0.00    -0.000 C 
BRANCH  27  28
ATOM     28  C   UNL     1      28.531  67.201  10.137  1.00  0.00    -0.000 C 
BRANCH  28  29
ATOM     29  C   UNL     1      28.015  68.012   8.931  1.00  0.00    -0.000 C 
BRANCH  29  30
ATOM     30  C   UNL     1      28.965  69.119   8.429  1.00  0.00    -0.000 C 
BRANCH  30  31
ATOM     31  C   UNL     1      29.481  68.922   6.993  1.00  0.00    -0.003 C 
ATOM     32  C   UNL     1      30.066  70.198   6.391  1.00  0.00     0.004 C 
ENDBRANCH  30  31
ENDBRANCH  29  30
ENDBRANCH  28  29
ENDBRANCH  27  28
ENDBRANCH  26  27
ENDBRANCH  25  26
ENDBRANCH  24  25
ENDBRANCH  23  24
ENDBRANCH  22  23
ENDBRANCH  21  22
ENDBRANCH  20  21
ENDBRANCH  19  20
ENDBRANCH  18  19
ENDBRANCH   1  18
TORSDOF 28
ENDMDL
