MODEL 1
REMARK VINA RESULT:    -6.803      0.000      0.000
REMARK INTER + INTRA:          -8.590
REMARK INTER:                  -8.394
REMARK INTRA:                  -0.197
REMARK UNBOUND:                -0.197
REMARK SMILES O=c1c(O)c(-c2cc(O)c(O)c(O)c2)oc2cc(O)cc(O)c12
REMARK SMILES IDX 5 1 3 2 2 3 1 4 23 5 21 6 20 7 18 8 17 9 16 10 15 11 6 12
REMARK SMILES IDX 7 13 8 14 14 15 10 16 12 17 9 18 11 20 13 22 4 24 22 26
REMARK SMILES IDX 19 28
REMARK H PARENT 9 19 11 21 13 23 4 25 22 27 19 29
REMARK Flexibility Score: inf
ROOT
ATOM      1  C   UNL     1      23.889   2.610 103.003  1.00  0.00     0.180 A 
ATOM      2  C   UNL     1      23.582   1.237 102.944  1.00  0.00     0.208 A 
ATOM      3  C   UNL     1      24.633   0.310 102.848  1.00  0.00     0.238 A 
ATOM      4  O   UNL     1      24.369  -0.921 102.784  1.00  0.00    -0.285 OA
ATOM      5  C   UNL     1      25.967   0.768 102.832  1.00  0.00     0.111 A 
ATOM      6  C   UNL     1      27.081  -0.099 102.741  1.00  0.00     0.134 A 
ATOM      7  C   UNL     1      28.379   0.434 102.741  1.00  0.00     0.093 A 
ATOM      8  C   UNL     1      28.582   1.815 102.830  1.00  0.00     0.123 A 
ATOM      9  C   UNL     1      27.485   2.674 102.919  1.00  0.00     0.094 A 
ATOM     10  C   UNL     1      26.184   2.163 102.920  1.00  0.00     0.146 A 
ATOM     11  O   UNL     1      25.159   3.004 103.001  1.00  0.00    -0.452 OA
ENDROOT
BRANCH   1  12
ATOM     12  C   UNL     1      22.836   3.648 103.086  1.00  0.00     0.029 A 
ATOM     13  C   UNL     1      21.988   3.742 104.201  1.00  0.00     0.062 A 
ATOM     14  C   UNL     1      20.982   4.717 104.251  1.00  0.00     0.162 A 
ATOM     15  C   UNL     1      22.643   4.522 102.005  1.00  0.00     0.062 A 
ATOM     16  C   UNL     1      20.810   5.603 103.174  1.00  0.00     0.200 A 
ATOM     17  C   UNL     1      21.644   5.500 102.047  1.00  0.00     0.162 A 
BRANCH  14  18
ATOM     18  O   UNL     1      20.149   4.804 105.366  1.00  0.00    -0.504 OA
ATOM     19  H   UNL     1      19.263   5.293 105.331  1.00  0.00     0.293 HD
ENDBRANCH  14  18
BRANCH  16  20
ATOM     20  O   UNL     1      19.817   6.583 103.209  1.00  0.00    -0.502 OA
ATOM     21  H   UNL     1      18.992   6.537 102.625  1.00  0.00     0.293 HD
ENDBRANCH  16  20
BRANCH  17  22
ATOM     22  O   UNL     1      21.494   6.358 100.958  1.00  0.00    -0.504 OA
ATOM     23  H   UNL     1      20.672   6.337 100.365  1.00  0.00     0.293 HD
ENDBRANCH  17  22
ENDBRANCH   1  12
BRANCH   2  24
ATOM     24  O   UNL     1      22.255   0.806 103.012  1.00  0.00    -0.502 OA
ATOM     25  H   UNL     1      21.973  -0.130 102.747  1.00  0.00     0.293 HD
ENDBRANCH   2  24
BRANCH   6  26
ATOM     26  O   UNL     1      26.911  -1.481 102.651  1.00  0.00    -0.507 OA
ATOM     27  H   UNL     1      27.493  -2.125 103.174  1.00  0.00     0.293 HD
ENDBRANCH   6  26
BRANCH   8  28
ATOM     28  O   UNL     1      29.871   2.345 102.831  1.00  0.00    -0.508 OA
ATOM     29  H   UNL     1      30.142   3.077 103.477  1.00  0.00     0.293 HD
ENDBRANCH   8  28
TORSDOF 7
ENDMDL
MODEL 2
REMARK VINA RESULT:    -6.790      0.079      1.757
REMARK INTER + INTRA:          -8.574
REMARK INTER:                  -8.377
REMARK INTRA:                  -0.197
REMARK UNBOUND:                -0.197
REMARK SMILES O=c1c(O)c(-c2cc(O)c(O)c(O)c2)oc2cc(O)cc(O)c12
REMARK SMILES IDX 5 1 3 2 2 3 1 4 23 5 21 6 20 7 18 8 17 9 16 10 15 11 6 12
REMARK SMILES IDX 7 13 8 14 14 15 10 16 12 17 9 18 11 20 13 22 4 24 22 26
REMARK SMILES IDX 19 28
REMARK H PARENT 9 19 11 21 13 23 4 25 22 27 19 29
REMARK Flexibility Score: inf
ROOT
ATOM      1  C   UNL     1      23.873   2.622 102.976  1.00  0.00     0.180 A 
ATOM      2  C   UNL     1      23.576   1.245 102.956  1.00  0.00     0.208 A 
ATOM      3  C   UNL     1      24.634   0.324 102.910  1.00  0.00     0.238 A 
ATOM      4  O   UNL     1      24.380  -0.911 102.881  1.00  0.00    -0.285 OA
ATOM      5  C   UNL     1      25.965   0.790 102.904  1.00  0.00     0.111 A 
ATOM      6  C   UNL     1      27.087  -0.072 102.862  1.00  0.00     0.134 A 
ATOM      7  C   UNL     1      28.381   0.470 102.868  1.00  0.00     0.093 A 
ATOM      8  C   UNL     1      28.573   1.856 102.916  1.00  0.00     0.123 A 
ATOM      9  C   UNL     1      27.469   2.709 102.957  1.00  0.00     0.094 A 
ATOM     10  C   UNL     1      26.172   2.189 102.950  1.00  0.00     0.146 A 
ATOM     11  O   UNL     1      25.139   3.024 102.984  1.00  0.00    -0.452 OA
ENDROOT
BRANCH   1  12
ATOM     12  C   UNL     1      22.812   3.654 103.005  1.00  0.00     0.029 A 
ATOM     13  C   UNL     1      22.644   4.561 101.945  1.00  0.00     0.062 A 
ATOM     14  C   UNL     1      21.649   5.546 102.002  1.00  0.00     0.162 A 
ATOM     15  C   UNL     1      21.992   3.769 104.139  1.00  0.00     0.062 A 
ATOM     16  C   UNL     1      20.818   5.640 103.131  1.00  0.00     0.200 A 
ATOM     17  C   UNL     1      20.995   4.748 104.203  1.00  0.00     0.162 A 
BRANCH  14  18
ATOM     18  O   UNL     1      21.488   6.437 100.941  1.00  0.00    -0.504 OA
ATOM     19  H   UNL     1      22.056   6.377 100.106  1.00  0.00     0.293 HD
ENDBRANCH  14  18
BRANCH  16  20
ATOM     20  O   UNL     1      19.819   6.612 103.202  1.00  0.00    -0.502 OA
ATOM     21  H   UNL     1      19.650   7.154 104.040  1.00  0.00     0.293 HD
ENDBRANCH  16  20
BRANCH  17  22
ATOM     22  O   UNL     1      20.193   4.820 105.341  1.00  0.00    -0.504 OA
ATOM     23  H   UNL     1      19.207   4.585 105.321  1.00  0.00     0.293 HD
ENDBRANCH  17  22
ENDBRANCH   1  12
BRANCH   2  24
ATOM     24  O   UNL     1      22.250   0.807 103.013  1.00  0.00    -0.502 OA
ATOM     25  H   UNL     1      21.754   0.691 103.887  1.00  0.00     0.293 HD
ENDBRANCH   2  24
BRANCH   6  26
ATOM     26  O   UNL     1      26.928  -1.457 102.814  1.00  0.00    -0.507 OA
ATOM     27  H   UNL     1      27.116  -1.987 101.972  1.00  0.00     0.293 HD
ENDBRANCH   6  26
BRANCH   8  28
ATOM     28  O   UNL     1      29.858   2.394 102.924  1.00  0.00    -0.508 OA
ATOM     29  H   UNL     1      30.553   2.095 103.596  1.00  0.00     0.293 HD
ENDBRANCH   8  28
TORSDOF 7
ENDMDL
MODEL 3
REMARK VINA RESULT:    -6.765      1.181      2.939
REMARK INTER + INTRA:          -8.543
REMARK INTER:                  -8.361
REMARK INTRA:                  -0.182
REMARK UNBOUND:                -0.197
REMARK SMILES O=c1c(O)c(-c2cc(O)c(O)c(O)c2)oc2cc(O)cc(O)c12
REMARK SMILES IDX 5 1 3 2 2 3 1 4 23 5 21 6 20 7 18 8 17 9 16 10 15 11 6 12
REMARK SMILES IDX 7 13 8 14 14 15 10 16 12 17 9 18 11 20 13 22 4 24 22 26
REMARK SMILES IDX 19 28
REMARK H PARENT 9 19 11 21 13 23 4 25 22 27 19 29
REMARK Flexibility Score: inf
ROOT
ATOM      1  C   UNL     1      23.878   2.647 102.995  1.00  0.00     0.180 A 
ATOM      2  C   UNL     1      25.246   2.975 102.955  1.00  0.00     0.208 A 
ATOM      3  C   UNL     1      26.192   1.939 102.898  1.00  0.00     0.238 A 
ATOM      4  O   UNL     1      27.421   2.221 102.874  1.00  0.00    -0.285 OA
ATOM      5  C   UNL     1      25.755   0.598 102.863  1.00  0.00     0.111 A 
ATOM      6  C   UNL     1      26.642  -0.503 102.801  1.00  0.00     0.134 A 
ATOM      7  C   UNL     1      26.129  -1.808 102.759  1.00  0.00     0.093 A 
ATOM      8  C   UNL     1      24.747  -2.031 102.776  1.00  0.00     0.123 A 
ATOM      9  C   UNL     1      23.869  -0.948 102.837  1.00  0.00     0.094 A 
ATOM     10  C   UNL     1      24.361   0.360 102.881  1.00  0.00     0.146 A 
ATOM     11  O   UNL     1      23.503   1.372 102.944  1.00  0.00    -0.452 OA
ENDROOT
BRANCH   1  12
ATOM     12  C   UNL     1      22.822   3.682 103.074  1.00  0.00     0.029 A 
ATOM     13  C   UNL     1      21.953   3.758 104.175  1.00  0.00     0.062 A 
ATOM     14  C   UNL     1      20.945   4.730 104.221  1.00  0.00     0.162 A 
ATOM     15  C   UNL     1      22.647   4.572 102.003  1.00  0.00     0.062 A 
ATOM     16  C   UNL     1      20.792   5.632 103.155  1.00  0.00     0.200 A 
ATOM     17  C   UNL     1      21.646   5.548 102.042  1.00  0.00     0.162 A 
BRANCH  14  18
ATOM     18  O   UNL     1      20.092   4.800 105.323  1.00  0.00    -0.504 OA
ATOM     19  H   UNL     1      20.025   5.634 105.892  1.00  0.00     0.293 HD
ENDBRANCH  14  18
BRANCH  16  20
ATOM     20  O   UNL     1      19.796   6.610 103.187  1.00  0.00    -0.502 OA
ATOM     21  H   UNL     1      19.644   7.252 102.419  1.00  0.00     0.293 HD
ENDBRANCH  16  20
BRANCH  17  22
ATOM     22  O   UNL     1      21.514   6.422 100.963  1.00  0.00    -0.504 OA
ATOM     23  H   UNL     1      21.219   6.106 100.047  1.00  0.00     0.293 HD
ENDBRANCH  17  22
ENDBRANCH   1  12
BRANCH   2  24
ATOM     24  O   UNL     1      25.652   4.312 102.942  1.00  0.00    -0.502 OA
ATOM     25  H   UNL     1      25.934   4.786 102.093  1.00  0.00     0.293 HD
ENDBRANCH   2  24
BRANCH   6  26
ATOM     26  O   UNL     1      28.024  -0.313 102.783  1.00  0.00    -0.507 OA
ATOM     27  H   UNL     1      28.514   0.116 103.559  1.00  0.00     0.293 HD
ENDBRANCH   6  26
BRANCH   8  28
ATOM     28  O   UNL     1      24.237  -3.327 102.733  1.00  0.00    -0.508 OA
ATOM     29  H   UNL     1      23.318  -3.546 103.096  1.00  0.00     0.293 HD
ENDBRANCH   8  28
TORSDOF 7
ENDMDL
MODEL 4
REMARK VINA RESULT:    -6.760      1.184      3.418
REMARK INTER + INTRA:          -8.537
REMARK INTER:                  -8.337
REMARK INTRA:                  -0.200
REMARK UNBOUND:                -0.197
REMARK SMILES O=c1c(O)c(-c2cc(O)c(O)c(O)c2)oc2cc(O)cc(O)c12
REMARK SMILES IDX 5 1 3 2 2 3 1 4 23 5 21 6 20 7 18 8 17 9 16 10 15 11 6 12
REMARK SMILES IDX 7 13 8 14 14 15 10 16 12 17 9 18 11 20 13 22 4 24 22 26
REMARK SMILES IDX 19 28
REMARK H PARENT 9 19 11 21 13 23 4 25 22 27 19 29
REMARK Flexibility Score: inf
ROOT
ATOM      1  C   UNL     1      23.878   2.623 102.964  1.00  0.00     0.180 A 
ATOM      2  C   UNL     1      25.244   2.964 102.952  1.00  0.00     0.208 A 
ATOM      3  C   UNL     1      26.200   1.936 102.941  1.00  0.00     0.238 A 
ATOM      4  O   UNL     1      27.427   2.229 102.942  1.00  0.00    -0.285 OA
ATOM      5  C   UNL     1      25.777   0.590 102.924  1.00  0.00     0.111 A 
ATOM      6  C   UNL     1      26.675  -0.503 102.909  1.00  0.00     0.134 A 
ATOM      7  C   UNL     1      26.175  -1.814 102.882  1.00  0.00     0.093 A 
ATOM      8  C   UNL     1      24.796  -2.049 102.869  1.00  0.00     0.123 A 
ATOM      9  C   UNL     1      23.907  -0.974 102.885  1.00  0.00     0.094 A 
ATOM     10  C   UNL     1      24.385   0.340 102.913  1.00  0.00     0.146 A 
ATOM     11  O   UNL     1      23.516   1.344 102.932  1.00  0.00    -0.452 OA
ENDROOT
BRANCH   1  12
ATOM     12  C   UNL     1      22.812   3.650 102.995  1.00  0.00     0.029 A 
ATOM     13  C   UNL     1      22.624   4.541 101.926  1.00  0.00     0.062 A 
ATOM     14  C   UNL     1      21.623   5.521 101.983  1.00  0.00     0.162 A 
ATOM     15  C   UNL     1      22.007   3.774 104.137  1.00  0.00     0.062 A 
ATOM     16  C   UNL     1      20.807   5.624 103.122  1.00  0.00     0.200 A 
ATOM     17  C   UNL     1      21.004   4.747 104.203  1.00  0.00     0.162 A 
BRANCH  14  18
ATOM     18  O   UNL     1      21.442   6.397 100.913  1.00  0.00    -0.504 OA
ATOM     19  H   UNL     1      21.871   7.314 100.898  1.00  0.00     0.293 HD
ENDBRANCH  14  18
BRANCH  16  20
ATOM     20  O   UNL     1      19.803   6.591 103.193  1.00  0.00    -0.502 OA
ATOM     21  H   UNL     1      19.530   7.023 104.067  1.00  0.00     0.293 HD
ENDBRANCH  16  20
BRANCH  17  22
ATOM     22  O   UNL     1      20.217   4.829 105.351  1.00  0.00    -0.504 OA
ATOM     23  H   UNL     1      20.562   4.549 106.261  1.00  0.00     0.293 HD
ENDBRANCH  17  22
ENDBRANCH   1  12
BRANCH   2  24
ATOM     24  O   UNL     1      25.638   4.304 102.920  1.00  0.00    -0.502 OA
ATOM     25  H   UNL     1      26.416   4.629 102.359  1.00  0.00     0.293 HD
ENDBRANCH   2  24
BRANCH   6  26
ATOM     26  O   UNL     1      28.056  -0.300 102.921  1.00  0.00    -0.507 OA
ATOM     27  H   UNL     1      28.659  -0.696 102.210  1.00  0.00     0.293 HD
ENDBRANCH   6  26
BRANCH   8  28
ATOM     28  O   UNL     1      24.299  -3.351 102.841  1.00  0.00    -0.508 OA
ATOM     29  H   UNL     1      24.202  -3.862 101.972  1.00  0.00     0.293 HD
ENDBRANCH   8  28
TORSDOF 7
ENDMDL
MODEL 5
REMARK VINA RESULT:    -6.357      1.177      3.289
REMARK INTER + INTRA:          -8.040
REMARK INTER:                  -7.691
REMARK INTRA:                  -0.349
REMARK UNBOUND:                -0.197
REMARK SMILES O=c1c(O)c(-c2cc(O)c(O)c(O)c2)oc2cc(O)cc(O)c12
REMARK SMILES IDX 5 1 3 2 2 3 1 4 23 5 21 6 20 7 18 8 17 9 16 10 15 11 6 12
REMARK SMILES IDX 7 13 8 14 14 15 10 16 12 17 9 18 11 20 13 22 4 24 22 26
REMARK SMILES IDX 19 28
REMARK H PARENT 9 19 11 21 13 23 4 25 22 27 19 29
REMARK Flexibility Score: inf
ROOT
ATOM      1  C   UNL     1      24.620   3.353 103.141  1.00  0.00     0.180 A 
ATOM      2  C   UNL     1      25.826   3.929 103.583  1.00  0.00     0.208 A 
ATOM      3  C   UNL     1      26.975   3.126 103.655  1.00  0.00     0.238 A 
ATOM      4  O   UNL     1      28.059   3.628 104.060  1.00  0.00    -0.285 OA
ATOM      5  C   UNL     1      26.904   1.772 103.268  1.00  0.00     0.111 A 
ATOM      6  C   UNL     1      28.016   0.896 103.307  1.00  0.00     0.134 A 
ATOM      7  C   UNL     1      27.867  -0.437 102.896  1.00  0.00     0.093 A 
ATOM      8  C   UNL     1      26.629  -0.908 102.446  1.00  0.00     0.123 A 
ATOM      9  C   UNL     1      25.530  -0.049 102.406  1.00  0.00     0.094 A 
ATOM     10  C   UNL     1      25.657   1.282 102.813  1.00  0.00     0.146 A 
ATOM     11  O   UNL     1      24.594   2.077 102.769  1.00  0.00    -0.452 OA
ENDROOT
BRANCH   1  12
ATOM     12  C   UNL     1      23.362   4.130 103.055  1.00  0.00     0.029 A 
ATOM     13  C   UNL     1      23.067   4.924 101.934  1.00  0.00     0.062 A 
ATOM     14  C   UNL     1      21.882   5.671 101.882  1.00  0.00     0.162 A 
ATOM     15  C   UNL     1      22.470   4.120 104.139  1.00  0.00     0.062 A 
ATOM     16  C   UNL     1      20.984   5.637 102.962  1.00  0.00     0.200 A 
ATOM     17  C   UNL     1      21.284   4.860 104.094  1.00  0.00     0.162 A 
BRANCH  14  18
ATOM     18  O   UNL     1      21.598   6.451 100.762  1.00  0.00    -0.504 OA
ATOM     19  H   UNL     1      20.757   7.011 100.703  1.00  0.00     0.293 HD
ENDBRANCH  14  18
BRANCH  16  20
ATOM     20  O   UNL     1      19.797   6.371 102.924  1.00  0.00    -0.502 OA
ATOM     21  H   UNL     1      18.895   5.932 102.789  1.00  0.00     0.293 HD
ENDBRANCH  16  20
BRANCH  17  22
ATOM     22  O   UNL     1      20.418   4.812 105.186  1.00  0.00    -0.504 OA
ATOM     23  H   UNL     1      19.651   4.151 105.236  1.00  0.00     0.293 HD
ENDBRANCH  17  22
ENDBRANCH   1  12
BRANCH   2  24
ATOM     24  O   UNL     1      25.882   5.286 103.914  1.00  0.00    -0.502 OA
ATOM     25  H   UNL     1      26.749   5.809 103.918  1.00  0.00     0.293 HD
ENDBRANCH   2  24
BRANCH   6  26
ATOM     26  O   UNL     1      29.263   1.338 103.751  1.00  0.00    -0.507 OA
ATOM     27  H   UNL     1      30.028   0.695 103.917  1.00  0.00     0.293 HD
ENDBRANCH   6  26
BRANCH   8  28
ATOM     28  O   UNL     1      26.480  -2.232 102.036  1.00  0.00    -0.508 OA
ATOM     29  H   UNL     1      26.833  -2.552 101.142  1.00  0.00     0.293 HD
ENDBRANCH   8  28
TORSDOF 7
ENDMDL
MODEL 6
REMARK VINA RESULT:    -6.311      1.142      2.769
REMARK INTER + INTRA:          -7.984
REMARK INTER:                  -7.645
REMARK INTRA:                  -0.339
REMARK UNBOUND:                -0.197
REMARK SMILES O=c1c(O)c(-c2cc(O)c(O)c(O)c2)oc2cc(O)cc(O)c12
REMARK SMILES IDX 5 1 3 2 2 3 1 4 23 5 21 6 20 7 18 8 17 9 16 10 15 11 6 12
REMARK SMILES IDX 7 13 8 14 14 15 10 16 12 17 9 18 11 20 13 22 4 24 22 26
REMARK SMILES IDX 19 28
REMARK H PARENT 9 19 11 21 13 23 4 25 22 27 19 29
REMARK Flexibility Score: inf
ROOT
ATOM      1  C   UNL     1      24.538   3.240 103.136  1.00  0.00     0.180 A 
ATOM      2  C   UNL     1      25.790   3.770 103.503  1.00  0.00     0.208 A 
ATOM      3  C   UNL     1      26.910   2.924 103.507  1.00  0.00     0.238 A 
ATOM      4  O   UNL     1      28.035   3.385 103.845  1.00  0.00    -0.285 OA
ATOM      5  C   UNL     1      26.765   1.574 103.127  1.00  0.00     0.111 A 
ATOM      6  C   UNL     1      27.844   0.657 103.099  1.00  0.00     0.134 A 
ATOM      7  C   UNL     1      27.620  -0.669 102.700  1.00  0.00     0.093 A 
ATOM      8  C   UNL     1      26.340  -1.093 102.326  1.00  0.00     0.123 A 
ATOM      9  C   UNL     1      25.273  -0.193 102.352  1.00  0.00     0.094 A 
ATOM     10  C   UNL     1      25.475   1.132 102.749  1.00  0.00     0.146 A 
ATOM     11  O   UNL     1      24.442   1.966 102.769  1.00  0.00    -0.452 OA
ENDROOT
BRANCH   1  12
ATOM     12  C   UNL     1      23.308   4.064 103.126  1.00  0.00     0.029 A 
ATOM     13  C   UNL     1      22.391   4.022 104.190  1.00  0.00     0.062 A 
ATOM     14  C   UNL     1      21.220   4.792 104.151  1.00  0.00     0.162 A 
ATOM     15  C   UNL     1      23.021   4.861 102.008  1.00  0.00     0.062 A 
ATOM     16  C   UNL     1      20.951   5.605 103.037  1.00  0.00     0.200 A 
ATOM     17  C   UNL     1      21.856   5.635 101.962  1.00  0.00     0.162 A 
BRANCH  14  18
ATOM     18  O   UNL     1      20.320   4.746 105.216  1.00  0.00    -0.504 OA
ATOM     19  H   UNL     1      19.460   5.281 105.208  1.00  0.00     0.293 HD
ENDBRANCH  14  18
BRANCH  16  20
ATOM     20  O   UNL     1      19.792   6.381 102.985  1.00  0.00    -0.502 OA
ATOM     21  H   UNL     1      19.450   6.896 103.787  1.00  0.00     0.293 HD
ENDBRANCH  16  20
BRANCH  17  22
ATOM     22  O   UNL     1      21.614   6.424 100.838  1.00  0.00    -0.504 OA
ATOM     23  H   UNL     1      21.245   7.365 100.911  1.00  0.00     0.293 HD
ENDBRANCH  17  22
ENDBRANCH   1  12
BRANCH   2  24
ATOM     24  O   UNL     1      25.917   5.123 103.829  1.00  0.00    -0.502 OA
ATOM     25  H   UNL     1      25.655   5.863 103.189  1.00  0.00     0.293 HD
ENDBRANCH   2  24
BRANCH   6  26
ATOM     26  O   UNL     1      29.131   1.051 103.466  1.00  0.00    -0.507 OA
ATOM     27  H   UNL     1      29.327   1.985 103.806  1.00  0.00     0.293 HD
ENDBRANCH   6  26
BRANCH   8  28
ATOM     28  O   UNL     1      26.117  -2.410 101.928  1.00  0.00    -0.508 OA
ATOM     29  H   UNL     1      26.403  -2.742 101.015  1.00  0.00     0.293 HD
ENDBRANCH   8  28
TORSDOF 7
ENDMDL
MODEL 7
REMARK VINA RESULT:    -6.171      2.668      3.566
REMARK INTER + INTRA:          -7.811
REMARK INTER:                  -7.445
REMARK INTRA:                  -0.366
REMARK UNBOUND:                -0.197
REMARK SMILES O=c1c(O)c(-c2cc(O)c(O)c(O)c2)oc2cc(O)cc(O)c12
REMARK SMILES IDX 5 1 3 2 2 3 1 4 23 5 21 6 20 7 18 8 17 9 16 10 15 11 6 12
REMARK SMILES IDX 7 13 8 14 14 15 10 16 12 17 9 18 11 20 13 22 4 24 22 26
REMARK SMILES IDX 19 28
REMARK H PARENT 9 19 11 21 13 23 4 25 22 27 19 29
REMARK Flexibility Score: inf
ROOT
ATOM      1  C   UNL     1      22.839   0.551 103.049  1.00  0.00     0.180 A 
ATOM      2  C   UNL     1      22.321  -0.303 102.057  1.00  0.00     0.208 A 
ATOM      3  C   UNL     1      22.953  -1.534 101.823  1.00  0.00     0.238 A 
ATOM      4  O   UNL     1      22.505  -2.302 100.929  1.00  0.00    -0.285 OA
ATOM      5  C   UNL     1      24.076  -1.899 102.595  1.00  0.00     0.111 A 
ATOM      6  C   UNL     1      24.768  -3.122 102.426  1.00  0.00     0.134 A 
ATOM      7  C   UNL     1      25.872  -3.416 103.240  1.00  0.00     0.093 A 
ATOM      8  C   UNL     1      26.294  -2.511 104.220  1.00  0.00     0.123 A 
ATOM      9  C   UNL     1      25.615  -1.303 104.390  1.00  0.00     0.094 A 
ATOM     10  C   UNL     1      24.514  -0.991 103.588  1.00  0.00     0.146 A 
ATOM     11  O   UNL     1      23.890   0.168 103.768  1.00  0.00    -0.452 OA
ENDROOT
BRANCH   1  12
ATOM     12  C   UNL     1      22.239   1.873 103.341  1.00  0.00     0.029 A 
ATOM     13  C   UNL     1      22.606   3.019 102.615  1.00  0.00     0.062 A 
ATOM     14  C   UNL     1      22.044   4.266 102.922  1.00  0.00     0.162 A 
ATOM     15  C   UNL     1      21.328   1.998 104.401  1.00  0.00     0.062 A 
ATOM     16  C   UNL     1      21.115   4.378 103.970  1.00  0.00     0.200 A 
ATOM     17  C   UNL     1      20.760   3.238 104.712  1.00  0.00     0.162 A 
BRANCH  14  18
ATOM     18  O   UNL     1      22.411   5.395 102.191  1.00  0.00    -0.504 OA
ATOM     19  H   UNL     1      23.331   5.810 102.279  1.00  0.00     0.293 HD
ENDBRANCH  14  18
BRANCH  16  20
ATOM     20  O   UNL     1      20.542   5.611 104.285  1.00  0.00    -0.502 OA
ATOM     21  H   UNL     1      20.026   5.764 105.142  1.00  0.00     0.293 HD
ENDBRANCH  16  20
BRANCH  17  22
ATOM     22  O   UNL     1      19.848   3.317 105.763  1.00  0.00    -0.504 OA
ATOM     23  H   UNL     1      19.144   4.045 105.811  1.00  0.00     0.293 HD
ENDBRANCH  17  22
ENDBRANCH   1  12
BRANCH   2  24
ATOM     24  O   UNL     1      21.178   0.059 101.339  1.00  0.00    -0.502 OA
ATOM     25  H   UNL     1      20.294  -0.422 101.446  1.00  0.00     0.293 HD
ENDBRANCH   2  24
BRANCH   6  26
ATOM     26  O   UNL     1      24.370  -4.045 101.457  1.00  0.00    -0.507 OA
ATOM     27  H   UNL     1      24.035  -4.968 101.706  1.00  0.00     0.293 HD
ENDBRANCH   6  26
BRANCH   8  28
ATOM     28  O   UNL     1      27.390  -2.803 105.031  1.00  0.00    -0.508 OA
ATOM     29  H   UNL     1      28.194  -2.189 105.075  1.00  0.00     0.293 HD
ENDBRANCH   8  28
TORSDOF 7
ENDMDL
MODEL 8
REMARK VINA RESULT:    -5.944      6.994      9.352
REMARK INTER + INTRA:          -7.530
REMARK INTER:                  -7.173
REMARK INTRA:                  -0.357
REMARK UNBOUND:                -0.197
REMARK SMILES O=c1c(O)c(-c2cc(O)c(O)c(O)c2)oc2cc(O)cc(O)c12
REMARK SMILES IDX 5 1 3 2 2 3 1 4 23 5 21 6 20 7 18 8 17 9 16 10 15 11 6 12
REMARK SMILES IDX 7 13 8 14 14 15 10 16 12 17 9 18 11 20 13 22 4 24 22 26
REMARK SMILES IDX 19 28
REMARK H PARENT 9 19 11 21 13 23 4 25 22 27 19 29
REMARK Flexibility Score: inf
ROOT
ATOM      1  C   UNL     1      24.312  -4.713 101.434  1.00  0.00     0.180 A 
ATOM      2  C   UNL     1      23.042  -5.200 101.070  1.00  0.00     0.208 A 
ATOM      3  C   UNL     1      22.233  -5.789 102.055  1.00  0.00     0.238 A 
ATOM      4  O   UNL     1      21.099  -6.239 101.738  1.00  0.00    -0.285 OA
ATOM      5  C   UNL     1      22.697  -5.862 103.385  1.00  0.00     0.111 A 
ATOM      6  C   UNL     1      21.943  -6.435 104.437  1.00  0.00     0.134 A 
ATOM      7  C   UNL     1      22.470  -6.462 105.736  1.00  0.00     0.093 A 
ATOM      8  C   UNL     1      23.735  -5.926 106.003  1.00  0.00     0.123 A 
ATOM      9  C   UNL     1      24.482  -5.360 104.969  1.00  0.00     0.094 A 
ATOM     10  C   UNL     1      23.975  -5.325 103.666  1.00  0.00     0.146 A 
ATOM     11  O   UNL     1      24.709  -4.785 102.700  1.00  0.00    -0.452 OA
ENDROOT
BRANCH   1  12
ATOM     12  C   UNL     1      25.230  -4.096 100.449  1.00  0.00     0.029 A 
ATOM     13  C   UNL     1      25.227  -2.712 100.212  1.00  0.00     0.062 A 
ATOM     14  C   UNL     1      26.087  -2.150  99.259  1.00  0.00     0.162 A 
ATOM     15  C   UNL     1      26.082  -4.916  99.694  1.00  0.00     0.062 A 
ATOM     16  C   UNL     1      26.954  -2.976  98.523  1.00  0.00     0.200 A 
ATOM     17  C   UNL     1      26.946  -4.364  98.742  1.00  0.00     0.162 A 
BRANCH  14  18
ATOM     18  O   UNL     1      26.079  -0.773  99.037  1.00  0.00    -0.504 OA
ATOM     19  H   UNL     1      26.933  -0.231  99.030  1.00  0.00     0.293 HD
ENDBRANCH  14  18
BRANCH  16  20
ATOM     20  O   UNL     1      27.820  -2.432  97.573  1.00  0.00    -0.502 OA
ATOM     21  H   UNL     1      28.369  -3.010  96.949  1.00  0.00     0.293 HD
ENDBRANCH  16  20
BRANCH  17  22
ATOM     22  O   UNL     1      27.788  -5.212  98.023  1.00  0.00    -0.504 OA
ATOM     23  H   UNL     1      27.429  -5.915  97.387  1.00  0.00     0.293 HD
ENDBRANCH  17  22
ENDBRANCH   1  12
BRANCH   2  24
ATOM     24  O   UNL     1      22.586  -5.071  99.755  1.00  0.00    -0.502 OA
ATOM     25  H   UNL     1      21.914  -4.366  99.480  1.00  0.00     0.293 HD
ENDBRANCH   2  24
BRANCH   6  26
ATOM     26  O   UNL     1      20.678  -6.978 104.202  1.00  0.00    -0.507 OA
ATOM     27  H   UNL     1      20.289  -7.700 104.796  1.00  0.00     0.293 HD
ENDBRANCH   6  26
BRANCH   8  28
ATOM     28  O   UNL     1      24.258  -5.951 107.294  1.00  0.00    -0.508 OA
ATOM     29  H   UNL     1      24.831  -6.720 107.618  1.00  0.00     0.293 HD
ENDBRANCH   8  28
TORSDOF 7
ENDMDL
MODEL 9
REMARK VINA RESULT:    -5.749      5.149      7.506
REMARK INTER + INTRA:          -7.290
REMARK INTER:                  -7.448
REMARK INTRA:                   0.159
REMARK UNBOUND:                -0.197
REMARK SMILES O=c1c(O)c(-c2cc(O)c(O)c(O)c2)oc2cc(O)cc(O)c12
REMARK SMILES IDX 5 1 3 2 2 3 1 4 23 5 21 6 20 7 18 8 17 9 16 10 15 11 6 12
REMARK SMILES IDX 7 13 8 14 14 15 10 16 12 17 9 18 11 20 13 22 4 24 22 26
REMARK SMILES IDX 19 28
REMARK H PARENT 9 19 11 21 13 23 4 25 22 27 19 29
REMARK Flexibility Score: inf
ROOT
ATOM      1  C   UNL     1      29.700   2.064 102.858  1.00  0.00     0.180 A 
ATOM      2  C   UNL     1      30.777   2.124 101.954  1.00  0.00     0.208 A 
ATOM      3  C   UNL     1      31.823   3.026 102.203  1.00  0.00     0.238 A 
ATOM      4  O   UNL     1      32.788   3.096 101.394  1.00  0.00    -0.285 OA
ATOM      5  C   UNL     1      31.784   3.837 103.356  1.00  0.00     0.111 A 
ATOM      6  C   UNL     1      32.799   4.769 103.682  1.00  0.00     0.134 A 
ATOM      7  C   UNL     1      32.692   5.533 104.854  1.00  0.00     0.093 A 
ATOM      8  C   UNL     1      31.591   5.381 105.705  1.00  0.00     0.123 A 
ATOM      9  C   UNL     1      30.588   4.464 105.387  1.00  0.00     0.094 A 
ATOM     10  C   UNL     1      30.676   3.694 104.223  1.00  0.00     0.146 A 
ATOM     11  O   UNL     1      29.704   2.833 103.943  1.00  0.00    -0.452 OA
ENDROOT
BRANCH   1  12
ATOM     12  C   UNL     1      28.551   1.152 102.654  1.00  0.00     0.029 A 
ATOM     13  C   UNL     1      28.077   0.849 101.367  1.00  0.00     0.062 A 
ATOM     14  C   UNL     1      26.974   0.002 101.196  1.00  0.00     0.162 A 
ATOM     15  C   UNL     1      27.885   0.622 103.770  1.00  0.00     0.062 A 
ATOM     16  C   UNL     1      26.327  -0.543 102.318  1.00  0.00     0.200 A 
ATOM     17  C   UNL     1      26.785  -0.226 103.608  1.00  0.00     0.162 A 
BRANCH  14  18
ATOM     18  O   UNL     1      26.516  -0.296  99.913  1.00  0.00    -0.504 OA
ATOM     19  H   UNL     1      26.380   0.425  99.216  1.00  0.00     0.293 HD
ENDBRANCH  14  18
BRANCH  16  20
ATOM     20  O   UNL     1      25.230  -1.392 102.165  1.00  0.00    -0.502 OA
ATOM     21  H   UNL     1      25.069  -2.183 102.776  1.00  0.00     0.293 HD
ENDBRANCH  16  20
BRANCH  17  22
ATOM     22  O   UNL     1      26.159  -0.743 104.743  1.00  0.00    -0.504 OA
ATOM     23  H   UNL     1      26.228  -0.293 105.648  1.00  0.00     0.293 HD
ENDBRANCH  17  22
ENDBRANCH   1  12
BRANCH   2  24
ATOM     24  O   UNL     1      30.817   1.275 100.845  1.00  0.00    -0.502 OA
ATOM     25  H   UNL     1      31.662   0.799 100.554  1.00  0.00     0.293 HD
ENDBRANCH   2  24
BRANCH   6  26
ATOM     26  O   UNL     1      33.909   4.942 102.854  1.00  0.00    -0.507 OA
ATOM     27  H   UNL     1      33.813   5.230 101.887  1.00  0.00     0.293 HD
ENDBRANCH   6  26
BRANCH   8  28
ATOM     28  O   UNL     1      31.485   6.139 106.870  1.00  0.00    -0.508 OA
ATOM     29  H   UNL     1      31.668   5.737 107.781  1.00  0.00     0.293 HD
ENDBRANCH   8  28
TORSDOF 7
ENDMDL
