MODEL 1
REMARK VINA RESULT:    -3.683      0.000      0.000
REMARK INTER + INTRA:          -5.469
REMARK INTER:                  -4.975
REMARK INTRA:                  -0.494
REMARK UNBOUND:                -0.494
REMARK SMILES CCCCCCCC(=O)[O-]
REMARK SMILES IDX 5 1 6 2 7 3 8 4 9 5 10 6 4 7 3 8 2 9 1 10
REMARK H PARENT
REMARK Flexibility Score: inf
ROOT
ATOM      1  C   UNL     1     -36.445  81.329 -19.192  1.00  0.00     0.000 C 
ENDROOT
BRANCH   1   2
ATOM      2  C   UNL     1     -35.032  80.980 -19.684  1.00  0.00     0.006 C 
BRANCH   2   3
ATOM      3  C   UNL     1     -33.949  81.386 -18.676  1.00  0.00     0.053 C 
BRANCH   3   4
ATOM      4  C   UNL     1     -32.941  82.311 -19.285  1.00  0.00     0.041 C 
ATOM      5  O   UNL     1     -33.260  83.041 -20.261  1.00  0.00    -0.550 OA
ATOM      6  O   UNL     1     -31.659  82.392 -18.756  1.00  0.00    -0.550 OA
ENDBRANCH   3   4
ENDBRANCH   2   3
ENDBRANCH   1   2
BRANCH   1   7
ATOM      7  C   UNL     1     -36.391  82.157 -17.903  1.00  0.00     0.000 C 
BRANCH   7   8
ATOM      8  C   UNL     1     -36.899  83.586 -18.145  1.00  0.00    -0.000 C 
BRANCH   8   9
ATOM      9  C   UNL     1     -36.122  84.634 -17.334  1.00  0.00    -0.003 C 
ATOM     10  C   UNL     1     -35.031  85.325 -18.152  1.00  0.00     0.004 C 
ENDBRANCH   8   9
ENDBRANCH   7   8
ENDBRANCH   1   7
TORSDOF 6
ENDMDL
MODEL 2
REMARK VINA RESULT:    -3.628      1.924      4.001
REMARK INTER + INTRA:          -5.394
REMARK INTER:                  -5.030
REMARK INTRA:                  -0.364
REMARK UNBOUND:                -0.494
REMARK SMILES CCCCCCCC(=O)[O-]
REMARK SMILES IDX 5 1 6 2 7 3 8 4 9 5 10 6 4 7 3 8 2 9 1 10
REMARK H PARENT
REMARK Flexibility Score: inf
ROOT
ATOM      1  C   UNL     1     -36.031  82.126 -17.813  1.00  0.00     0.000 C 
ENDROOT
BRANCH   1   2
ATOM      2  C   UNL     1     -36.837  83.434 -17.803  1.00  0.00     0.006 C 
BRANCH   2   3
ATOM      3  C   UNL     1     -35.948  84.662 -17.572  1.00  0.00     0.053 C 
BRANCH   3   4
ATOM      4  C   UNL     1     -34.907  84.805 -18.639  1.00  0.00     0.041 C 
ATOM      5  O   UNL     1     -33.688  84.885 -18.329  1.00  0.00    -0.550 OA
ATOM      6  O   UNL     1     -35.277  84.815 -19.978  1.00  0.00    -0.550 OA
ENDBRANCH   3   4
ENDBRANCH   2   3
ENDBRANCH   1   2
BRANCH   1   7
ATOM      7  C   UNL     1     -36.325  81.308 -19.076  1.00  0.00     0.000 C 
BRANCH   7   8
ATOM      8  C   UNL     1     -37.699  81.670 -19.658  1.00  0.00    -0.000 C 
BRANCH   8   9
ATOM      9  C   UNL     1     -38.588  80.438 -19.885  1.00  0.00    -0.003 C 
ATOM     10  C   UNL     1     -38.440  79.850 -21.288  1.00  0.00     0.004 C 
ENDBRANCH   8   9
ENDBRANCH   7   8
ENDBRANCH   1   7
TORSDOF 6
ENDMDL
MODEL 3
REMARK VINA RESULT:    -3.495     12.047     13.227
REMARK INTER + INTRA:          -5.215
REMARK INTER:                  -4.691
REMARK INTRA:                  -0.524
REMARK UNBOUND:                -0.494
REMARK SMILES CCCCCCCC(=O)[O-]
REMARK SMILES IDX 5 1 6 2 7 3 8 4 9 5 10 6 4 7 3 8 2 9 1 10
REMARK H PARENT
REMARK Flexibility Score: inf
ROOT
ATOM      1  C   UNL     1     -22.402  82.118 -22.929  1.00  0.00     0.000 C 
ENDROOT
BRANCH   1   2
ATOM      2  C   UNL     1     -21.753  83.313 -23.644  1.00  0.00     0.006 C 
BRANCH   2   3
ATOM      3  C   UNL     1     -22.725  84.488 -23.810  1.00  0.00     0.053 C 
BRANCH   3   4
ATOM      4  C   UNL     1     -22.097  85.790 -23.414  1.00  0.00     0.041 C 
ATOM      5  O   UNL     1     -21.552  85.912 -22.285  1.00  0.00    -0.550 OA
ATOM      6  O   UNL     1     -22.085  86.857 -24.303  1.00  0.00    -0.550 OA
ENDBRANCH   3   4
ENDBRANCH   2   3
ENDBRANCH   1   2
BRANCH   1   7
ATOM      7  C   UNL     1     -23.716  82.526 -22.255  1.00  0.00     0.000 C 
BRANCH   7   8
ATOM      8  C   UNL     1     -23.628  82.358 -20.731  1.00  0.00    -0.000 C 
BRANCH   8   9
ATOM      9  C   UNL     1     -22.847  83.496 -20.055  1.00  0.00    -0.003 C 
ATOM     10  C   UNL     1     -21.478  83.051 -19.543  1.00  0.00     0.004 C 
ENDBRANCH   8   9
ENDBRANCH   7   8
ENDBRANCH   1   7
TORSDOF 6
ENDMDL
MODEL 4
REMARK VINA RESULT:    -3.455     17.532     19.105
REMARK INTER + INTRA:          -5.161
REMARK INTER:                  -4.777
REMARK INTRA:                  -0.384
REMARK UNBOUND:                -0.494
REMARK SMILES CCCCCCCC(=O)[O-]
REMARK SMILES IDX 5 1 6 2 7 3 8 4 9 5 10 6 4 7 3 8 2 9 1 10
REMARK H PARENT
REMARK Flexibility Score: inf
ROOT
ATOM      1  C   UNL     1     -24.404  96.349 -29.592  1.00  0.00     0.000 C 
ENDROOT
BRANCH   1   2
ATOM      2  C   UNL     1     -24.939  95.959 -28.206  1.00  0.00     0.006 C 
BRANCH   2   3
ATOM      3  C   UNL     1     -25.776  94.674 -28.246  1.00  0.00     0.053 C 
BRANCH   3   4
ATOM      4  C   UNL     1     -26.294  94.304 -26.890  1.00  0.00     0.041 C 
ATOM      5  O   UNL     1     -26.407  95.183 -25.994  1.00  0.00    -0.550 OA
ATOM      6  O   UNL     1     -26.682  92.997 -26.624  1.00  0.00    -0.550 OA
ENDBRANCH   3   4
ENDBRANCH   2   3
ENDBRANCH   1   2
BRANCH   1   7
ATOM      7  C   UNL     1     -24.743  95.278 -30.635  1.00  0.00     0.000 C 
BRANCH   7   8
ATOM      8  C   UNL     1     -23.613  95.137 -31.665  1.00  0.00    -0.000 C 
BRANCH   8   9
ATOM      9  C   UNL     1     -23.164  93.679 -31.853  1.00  0.00    -0.003 C 
ATOM     10  C   UNL     1     -23.775  92.734 -30.818  1.00  0.00     0.004 C 
ENDBRANCH   8   9
ENDBRANCH   7   8
ENDBRANCH   1   7
TORSDOF 6
ENDMDL
MODEL 5
REMARK VINA RESULT:    -3.422      2.421      3.702
REMARK INTER + INTRA:          -5.116
REMARK INTER:                  -4.662
REMARK INTRA:                  -0.455
REMARK UNBOUND:                -0.494
REMARK SMILES CCCCCCCC(=O)[O-]
REMARK SMILES IDX 5 1 6 2 7 3 8 4 9 5 10 6 4 7 3 8 2 9 1 10
REMARK H PARENT
REMARK Flexibility Score: inf
ROOT
ATOM      1  C   UNL     1     -36.753  81.892 -18.652  1.00  0.00     0.000 C 
ENDROOT
BRANCH   1   2
ATOM      2  C   UNL     1     -37.131  83.369 -18.465  1.00  0.00     0.006 C 
BRANCH   2   3
ATOM      3  C   UNL     1     -36.128  84.119 -17.579  1.00  0.00     0.053 C 
BRANCH   3   4
ATOM      4  C   UNL     1     -35.102  84.846 -18.393  1.00  0.00     0.041 C 
ATOM      5  O   UNL     1     -34.162  85.461 -17.822  1.00  0.00    -0.550 OA
ATOM      6  O   UNL     1     -35.163  84.817 -19.780  1.00  0.00    -0.550 OA
ENDBRANCH   3   4
ENDBRANCH   2   3
ENDBRANCH   1   2
BRANCH   1   7
ATOM      7  C   UNL     1     -36.553  81.558 -20.134  1.00  0.00     0.000 C 
BRANCH   7   8
ATOM      8  C   UNL     1     -37.616  82.248 -21.002  1.00  0.00    -0.000 C 
BRANCH   8   9
ATOM      9  C   UNL     1     -37.002  83.083 -22.136  1.00  0.00    -0.003 C 
ATOM     10  C   UNL     1     -37.716  84.419 -22.341  1.00  0.00     0.004 C 
ENDBRANCH   8   9
ENDBRANCH   7   8
ENDBRANCH   1   7
TORSDOF 6
ENDMDL
MODEL 6
REMARK VINA RESULT:    -3.420     12.665     13.837
REMARK INTER + INTRA:          -5.114
REMARK INTER:                  -4.730
REMARK INTRA:                  -0.383
REMARK UNBOUND:                -0.494
REMARK SMILES CCCCCCCC(=O)[O-]
REMARK SMILES IDX 5 1 6 2 7 3 8 4 9 5 10 6 4 7 3 8 2 9 1 10
REMARK H PARENT
REMARK Flexibility Score: inf
ROOT
ATOM      1  C   UNL     1     -22.173  83.724 -23.590  1.00  0.00     0.000 C 
ENDROOT
BRANCH   1   2
ATOM      2  C   UNL     1     -22.848  85.090 -23.395  1.00  0.00     0.006 C 
BRANCH   2   3
ATOM      3  C   UNL     1     -21.858  86.253 -23.535  1.00  0.00     0.053 C 
BRANCH   3   4
ATOM      4  C   UNL     1     -22.327  87.266 -24.534  1.00  0.00     0.041 C 
ATOM      5  O   UNL     1     -23.134  86.933 -25.442  1.00  0.00    -0.550 OA
ATOM      6  O   UNL     1     -21.900  88.585 -24.443  1.00  0.00    -0.550 OA
ENDBRANCH   3   4
ENDBRANCH   2   3
ENDBRANCH   1   2
BRANCH   1   7
ATOM      7  C   UNL     1     -21.421  83.295 -22.326  1.00  0.00     0.000 C 
BRANCH   7   8
ATOM      8  C   UNL     1     -22.251  82.300 -21.503  1.00  0.00    -0.000 C 
BRANCH   8   9
ATOM      9  C   UNL     1     -22.786  82.913 -20.199  1.00  0.00    -0.003 C 
ATOM     10  C   UNL     1     -21.888  84.024 -19.656  1.00  0.00     0.004 C 
ENDBRANCH   8   9
ENDBRANCH   7   8
ENDBRANCH   1   7
TORSDOF 6
ENDMDL
MODEL 7
REMARK VINA RESULT:    -3.404     12.473     13.406
REMARK INTER + INTRA:          -5.092
REMARK INTER:                  -4.489
REMARK INTRA:                  -0.603
REMARK UNBOUND:                -0.494
REMARK SMILES CCCCCCCC(=O)[O-]
REMARK SMILES IDX 5 1 6 2 7 3 8 4 9 5 10 6 4 7 3 8 2 9 1 10
REMARK H PARENT
REMARK Flexibility Score: inf
ROOT
ATOM      1  C   UNL     1     -21.989  83.647 -23.659  1.00  0.00     0.000 C 
ENDROOT
BRANCH   1   2
ATOM      2  C   UNL     1     -21.869  82.145 -23.958  1.00  0.00     0.006 C 
BRANCH   2   3
ATOM      3  C   UNL     1     -22.972  81.326 -23.278  1.00  0.00     0.053 C 
BRANCH   3   4
ATOM      4  C   UNL     1     -22.413  80.363 -22.275  1.00  0.00     0.041 C 
ATOM      5  O   UNL     1     -23.174  79.554 -21.681  1.00  0.00    -0.550 OA
ATOM      6  O   UNL     1     -21.047  80.335 -22.022  1.00  0.00    -0.550 OA
ENDBRANCH   3   4
ENDBRANCH   2   3
ENDBRANCH   1   2
BRANCH   1   7
ATOM      7  C   UNL     1     -21.243  84.013 -22.371  1.00  0.00     0.000 C 
BRANCH   7   8
ATOM      8  C   UNL     1     -22.204  84.596 -21.325  1.00  0.00    -0.000 C 
BRANCH   8   9
ATOM      9  C   UNL     1     -22.672  83.547 -20.304  1.00  0.00    -0.003 C 
ATOM     10  C   UNL     1     -21.514  82.908 -19.539  1.00  0.00     0.004 C 
ENDBRANCH   8   9
ENDBRANCH   7   8
ENDBRANCH   1   7
TORSDOF 6
ENDMDL
MODEL 8
REMARK VINA RESULT:    -3.396      2.305      3.046
REMARK INTER + INTRA:          -5.082
REMARK INTER:                  -4.540
REMARK INTRA:                  -0.541
REMARK UNBOUND:                -0.494
REMARK SMILES CCCCCCCC(=O)[O-]
REMARK SMILES IDX 5 1 6 2 7 3 8 4 9 5 10 6 4 7 3 8 2 9 1 10
REMARK H PARENT
REMARK Flexibility Score: inf
ROOT
ATOM      1  C   UNL     1     -37.476  82.657 -19.490  1.00  0.00     0.000 C 
ENDROOT
BRANCH   1   2
ATOM      2  C   UNL     1     -37.177  82.357 -20.966  1.00  0.00     0.006 C 
BRANCH   2   3
ATOM      3  C   UNL     1     -37.034  83.635 -21.802  1.00  0.00     0.053 C 
BRANCH   3   4
ATOM      4  C   UNL     1     -35.695  84.278 -21.613  1.00  0.00     0.041 C 
ATOM      5  O   UNL     1     -34.679  83.569 -21.382  1.00  0.00    -0.550 OA
ATOM      6  O   UNL     1     -35.560  85.656 -21.724  1.00  0.00    -0.550 OA
ENDBRANCH   3   4
ENDBRANCH   2   3
ENDBRANCH   1   2
BRANCH   1   7
ATOM      7  C   UNL     1     -36.393  82.070 -18.578  1.00  0.00     0.000 C 
BRANCH   7   8
ATOM      8  C   UNL     1     -36.188  82.946 -17.333  1.00  0.00    -0.000 C 
BRANCH   8   9
ATOM      9  C   UNL     1     -36.306  84.447 -17.642  1.00  0.00    -0.003 C 
ATOM     10  C   UNL     1     -34.983  85.063 -18.097  1.00  0.00     0.004 C 
ENDBRANCH   8   9
ENDBRANCH   7   8
ENDBRANCH   1   7
TORSDOF 6
ENDMDL
MODEL 9
REMARK VINA RESULT:    -3.346     12.458     13.964
REMARK INTER + INTRA:          -5.013
REMARK INTER:                  -4.524
REMARK INTRA:                  -0.489
REMARK UNBOUND:                -0.494
REMARK SMILES CCCCCCCC(=O)[O-]
REMARK SMILES IDX 5 1 6 2 7 3 8 4 9 5 10 6 4 7 3 8 2 9 1 10
REMARK H PARENT
REMARK Flexibility Score: inf
ROOT
ATOM      1  C   UNL     1     -22.015  83.907 -23.611  1.00  0.00     0.000 C 
ENDROOT
BRANCH   1   2
ATOM      2  C   UNL     1     -21.355  84.102 -22.238  1.00  0.00     0.006 C 
BRANCH   2   3
ATOM      3  C   UNL     1     -22.384  84.342 -21.127  1.00  0.00     0.053 C 
BRANCH   3   4
ATOM      4  C   UNL     1     -22.439  83.198 -20.162  1.00  0.00     0.041 C 
ATOM      5  O   UNL     1     -21.419  82.886 -19.490  1.00  0.00    -0.550 OA
ATOM      6  O   UNL     1     -23.624  82.496 -19.978  1.00  0.00    -0.550 OA
ENDBRANCH   3   4
ENDBRANCH   2   3
ENDBRANCH   1   2
BRANCH   1   7
ATOM      7  C   UNL     1     -22.416  82.444 -23.827  1.00  0.00     0.000 C 
BRANCH   7   8
ATOM      8  C   UNL     1     -21.313  81.675 -24.569  1.00  0.00    -0.000 C 
BRANCH   8   9
ATOM      9  C   UNL     1     -20.584  80.669 -23.664  1.00  0.00    -0.003 C 
ATOM     10  C   UNL     1     -21.354  80.362 -22.379  1.00  0.00     0.004 C 
ENDBRANCH   8   9
ENDBRANCH   7   8
ENDBRANCH   1   7
TORSDOF 6
ENDMDL
