MODEL 1
REMARK VINA RESULT:    -4.890      0.000      0.000
REMARK INTER + INTRA:          -9.545
REMARK INTER:                  -8.320
REMARK INTRA:                  -1.224
REMARK UNBOUND:                -1.224
REMARK SMILES CCCCCCCCCCCCCC(=O)[O-]
REMARK SMILES IDX 8 1 9 2 10 3 11 4 12 5 13 6 14 7 15 8 16 9 7 10 6 11 5 12
REMARK SMILES IDX 4 13 3 14 2 15 1 16
REMARK H PARENT
REMARK Flexibility Score: inf
ROOT
ATOM      1  C   UNL     1      13.134  22.079  29.106  1.00  0.00     0.000 C 
ENDROOT
BRANCH   1   2
ATOM      2  C   UNL     1      13.503  20.595  28.924  1.00  0.00     0.000 C 
BRANCH   2   3
ATOM      3  C   UNL     1      12.307  19.649  29.131  1.00  0.00     0.000 C 
BRANCH   3   4
ATOM      4  C   UNL     1      10.956  20.363  28.916  1.00  0.00     0.000 C 
BRANCH   4   5
ATOM      5  C   UNL     1       9.951  20.134  30.057  1.00  0.00     0.006 C 
BRANCH   5   6
ATOM      6  C   UNL     1       9.987  21.241  31.118  1.00  0.00     0.053 C 
BRANCH   6   7
ATOM      7  C   UNL     1       9.157  22.407  30.684  1.00  0.00     0.041 C 
ATOM      8  O   UNL     1       9.532  23.581  30.940  1.00  0.00    -0.550 OA
ATOM      9  O   UNL     1       7.945  22.196  30.040  1.00  0.00    -0.550 OA
ENDBRANCH   6   7
ENDBRANCH   5   6
ENDBRANCH   4   5
ENDBRANCH   3   4
ENDBRANCH   2   3
ENDBRANCH   1   2
BRANCH   1  10
ATOM     10  C   UNL     1      13.922  22.817  30.202  1.00  0.00     0.000 C 
BRANCH  10  11
ATOM     11  C   UNL     1      15.409  23.001  29.849  1.00  0.00    -0.000 C 
BRANCH  11  12
ATOM     12  C   UNL     1      15.611  23.702  28.496  1.00  0.00    -0.000 C 
BRANCH  12  13
ATOM     13  C   UNL     1      16.904  23.258  27.789  1.00  0.00    -0.000 C 
BRANCH  13  14
ATOM     14  C   UNL     1      16.701  22.004  26.922  1.00  0.00    -0.000 C 
BRANCH  14  15
ATOM     15  C   UNL     1      15.499  22.128  25.974  1.00  0.00    -0.003 C 
ATOM     16  C   UNL     1      15.950  22.143  24.516  1.00  0.00     0.004 C 
ENDBRANCH  14  15
ENDBRANCH  13  14
ENDBRANCH  12  13
ENDBRANCH  11  12
ENDBRANCH  10  11
ENDBRANCH   1  10
TORSDOF 12
ENDMDL
MODEL 2
REMARK VINA RESULT:    -4.857      1.691      2.361
REMARK INTER + INTRA:          -9.488
REMARK INTER:                  -8.571
REMARK INTRA:                  -0.917
REMARK UNBOUND:                -1.224
REMARK SMILES CCCCCCCCCCCCCC(=O)[O-]
REMARK SMILES IDX 8 1 9 2 10 3 11 4 12 5 13 6 14 7 15 8 16 9 7 10 6 11 5 12
REMARK SMILES IDX 4 13 3 14 2 15 1 16
REMARK H PARENT
REMARK Flexibility Score: inf
ROOT
ATOM      1  C   UNL     1      13.230  22.474  29.677  1.00  0.00     0.000 C 
ENDROOT
BRANCH   1   2
ATOM      2  C   UNL     1      12.884  23.759  30.452  1.00  0.00     0.000 C 
BRANCH   2   3
ATOM      3  C   UNL     1      11.482  24.300  30.121  1.00  0.00     0.000 C 
BRANCH   3   4
ATOM      4  C   UNL     1      10.541  24.267  31.344  1.00  0.00     0.000 C 
BRANCH   4   5
ATOM      5  C   UNL     1      10.264  22.848  31.869  1.00  0.00     0.006 C 
BRANCH   5   6
ATOM      6  C   UNL     1       8.775  22.481  31.841  1.00  0.00     0.053 C 
BRANCH   6   7
ATOM      7  C   UNL     1       8.462  21.659  30.630  1.00  0.00     0.041 C 
ATOM      8  O   UNL     1       9.394  21.187  29.928  1.00  0.00    -0.550 OA
ATOM      9  O   UNL     1       7.142  21.456  30.251  1.00  0.00    -0.550 OA
ENDBRANCH   6   7
ENDBRANCH   5   6
ENDBRANCH   4   5
ENDBRANCH   3   4
ENDBRANCH   2   3
ENDBRANCH   1   2
BRANCH   1  10
ATOM     10  C   UNL     1      14.684  21.993  29.830  1.00  0.00     0.000 C 
BRANCH  10  11
ATOM     11  C   UNL     1      15.704  23.145  29.770  1.00  0.00    -0.000 C 
BRANCH  11  12
ATOM     12  C   UNL     1      16.864  22.856  28.804  1.00  0.00    -0.000 C 
BRANCH  12  13
ATOM     13  C   UNL     1      16.932  23.865  27.644  1.00  0.00    -0.000 C 
BRANCH  13  14
ATOM     14  C   UNL     1      15.800  23.667  26.623  1.00  0.00    -0.000 C 
BRANCH  14  15
ATOM     15  C   UNL     1      15.734  22.231  26.083  1.00  0.00    -0.003 C 
ATOM     16  C   UNL     1      15.994  22.198  24.579  1.00  0.00     0.004 C 
ENDBRANCH  14  15
ENDBRANCH  13  14
ENDBRANCH  12  13
ENDBRANCH  11  12
ENDBRANCH  10  11
ENDBRANCH   1  10
TORSDOF 12
ENDMDL
MODEL 3
REMARK VINA RESULT:    -4.799     22.516     23.881
REMARK INTER + INTRA:          -9.389
REMARK INTER:                  -7.466
REMARK INTRA:                  -1.923
REMARK UNBOUND:                -1.224
REMARK SMILES CCCCCCCCCCCCCC(=O)[O-]
REMARK SMILES IDX 8 1 9 2 10 3 11 4 12 5 13 6 14 7 15 8 16 9 7 10 6 11 5 12
REMARK SMILES IDX 4 13 3 14 2 15 1 16
REMARK H PARENT
REMARK Flexibility Score: inf
ROOT
ATOM      1  C   UNL     1       0.858  35.056  13.410  1.00  0.00     0.000 C 
ENDROOT
BRANCH   1   2
ATOM      2  C   UNL     1       0.542  35.098  14.916  1.00  0.00     0.000 C 
BRANCH   2   3
ATOM      3  C   UNL     1       1.795  35.295  15.787  1.00  0.00     0.000 C 
BRANCH   3   4
ATOM      4  C   UNL     1       3.080  35.414  14.941  1.00  0.00     0.000 C 
BRANCH   4   5
ATOM      5  C   UNL     1       4.314  35.839  15.754  1.00  0.00     0.006 C 
BRANCH   5   6
ATOM      6  C   UNL     1       4.640  37.331  15.611  1.00  0.00     0.053 C 
BRANCH   6   7
ATOM      7  C   UNL     1       6.109  37.564  15.775  1.00  0.00     0.041 C 
ATOM      8  O   UNL     1       6.736  37.008  16.714  1.00  0.00    -0.550 OA
ATOM      9  O   UNL     1       6.774  38.433  14.920  1.00  0.00    -0.550 OA
ENDBRANCH   6   7
ENDBRANCH   5   6
ENDBRANCH   4   5
ENDBRANCH   3   4
ENDBRANCH   2   3
ENDBRANCH   1   2
BRANCH   1  10
ATOM     10  C   UNL     1      -0.112  35.852  12.518  1.00  0.00     0.000 C 
BRANCH  10  11
ATOM     11  C   UNL     1       0.487  37.179  12.018  1.00  0.00    -0.000 C 
BRANCH  11  12
ATOM     12  C   UNL     1       1.951  37.364  12.450  1.00  0.00    -0.000 C 
BRANCH  12  13
ATOM     13  C   UNL     1       2.160  38.636  13.290  1.00  0.00    -0.000 C 
BRANCH  13  14
ATOM     14  C   UNL     1       0.906  39.030  14.087  1.00  0.00    -0.000 C 
BRANCH  14  15
ATOM     15  C   UNL     1       1.116  38.941  15.606  1.00  0.00    -0.003 C 
ATOM     16  C   UNL     1      -0.161  38.494  16.312  1.00  0.00     0.004 C 
ENDBRANCH  14  15
ENDBRANCH  13  14
ENDBRANCH  12  13
ENDBRANCH  11  12
ENDBRANCH  10  11
ENDBRANCH   1  10
TORSDOF 12
ENDMDL
MODEL 4
REMARK VINA RESULT:    -4.768      3.295      6.243
REMARK INTER + INTRA:          -9.336
REMARK INTER:                  -8.046
REMARK INTRA:                  -1.290
REMARK UNBOUND:                -1.224
REMARK SMILES CCCCCCCCCCCCCC(=O)[O-]
REMARK SMILES IDX 8 1 9 2 10 3 11 4 12 5 13 6 14 7 15 8 16 9 7 10 6 11 5 12
REMARK SMILES IDX 4 13 3 14 2 15 1 16
REMARK H PARENT
REMARK Flexibility Score: inf
ROOT
ATOM      1  C   UNL     1      11.527  21.075  28.897  1.00  0.00     0.000 C 
ENDROOT
BRANCH   1   2
ATOM      2  C   UNL     1      12.555  19.929  28.876  1.00  0.00     0.000 C 
BRANCH   2   3
ATOM      3  C   UNL     1      14.009  20.427  28.815  1.00  0.00     0.000 C 
BRANCH   3   4
ATOM      4  C   UNL     1      14.288  21.259  27.546  1.00  0.00     0.000 C 
BRANCH   4   5
ATOM      5  C   UNL     1      15.780  21.550  27.316  1.00  0.00     0.006 C 
BRANCH   5   6
ATOM      6  C   UNL     1      16.041  22.360  26.040  1.00  0.00     0.053 C 
BRANCH   6   7
ATOM      7  C   UNL     1      16.275  23.800  26.373  1.00  0.00     0.041 C 
ATOM      8  O   UNL     1      16.651  24.129  27.528  1.00  0.00    -0.550 OA
ATOM      9  O   UNL     1      16.032  24.781  25.421  1.00  0.00    -0.550 OA
ENDBRANCH   6   7
ENDBRANCH   5   6
ENDBRANCH   4   5
ENDBRANCH   3   4
ENDBRANCH   2   3
ENDBRANCH   1   2
BRANCH   1  10
ATOM     10  C   UNL     1      10.404  20.925  29.939  1.00  0.00     0.000 C 
BRANCH  10  11
ATOM     11  C   UNL     1       9.567  22.206  30.104  1.00  0.00    -0.000 C 
BRANCH  11  12
ATOM     12  C   UNL     1       9.816  22.903  31.452  1.00  0.00    -0.000 C 
BRANCH  12  13
ATOM     13  C   UNL     1      10.280  24.360  31.286  1.00  0.00    -0.000 C 
BRANCH  13  14
ATOM     14  C   UNL     1      11.415  24.504  30.259  1.00  0.00    -0.000 C 
BRANCH  14  15
ATOM     15  C   UNL     1      12.773  24.045  30.810  1.00  0.00    -0.003 C 
ATOM     16  C   UNL     1      13.864  24.165  29.750  1.00  0.00     0.004 C 
ENDBRANCH  14  15
ENDBRANCH  13  14
ENDBRANCH  12  13
ENDBRANCH  11  12
ENDBRANCH  10  11
ENDBRANCH   1  10
TORSDOF 12
ENDMDL
MODEL 5
REMARK VINA RESULT:    -4.742      3.438      6.664
REMARK INTER + INTRA:          -9.294
REMARK INTER:                  -8.103
REMARK INTRA:                  -1.190
REMARK UNBOUND:                -1.224
REMARK SMILES CCCCCCCCCCCCCC(=O)[O-]
REMARK SMILES IDX 8 1 9 2 10 3 11 4 12 5 13 6 14 7 15 8 16 9 7 10 6 11 5 12
REMARK SMILES IDX 4 13 3 14 2 15 1 16
REMARK H PARENT
REMARK Flexibility Score: inf
ROOT
ATOM      1  C   UNL     1      12.077  24.186  30.251  1.00  0.00     0.000 C 
ENDROOT
BRANCH   1   2
ATOM      2  C   UNL     1      13.584  23.919  30.421  1.00  0.00     0.000 C 
BRANCH   2   3
ATOM      3  C   UNL     1      14.375  24.092  29.113  1.00  0.00     0.000 C 
BRANCH   3   4
ATOM      4  C   UNL     1      15.716  23.329  29.138  1.00  0.00     0.000 C 
BRANCH   4   5
ATOM      5  C   UNL     1      16.679  23.739  28.011  1.00  0.00     0.006 C 
BRANCH   5   6
ATOM      6  C   UNL     1      16.014  23.741  26.628  1.00  0.00     0.053 C 
BRANCH   6   7
ATOM      7  C   UNL     1      16.315  22.468  25.902  1.00  0.00     0.041 C 
ATOM      8  O   UNL     1      17.014  21.577  26.450  1.00  0.00    -0.550 OA
ATOM      9  O   UNL     1      15.864  22.288  24.601  1.00  0.00    -0.550 OA
ENDBRANCH   6   7
ENDBRANCH   5   6
ENDBRANCH   4   5
ENDBRANCH   3   4
ENDBRANCH   2   3
ENDBRANCH   1   2
BRANCH   1  10
ATOM     10  C   UNL     1      11.291  24.338  31.566  1.00  0.00     0.000 C 
BRANCH  10  11
ATOM     11  C   UNL     1       9.873  23.742  31.487  1.00  0.00    -0.000 C 
BRANCH  11  12
ATOM     12  C   UNL     1       9.736  22.695  30.370  1.00  0.00    -0.000 C 
BRANCH  12  13
ATOM     13  C   UNL     1       9.628  21.261  30.916  1.00  0.00    -0.000 C 
BRANCH  13  14
ATOM     14  C   UNL     1      10.540  20.274  30.169  1.00  0.00    -0.000 C 
BRANCH  14  15
ATOM     15  C   UNL     1      11.027  20.823  28.820  1.00  0.00    -0.003 C 
ATOM     16  C   UNL     1      12.550  20.776  28.726  1.00  0.00     0.004 C 
ENDBRANCH  14  15
ENDBRANCH  13  14
ENDBRANCH  12  13
ENDBRANCH  11  12
ENDBRANCH  10  11
ENDBRANCH   1  10
TORSDOF 12
ENDMDL
MODEL 6
REMARK VINA RESULT:    -4.729      1.842      3.028
REMARK INTER + INTRA:          -9.271
REMARK INTER:                  -8.121
REMARK INTRA:                  -1.150
REMARK UNBOUND:                -1.224
REMARK SMILES CCCCCCCCCCCCCC(=O)[O-]
REMARK SMILES IDX 8 1 9 2 10 3 11 4 12 5 13 6 14 7 15 8 16 9 7 10 6 11 5 12
REMARK SMILES IDX 4 13 3 14 2 15 1 16
REMARK H PARENT
REMARK Flexibility Score: inf
ROOT
ATOM      1  C   UNL     1      13.168  24.476  30.471  1.00  0.00     0.000 C 
ENDROOT
BRANCH   1   2
ATOM      2  C   UNL     1      11.698  24.058  30.290  1.00  0.00     0.000 C 
BRANCH   2   3
ATOM      3  C   UNL     1      10.882  24.149  31.592  1.00  0.00     0.000 C 
BRANCH   3   4
ATOM      4  C   UNL     1       9.972  22.920  31.797  1.00  0.00     0.000 C 
BRANCH   4   5
ATOM      5  C   UNL     1       8.989  22.683  30.639  1.00  0.00     0.006 C 
BRANCH   5   6
ATOM      6  C   UNL     1       8.714  21.195  30.383  1.00  0.00     0.053 C 
BRANCH   6   7
ATOM      7  C   UNL     1       9.971  20.494  29.976  1.00  0.00     0.041 C 
ATOM      8  O   UNL     1      10.562  20.819  28.914  1.00  0.00    -0.550 OA
ATOM      9  O   UNL     1      10.462  19.448  30.746  1.00  0.00    -0.550 OA
ENDBRANCH   6   7
ENDBRANCH   5   6
ENDBRANCH   4   5
ENDBRANCH   3   4
ENDBRANCH   2   3
ENDBRANCH   1   2
BRANCH   1  10
ATOM     10  C   UNL     1      14.192  23.597  29.730  1.00  0.00     0.000 C 
BRANCH  10  11
ATOM     11  C   UNL     1      13.753  22.124  29.629  1.00  0.00    -0.000 C 
BRANCH  11  12
ATOM     12  C   UNL     1      13.916  21.557  28.209  1.00  0.00    -0.000 C 
BRANCH  12  13
ATOM     13  C   UNL     1      15.372  21.620  27.713  1.00  0.00    -0.000 C 
BRANCH  13  14
ATOM     14  C   UNL     1      15.504  22.333  26.358  1.00  0.00    -0.000 C 
BRANCH  14  15
ATOM     15  C   UNL     1      16.049  23.762  26.491  1.00  0.00    -0.003 C 
ATOM     16  C   UNL     1      17.096  23.850  27.598  1.00  0.00     0.004 C 
ENDBRANCH  14  15
ENDBRANCH  13  14
ENDBRANCH  12  13
ENDBRANCH  11  12
ENDBRANCH  10  11
ENDBRANCH   1  10
TORSDOF 12
ENDMDL
MODEL 7
REMARK VINA RESULT:    -4.675      1.537      3.062
REMARK INTER + INTRA:          -9.178
REMARK INTER:                  -7.797
REMARK INTRA:                  -1.381
REMARK UNBOUND:                -1.224
REMARK SMILES CCCCCCCCCCCCCC(=O)[O-]
REMARK SMILES IDX 8 1 9 2 10 3 11 4 12 5 13 6 14 7 15 8 16 9 7 10 6 11 5 12
REMARK SMILES IDX 4 13 3 14 2 15 1 16
REMARK H PARENT
REMARK Flexibility Score: inf
ROOT
ATOM      1  C   UNL     1      13.205  21.675  29.330  1.00  0.00     0.000 C 
ENDROOT
BRANCH   1   2
ATOM      2  C   UNL     1      14.025  22.699  30.136  1.00  0.00     0.000 C 
BRANCH   2   3
ATOM      3  C   UNL     1      13.265  24.013  30.388  1.00  0.00     0.000 C 
BRANCH   3   4
ATOM      4  C   UNL     1      11.782  23.917  29.971  1.00  0.00     0.000 C 
BRANCH   4   5
ATOM      5  C   UNL     1      10.806  24.393  31.060  1.00  0.00     0.006 C 
BRANCH   5   6
ATOM      6  C   UNL     1      10.367  23.266  32.003  1.00  0.00     0.053 C 
BRANCH   6   7
ATOM      7  C   UNL     1       9.593  22.228  31.253  1.00  0.00     0.041 C 
ATOM      8  O   UNL     1       8.457  22.502  30.784  1.00  0.00    -0.550 OA
ATOM      9  O   UNL     1      10.105  20.945  31.115  1.00  0.00    -0.550 OA
ENDBRANCH   6   7
ENDBRANCH   5   6
ENDBRANCH   4   5
ENDBRANCH   3   4
ENDBRANCH   2   3
ENDBRANCH   1   2
BRANCH   1  10
ATOM     10  C   UNL     1      14.009  20.861  28.300  1.00  0.00     0.000 C 
BRANCH  10  11
ATOM     11  C   UNL     1      14.110  21.560  26.932  1.00  0.00    -0.000 C 
BRANCH  11  12
ATOM     12  C   UNL     1      15.564  21.719  26.457  1.00  0.00    -0.000 C 
BRANCH  12  13
ATOM     13  C   UNL     1      15.928  23.182  26.151  1.00  0.00    -0.000 C 
BRANCH  13  14
ATOM     14  C   UNL     1      16.045  24.039  27.422  1.00  0.00    -0.000 C 
BRANCH  14  15
ATOM     15  C   UNL     1      17.428  23.933  28.082  1.00  0.00    -0.003 C 
ATOM     16  C   UNL     1      17.421  22.904  29.209  1.00  0.00     0.004 C 
ENDBRANCH  14  15
ENDBRANCH  13  14
ENDBRANCH  12  13
ENDBRANCH  11  12
ENDBRANCH  10  11
ENDBRANCH   1  10
TORSDOF 12
ENDMDL
MODEL 8
REMARK VINA RESULT:    -4.662      3.569      6.573
REMARK INTER + INTRA:          -9.157
REMARK INTER:                  -7.369
REMARK INTRA:                  -1.788
REMARK UNBOUND:                -1.224
REMARK SMILES CCCCCCCCCCCCCC(=O)[O-]
REMARK SMILES IDX 8 1 9 2 10 3 11 4 12 5 13 6 14 7 15 8 16 9 7 10 6 11 5 12
REMARK SMILES IDX 4 13 3 14 2 15 1 16
REMARK H PARENT
REMARK Flexibility Score: inf
ROOT
ATOM      1  C   UNL     1      13.654  21.120  28.400  1.00  0.00     0.000 C 
ENDROOT
BRANCH   1   2
ATOM      2  C   UNL     1      15.029  21.240  29.083  1.00  0.00     0.000 C 
BRANCH   2   3
ATOM      3  C   UNL     1      15.227  22.586  29.802  1.00  0.00     0.000 C 
BRANCH   3   4
ATOM      4  C   UNL     1      15.277  23.772  28.816  1.00  0.00     0.000 C 
BRANCH   4   5
ATOM      5  C   UNL     1      16.413  23.668  27.785  1.00  0.00     0.006 C 
BRANCH   5   6
ATOM      6  C   UNL     1      15.908  23.656  26.337  1.00  0.00     0.053 C 
BRANCH   6   7
ATOM      7  C   UNL     1      16.319  22.392  25.650  1.00  0.00     0.041 C 
ATOM      8  O   UNL     1      17.049  21.557  26.245  1.00  0.00    -0.550 OA
ATOM      9  O   UNL     1      15.936  22.160  24.336  1.00  0.00    -0.550 OA
ENDBRANCH   6   7
ENDBRANCH   5   6
ENDBRANCH   4   5
ENDBRANCH   3   4
ENDBRANCH   2   3
ENDBRANCH   1   2
BRANCH   1  10
ATOM     10  C   UNL     1      12.830  19.886  28.809  1.00  0.00     0.000 C 
BRANCH  10  11
ATOM     11  C   UNL     1      11.562  20.251  29.602  1.00  0.00    -0.000 C 
BRANCH  11  12
ATOM     12  C   UNL     1      11.724  20.015  31.113  1.00  0.00    -0.000 C 
BRANCH  12  13
ATOM     13  C   UNL     1      12.159  21.286  31.864  1.00  0.00    -0.000 C 
BRANCH  13  14
ATOM     14  C   UNL     1      11.176  22.452  31.670  1.00  0.00    -0.000 C 
BRANCH  14  15
ATOM     15  C   UNL     1      11.881  23.766  31.301  1.00  0.00    -0.003 C 
ATOM     16  C   UNL     1      11.708  24.084  29.819  1.00  0.00     0.004 C 
ENDBRANCH  14  15
ENDBRANCH  13  14
ENDBRANCH  12  13
ENDBRANCH  11  12
ENDBRANCH  10  11
ENDBRANCH   1  10
TORSDOF 12
ENDMDL
MODEL 9
REMARK VINA RESULT:    -4.652      1.592      2.800
REMARK INTER + INTRA:          -9.139
REMARK INTER:                  -7.677
REMARK INTRA:                  -1.462
REMARK UNBOUND:                -1.224
REMARK SMILES CCCCCCCCCCCCCC(=O)[O-]
REMARK SMILES IDX 8 1 9 2 10 3 11 4 12 5 13 6 14 7 15 8 16 9 7 10 6 11 5 12
REMARK SMILES IDX 4 13 3 14 2 15 1 16
REMARK H PARENT
REMARK Flexibility Score: inf
ROOT
ATOM      1  C   UNL     1      13.922  21.564  27.625  1.00  0.00     0.000 C 
ENDROOT
BRANCH   1   2
ATOM      2  C   UNL     1      13.884  20.214  28.363  1.00  0.00     0.000 C 
BRANCH   2   3
ATOM      3  C   UNL     1      13.038  20.256  29.648  1.00  0.00     0.000 C 
BRANCH   3   4
ATOM      4  C   UNL     1      13.291  21.538  30.470  1.00  0.00     0.000 C 
BRANCH   4   5
ATOM      5  C   UNL     1      12.007  22.307  30.821  1.00  0.00     0.006 C 
BRANCH   5   6
ATOM      6  C   UNL     1      11.019  22.387  29.650  1.00  0.00     0.053 C 
BRANCH   6   7
ATOM      7  C   UNL     1       9.694  21.815  30.044  1.00  0.00     0.041 C 
ATOM      8  O   UNL     1       8.809  22.556  30.545  1.00  0.00    -0.550 OA
ATOM      9  O   UNL     1       9.456  20.454  29.902  1.00  0.00    -0.550 OA
ENDBRANCH   6   7
ENDBRANCH   5   6
ENDBRANCH   4   5
ENDBRANCH   3   4
ENDBRANCH   2   3
ENDBRANCH   1   2
BRANCH   1  10
ATOM     10  C   UNL     1      14.520  21.515  26.207  1.00  0.00     0.000 C 
BRANCH  10  11
ATOM     11  C   UNL     1      15.925  22.139  26.128  1.00  0.00    -0.000 C 
BRANCH  11  12
ATOM     12  C   UNL     1      15.951  23.595  26.620  1.00  0.00    -0.000 C 
BRANCH  12  13
ATOM     13  C   UNL     1      16.976  23.819  27.745  1.00  0.00    -0.000 C 
BRANCH  13  14
ATOM     14  C   UNL     1      16.480  23.304  29.106  1.00  0.00    -0.000 C 
BRANCH  14  15
ATOM     15  C   UNL     1      17.510  22.410  29.813  1.00  0.00    -0.003 C 
ATOM     16  C   UNL     1      17.375  20.957  29.364  1.00  0.00     0.004 C 
ENDBRANCH  14  15
ENDBRANCH  13  14
ENDBRANCH  12  13
ENDBRANCH  11  12
ENDBRANCH  10  11
ENDBRANCH   1  10
TORSDOF 12
ENDMDL
