MODEL 1
REMARK VINA RESULT:    -5.779      0.000      0.000
REMARK INTER + INTRA:          -7.306
REMARK INTER:                  -6.962
REMARK INTRA:                  -0.344
REMARK UNBOUND:                -0.344
REMARK SMILES Oc1cc(O)c2c(c1)O[C@H](c1ccc(O)c(O)c1)[C@@H](O)C2
REMARK SMILES IDX 21 1 19 2 10 3 9 4 7 5 8 6 2 7 3 8 4 9 6 10 20 11 11 13
REMARK SMILES IDX 18 14 12 15 16 16 13 17 14 18 17 19 15 21 5 23 1 25
REMARK H PARENT 20 12 17 20 15 22 5 24 1 26
REMARK Flexibility Score: inf
ROOT
ATOM      1  C   UNL     1       8.654  13.551 -10.602  1.00  0.00     0.079 C 
ATOM      2  C   UNL     1       9.091  12.118 -10.962  1.00  0.00     0.164 C 
ATOM      3  C   UNL     1      10.216  11.650 -10.018  1.00  0.00     0.232 C 
ATOM      4  O   UNL     1      11.307  12.569 -10.078  1.00  0.00    -0.482 OA
ATOM      5  C   UNL     1      11.115  13.952 -10.179  1.00  0.00     0.131 A 
ATOM      6  C   UNL     1      12.218  14.799 -10.041  1.00  0.00     0.093 A 
ATOM      7  C   UNL     1      12.058  16.183 -10.120  1.00  0.00     0.122 A 
ATOM      8  C   UNL     1      10.785  16.725 -10.329  1.00  0.00     0.092 A 
ATOM      9  C   UNL     1       9.669  15.892 -10.469  1.00  0.00     0.126 A 
ATOM     10  C   UNL     1       9.832  14.487 -10.432  1.00  0.00     0.039 A 
ENDROOT
BRANCH   2  11
ATOM     11  O   UNL     1       7.992  11.242 -10.925  1.00  0.00    -0.389 OA
ATOM     12  H   UNL     1       7.654  11.220  -9.992  1.00  0.00     0.211 HD
ENDBRANCH   2  11
BRANCH   3  13
ATOM     13  C   UNL     1      10.697  10.266 -10.386  1.00  0.00    -0.001 A 
ATOM     14  C   UNL     1      11.099   9.983 -11.702  1.00  0.00     0.057 A 
ATOM     15  C   UNL     1      10.797   9.261  -9.409  1.00  0.00     0.012 A 
ATOM     16  C   UNL     1      11.574   8.708 -12.043  1.00  0.00     0.157 A 
ATOM     17  C   UNL     1      11.270   7.990  -9.747  1.00  0.00     0.050 A 
ATOM     18  C   UNL     1      11.657   7.710 -11.064  1.00  0.00     0.157 A 
BRANCH  16  19
ATOM     19  O   UNL     1      11.966   8.428 -13.350  1.00  0.00    -0.504 OA
ATOM     20  H   UNL     1      12.307   9.154 -13.970  1.00  0.00     0.293 HD
ENDBRANCH  16  19
BRANCH  18  21
ATOM     21  O   UNL     1      12.129   6.444 -11.405  1.00  0.00    -0.504 OA
ATOM     22  H   UNL     1      11.644   5.601 -11.119  1.00  0.00     0.293 HD
ENDBRANCH  18  21
ENDBRANCH   3  13
BRANCH   9  23
ATOM     23  O   UNL     1       8.418  16.493 -10.630  1.00  0.00    -0.507 OA
ATOM     24  H   UNL     1       8.295  17.480 -10.813  1.00  0.00     0.293 HD
ENDBRANCH   9  23
BRANCH   7  25
ATOM     25  O   UNL     1      13.169  17.012  -9.983  1.00  0.00    -0.508 OA
ATOM     26  H   UNL     1      14.060  16.779 -10.405  1.00  0.00     0.293 HD
ENDBRANCH   7  25
TORSDOF 6
ENDMDL
MODEL 2
REMARK VINA RESULT:    -5.376      1.390      3.111
REMARK INTER + INTRA:          -6.821
REMARK INTER:                  -6.448
REMARK INTRA:                  -0.372
REMARK UNBOUND:                -0.344
REMARK SMILES Oc1cc(O)c2c(c1)O[C@H](c1ccc(O)c(O)c1)[C@@H](O)C2
REMARK SMILES IDX 21 1 19 2 10 3 9 4 7 5 8 6 2 7 3 8 4 9 6 10 20 11 11 13
REMARK SMILES IDX 18 14 12 15 16 16 13 17 14 18 17 19 15 21 5 23 1 25
REMARK H PARENT 20 12 17 20 15 22 5 24 1 26
REMARK Flexibility Score: inf
ROOT
ATOM      1  C   UNL     1      12.387  14.037 -10.240  1.00  0.00     0.079 C 
ATOM      2  C   UNL     1      12.483  12.499 -10.264  1.00  0.00     0.164 C 
ATOM      3  C   UNL     1      11.586  11.926 -11.379  1.00  0.00     0.232 C 
ATOM      4  O   UNL     1      10.243  12.371 -11.191  1.00  0.00    -0.482 OA
ATOM      5  C   UNL     1       9.938  13.664 -10.752  1.00  0.00     0.131 A 
ATOM      6  C   UNL     1       8.606  14.090 -10.774  1.00  0.00     0.093 A 
ATOM      7  C   UNL     1       8.271  15.378 -10.357  1.00  0.00     0.122 A 
ATOM      8  C   UNL     1       9.275  16.253  -9.925  1.00  0.00     0.092 A 
ATOM      9  C   UNL     1      10.613  15.845  -9.897  1.00  0.00     0.126 A 
ATOM     10  C   UNL     1      10.953  14.524 -10.278  1.00  0.00     0.039 A 
ENDROOT
BRANCH   2  11
ATOM     11  O   UNL     1      13.819  12.090 -10.419  1.00  0.00    -0.389 OA
ATOM     12  H   UNL     1      14.040  11.486  -9.663  1.00  0.00     0.211 HD
ENDBRANCH   2  11
BRANCH   3  13
ATOM     13  C   UNL     1      11.624  10.416 -11.389  1.00  0.00    -0.001 A 
ATOM     14  C   UNL     1      11.205   9.690 -10.260  1.00  0.00     0.057 A 
ATOM     15  C   UNL     1      12.029   9.718 -12.540  1.00  0.00     0.012 A 
ATOM     16  C   UNL     1      11.211   8.288 -10.274  1.00  0.00     0.157 A 
ATOM     17  C   UNL     1      12.035   8.321 -12.554  1.00  0.00     0.050 A 
ATOM     18  C   UNL     1      11.629   7.603 -11.422  1.00  0.00     0.157 A 
BRANCH  16  19
ATOM     19  O   UNL     1      10.802   7.570  -9.152  1.00  0.00    -0.504 OA
ATOM     20  H   UNL     1       9.906   7.742  -8.710  1.00  0.00     0.293 HD
ENDBRANCH  16  19
BRANCH  18  21
ATOM     21  O   UNL     1      11.634   6.209 -11.432  1.00  0.00    -0.504 OA
ATOM     22  H   UNL     1      10.792   5.673 -11.255  1.00  0.00     0.293 HD
ENDBRANCH  18  21
ENDBRANCH   3  13
BRANCH   9  23
ATOM     23  O   UNL     1      11.575  16.776  -9.499  1.00  0.00    -0.507 OA
ATOM     24  H   UNL     1      12.469  16.883  -9.960  1.00  0.00     0.293 HD
ENDBRANCH   9  23
BRANCH   7  25
ATOM     25  O   UNL     1       6.939  15.784 -10.383  1.00  0.00    -0.508 OA
ATOM     26  H   UNL     1       6.465  16.103  -9.546  1.00  0.00     0.293 HD
ENDBRANCH   7  25
TORSDOF 6
ENDMDL
MODEL 3
REMARK VINA RESULT:    -5.367      2.115      3.868
REMARK INTER + INTRA:          -6.810
REMARK INTER:                  -6.433
REMARK INTRA:                  -0.377
REMARK UNBOUND:                -0.344
REMARK SMILES Oc1cc(O)c2c(c1)O[C@H](c1ccc(O)c(O)c1)[C@@H](O)C2
REMARK SMILES IDX 21 1 19 2 10 3 9 4 7 5 8 6 2 7 3 8 4 9 6 10 20 11 11 13
REMARK SMILES IDX 18 14 12 15 16 16 13 17 14 18 17 19 15 21 5 23 1 25
REMARK H PARENT 20 12 17 20 15 22 5 24 1 26
REMARK Flexibility Score: inf
ROOT
ATOM      1  C   UNL     1      10.215  13.392 -11.014  1.00  0.00     0.079 C 
ATOM      2  C   UNL     1      11.089  12.129 -10.895  1.00  0.00     0.164 C 
ATOM      3  C   UNL     1      10.341  10.907 -11.466  1.00  0.00     0.232 C 
ATOM      4  O   UNL     1       9.090  10.754 -10.795  1.00  0.00    -0.482 OA
ATOM      5  C   UNL     1       8.300  11.848 -10.425  1.00  0.00     0.131 A 
ATOM      6  C   UNL     1       7.008  11.618  -9.946  1.00  0.00     0.093 A 
ATOM      7  C   UNL     1       6.189  12.688  -9.583  1.00  0.00     0.122 A 
ATOM      8  C   UNL     1       6.663  13.999  -9.708  1.00  0.00     0.092 A 
ATOM      9  C   UNL     1       7.954  14.249 -10.186  1.00  0.00     0.126 A 
ATOM     10  C   UNL     1       8.803  13.165 -10.515  1.00  0.00     0.039 A 
ENDROOT
BRANCH   2  11
ATOM     11  O   UNL     1      12.325  12.320 -11.537  1.00  0.00    -0.389 OA
ATOM     12  H   UNL     1      12.227  12.017 -12.477  1.00  0.00     0.211 HD
ENDBRANCH   2  11
BRANCH   3  13
ATOM     13  C   UNL     1      11.158   9.646 -11.313  1.00  0.00    -0.001 A 
ATOM     14  C   UNL     1      11.428   9.128 -10.034  1.00  0.00     0.057 A 
ATOM     15  C   UNL     1      11.614   8.948 -12.444  1.00  0.00     0.012 A 
ATOM     16  C   UNL     1      12.161   7.942  -9.887  1.00  0.00     0.157 A 
ATOM     17  C   UNL     1      12.345   7.766 -12.299  1.00  0.00     0.050 A 
ATOM     18  C   UNL     1      12.622   7.261 -11.021  1.00  0.00     0.157 A 
BRANCH  16  19
ATOM     19  O   UNL     1      12.433   7.434  -8.619  1.00  0.00    -0.504 OA
ATOM     20  H   UNL     1      13.139   6.722  -8.472  1.00  0.00     0.293 HD
ENDBRANCH  16  19
BRANCH  18  21
ATOM     21  O   UNL     1      13.351   6.083 -10.872  1.00  0.00    -0.504 OA
ATOM     22  H   UNL     1      13.811   5.640 -11.658  1.00  0.00     0.293 HD
ENDBRANCH  18  21
ENDBRANCH   3  13
BRANCH   9  23
ATOM     23  O   UNL     1       8.354  15.580 -10.332  1.00  0.00    -0.507 OA
ATOM     24  H   UNL     1       7.705  16.343 -10.465  1.00  0.00     0.293 HD
ENDBRANCH   9  23
BRANCH   7  25
ATOM     25  O   UNL     1       4.904  12.440  -9.105  1.00  0.00    -0.508 OA
ATOM     26  H   UNL     1       4.310  11.735  -9.526  1.00  0.00     0.293 HD
ENDBRANCH   7  25
TORSDOF 6
ENDMDL
MODEL 4
REMARK VINA RESULT:    -5.297      2.864      6.447
REMARK INTER + INTRA:          -6.725
REMARK INTER:                  -6.724
REMARK INTRA:                  -0.001
REMARK UNBOUND:                -0.344
REMARK SMILES Oc1cc(O)c2c(c1)O[C@H](c1ccc(O)c(O)c1)[C@@H](O)C2
REMARK SMILES IDX 21 1 19 2 10 3 9 4 7 5 8 6 2 7 3 8 4 9 6 10 20 11 11 13
REMARK SMILES IDX 18 14 12 15 16 16 13 17 14 18 17 19 15 21 5 23 1 25
REMARK H PARENT 20 12 17 20 15 22 5 24 1 26
REMARK Flexibility Score: inf
ROOT
ATOM      1  C   UNL     1      11.552  11.516 -11.653  1.00  0.00     0.079 C 
ATOM      2  C   UNL     1      10.114  11.745 -11.151  1.00  0.00     0.164 C 
ATOM      3  C   UNL     1       9.929  11.114  -9.756  1.00  0.00     0.232 C 
ATOM      4  O   UNL     1      10.259   9.726  -9.810  1.00  0.00    -0.482 OA
ATOM      5  C   UNL     1      11.324   9.239 -10.576  1.00  0.00     0.131 A 
ATOM      6  C   UNL     1      11.704   7.902 -10.432  1.00  0.00     0.093 A 
ATOM      7  C   UNL     1      12.772   7.390 -11.170  1.00  0.00     0.122 A 
ATOM      8  C   UNL     1      13.472   8.222 -12.051  1.00  0.00     0.092 A 
ATOM      9  C   UNL     1      13.105   9.563 -12.208  1.00  0.00     0.126 A 
ATOM     10  C   UNL     1      11.995  10.076 -11.495  1.00  0.00     0.039 A 
ENDROOT
BRANCH   2  11
ATOM     11  O   UNL     1       9.808  13.117 -11.138  1.00  0.00    -0.389 OA
ATOM     12  H   UNL     1      10.649  13.613 -10.958  1.00  0.00     0.211 HD
ENDBRANCH   2  11
BRANCH   3  13
ATOM     13  C   UNL     1       8.511  11.281  -9.265  1.00  0.00    -0.001 A 
ATOM     14  C   UNL     1       7.472  11.539 -10.176  1.00  0.00     0.057 A 
ATOM     15  C   UNL     1       8.204  11.131  -7.902  1.00  0.00     0.012 A 
ATOM     16  C   UNL     1       6.149  11.666  -9.729  1.00  0.00     0.157 A 
ATOM     17  C   UNL     1       6.886  11.258  -7.455  1.00  0.00     0.050 A 
ATOM     18  C   UNL     1       5.856  11.527  -8.366  1.00  0.00     0.157 A 
BRANCH  16  19
ATOM     19  O   UNL     1       5.121  11.928 -10.633  1.00  0.00    -0.504 OA
ATOM     20  H   UNL     1       5.290  11.971 -11.631  1.00  0.00     0.293 HD
ENDBRANCH  16  19
BRANCH  18  21
ATOM     21  O   UNL     1       4.540  11.655  -7.925  1.00  0.00    -0.504 OA
ATOM     22  H   UNL     1       3.838  10.958  -8.142  1.00  0.00     0.293 HD
ENDBRANCH  18  21
ENDBRANCH   3  13
BRANCH   9  23
ATOM     23  O   UNL     1      13.869  10.356 -13.069  1.00  0.00    -0.507 OA
ATOM     24  H   UNL     1      13.772  11.361 -13.131  1.00  0.00     0.293 HD
ENDBRANCH   9  23
BRANCH   7  25
ATOM     25  O   UNL     1      13.136   6.054 -11.015  1.00  0.00    -0.508 OA
ATOM     26  H   UNL     1      12.705   5.465 -10.312  1.00  0.00     0.293 HD
ENDBRANCH   7  25
TORSDOF 6
ENDMDL
MODEL 5
REMARK VINA RESULT:    -5.155      3.600      4.693
REMARK INTER + INTRA:          -6.554
REMARK INTER:                  -6.206
REMARK INTRA:                  -0.348
REMARK UNBOUND:                -0.344
REMARK SMILES Oc1cc(O)c2c(c1)O[C@H](c1ccc(O)c(O)c1)[C@@H](O)C2
REMARK SMILES IDX 21 1 19 2 10 3 9 4 7 5 8 6 2 7 3 8 4 9 6 10 20 11 11 13
REMARK SMILES IDX 18 14 12 15 16 16 13 17 14 18 17 19 15 21 5 23 1 25
REMARK H PARENT 20 12 17 20 15 22 5 24 1 26
REMARK Flexibility Score: inf
ROOT
ATOM      1  C   UNL     1       9.431  10.591  -7.247  1.00  0.00     0.079 C 
ATOM      2  C   UNL     1      10.383   9.699  -8.068  1.00  0.00     0.164 C 
ATOM      3  C   UNL     1      10.702  10.364  -9.422  1.00  0.00     0.232 C 
ATOM      4  O   UNL     1       9.487  10.632 -10.123  1.00  0.00    -0.482 OA
ATOM      5  C   UNL     1       8.329  11.071  -9.473  1.00  0.00     0.131 A 
ATOM      6  C   UNL     1       7.240  11.493 -10.241  1.00  0.00     0.093 A 
ATOM      7  C   UNL     1       6.077  11.952  -9.623  1.00  0.00     0.122 A 
ATOM      8  C   UNL     1       6.003  11.999  -8.226  1.00  0.00     0.092 A 
ATOM      9  C   UNL     1       7.083  11.581  -7.441  1.00  0.00     0.126 A 
ATOM     10  C   UNL     1       8.250  11.074  -8.062  1.00  0.00     0.039 A 
ENDROOT
BRANCH   2  11
ATOM     11  O   UNL     1      11.555   9.428  -7.341  1.00  0.00    -0.389 OA
ATOM     12  H   UNL     1      12.226   9.060  -7.975  1.00  0.00     0.211 HD
ENDBRANCH   2  11
BRANCH   3  13
ATOM     13  C   UNL     1      11.593   9.484 -10.266  1.00  0.00    -0.001 A 
ATOM     14  C   UNL     1      11.226   8.154 -10.533  1.00  0.00     0.057 A 
ATOM     15  C   UNL     1      12.771   9.997 -10.837  1.00  0.00     0.012 A 
ATOM     16  C   UNL     1      12.035   7.341 -11.340  1.00  0.00     0.157 A 
ATOM     17  C   UNL     1      13.577   9.188 -11.641  1.00  0.00     0.050 A 
ATOM     18  C   UNL     1      13.213   7.858 -11.893  1.00  0.00     0.157 A 
BRANCH  16  19
ATOM     19  O   UNL     1      11.673   6.020 -11.598  1.00  0.00    -0.504 OA
ATOM     20  H   UNL     1      12.264   5.244 -11.323  1.00  0.00     0.293 HD
ENDBRANCH  16  19
BRANCH  18  21
ATOM     21  O   UNL     1      14.015   7.047 -12.694  1.00  0.00    -0.504 OA
ATOM     22  H   UNL     1      14.927   7.353 -13.014  1.00  0.00     0.293 HD
ENDBRANCH  18  21
ENDBRANCH   3  13
BRANCH   9  23
ATOM     23  O   UNL     1       6.968  11.694  -6.053  1.00  0.00    -0.507 OA
ATOM     24  H   UNL     1       7.363  11.024  -5.406  1.00  0.00     0.293 HD
ENDBRANCH   9  23
BRANCH   7  25
ATOM     25  O   UNL     1       5.001  12.367 -10.405  1.00  0.00    -0.508 OA
ATOM     26  H   UNL     1       4.112  12.623  -9.991  1.00  0.00     0.293 HD
ENDBRANCH   7  25
TORSDOF 6
ENDMDL
MODEL 6
REMARK VINA RESULT:    -5.092      2.195      6.993
REMARK INTER + INTRA:          -6.478
REMARK INTER:                  -6.110
REMARK INTRA:                  -0.367
REMARK UNBOUND:                -0.344
REMARK SMILES Oc1cc(O)c2c(c1)O[C@H](c1ccc(O)c(O)c1)[C@@H](O)C2
REMARK SMILES IDX 21 1 19 2 10 3 9 4 7 5 8 6 2 7 3 8 4 9 6 10 20 11 11 13
REMARK SMILES IDX 18 14 12 15 16 16 13 17 14 18 17 19 15 21 5 23 1 25
REMARK H PARENT 20 12 17 20 15 22 5 24 1 26
REMARK Flexibility Score: inf
ROOT
ATOM      1  C   UNL     1      11.189   9.261  -8.698  1.00  0.00     0.079 C 
ATOM      2  C   UNL     1      10.566  10.664  -8.840  1.00  0.00     0.164 C 
ATOM      3  C   UNL     1       9.596  10.698 -10.038  1.00  0.00     0.232 C 
ATOM      4  O   UNL     1      10.284  10.300 -11.224  1.00  0.00    -0.482 OA
ATOM      5  C   UNL     1      11.239   9.277 -11.227  1.00  0.00     0.131 A 
ATOM      6  C   UNL     1      11.731   8.815 -12.451  1.00  0.00     0.093 A 
ATOM      7  C   UNL     1      12.672   7.786 -12.490  1.00  0.00     0.122 A 
ATOM      8  C   UNL     1      13.119   7.207 -11.296  1.00  0.00     0.092 A 
ATOM      9  C   UNL     1      12.638   7.657 -10.062  1.00  0.00     0.126 A 
ATOM     10  C   UNL     1      11.716   8.730 -10.015  1.00  0.00     0.039 A 
ENDROOT
BRANCH   2  11
ATOM     11  O   UNL     1       9.923  11.041  -7.648  1.00  0.00    -0.389 OA
ATOM     12  H   UNL     1       8.981  11.262  -7.870  1.00  0.00     0.211 HD
ENDBRANCH   2  11
BRANCH   3  13
ATOM     13  C   UNL     1       9.012  12.078 -10.228  1.00  0.00    -0.001 A 
ATOM     14  C   UNL     1       7.638  12.299 -10.032  1.00  0.00     0.057 A 
ATOM     15  C   UNL     1       9.840  13.166 -10.552  1.00  0.00     0.012 A 
ATOM     16  C   UNL     1       7.095  13.583 -10.178  1.00  0.00     0.157 A 
ATOM     17  C   UNL     1       9.300  14.447 -10.699  1.00  0.00     0.050 A 
ATOM     18  C   UNL     1       7.927  14.658 -10.514  1.00  0.00     0.157 A 
BRANCH  16  19
ATOM     19  O   UNL     1       5.732  13.798  -9.989  1.00  0.00    -0.504 OA
ATOM     20  H   UNL     1       5.040  13.123 -10.294  1.00  0.00     0.293 HD
ENDBRANCH  16  19
BRANCH  18  21
ATOM     21  O   UNL     1       7.385  15.934 -10.659  1.00  0.00    -0.504 OA
ATOM     22  H   UNL     1       7.321  16.384 -11.565  1.00  0.00     0.293 HD
ENDBRANCH  18  21
ENDBRANCH   3  13
BRANCH   9  23
ATOM     23  O   UNL     1      13.088   7.011  -8.907  1.00  0.00    -0.507 OA
ATOM     24  H   UNL     1      14.044   7.058  -8.581  1.00  0.00     0.293 HD
ENDBRANCH   9  23
BRANCH   7  25
ATOM     25  O   UNL     1      13.152   7.338 -13.719  1.00  0.00    -0.508 OA
ATOM     26  H   UNL     1      13.142   6.356 -13.966  1.00  0.00     0.293 HD
ENDBRANCH   7  25
TORSDOF 6
ENDMDL
MODEL 7
REMARK VINA RESULT:    -5.062      1.828      6.884
REMARK INTER + INTRA:          -6.442
REMARK INTER:                  -6.069
REMARK INTRA:                  -0.373
REMARK UNBOUND:                -0.344
REMARK SMILES Oc1cc(O)c2c(c1)O[C@H](c1ccc(O)c(O)c1)[C@@H](O)C2
REMARK SMILES IDX 21 1 19 2 10 3 9 4 7 5 8 6 2 7 3 8 4 9 6 10 20 11 11 13
REMARK SMILES IDX 18 14 12 15 16 16 13 17 14 18 17 19 15 21 5 23 1 25
REMARK H PARENT 20 12 17 20 15 22 5 24 1 26
REMARK Flexibility Score: inf
ROOT
ATOM      1  C   UNL     1       9.814  10.010  -8.484  1.00  0.00     0.079 C 
ATOM      2  C   UNL     1       9.331  11.469  -8.595  1.00  0.00     0.164 C 
ATOM      3  C   UNL     1       8.590  11.685  -9.930  1.00  0.00     0.232 C 
ATOM      4  O   UNL     1       9.443  11.324 -11.016  1.00  0.00    -0.482 OA
ATOM      5  C   UNL     1      10.305  10.223 -10.956  1.00  0.00     0.131 A 
ATOM      6  C   UNL     1      10.967   9.818 -12.119  1.00  0.00     0.093 A 
ATOM      7  C   UNL     1      11.821   8.716 -12.096  1.00  0.00     0.122 A 
ATOM      8  C   UNL     1      12.010   8.006 -10.904  1.00  0.00     0.092 A 
ATOM      9  C   UNL     1      11.356   8.397  -9.731  1.00  0.00     0.126 A 
ATOM     10  C   UNL     1      10.522   9.540  -9.738  1.00  0.00     0.039 A 
ENDROOT
BRANCH   2  11
ATOM     11  O   UNL     1       8.520  11.805  -7.497  1.00  0.00    -0.389 OA
ATOM     12  H   UNL     1       7.757  11.171  -7.479  1.00  0.00     0.211 HD
ENDBRANCH   2  11
BRANCH   3  13
ATOM     13  C   UNL     1       8.152  13.122 -10.084  1.00  0.00    -0.001 A 
ATOM     14  C   UNL     1       9.105  14.136 -10.283  1.00  0.00     0.057 A 
ATOM     15  C   UNL     1       6.787  13.458 -10.082  1.00  0.00     0.012 A 
ATOM     16  C   UNL     1       8.703  15.468 -10.456  1.00  0.00     0.157 A 
ATOM     17  C   UNL     1       6.385  14.785 -10.254  1.00  0.00     0.050 A 
ATOM     18  C   UNL     1       7.341  15.793 -10.439  1.00  0.00     0.157 A 
BRANCH  16  19
ATOM     19  O   UNL     1       9.650  16.471 -10.647  1.00  0.00    -0.504 OA
ATOM     20  H   UNL     1      10.598  16.380 -10.299  1.00  0.00     0.293 HD
ENDBRANCH  16  19
BRANCH  18  21
ATOM     21  O   UNL     1       6.943  17.118 -10.611  1.00  0.00    -0.504 OA
ATOM     22  H   UNL     1       7.379  17.874 -10.096  1.00  0.00     0.293 HD
ENDBRANCH  18  21
ENDBRANCH   3  13
BRANCH   9  23
ATOM     23  O   UNL     1      11.548   7.623  -8.583  1.00  0.00    -0.507 OA
ATOM     24  H   UNL     1      11.040   7.772  -7.722  1.00  0.00     0.293 HD
ENDBRANCH   9  23
BRANCH   7  25
ATOM     25  O   UNL     1      12.474   8.327 -13.264  1.00  0.00    -0.508 OA
ATOM     26  H   UNL     1      13.441   8.026 -13.256  1.00  0.00     0.293 HD
ENDBRANCH   7  25
TORSDOF 6
ENDMDL
MODEL 8
REMARK VINA RESULT:    -4.952      2.271      7.089
REMARK INTER + INTRA:          -6.309
REMARK INTER:                  -5.933
REMARK INTRA:                  -0.376
REMARK UNBOUND:                -0.344
REMARK SMILES Oc1cc(O)c2c(c1)O[C@H](c1ccc(O)c(O)c1)[C@@H](O)C2
REMARK SMILES IDX 21 1 19 2 10 3 9 4 7 5 8 6 2 7 3 8 4 9 6 10 20 11 11 13
REMARK SMILES IDX 18 14 12 15 16 16 13 17 14 18 17 19 15 21 5 23 1 25
REMARK H PARENT 20 12 17 20 15 22 5 24 1 26
REMARK Flexibility Score: inf
ROOT
ATOM      1  C   UNL     1      11.031  10.129 -10.441  1.00  0.00     0.079 C 
ATOM      2  C   UNL     1      10.237  11.397 -10.812  1.00  0.00     0.164 C 
ATOM      3  C   UNL     1      10.205  12.374  -9.619  1.00  0.00     0.232 C 
ATOM      4  O   UNL     1       9.655  11.718  -8.477  1.00  0.00    -0.482 OA
ATOM      5  C   UNL     1       9.934  10.380  -8.176  1.00  0.00     0.131 A 
ATOM      6  C   UNL     1       9.518   9.862  -6.946  1.00  0.00     0.093 A 
ATOM      7  C   UNL     1       9.793   8.537  -6.609  1.00  0.00     0.122 A 
ATOM      8  C   UNL     1      10.499   7.724  -7.504  1.00  0.00     0.092 A 
ATOM      9  C   UNL     1      10.924   8.225  -8.740  1.00  0.00     0.126 A 
ATOM     10  C   UNL     1      10.609   9.556  -9.104  1.00  0.00     0.039 A 
ENDROOT
BRANCH   2  11
ATOM     11  O   UNL     1      10.782  12.003 -11.957  1.00  0.00    -0.389 OA
ATOM     12  H   UNL     1      11.280  11.307 -12.460  1.00  0.00     0.211 HD
ENDBRANCH   2  11
BRANCH   3  13
ATOM     13  C   UNL     1       9.388  13.602  -9.942  1.00  0.00    -0.001 A 
ATOM     14  C   UNL     1       8.016  13.486 -10.226  1.00  0.00     0.057 A 
ATOM     15  C   UNL     1       9.974  14.879  -9.913  1.00  0.00     0.012 A 
ATOM     16  C   UNL     1       7.246  14.626 -10.498  1.00  0.00     0.157 A 
ATOM     17  C   UNL     1       9.208  16.016 -10.184  1.00  0.00     0.050 A 
ATOM     18  C   UNL     1       7.844  15.892 -10.479  1.00  0.00     0.157 A 
BRANCH  16  19
ATOM     19  O   UNL     1       5.888  14.507 -10.785  1.00  0.00    -0.504 OA
ATOM     20  H   UNL     1       5.188  15.030 -10.270  1.00  0.00     0.293 HD
ENDBRANCH  16  19
BRANCH  18  21
ATOM     21  O   UNL     1       7.076  17.024 -10.750  1.00  0.00    -0.504 OA
ATOM     22  H   UNL     1       6.092  17.067 -10.513  1.00  0.00     0.293 HD
ENDBRANCH  18  21
ENDBRANCH   3  13
BRANCH   9  23
ATOM     23  O   UNL     1      11.663   7.380  -9.572  1.00  0.00    -0.507 OA
ATOM     24  H   UNL     1      12.042   6.493  -9.267  1.00  0.00     0.293 HD
ENDBRANCH   9  23
BRANCH   7  25
ATOM     25  O   UNL     1       9.369   8.037  -5.380  1.00  0.00    -0.508 OA
ATOM     26  H   UNL     1       8.942   8.637  -4.683  1.00  0.00     0.293 HD
ENDBRANCH   7  25
TORSDOF 6
ENDMDL
MODEL 9
REMARK VINA RESULT:    -4.783      3.547      4.849
REMARK INTER + INTRA:          -6.106
REMARK INTER:                  -5.741
REMARK INTRA:                  -0.365
REMARK UNBOUND:                -0.344
REMARK SMILES Oc1cc(O)c2c(c1)O[C@H](c1ccc(O)c(O)c1)[C@@H](O)C2
REMARK SMILES IDX 21 1 19 2 10 3 9 4 7 5 8 6 2 7 3 8 4 9 6 10 20 11 11 13
REMARK SMILES IDX 18 14 12 15 16 16 13 17 14 18 17 19 15 21 5 23 1 25
REMARK H PARENT 20 12 17 20 15 22 5 24 1 26
REMARK Flexibility Score: inf
ROOT
ATOM      1  C   UNL     1      10.455   9.695  -8.154  1.00  0.00     0.079 C 
ATOM      2  C   UNL     1      11.314   9.077  -9.274  1.00  0.00     0.164 C 
ATOM      3  C   UNL     1      11.548  10.108 -10.397  1.00  0.00     0.232 C 
ATOM      4  O   UNL     1      10.292  10.577 -10.888  1.00  0.00    -0.482 OA
ATOM      5  C   UNL     1       9.201  10.814 -10.045  1.00  0.00     0.131 A 
ATOM      6  C   UNL     1       8.070  11.450 -10.565  1.00  0.00     0.093 A 
ATOM      7  C   UNL     1       6.971  11.715  -9.747  1.00  0.00     0.122 A 
ATOM      8  C   UNL     1       7.006  11.351  -8.396  1.00  0.00     0.092 A 
ATOM      9  C   UNL     1       8.130  10.714  -7.857  1.00  0.00     0.126 A 
ATOM     10  C   UNL     1       9.229  10.404  -8.693  1.00  0.00     0.039 A 
ENDROOT
BRANCH   2  11
ATOM     11  O   UNL     1      12.529   8.597  -8.757  1.00  0.00    -0.389 OA
ATOM     12  H   UNL     1      12.638   7.659  -9.062  1.00  0.00     0.211 HD
ENDBRANCH   2  11
BRANCH   3  13
ATOM     13  C   UNL     1      12.345   9.508 -11.531  1.00  0.00    -0.001 A 
ATOM     14  C   UNL     1      13.597  10.044 -11.878  1.00  0.00     0.057 A 
ATOM     15  C   UNL     1      11.871   8.377 -12.218  1.00  0.00     0.012 A 
ATOM     16  C   UNL     1      14.355   9.473 -12.910  1.00  0.00     0.157 A 
ATOM     17  C   UNL     1      12.625   7.808 -13.248  1.00  0.00     0.050 A 
ATOM     18  C   UNL     1      13.866   8.355 -13.598  1.00  0.00     0.157 A 
BRANCH  16  19
ATOM     19  O   UNL     1      15.592  10.011 -13.257  1.00  0.00    -0.504 OA
ATOM     20  H   UNL     1      16.081  10.656 -12.646  1.00  0.00     0.293 HD
ENDBRANCH  16  19
BRANCH  18  21
ATOM     21  O   UNL     1      14.621   7.790 -14.624  1.00  0.00    -0.504 OA
ATOM     22  H   UNL     1      14.757   6.788 -14.694  1.00  0.00     0.293 HD
ENDBRANCH  18  21
ENDBRANCH   3  13
BRANCH   9  23
ATOM     23  O   UNL     1       8.124  10.416  -6.492  1.00  0.00    -0.507 OA
ATOM     24  H   UNL     1       7.686  11.005  -5.797  1.00  0.00     0.293 HD
ENDBRANCH   9  23
BRANCH   7  25
ATOM     25  O   UNL     1       5.852  12.348 -10.283  1.00  0.00    -0.508 OA
ATOM     26  H   UNL     1       5.307  13.009  -9.742  1.00  0.00     0.293 HD
ENDBRANCH   7  25
TORSDOF 6
ENDMDL
