MODEL 1
REMARK VINA RESULT:    47.510      0.000      0.000
REMARK INTER + INTRA:          51.706
REMARK INTER:                  51.676
REMARK INTRA:                   0.030
REMARK UNBOUND:                 0.030
REMARK SMILES C[C@H]1[C@H](C)CC[C@]2(C(=O)[O-])CC[C@]3(C)C(=CC[C@@H]4[C@@]5(C)CC[C@@H](O)C(C)(C)[C@H]5CC[C@@]43C)[C@H]12
REMARK SMILES IDX 7 1 6 2 11 3 33 4 5 5 12 6 15 7 2 8 3 9 13 10 16 11 1 12
REMARK SMILES IDX 4 13 14 14 31 15 17 16 18 17 30 18 32 19 19 20 29 21 28 22
REMARK SMILES IDX 21 23 20 24 25 25 22 26 23 27 26 28 27 29 8 30 9 31 10 32
REMARK SMILES IDX 24 33
REMARK H PARENT 24 34
REMARK Flexibility Score: inf
ROOT
ATOM      1  C   UNL     1      51.094 -56.102 319.410  1.00  0.00     0.017 C 
ATOM      2  C   UNL     1      50.898 -55.318 320.736  1.00  0.00     0.014 C 
ATOM      3  C   UNL     1      51.224 -55.131 318.217  1.00  0.00     0.014 C 
ATOM      4  C   UNL     1      49.890 -57.074 319.146  1.00  0.00     0.030 C 
ATOM      5  C   UNL     1      50.742 -56.266 321.922  1.00  0.00     0.004 C 
ATOM      6  C   UNL     1      49.992 -54.252 318.005  1.00  0.00     0.013 C 
ATOM      7  C   UNL     1      48.733 -56.486 318.297  1.00  0.00    -0.063 C 
ATOM      8  C   UNL     1      49.374 -57.873 320.425  1.00  0.00    -0.003 C 
ATOM      9  C   UNL     1      49.467 -57.122 321.796  1.00  0.00    -0.011 C 
ATOM     10  C   UNL     1      48.625 -55.022 317.818  1.00  0.00    -0.006 C 
ATOM     11  C   UNL     1      47.858 -57.384 317.811  1.00  0.00    -0.027 C 
ATOM     12  C   UNL     1      50.050 -59.259 320.554  1.00  0.00     0.008 C 
ATOM     13  C   UNL     1      48.196 -56.318 322.125  1.00  0.00     0.008 C 
ATOM     14  C   UNL     1      47.555 -54.341 318.727  1.00  0.00     0.017 C 
ATOM     15  C   UNL     1      48.141 -54.957 316.278  1.00  0.00    -0.020 C 
ATOM     16  C   UNL     1      46.744 -57.080 316.860  1.00  0.00     0.032 C 
ATOM     17  C   UNL     1      46.766 -55.711 316.084  1.00  0.00     0.006 C 
ATOM     18  C   UNL     1      49.184 -55.682 315.378  1.00  0.00     0.008 C 
ATOM     19  C   UNL     1      47.985 -53.443 315.855  1.00  0.00     0.012 C 
ATOM     20  C   UNL     1      46.251 -55.906 314.563  1.00  0.00    -0.025 C 
ATOM     21  C   UNL     1      48.773 -55.822 313.914  1.00  0.00     0.005 C 
ATOM     22  C   UNL     1      47.399 -56.515 313.658  1.00  0.00     0.003 C 
ATOM     23  C   UNL     1      45.800 -54.588 313.866  1.00  0.00     0.010 C 
ATOM     24  C   UNL     1      44.975 -56.830 314.646  1.00  0.00     0.012 C 
ATOM     25  C   UNL     1      47.068 -56.590 312.074  1.00  0.00    -0.006 C 
ATOM     26  C   UNL     1      45.231 -54.784 312.433  1.00  0.00     0.033 C 
ATOM     27  C   UNL     1      45.604 -56.131 311.755  1.00  0.00     0.120 C 
ATOM     28  C   UNL     1      48.033 -55.740 311.176  1.00  0.00     0.014 C 
ATOM     29  C   UNL     1      47.219 -58.065 311.617  1.00  0.00     0.014 C 
ENDROOT
BRANCH   1  30
ATOM     30  C   UNL     1      52.434 -56.847 319.478  1.00  0.00     0.048 C 
ATOM     31  O   UNL     1      53.475 -56.233 319.861  1.00  0.00    -0.550 OA
ATOM     32  O   UNL     1      52.554 -58.185 319.099  1.00  0.00    -0.550 OA
ENDBRANCH   1  30
BRANCH  27  33
ATOM     33  O   UNL     1      45.398 -56.038 310.368  1.00  0.00    -0.393 OA
ATOM     34  H   UNL     1      44.537 -55.558 310.233  1.00  0.00     0.210 HD
ENDBRANCH  27  33
TORSDOF 2
ENDMDL
