MODEL 1
REMARK VINA RESULT:    -4.428      0.000      0.000
REMARK INTER + INTRA:          -5.327
REMARK INTER:                  -5.205
REMARK INTRA:                  -0.122
REMARK UNBOUND:                -0.122
REMARK SMILES O=C([O-])C=Cc1ccc(O)c(O)c1
REMARK SMILES IDX 6 1 13 2 7 3 11 4 8 5 9 6 5 7 4 8 2 9 1 10 3 11 12 12 10 14
REMARK H PARENT 12 13 10 15
REMARK Flexibility Score: inf
ROOT
ATOM      1  C   UNL     1       1.620   0.746   7.007  1.00  0.00    -0.022 A 
ATOM      2  C   UNL     1       1.660   1.928   6.241  1.00  0.00     0.058 A 
ATOM      3  C   UNL     1       0.401   0.354   7.583  1.00  0.00     0.012 A 
ATOM      4  C   UNL     1       0.501   2.687   6.037  1.00  0.00     0.157 A 
ATOM      5  C   UNL     1      -0.758   1.108   7.379  1.00  0.00     0.051 A 
ATOM      6  C   UNL     1      -0.715   2.273   6.605  1.00  0.00     0.157 A 
ENDROOT
BRANCH   1   7
ATOM      7  C   UNL     1       2.824  -0.083   7.260  1.00  0.00     0.010 C 
ATOM      8  C   UNL     1       3.849  -0.190   6.403  1.00  0.00     0.025 C 
BRANCH   8   9
ATOM      9  C   UNL     1       5.019  -1.034   6.691  1.00  0.00     0.064 C 
ATOM     10  O   UNL     1       5.805  -0.710   7.619  1.00  0.00    -0.545 OA
ATOM     11  O   UNL     1       5.269  -2.188   5.958  1.00  0.00    -0.545 OA
ENDBRANCH   8   9
ENDBRANCH   1   7
BRANCH   4  12
ATOM     12  O   UNL     1       0.579   3.849   5.270  1.00  0.00    -0.504 OA
ATOM     13  H   UNL     1      -0.033   4.640   5.429  1.00  0.00     0.293 HD
ENDBRANCH   4  12
BRANCH   6  14
ATOM     14  O   UNL     1      -1.872   3.023   6.401  1.00  0.00    -0.504 OA
ATOM     15  H   UNL     1      -2.623   3.034   7.082  1.00  0.00     0.293 HD
ENDBRANCH   6  14
TORSDOF 4
ENDMDL
MODEL 2
REMARK VINA RESULT:    -4.387      0.976      1.969
REMARK INTER + INTRA:          -5.278
REMARK INTER:                  -5.133
REMARK INTRA:                  -0.145
REMARK UNBOUND:                -0.122
REMARK SMILES O=C([O-])C=Cc1ccc(O)c(O)c1
REMARK SMILES IDX 6 1 13 2 7 3 11 4 8 5 9 6 5 7 4 8 2 9 1 10 3 11 12 12 10 14
REMARK H PARENT 12 13 10 15
REMARK Flexibility Score: inf
ROOT
ATOM      1  C   UNL     1       1.360   1.047   6.990  1.00  0.00    -0.022 A 
ATOM      2  C   UNL     1       0.151   0.615   7.572  1.00  0.00     0.058 A 
ATOM      3  C   UNL     1       1.359   2.221   6.222  1.00  0.00     0.012 A 
ATOM      4  C   UNL     1      -1.025   1.356   7.409  1.00  0.00     0.157 A 
ATOM      5  C   UNL     1       0.187   2.964   6.058  1.00  0.00     0.051 A 
ATOM      6  C   UNL     1      -1.007   2.539   6.652  1.00  0.00     0.157 A 
ENDROOT
BRANCH   1   7
ATOM      7  C   UNL     1       2.628   0.288   7.126  1.00  0.00     0.010 C 
ATOM      8  C   UNL     1       3.565   0.226   6.169  1.00  0.00     0.025 C 
BRANCH   8   9
ATOM      9  C   UNL     1       4.803  -0.549   6.342  1.00  0.00     0.064 C 
ATOM     10  O   UNL     1       5.719  -0.100   7.079  1.00  0.00    -0.545 OA
ATOM     11  O   UNL     1       4.978  -1.774   5.708  1.00  0.00    -0.545 OA
ENDBRANCH   8   9
ENDBRANCH   1   7
BRANCH   4  12
ATOM     12  O   UNL     1      -2.202   0.899   8.003  1.00  0.00    -0.504 OA
ATOM     13  H   UNL     1      -2.637   0.026   7.731  1.00  0.00     0.293 HD
ENDBRANCH   4  12
BRANCH   6  14
ATOM     14  O   UNL     1      -2.175   3.282   6.489  1.00  0.00    -0.504 OA
ATOM     15  H   UNL     1      -2.256   4.228   6.844  1.00  0.00     0.293 HD
ENDBRANCH   6  14
TORSDOF 4
ENDMDL
MODEL 3
REMARK VINA RESULT:    -4.322      7.091      7.486
REMARK INTER + INTRA:          -5.202
REMARK INTER:                  -5.067
REMARK INTRA:                  -0.135
REMARK UNBOUND:                -0.122
REMARK SMILES O=C([O-])C=Cc1ccc(O)c(O)c1
REMARK SMILES IDX 6 1 13 2 7 3 11 4 8 5 9 6 5 7 4 8 2 9 1 10 3 11 12 12 10 14
REMARK H PARENT 12 13 10 15
REMARK Flexibility Score: inf
ROOT
ATOM      1  C   UNL     1      -0.029  -3.949   1.383  1.00  0.00    -0.022 A 
ATOM      2  C   UNL     1      -1.081  -4.561   2.094  1.00  0.00     0.058 A 
ATOM      3  C   UNL     1      -0.283  -2.753   0.695  1.00  0.00     0.012 A 
ATOM      4  C   UNL     1      -2.351  -3.973   2.135  1.00  0.00     0.157 A 
ATOM      5  C   UNL     1      -1.549  -2.163   0.736  1.00  0.00     0.051 A 
ATOM      6  C   UNL     1      -2.586  -2.767   1.457  1.00  0.00     0.157 A 
ENDROOT
BRANCH   1   7
ATOM      7  C   UNL     1       1.330  -4.541   1.300  1.00  0.00     0.010 C 
ATOM      8  C   UNL     1       2.436  -3.930   1.747  1.00  0.00     0.025 C 
BRANCH   8   9
ATOM      9  C   UNL     1       3.765  -4.549   1.634  1.00  0.00     0.064 C 
ATOM     10  O   UNL     1       3.942  -5.723   2.053  1.00  0.00    -0.545 OA
ATOM     11  O   UNL     1       4.832  -3.861   1.067  1.00  0.00    -0.545 OA
ENDBRANCH   8   9
ENDBRANCH   1   7
BRANCH   4  12
ATOM     12  O   UNL     1      -3.367  -4.607   2.853  1.00  0.00    -0.504 OA
ATOM     13  H   UNL     1      -3.909  -5.366   2.460  1.00  0.00     0.293 HD
ENDBRANCH   4  12
BRANCH   6  14
ATOM     14  O   UNL     1      -3.849  -2.176   1.498  1.00  0.00    -0.504 OA
ATOM     15  H   UNL     1      -3.989  -1.251   1.887  1.00  0.00     0.293 HD
ENDBRANCH   6  14
TORSDOF 4
ENDMDL
MODEL 4
REMARK VINA RESULT:    -4.269      9.866     11.629
REMARK INTER + INTRA:          -5.139
REMARK INTER:                  -5.012
REMARK INTRA:                  -0.127
REMARK UNBOUND:                -0.122
REMARK SMILES O=C([O-])C=Cc1ccc(O)c(O)c1
REMARK SMILES IDX 6 1 13 2 7 3 11 4 8 5 9 6 5 7 4 8 2 9 1 10 3 11 12 12 10 14
REMARK H PARENT 12 13 10 15
REMARK Flexibility Score: inf
ROOT
ATOM      1  C   UNL     1      -5.137  -4.434   1.220  1.00  0.00    -0.022 A 
ATOM      2  C   UNL     1      -4.985  -3.074   1.557  1.00  0.00     0.058 A 
ATOM      3  C   UNL     1      -3.989  -5.196   0.950  1.00  0.00     0.012 A 
ATOM      4  C   UNL     1      -3.712  -2.498   1.645  1.00  0.00     0.157 A 
ATOM      5  C   UNL     1      -2.717  -4.625   1.040  1.00  0.00     0.051 A 
ATOM      6  C   UNL     1      -2.572  -3.277   1.390  1.00  0.00     0.157 A 
ENDROOT
BRANCH   1   7
ATOM      7  C   UNL     1      -6.465  -5.085   1.102  1.00  0.00     0.010 C 
ATOM      8  C   UNL     1      -7.475  -4.588   0.374  1.00  0.00     0.025 C 
BRANCH   8   9
ATOM      9  C   UNL     1      -8.781  -5.261   0.296  1.00  0.00     0.064 C 
ATOM     10  O   UNL     1      -8.849  -6.506   0.470  1.00  0.00    -0.545 OA
ATOM     11  O   UNL     1      -9.943  -4.545   0.035  1.00  0.00    -0.545 OA
ENDBRANCH   8   9
ENDBRANCH   1   7
BRANCH   4  12
ATOM     12  O   UNL     1      -3.601  -1.149   1.985  1.00  0.00    -0.504 OA
ATOM     13  H   UNL     1      -3.535  -0.422   1.283  1.00  0.00     0.293 HD
ENDBRANCH   4  12
BRANCH   6  14
ATOM     14  O   UNL     1      -1.302  -2.709   1.480  1.00  0.00    -0.504 OA
ATOM     15  H   UNL     1      -0.514  -3.228   1.850  1.00  0.00     0.293 HD
ENDBRANCH   6  14
TORSDOF 4
ENDMDL
MODEL 5
REMARK VINA RESULT:    -4.185      6.869      7.148
REMARK INTER + INTRA:          -5.040
REMARK INTER:                  -4.915
REMARK INTRA:                  -0.126
REMARK UNBOUND:                -0.122
REMARK SMILES O=C([O-])C=Cc1ccc(O)c(O)c1
REMARK SMILES IDX 6 1 13 2 7 3 11 4 8 5 9 6 5 7 4 8 2 9 1 10 3 11 12 12 10 14
REMARK H PARENT 12 13 10 15
REMARK Flexibility Score: inf
ROOT
ATOM      1  C   UNL     1       0.442  -4.089   1.470  1.00  0.00    -0.022 A 
ATOM      2  C   UNL     1      -0.004  -2.910   0.839  1.00  0.00     0.058 A 
ATOM      3  C   UNL     1      -0.494  -4.891   2.142  1.00  0.00     0.012 A 
ATOM      4  C   UNL     1      -1.359  -2.557   0.860  1.00  0.00     0.157 A 
ATOM      5  C   UNL     1      -1.846  -4.543   2.162  1.00  0.00     0.051 A 
ATOM      6  C   UNL     1      -2.286  -3.379   1.521  1.00  0.00     0.157 A 
ENDROOT
BRANCH   1   7
ATOM      7  C   UNL     1       1.868  -4.497   1.485  1.00  0.00     0.010 C 
ATOM      8  C   UNL     1       2.867  -3.698   1.886  1.00  0.00     0.025 C 
BRANCH   8   9
ATOM      9  C   UNL     1       4.270  -4.141   1.873  1.00  0.00     0.064 C 
ATOM     10  O   UNL     1       4.782  -4.550   0.798  1.00  0.00    -0.545 OA
ATOM     11  O   UNL     1       5.042  -4.114   3.028  1.00  0.00    -0.545 OA
ENDBRANCH   8   9
ENDBRANCH   1   7
BRANCH   4  12
ATOM     12  O   UNL     1      -1.762  -1.384   0.221  1.00  0.00    -0.504 OA
ATOM     13  H   UNL     1      -1.099  -0.752  -0.210  1.00  0.00     0.293 HD
ENDBRANCH   4  12
BRANCH   6  14
ATOM     14  O   UNL     1      -3.636  -3.033   1.541  1.00  0.00    -0.504 OA
ATOM     15  H   UNL     1      -4.112  -2.808   2.407  1.00  0.00     0.293 HD
ENDBRANCH   6  14
TORSDOF 4
ENDMDL
MODEL 6
REMARK VINA RESULT:    -4.043     11.517     12.631
REMARK INTER + INTRA:          -4.874
REMARK INTER:                  -4.732
REMARK INTRA:                  -0.142
REMARK UNBOUND:                -0.122
REMARK SMILES O=C([O-])C=Cc1ccc(O)c(O)c1
REMARK SMILES IDX 6 1 13 2 7 3 11 4 8 5 9 6 5 7 4 8 2 9 1 10 3 11 12 12 10 14
REMARK H PARENT 12 13 10 15
REMARK Flexibility Score: inf
ROOT
ATOM      1  C   UNL     1      -7.469  -4.869   0.588  1.00  0.00    -0.022 A 
ATOM      2  C   UNL     1      -8.591  -5.592   1.040  1.00  0.00     0.058 A 
ATOM      3  C   UNL     1      -7.649  -3.889  -0.402  1.00  0.00     0.012 A 
ATOM      4  C   UNL     1      -9.868  -5.322   0.531  1.00  0.00     0.157 A 
ATOM      5  C   UNL     1      -8.921  -3.616  -0.910  1.00  0.00     0.051 A 
ATOM      6  C   UNL     1     -10.035  -4.326  -0.446  1.00  0.00     0.157 A 
ENDROOT
BRANCH   1   7
ATOM      7  C   UNL     1      -6.096  -5.129   1.088  1.00  0.00     0.010 C 
ATOM      8  C   UNL     1      -5.193  -4.165   1.318  1.00  0.00     0.025 C 
BRANCH   8   9
ATOM      9  C   UNL     1      -3.839  -4.470   1.803  1.00  0.00     0.064 C 
ATOM     10  O   UNL     1      -3.559  -4.294   3.018  1.00  0.00    -0.545 OA
ATOM     11  O   UNL     1      -2.860  -4.955   0.943  1.00  0.00    -0.545 OA
ENDBRANCH   8   9
ENDBRANCH   1   7
BRANCH   4  12
ATOM     12  O   UNL     1     -10.955  -6.056   1.005  1.00  0.00    -0.504 OA
ATOM     13  H   UNL     1     -11.903  -5.705   0.953  1.00  0.00     0.293 HD
ENDBRANCH   4  12
BRANCH   6  14
ATOM     14  O   UNL     1     -11.304  -4.051  -0.953  1.00  0.00    -0.504 OA
ATOM     15  H   UNL     1     -11.823  -4.741  -1.484  1.00  0.00     0.293 HD
ENDBRANCH   6  14
TORSDOF 4
ENDMDL
MODEL 7
REMARK VINA RESULT:    -3.974     10.498     11.736
REMARK INTER + INTRA:          -4.793
REMARK INTER:                  -4.667
REMARK INTRA:                  -0.126
REMARK UNBOUND:                -0.122
REMARK SMILES O=C([O-])C=Cc1ccc(O)c(O)c1
REMARK SMILES IDX 6 1 13 2 7 3 11 4 8 5 9 6 5 7 4 8 2 9 1 10 3 11 12 12 10 14
REMARK H PARENT 12 13 10 15
REMARK Flexibility Score: inf
ROOT
ATOM      1  C   UNL     1      -7.758   5.946   3.602  1.00  0.00    -0.022 A 
ATOM      2  C   UNL     1      -6.532   5.996   2.909  1.00  0.00     0.058 A 
ATOM      3  C   UNL     1      -8.789   6.817   3.216  1.00  0.00     0.012 A 
ATOM      4  C   UNL     1      -6.352   6.881   1.839  1.00  0.00     0.157 A 
ATOM      5  C   UNL     1      -8.613   7.700   2.147  1.00  0.00     0.051 A 
ATOM      6  C   UNL     1      -7.398   7.734   1.453  1.00  0.00     0.157 A 
ENDROOT
BRANCH   1   7
ATOM      7  C   UNL     1      -7.992   5.034   4.749  1.00  0.00     0.010 C 
ATOM      8  C   UNL     1      -7.796   5.382   6.028  1.00  0.00     0.025 C 
BRANCH   8   9
ATOM      9  C   UNL     1      -8.028   4.440   7.134  1.00  0.00     0.064 C 
ATOM     10  O   UNL     1      -9.138   4.441   7.728  1.00  0.00    -0.545 OA
ATOM     11  O   UNL     1      -7.043   3.544   7.534  1.00  0.00    -0.545 OA
ENDBRANCH   8   9
ENDBRANCH   1   7
BRANCH   4  12
ATOM     12  O   UNL     1      -5.124   6.900   1.176  1.00  0.00    -0.504 OA
ATOM     13  H   UNL     1      -4.978   6.408   0.303  1.00  0.00     0.293 HD
ENDBRANCH   4  12
BRANCH   6  14
ATOM     14  O   UNL     1      -7.224   8.615   0.386  1.00  0.00    -0.504 OA
ATOM     15  H   UNL     1      -8.013   9.060  -0.067  1.00  0.00     0.293 HD
ENDBRANCH   6  14
TORSDOF 4
ENDMDL
MODEL 8
REMARK VINA RESULT:    -3.887     11.333     11.763
REMARK INTER + INTRA:          -4.690
REMARK INTER:                  -4.546
REMARK INTRA:                  -0.144
REMARK UNBOUND:                -0.122
REMARK SMILES O=C([O-])C=Cc1ccc(O)c(O)c1
REMARK SMILES IDX 6 1 13 2 7 3 11 4 8 5 9 6 5 7 4 8 2 9 1 10 3 11 12 12 10 14
REMARK H PARENT 12 13 10 15
REMARK Flexibility Score: inf
ROOT
ATOM      1  C   UNL     1       3.985   1.757  -4.931  1.00  0.00    -0.022 A 
ATOM      2  C   UNL     1       2.686   1.788  -5.478  1.00  0.00     0.058 A 
ATOM      3  C   UNL     1       4.460   2.891  -4.252  1.00  0.00     0.012 A 
ATOM      4  C   UNL     1       1.874   2.919  -5.326  1.00  0.00     0.157 A 
ATOM      5  C   UNL     1       3.651   4.019  -4.098  1.00  0.00     0.051 A 
ATOM      6  C   UNL     1       2.356   4.038  -4.629  1.00  0.00     0.157 A 
ENDROOT
BRANCH   1   7
ATOM      7  C   UNL     1       4.886   0.587  -5.077  1.00  0.00     0.010 C 
ATOM      8  C   UNL     1       5.755   0.195  -4.135  1.00  0.00     0.025 C 
BRANCH   8   9
ATOM      9  C   UNL     1       6.639  -0.965  -4.327  1.00  0.00     0.064 C 
ATOM     10  O   UNL     1       6.209  -2.122  -4.078  1.00  0.00    -0.545 OA
ATOM     11  O   UNL     1       7.942  -0.807  -4.785  1.00  0.00    -0.545 OA
ENDBRANCH   8   9
ENDBRANCH   1   7
BRANCH   4  12
ATOM     12  O   UNL     1       0.593   2.910  -5.878  1.00  0.00    -0.504 OA
ATOM     13  H   UNL     1      -0.109   3.591  -5.616  1.00  0.00     0.293 HD
ENDBRANCH   4  12
BRANCH   6  14
ATOM     14  O   UNL     1       1.550   5.164  -4.473  1.00  0.00    -0.504 OA
ATOM     15  H   UNL     1       1.625   5.760  -3.657  1.00  0.00     0.293 HD
ENDBRANCH   6  14
TORSDOF 4
ENDMDL
MODEL 9
REMARK VINA RESULT:    -3.835     11.265     12.505
REMARK INTER + INTRA:          -4.630
REMARK INTER:                  -4.501
REMARK INTRA:                  -0.129
REMARK UNBOUND:                -0.122
REMARK SMILES O=C([O-])C=Cc1ccc(O)c(O)c1
REMARK SMILES IDX 6 1 13 2 7 3 11 4 8 5 9 6 5 7 4 8 2 9 1 10 3 11 12 12 10 14
REMARK H PARENT 12 13 10 15
REMARK Flexibility Score: inf
ROOT
ATOM      1  C   UNL     1      -7.306  -4.885   0.695  1.00  0.00    -0.022 A 
ATOM      2  C   UNL     1      -8.227  -4.186  -0.112  1.00  0.00     0.058 A 
ATOM      3  C   UNL     1      -7.768  -5.955   1.477  1.00  0.00     0.012 A 
ATOM      4  C   UNL     1      -9.574  -4.568  -0.153  1.00  0.00     0.157 A 
ATOM      5  C   UNL     1      -9.111  -6.339   1.437  1.00  0.00     0.051 A 
ATOM      6  C   UNL     1     -10.018  -5.652   0.621  1.00  0.00     0.157 A 
ENDROOT
BRANCH   1   7
ATOM      7  C   UNL     1      -5.873  -4.510   0.780  1.00  0.00     0.010 C 
ATOM      8  C   UNL     1      -5.425  -3.422   1.423  1.00  0.00     0.025 C 
BRANCH   8   9
ATOM      9  C   UNL     1      -3.995  -3.083   1.472  1.00  0.00     0.064 C 
ATOM     10  O   UNL     1      -3.136  -3.974   1.241  1.00  0.00    -0.545 OA
ATOM     11  O   UNL     1      -3.573  -1.791   1.764  1.00  0.00    -0.545 OA
ENDBRANCH   8   9
ENDBRANCH   1   7
BRANCH   4  12
ATOM     12  O   UNL     1     -10.455  -3.855  -0.966  1.00  0.00    -0.504 OA
ATOM     13  H   UNL     1     -10.140  -3.348  -1.785  1.00  0.00     0.293 HD
ENDBRANCH   4  12
BRANCH   6  14
ATOM     14  O   UNL     1     -11.357  -6.037   0.581  1.00  0.00    -0.504 OA
ATOM     15  H   UNL     1     -12.092  -5.376   0.361  1.00  0.00     0.293 HD
ENDBRANCH   6  14
TORSDOF 4
ENDMDL
