MODEL 1
REMARK VINA RESULT:    -4.685      0.000      0.000
REMARK INTER + INTRA:          -4.693
REMARK INTER:                  -5.780
REMARK INTRA:                   1.087
REMARK UNBOUND:                 1.087
REMARK SMILES C=C1CC[C@H]2[C@H]1[C@H]1[C@H](CC[C@@H]2C)C1(C)C
REMARK SMILES IDX 6 1 5 2 4 3 3 4 2 5 1 6 11 7 12 8 10 9 7 11 8 12 13 13 14 14
REMARK SMILES IDX 15 15 9 16
REMARK H PARENT
REMARK Flexibility Score: 80.00
ROOT
ATOM      1  C   UNL     1       9.573   5.665  28.015  1.00  0.00     0.022 C 
ATOM      2  C   UNL     1       9.803   6.205  29.440  1.00  0.00    -0.000 C 
ATOM      3  C   UNL     1       9.374   5.016  30.308  1.00  0.00     0.009 C 
ATOM      4  C   UNL     1       9.906   3.787  29.546  1.00  0.00     0.031 C 
ATOM      5  C   UNL     1       9.986   4.240  28.118  1.00  0.00    -0.074 C 
ATOM      6  C   UNL     1      10.123   3.404  27.082  1.00  0.00     0.008 C 
ENDROOT
BRANCH   2   7
ATOM      7  C   UNL     1       9.139   7.608  29.656  1.00  0.00    -0.011 C 
ATOM      8  C   UNL     1       8.734   7.818  31.125  1.00  0.00     0.008 C 
BRANCH   7   9
ATOM      9  C   UNL     1      10.093   8.780  29.229  1.00  0.00     0.004 CG0
ATOM     10  G   UNL     1      10.547   8.813  27.744  1.00  0.00     0.000 G0
ENDBRANCH   7   9
ENDBRANCH   2   7
BRANCH   1  11
ATOM     11  C   UNL     1      10.040   6.570  26.846  1.00  0.00     0.006 C 
ATOM     12  C   UNL     1      11.187   7.486  27.366  1.00  0.00    -0.001 C 
ATOM     13  C   UNL     1      11.317   6.784  26.032  1.00  0.00    -0.029 C 
ATOM     14  C   UNL     1      11.216   7.685  24.796  1.00  0.00     0.012 C 
ATOM     15  C   UNL     1      12.325   5.632  25.976  1.00  0.00     0.012 C 
BRANCH  12  16
ATOM     16  C   UNL     1      10.542   8.823  27.748  1.00  0.00     0.005 CG0
ATOM     17  G   UNL     1      10.085   8.779  29.232  1.00  0.00     0.000 G0
ENDBRANCH  12  16
ENDBRANCH   1  11
TORSDOF 0
ENDMDL
MODEL 2
REMARK VINA RESULT:    -4.382     10.785     12.732
REMARK INTER + INTRA:          -4.320
REMARK INTER:                  -5.403
REMARK INTRA:                   1.082
REMARK UNBOUND:                 1.087
REMARK SMILES C=C1CC[C@H]2[C@H]1[C@H]1[C@H](CC[C@@H]2C)C1(C)C
REMARK SMILES IDX 6 1 5 2 4 3 3 4 2 5 1 6 11 7 12 8 10 9 7 11 8 12 13 13 14 14
REMARK SMILES IDX 15 15 9 16
REMARK H PARENT
REMARK Flexibility Score: 80.00
ROOT
ATOM      1  C   UNL     1       3.263   9.100  17.257  1.00  0.00     0.022 C 
ATOM      2  C   UNL     1       3.182   8.390  18.623  1.00  0.00    -0.000 C 
ATOM      3  C   UNL     1       1.797   8.816  19.125  1.00  0.00     0.009 C 
ATOM      4  C   UNL     1       0.915   8.779  17.862  1.00  0.00     0.031 C 
ATOM      5  C   UNL     1       1.877   8.988  16.730  1.00  0.00    -0.074 C 
ATOM      6  C   UNL     1       1.499   9.312  15.488  1.00  0.00     0.008 C 
ENDROOT
BRANCH   2   7
ATOM      7  C   UNL     1       4.448   8.659  19.506  1.00  0.00    -0.011 C 
ATOM      8  C   UNL     1       4.108   8.615  21.005  1.00  0.00     0.008 C 
BRANCH   7   9
ATOM      9  C   UNL     1       5.591   7.620  19.223  1.00  0.00     0.004 CG0
ATOM     10  G   UNL     1       6.168   7.582  17.781  1.00  0.00     0.000 G0
ENDBRANCH   7   9
ENDBRANCH   2   7
BRANCH   1  11
ATOM     11  C   UNL     1       4.500   8.779  16.380  1.00  0.00     0.006 C 
ATOM     12  C   UNL     1       5.027   7.369  16.777  1.00  0.00    -0.001 C 
ATOM     13  C   UNL     1       4.889   7.748  15.319  1.00  0.00    -0.029 C 
ATOM     14  C   UNL     1       6.204   7.980  14.567  1.00  0.00     0.012 C 
ATOM     15  C   UNL     1       3.757   7.059  14.552  1.00  0.00     0.012 C 
BRANCH  12  16
ATOM     16  C   UNL     1       6.167   7.590  17.778  1.00  0.00     0.005 CG0
ATOM     17  G   UNL     1       5.597   7.621  19.223  1.00  0.00     0.000 G0
ENDBRANCH  12  16
ENDBRANCH   1  11
TORSDOF 0
ENDMDL
MODEL 3
REMARK VINA RESULT:    -4.366      3.738      5.914
REMARK INTER + INTRA:          -4.300
REMARK INTER:                  -5.383
REMARK INTRA:                   1.083
REMARK UNBOUND:                 1.087
REMARK SMILES C=C1CC[C@H]2[C@H]1[C@H]1[C@H](CC[C@@H]2C)C1(C)C
REMARK SMILES IDX 6 1 5 2 4 3 3 4 2 5 1 6 11 7 12 8 10 9 7 11 8 12 13 13 14 14
REMARK SMILES IDX 15 15 9 16
REMARK H PARENT
REMARK Flexibility Score: 80.00
ROOT
ATOM      1  C   UNL     1      13.356   7.153  25.156  1.00  0.00     0.022 C 
ATOM      2  C   UNL     1      12.317   8.246  24.837  1.00  0.00    -0.000 C 
ATOM      3  C   UNL     1      11.079   7.740  25.587  1.00  0.00     0.009 C 
ATOM      4  C   UNL     1      11.645   7.174  26.903  1.00  0.00     0.031 C 
ATOM      5  C   UNL     1      13.059   6.799  26.570  1.00  0.00    -0.074 C 
ATOM      6  C   UNL     1      13.816   6.009  27.339  1.00  0.00     0.008 C 
ENDROOT
BRANCH   2   7
ATOM      7  C   UNL     1      12.230   8.550  23.302  1.00  0.00    -0.011 C 
ATOM      8  C   UNL     1      10.822   9.023  22.902  1.00  0.00     0.008 C 
BRANCH   7   9
ATOM      9  C   UNL     1      13.268   9.643  22.862  1.00  0.00     0.004 CG0
ATOM     10  G   UNL     1      14.771   9.314  23.074  1.00  0.00     0.000 G0
ENDBRANCH   7   9
ENDBRANCH   2   7
BRANCH   1  11
ATOM     11  C   UNL     1      14.804   7.407  24.664  1.00  0.00     0.006 C 
ATOM     12  C   UNL     1      15.016   8.944  24.543  1.00  0.00    -0.001 C 
ATOM     13  C   UNL     1      16.071   8.079  25.197  1.00  0.00    -0.029 C 
ATOM     14  C   UNL     1      17.359   7.881  24.391  1.00  0.00     0.012 C 
ATOM     15  C   UNL     1      16.211   8.225  26.714  1.00  0.00     0.012 C 
BRANCH  12  16
ATOM     16  C   UNL     1      14.772   9.308  23.073  1.00  0.00     0.005 CG0
ATOM     17  G   UNL     1      13.270   9.638  22.858  1.00  0.00     0.000 G0
ENDBRANCH  12  16
ENDBRANCH   1  11
TORSDOF 0
ENDMDL
MODEL 4
REMARK VINA RESULT:    -4.316      3.958      5.812
REMARK INTER + INTRA:          -4.238
REMARK INTER:                  -5.313
REMARK INTRA:                   1.075
REMARK UNBOUND:                 1.087
REMARK SMILES C=C1CC[C@H]2[C@H]1[C@H]1[C@H](CC[C@@H]2C)C1(C)C
REMARK SMILES IDX 6 1 5 2 4 3 3 4 2 5 1 6 11 7 12 8 10 9 7 11 8 12 13 13 14 14
REMARK SMILES IDX 15 15 9 16
REMARK H PARENT
REMARK Flexibility Score: 80.00
ROOT
ATOM      1  C   UNL     1      12.921   8.050  25.561  1.00  0.00     0.022 C 
ATOM      2  C   UNL     1      14.358   7.509  25.699  1.00  0.00    -0.000 C 
ATOM      3  C   UNL     1      14.289   6.752  27.031  1.00  0.00     0.009 C 
ATOM      4  C   UNL     1      12.905   6.076  27.005  1.00  0.00     0.031 C 
ATOM      5  C   UNL     1      12.085   6.942  26.095  1.00  0.00    -0.074 C 
ATOM      6  C   UNL     1      10.750   6.882  26.021  1.00  0.00     0.008 C 
ENDROOT
BRANCH   2   7
ATOM      7  C   UNL     1      15.434   8.629  25.492  1.00  0.00    -0.011 C 
ATOM      8  C   UNL     1      16.712   8.336  26.296  1.00  0.00     0.008 C 
BRANCH   7   9
ATOM      9  C   UNL     1      15.823   8.796  23.980  1.00  0.00     0.004 CG0
ATOM     10  G   UNL     1      14.692   9.223  23.005  1.00  0.00     0.000 G0
ENDBRANCH   7   9
ENDBRANCH   2   7
BRANCH   1  11
ATOM     11  C   UNL     1      12.574   8.768  24.231  1.00  0.00     0.006 C 
ATOM     12  C   UNL     1      13.523   8.226  23.122  1.00  0.00    -0.001 C 
ATOM     13  C   UNL     1      12.043   8.381  22.850  1.00  0.00    -0.029 C 
ATOM     14  C   UNL     1      11.658   9.524  21.904  1.00  0.00     0.012 C 
ATOM     15  C   UNL     1      11.242   7.081  22.737  1.00  0.00     0.012 C 
BRANCH  12  16
ATOM     16  C   UNL     1      14.683   9.222  23.010  1.00  0.00     0.005 CG0
ATOM     17  G   UNL     1      15.827   8.804  23.974  1.00  0.00     0.000 G0
ENDBRANCH  12  16
ENDBRANCH   1  11
TORSDOF 0
ENDMDL
MODEL 5
REMARK VINA RESULT:    -4.298      4.426      7.332
REMARK INTER + INTRA:          -4.216
REMARK INTER:                  -5.295
REMARK INTRA:                   1.079
REMARK UNBOUND:                 1.087
REMARK SMILES C=C1CC[C@H]2[C@H]1[C@H]1[C@H](CC[C@@H]2C)C1(C)C
REMARK SMILES IDX 6 1 5 2 4 3 3 4 2 5 1 6 11 7 12 8 10 9 7 11 8 12 13 13 14 14
REMARK SMILES IDX 15 15 9 16
REMARK H PARENT
REMARK Flexibility Score: 80.00
ROOT
ATOM      1  C   UNL     1      14.883   8.037  23.669  1.00  0.00     0.022 C 
ATOM      2  C   UNL     1      15.708   9.239  24.169  1.00  0.00    -0.000 C 
ATOM      3  C   UNL     1      15.804  10.109  22.910  1.00  0.00     0.009 C 
ATOM      4  C   UNL     1      14.412   9.980  22.261  1.00  0.00     0.031 C 
ATOM      5  C   UNL     1      13.895   8.659  22.747  1.00  0.00    -0.074 C 
ATOM      6  C   UNL     1      12.851   8.026  22.201  1.00  0.00     0.008 C 
ENDROOT
BRANCH   2   7
ATOM      7  C   UNL     1      17.015   8.794  24.911  1.00  0.00    -0.011 C 
ATOM      8  C   UNL     1      18.128   9.844  24.768  1.00  0.00     0.008 C 
BRANCH   7   9
ATOM      9  C   UNL     1      16.763   8.537  26.440  1.00  0.00     0.004 CG0
ATOM     10  G   UNL     1      15.756   7.414  26.809  1.00  0.00     0.000 G0
ENDBRANCH   7   9
ENDBRANCH   2   7
BRANCH   1  11
ATOM     11  C   UNL     1      14.463   6.992  24.735  1.00  0.00     0.006 C 
ATOM     12  C   UNL     1      14.411   7.702  26.120  1.00  0.00    -0.001 C 
ATOM     13  C   UNL     1      13.293   6.775  25.695  1.00  0.00    -0.029 C 
ATOM     14  C   UNL     1      13.230   5.431  26.429  1.00  0.00     0.012 C 
ATOM     15  C   UNL     1      11.960   7.446  25.353  1.00  0.00     0.012 C 
BRANCH  12  16
ATOM     16  C   UNL     1      15.752   7.422  26.808  1.00  0.00     0.005 CG0
ATOM     17  G   UNL     1      16.770   8.537  26.444  1.00  0.00     0.000 G0
ENDBRANCH  12  16
ENDBRANCH   1  11
TORSDOF 0
ENDMDL
MODEL 6
REMARK VINA RESULT:    -4.271     10.854     13.154
REMARK INTER + INTRA:          -4.183
REMARK INTER:                  -5.272
REMARK INTRA:                   1.090
REMARK UNBOUND:                 1.087
REMARK SMILES C=C1CC[C@H]2[C@H]1[C@H]1[C@H](CC[C@@H]2C)C1(C)C
REMARK SMILES IDX 6 1 5 2 4 3 3 4 2 5 1 6 11 7 12 8 10 9 7 11 8 12 13 13 14 14
REMARK SMILES IDX 15 15 9 16
REMARK H PARENT
REMARK Flexibility Score: 80.00
ROOT
ATOM      1  C   UNL     1       2.550   8.066  17.606  1.00  0.00     0.022 C 
ATOM      2  C   UNL     1       3.416   8.412  16.378  1.00  0.00    -0.000 C 
ATOM      3  C   UNL     1       2.357   8.623  15.288  1.00  0.00     0.009 C 
ATOM      4  C   UNL     1       1.214   9.357  16.015  1.00  0.00     0.031 C 
ATOM      5  C   UNL     1       1.367   8.954  17.452  1.00  0.00    -0.074 C 
ATOM      6  C   UNL     1       0.415   9.132  18.375  1.00  0.00     0.008 C 
ENDROOT
BRANCH   2   7
ATOM      7  C   UNL     1       4.569   7.374  16.155  1.00  0.00    -0.011 C 
ATOM      8  C   UNL     1       4.937   7.254  14.668  1.00  0.00     0.008 C 
BRANCH   7   9
ATOM      9  C   UNL     1       5.863   7.754  16.961  1.00  0.00     0.004 CG0
ATOM     10  G   UNL     1       5.736   7.816  18.508  1.00  0.00     0.000 G0
ENDBRANCH   7   9
ENDBRANCH   2   7
BRANCH   1  11
ATOM     11  C   UNL     1       3.292   7.920  18.959  1.00  0.00     0.006 C 
ATOM     12  C   UNL     1       4.592   8.776  18.898  1.00  0.00    -0.001 C 
ATOM     13  C   UNL     1       3.701   8.828  20.120  1.00  0.00    -0.029 C 
ATOM     14  C   UNL     1       4.258   8.149  21.376  1.00  0.00     0.012 C 
ATOM     15  C   UNL     1       2.912  10.125  20.319  1.00  0.00     0.012 C 
BRANCH  12  16
ATOM     16  C   UNL     1       5.729   7.822  18.513  1.00  0.00     0.005 CG0
ATOM     17  G   UNL     1       5.860   7.760  16.967  1.00  0.00     0.000 G0
ENDBRANCH  12  16
ENDBRANCH   1  11
TORSDOF 0
ENDMDL
MODEL 7
REMARK VINA RESULT:    -4.266     10.490     12.617
REMARK INTER + INTRA:          -4.176
REMARK INTER:                  -5.263
REMARK INTRA:                   1.087
REMARK UNBOUND:                 1.087
REMARK SMILES C=C1CC[C@H]2[C@H]1[C@H]1[C@H](CC[C@@H]2C)C1(C)C
REMARK SMILES IDX 6 1 5 2 4 3 3 4 2 5 1 6 11 7 12 8 10 9 7 11 8 12 13 13 14 14
REMARK SMILES IDX 15 15 9 16
REMARK H PARENT
REMARK Flexibility Score: 80.00
ROOT
ATOM      1  C   UNL     1       3.991   7.582  17.134  1.00  0.00     0.022 C 
ATOM      2  C   UNL     1       5.230   8.126  17.871  1.00  0.00    -0.000 C 
ATOM      3  C   UNL     1       6.356   7.819  16.876  1.00  0.00     0.009 C 
ATOM      4  C   UNL     1       5.730   8.119  15.500  1.00  0.00     0.031 C 
ATOM      5  C   UNL     1       4.257   7.930  15.713  1.00  0.00    -0.074 C 
ATOM      6  C   UNL     1       3.375   7.809  14.714  1.00  0.00     0.008 C 
ENDROOT
BRANCH   2   7
ATOM      7  C   UNL     1       5.324   7.595  19.343  1.00  0.00    -0.011 C 
ATOM      8  C   UNL     1       6.784   7.504  19.815  1.00  0.00     0.008 C 
BRANCH   7   9
ATOM      9  C   UNL     1       4.530   8.507  20.346  1.00  0.00     0.004 CG0
ATOM     10  G   UNL     1       3.003   8.653  20.107  1.00  0.00     0.000 G0
ENDBRANCH   7   9
ENDBRANCH   2   7
BRANCH   1  11
ATOM     11  C   UNL     1       2.615   7.850  17.797  1.00  0.00     0.006 C 
ATOM     12  C   UNL     1       2.740   9.125  18.681  1.00  0.00    -0.001 C 
ATOM     13  C   UNL     1       1.547   8.944  17.768  1.00  0.00    -0.029 C 
ATOM     14  C   UNL     1       0.217   8.642  18.467  1.00  0.00     0.012 C 
ATOM     15  C   UNL     1       1.500   9.856  16.539  1.00  0.00     0.012 C 
BRANCH  12  16
ATOM     16  C   UNL     1       3.002   8.644  20.114  1.00  0.00     0.005 CG0
ATOM     17  G   UNL     1       4.531   8.514  20.351  1.00  0.00     0.000 G0
ENDBRANCH  12  16
ENDBRANCH   1  11
TORSDOF 0
ENDMDL
MODEL 8
REMARK VINA RESULT:    -4.266      3.484      6.662
REMARK INTER + INTRA:          -4.176
REMARK INTER:                  -5.259
REMARK INTRA:                   1.083
REMARK UNBOUND:                 1.087
REMARK SMILES C=C1CC[C@H]2[C@H]1[C@H]1[C@H](CC[C@@H]2C)C1(C)C
REMARK SMILES IDX 6 1 5 2 4 3 3 4 2 5 1 6 11 7 12 8 10 9 7 11 8 12 13 13 14 14
REMARK SMILES IDX 15 15 9 16
REMARK H PARENT
REMARK Flexibility Score: 80.00
ROOT
ATOM      1  C   UNL     1      14.107   8.628  25.050  1.00  0.00     0.022 C 
ATOM      2  C   UNL     1      14.294   8.712  23.522  1.00  0.00    -0.000 C 
ATOM      3  C   UNL     1      15.696   9.322  23.402  1.00  0.00     0.009 C 
ATOM      4  C   UNL     1      16.497   8.639  24.528  1.00  0.00     0.031 C 
ATOM      5  C   UNL     1      15.460   8.250  25.540  1.00  0.00    -0.074 C 
ATOM      6  C   UNL     1      15.749   7.893  26.796  1.00  0.00     0.008 C 
ENDROOT
BRANCH   2   7
ATOM      7  C   UNL     1      13.078   9.405  22.814  1.00  0.00    -0.011 C 
ATOM      8  C   UNL     1      13.513  10.125  21.527  1.00  0.00     0.008 C 
BRANCH   7   9
ATOM      9  C   UNL     1      11.947   8.377  22.454  1.00  0.00     0.004 CG0
ATOM     10  G   UNL     1      11.282   7.618  23.635  1.00  0.00     0.000 G0
ENDBRANCH   7   9
ENDBRANCH   2   7
BRANCH   1  11
ATOM     11  C   UNL     1      12.826   7.916  25.555  1.00  0.00     0.006 C 
ATOM     12  C   UNL     1      12.365   6.908  24.461  1.00  0.00    -0.001 C 
ATOM     13  C   UNL     1      12.400   6.492  25.916  1.00  0.00    -0.029 C 
ATOM     14  C   UNL     1      11.034   6.320  26.589  1.00  0.00     0.012 C 
ATOM     15  C   UNL     1      13.500   5.499  26.303  1.00  0.00     0.012 C 
BRANCH  12  16
ATOM     16  C   UNL     1      11.285   7.617  23.636  1.00  0.00     0.005 CG0
ATOM     17  G   UNL     1      11.945   8.380  22.455  1.00  0.00     0.000 G0
ENDBRANCH  12  16
ENDBRANCH   1  11
TORSDOF 0
ENDMDL
MODEL 9
REMARK VINA RESULT:    -4.238     11.225     13.447
REMARK INTER + INTRA:          -4.142
REMARK INTER:                  -5.222
REMARK INTRA:                   1.079
REMARK UNBOUND:                 1.087
REMARK SMILES C=C1CC[C@H]2[C@H]1[C@H]1[C@H](CC[C@@H]2C)C1(C)C
REMARK SMILES IDX 6 1 5 2 4 3 3 4 2 5 1 6 11 7 12 8 10 9 7 11 8 12 13 13 14 14
REMARK SMILES IDX 15 15 9 16
REMARK H PARENT
REMARK Flexibility Score: 80.00
ROOT
ATOM      1  C   UNL     1       4.381   8.989  18.058  1.00  0.00     0.022 C 
ATOM      2  C   UNL     1       5.091   7.731  17.521  1.00  0.00    -0.000 C 
ATOM      3  C   UNL     1       6.165   7.488  18.589  1.00  0.00     0.009 C 
ATOM      4  C   UNL     1       5.452   7.814  19.915  1.00  0.00     0.031 C 
ATOM      5  C   UNL     1       4.366   8.774  19.529  1.00  0.00    -0.074 C 
ATOM      6  C   UNL     1       3.698   9.528  20.409  1.00  0.00     0.008 C 
ENDROOT
BRANCH   2   7
ATOM      7  C   UNL     1       5.505   7.880  16.017  1.00  0.00    -0.011 C 
ATOM      8  C   UNL     1       6.758   7.049  15.694  1.00  0.00     0.008 C 
BRANCH   7   9
ATOM      9  C   UNL     1       4.352   7.443  15.045  1.00  0.00     0.004 CG0
ATOM     10  G   UNL     1       3.024   8.247  15.121  1.00  0.00     0.000 G0
ENDBRANCH   7   9
ENDBRANCH   2   7
BRANCH   1  11
ATOM     11  C   UNL     1       3.120   9.457  17.287  1.00  0.00     0.006 C 
ATOM     12  C   UNL     1       2.502   8.222  16.567  1.00  0.00    -0.001 C 
ATOM     13  C   UNL     1       1.615   9.186  17.325  1.00  0.00    -0.029 C 
ATOM     14  C   UNL     1       0.721  10.082  16.461  1.00  0.00     0.012 C 
ATOM     15  C   UNL     1       1.021   8.661  18.635  1.00  0.00     0.012 C 
BRANCH  12  16
ATOM     16  C   UNL     1       3.025   8.245  15.126  1.00  0.00     0.005 CG0
ATOM     17  G   UNL     1       4.352   7.443  15.037  1.00  0.00     0.000 G0
ENDBRANCH  12  16
ENDBRANCH   1  11
TORSDOF 0
ENDMDL
