MODEL 1
REMARK VINA RESULT:    -4.446      0.000      0.000
REMARK INTER + INTRA:          -7.433
REMARK INTER:                  -6.786
REMARK INTRA:                  -0.647
REMARK UNBOUND:                -0.647
REMARK SMILES O=C([O-])CCCCCCCCC(=O)[O-]
REMARK SMILES IDX 7 1 6 2 5 3 4 4 2 5 1 6 3 7 8 8 9 9 10 10 11 11 12 12 13 13
REMARK SMILES IDX 14 14
REMARK H PARENT
REMARK Flexibility Score: inf
ROOT
ATOM      1  C   UNL     1     -11.116  -5.025  -8.216  1.00  0.00     0.000 C 
ENDROOT
BRANCH   1   2
ATOM      2  C   UNL     1     -10.815  -3.824  -7.307  1.00  0.00     0.000 C 
BRANCH   2   3
ATOM      3  C   UNL     1     -11.890  -3.613  -6.229  1.00  0.00     0.006 C 
BRANCH   3   4
ATOM      4  C   UNL     1     -12.942  -4.730  -6.217  1.00  0.00     0.053 C 
BRANCH   4   5
ATOM      5  C   UNL     1     -12.873  -5.498  -4.935  1.00  0.00     0.041 C 
ATOM      6  O   UNL     1     -12.439  -4.948  -3.888  1.00  0.00    -0.550 OA
ATOM      7  O   UNL     1     -13.334  -6.807  -4.884  1.00  0.00    -0.550 OA
ENDBRANCH   4   5
ENDBRANCH   3   4
ENDBRANCH   2   3
ENDBRANCH   1   2
BRANCH   1   8
ATOM      8  C   UNL     1     -10.043  -6.110  -8.065  1.00  0.00     0.000 C 
BRANCH   8   9
ATOM      9  C   UNL     1      -9.447  -6.103  -6.653  1.00  0.00     0.000 C 
BRANCH   9  10
ATOM     10  C   UNL     1      -9.952  -7.302  -5.837  1.00  0.00     0.006 C 
BRANCH  10  11
ATOM     11  C   UNL     1      -8.892  -7.827  -4.859  1.00  0.00     0.053 C 
BRANCH  11  12
ATOM     12  C   UNL     1      -8.718  -9.310  -4.970  1.00  0.00     0.041 C 
ATOM     13  O   UNL     1      -9.723 -10.057  -5.099  1.00  0.00    -0.550 OA
ATOM     14  O   UNL     1      -7.449  -9.869  -4.898  1.00  0.00    -0.550 OA
ENDBRANCH  11  12
ENDBRANCH  10  11
ENDBRANCH   9  10
ENDBRANCH   8   9
ENDBRANCH   1   8
TORSDOF 9
ENDMDL
MODEL 2
REMARK VINA RESULT:    -4.431      2.906      4.117
REMARK INTER + INTRA:          -7.409
REMARK INTER:                  -7.058
REMARK INTRA:                  -0.351
REMARK UNBOUND:                -0.647
REMARK SMILES O=C([O-])CCCCCCCCC(=O)[O-]
REMARK SMILES IDX 7 1 6 2 5 3 4 4 2 5 1 6 3 7 8 8 9 9 10 10 11 11 12 12 13 13
REMARK SMILES IDX 14 14
REMARK H PARENT
REMARK Flexibility Score: inf
ROOT
ATOM      1  C   UNL     1      -9.766  -7.247  -5.382  1.00  0.00     0.000 C 
ENDROOT
BRANCH   1   2
ATOM      2  C   UNL     1      -9.213  -6.239  -6.400  1.00  0.00     0.000 C 
BRANCH   2   3
ATOM      3  C   UNL     1     -10.321  -5.430  -7.094  1.00  0.00     0.006 C 
BRANCH   3   4
ATOM      4  C   UNL     1     -10.479  -5.793  -8.575  1.00  0.00     0.053 C 
BRANCH   4   5
ATOM      5  C   UNL     1     -10.745  -4.566  -9.389  1.00  0.00     0.041 C 
ATOM      6  O   UNL     1     -10.896  -3.451  -8.823  1.00  0.00    -0.550 OA
ATOM      7  O   UNL     1     -10.776  -4.645 -10.775  1.00  0.00    -0.550 OA
ENDBRANCH   4   5
ENDBRANCH   3   4
ENDBRANCH   2   3
ENDBRANCH   1   2
BRANCH   1   8
ATOM      8  C   UNL     1      -8.739  -8.346  -5.084  1.00  0.00     0.000 C 
BRANCH   8   9
ATOM      9  C   UNL     1      -9.392  -9.732  -5.111  1.00  0.00     0.000 C 
BRANCH   9  10
ATOM     10  C   UNL     1      -8.336 -10.835  -5.280  1.00  0.00     0.006 C 
BRANCH  10  11
ATOM     11  C   UNL     1      -6.906 -10.291  -5.170  1.00  0.00     0.053 C 
BRANCH  11  12
ATOM     12  C   UNL     1      -6.054 -10.728  -6.321  1.00  0.00     0.041 C 
ATOM     13  O   UNL     1      -6.589 -11.172  -7.371  1.00  0.00    -0.550 OA
ATOM     14  O   UNL     1      -4.670 -10.675  -6.222  1.00  0.00    -0.550 OA
ENDBRANCH  11  12
ENDBRANCH  10  11
ENDBRANCH   9  10
ENDBRANCH   8   9
ENDBRANCH   1   8
TORSDOF 9
ENDMDL
MODEL 3
REMARK VINA RESULT:    -4.400      2.969      6.935
REMARK INTER + INTRA:          -7.363
REMARK INTER:                  -7.019
REMARK INTRA:                  -0.344
REMARK UNBOUND:                -0.647
REMARK SMILES O=C([O-])CCCCCCCCC(=O)[O-]
REMARK SMILES IDX 7 1 6 2 5 3 4 4 2 5 1 6 3 7 8 8 9 9 10 10 11 11 12 12 13 13
REMARK SMILES IDX 14 14
REMARK H PARENT
REMARK Flexibility Score: inf
ROOT
ATOM      1  C   UNL     1      -8.835  -8.204  -4.919  1.00  0.00     0.000 C 
ENDROOT
BRANCH   1   2
ATOM      2  C   UNL     1      -9.373  -9.633  -5.089  1.00  0.00     0.000 C 
BRANCH   2   3
ATOM      3  C   UNL     1      -8.261 -10.653  -5.381  1.00  0.00     0.006 C 
BRANCH   3   4
ATOM      4  C   UNL     1      -6.869 -10.011  -5.435  1.00  0.00     0.053 C 
BRANCH   4   5
ATOM      5  C   UNL     1      -5.986 -10.757  -6.385  1.00  0.00     0.041 C 
ATOM      6  O   UNL     1      -6.484 -11.360  -7.373  1.00  0.00    -0.550 OA
ATOM      7  O   UNL     1      -4.609 -10.747  -6.208  1.00  0.00    -0.550 OA
ENDBRANCH   4   5
ENDBRANCH   3   4
ENDBRANCH   2   3
ENDBRANCH   1   2
BRANCH   1   8
ATOM      8  C   UNL     1      -9.834  -7.174  -5.459  1.00  0.00     0.000 C 
BRANCH   8   9
ATOM      9  C   UNL     1      -9.190  -6.298  -6.541  1.00  0.00     0.000 C 
BRANCH   9  10
ATOM     10  C   UNL     1     -10.235  -5.391  -7.208  1.00  0.00     0.006 C 
BRANCH  10  11
ATOM     11  C   UNL     1     -10.473  -5.761  -8.678  1.00  0.00     0.053 C 
BRANCH  11  12
ATOM     12  C   UNL     1     -10.849  -4.566  -9.499  1.00  0.00     0.041 C 
ATOM     13  O   UNL     1     -10.987  -3.440  -8.952  1.00  0.00    -0.550 OA
ATOM     14  O   UNL     1     -11.081  -4.703 -10.861  1.00  0.00    -0.550 OA
ENDBRANCH  11  12
ENDBRANCH  10  11
ENDBRANCH   9  10
ENDBRANCH   8   9
ENDBRANCH   1   8
TORSDOF 9
ENDMDL
MODEL 4
REMARK VINA RESULT:    -4.390      1.975      6.694
REMARK INTER + INTRA:          -7.347
REMARK INTER:                  -6.899
REMARK INTRA:                  -0.448
REMARK UNBOUND:                -0.647
REMARK SMILES O=C([O-])CCCCCCCCC(=O)[O-]
REMARK SMILES IDX 7 1 6 2 5 3 4 4 2 5 1 6 3 7 8 8 9 9 10 10 11 11 12 12 13 13
REMARK SMILES IDX 14 14
REMARK H PARENT
REMARK Flexibility Score: inf
ROOT
ATOM      1  C   UNL     1      -8.849  -8.254  -5.129  1.00  0.00     0.000 C 
ENDROOT
BRANCH   1   2
ATOM      2  C   UNL     1      -9.415  -9.682  -5.107  1.00  0.00     0.000 C 
BRANCH   2   3
ATOM      3  C   UNL     1      -8.333 -10.751  -5.325  1.00  0.00     0.006 C 
BRANCH   3   4
ATOM      4  C   UNL     1      -6.911 -10.184  -5.218  1.00  0.00     0.053 C 
BRANCH   4   5
ATOM      5  C   UNL     1      -6.057 -10.705  -6.330  1.00  0.00     0.041 C 
ATOM      6  O   UNL     1      -6.587 -11.145  -7.384  1.00  0.00    -0.550 OA
ATOM      7  O   UNL     1      -4.673 -10.657  -6.223  1.00  0.00    -0.550 OA
ENDBRANCH   4   5
ENDBRANCH   3   4
ENDBRANCH   2   3
ENDBRANCH   1   2
BRANCH   1   8
ATOM      8  C   UNL     1      -9.929  -7.241  -5.527  1.00  0.00     0.000 C 
BRANCH   8   9
ATOM      9  C   UNL     1      -9.369  -6.187  -6.489  1.00  0.00     0.000 C 
BRANCH   9  10
ATOM     10  C   UNL     1     -10.275  -6.027  -7.719  1.00  0.00     0.006 C 
BRANCH  10  11
ATOM     11  C   UNL     1     -10.768  -4.584  -7.893  1.00  0.00     0.053 C 
BRANCH  11  12
ATOM     12  C   UNL     1     -11.703  -4.179  -6.796  1.00  0.00     0.041 C 
ATOM     13  O   UNL     1     -12.692  -4.903  -6.508  1.00  0.00    -0.550 OA
ATOM     14  O   UNL     1     -11.502  -2.985  -6.115  1.00  0.00    -0.550 OA
ENDBRANCH  11  12
ENDBRANCH  10  11
ENDBRANCH   9  10
ENDBRANCH   8   9
ENDBRANCH   1   8
TORSDOF 9
ENDMDL
MODEL 5
REMARK VINA RESULT:    -4.358      1.048      5.502
REMARK INTER + INTRA:          -7.298
REMARK INTER:                  -6.713
REMARK INTRA:                  -0.585
REMARK UNBOUND:                -0.647
REMARK SMILES O=C([O-])CCCCCCCCC(=O)[O-]
REMARK SMILES IDX 7 1 6 2 5 3 4 4 2 5 1 6 3 7 8 8 9 9 10 10 11 11 12 12 13 13
REMARK SMILES IDX 14 14
REMARK H PARENT
REMARK Flexibility Score: inf
ROOT
ATOM      1  C   UNL     1      -9.272  -6.253  -6.588  1.00  0.00     0.000 C 
ENDROOT
BRANCH   1   2
ATOM      2  C   UNL     1      -9.541  -6.977  -5.261  1.00  0.00     0.000 C 
BRANCH   2   3
ATOM      3  C   UNL     1      -9.381  -8.502  -5.376  1.00  0.00     0.006 C 
BRANCH   3   4
ATOM      4  C   UNL     1      -8.114  -9.017  -4.681  1.00  0.00     0.053 C 
BRANCH   4   5
ATOM      5  C   UNL     1      -7.566 -10.204  -5.410  1.00  0.00     0.041 C 
ATOM      6  O   UNL     1      -8.172 -11.308  -5.369  1.00  0.00    -0.550 OA
ATOM      7  O   UNL     1      -6.414 -10.078  -6.174  1.00  0.00    -0.550 OA
ENDBRANCH   4   5
ENDBRANCH   3   4
ENDBRANCH   2   3
ENDBRANCH   1   2
BRANCH   1   8
ATOM      8  C   UNL     1     -10.556  -6.134  -7.418  1.00  0.00     0.000 C 
BRANCH   8   9
ATOM      9  C   UNL     1     -11.068  -4.689  -7.437  1.00  0.00     0.000 C 
BRANCH   9  10
ATOM     10  C   UNL     1     -12.406  -4.570  -6.692  1.00  0.00     0.006 C 
BRANCH  10  11
ATOM     11  C   UNL     1     -12.223  -4.537  -5.169  1.00  0.00     0.053 C 
BRANCH  11  12
ATOM     12  C   UNL     1     -12.994  -5.629  -4.492  1.00  0.00     0.041 C 
ATOM     13  O   UNL     1     -13.530  -5.422  -3.371  1.00  0.00    -0.550 OA
ATOM     14  O   UNL     1     -13.091  -6.881  -5.082  1.00  0.00    -0.550 OA
ENDBRANCH  11  12
ENDBRANCH  10  11
ENDBRANCH   9  10
ENDBRANCH   8   9
ENDBRANCH   1   8
TORSDOF 9
ENDMDL
MODEL 6
REMARK VINA RESULT:    -4.341      2.634      3.891
REMARK INTER + INTRA:          -7.272
REMARK INTER:                  -6.968
REMARK INTRA:                  -0.304
REMARK UNBOUND:                -0.647
REMARK SMILES O=C([O-])CCCCCCCCC(=O)[O-]
REMARK SMILES IDX 7 1 6 2 5 3 4 4 2 5 1 6 3 7 8 8 9 9 10 10 11 11 12 12 13 13
REMARK SMILES IDX 14 14
REMARK H PARENT
REMARK Flexibility Score: inf
ROOT
ATOM      1  C   UNL     1      -9.626  -6.504  -5.291  1.00  0.00     0.000 C 
ENDROOT
BRANCH   1   2
ATOM      2  C   UNL     1      -9.456  -5.894  -6.690  1.00  0.00     0.000 C 
BRANCH   2   3
ATOM      3  C   UNL     1     -10.646  -6.195  -7.616  1.00  0.00     0.006 C 
BRANCH   3   4
ATOM      4  C   UNL     1     -10.583  -5.411  -8.933  1.00  0.00     0.053 C 
BRANCH   4   5
ATOM      5  C   UNL     1     -11.272  -4.091  -8.787  1.00  0.00     0.041 C 
ATOM      6  O   UNL     1     -11.196  -3.232  -9.705  1.00  0.00    -0.550 OA
ATOM      7  O   UNL     1     -12.037  -3.828  -7.659  1.00  0.00    -0.550 OA
ENDBRANCH   4   5
ENDBRANCH   3   4
ENDBRANCH   2   3
ENDBRANCH   1   2
BRANCH   1   8
ATOM      8  C   UNL     1      -9.764  -8.029  -5.369  1.00  0.00     0.000 C 
BRANCH   8   9
ATOM      9  C   UNL     1      -8.588  -8.725  -4.674  1.00  0.00     0.000 C 
BRANCH   9  10
ATOM     10  C   UNL     1      -8.139  -9.965  -5.462  1.00  0.00     0.006 C 
BRANCH  10  11
ATOM     11  C   UNL     1      -6.681 -10.343  -5.169  1.00  0.00     0.053 C 
BRANCH  11  12
ATOM     12  C   UNL     1      -5.977 -10.838  -6.394  1.00  0.00     0.041 C 
ATOM     13  O   UNL     1      -4.722 -10.761  -6.477  1.00  0.00    -0.550 OA
ATOM     14  O   UNL     1      -6.707 -11.354  -7.456  1.00  0.00    -0.550 OA
ENDBRANCH  11  12
ENDBRANCH  10  11
ENDBRANCH   9  10
ENDBRANCH   8   9
ENDBRANCH   1   8
TORSDOF 9
ENDMDL
MODEL 7
REMARK VINA RESULT:    -4.339      2.367      5.799
REMARK INTER + INTRA:          -7.270
REMARK INTER:                  -6.595
REMARK INTRA:                  -0.674
REMARK UNBOUND:                -0.647
REMARK SMILES O=C([O-])CCCCCCCCC(=O)[O-]
REMARK SMILES IDX 7 1 6 2 5 3 4 4 2 5 1 6 3 7 8 8 9 9 10 10 11 11 12 12 13 13
REMARK SMILES IDX 14 14
REMARK H PARENT
REMARK Flexibility Score: inf
ROOT
ATOM      1  C   UNL     1     -11.039  -7.655  -5.919  1.00  0.00     0.000 C 
ENDROOT
BRANCH   1   2
ATOM      2  C   UNL     1      -9.624  -7.143  -5.614  1.00  0.00     0.000 C 
BRANCH   2   3
ATOM      3  C   UNL     1      -8.769  -8.176  -4.862  1.00  0.00     0.006 C 
BRANCH   3   4
ATOM      4  C   UNL     1      -9.245  -9.616  -5.093  1.00  0.00     0.053 C 
BRANCH   4   5
ATOM      5  C   UNL     1      -8.078 -10.513  -5.366  1.00  0.00     0.041 C 
ATOM      6  O   UNL     1      -8.265 -11.680  -5.801  1.00  0.00    -0.550 OA
ATOM      7  O   UNL     1      -6.784 -10.043  -5.188  1.00  0.00    -0.550 OA
ENDBRANCH   4   5
ENDBRANCH   3   4
ENDBRANCH   2   3
ENDBRANCH   1   2
BRANCH   1   8
ATOM      8  C   UNL     1     -12.098  -6.641  -5.469  1.00  0.00     0.000 C 
BRANCH   8   9
ATOM      9  C   UNL     1     -11.527  -5.219  -5.450  1.00  0.00     0.000 C 
BRANCH   9  10
ATOM     10  C   UNL     1     -12.059  -4.396  -6.632  1.00  0.00     0.006 C 
BRANCH  10  11
ATOM     11  C   UNL     1     -10.929  -3.831  -7.502  1.00  0.00     0.053 C 
BRANCH  11  12
ATOM     12  C   UNL     1     -10.839  -4.534  -8.822  1.00  0.00     0.041 C 
ATOM     13  O   UNL     1     -11.166  -3.935  -9.881  1.00  0.00    -0.550 OA
ATOM     14  O   UNL     1     -10.426  -5.858  -8.878  1.00  0.00    -0.550 OA
ENDBRANCH  11  12
ENDBRANCH  10  11
ENDBRANCH   9  10
ENDBRANCH   8   9
ENDBRANCH   1   8
TORSDOF 9
ENDMDL
MODEL 8
REMARK VINA RESULT:    -4.305      1.699      2.749
REMARK INTER + INTRA:          -7.217
REMARK INTER:                  -6.866
REMARK INTRA:                  -0.351
REMARK UNBOUND:                -0.647
REMARK SMILES O=C([O-])CCCCCCCCC(=O)[O-]
REMARK SMILES IDX 7 1 6 2 5 3 4 4 2 5 1 6 3 7 8 8 9 9 10 10 11 11 12 12 13 13
REMARK SMILES IDX 14 14
REMARK H PARENT
REMARK Flexibility Score: inf
ROOT
ATOM      1  C   UNL     1      -9.408  -6.235  -6.637  1.00  0.00     0.000 C 
ENDROOT
BRANCH   1   2
ATOM      2  C   UNL     1     -10.294  -6.064  -7.880  1.00  0.00     0.000 C 
BRANCH   2   3
ATOM      3  C   UNL     1     -10.353  -4.608  -8.370  1.00  0.00     0.006 C 
BRANCH   3   4
ATOM      4  C   UNL     1     -11.753  -3.995  -8.232  1.00  0.00     0.053 C 
BRANCH   4   5
ATOM      5  C   UNL     1     -12.139  -3.893  -6.790  1.00  0.00     0.041 C 
ATOM      6  O   UNL     1     -13.043  -4.635  -6.322  1.00  0.00    -0.550 OA
ATOM      7  O   UNL     1     -11.465  -3.015  -5.952  1.00  0.00    -0.550 OA
ENDBRANCH   4   5
ENDBRANCH   3   4
ENDBRANCH   2   3
ENDBRANCH   1   2
BRANCH   1   8
ATOM      8  C   UNL     1      -9.938  -7.356  -5.735  1.00  0.00     0.000 C 
BRANCH   8   9
ATOM      9  C   UNL     1      -8.846  -7.861  -4.785  1.00  0.00     0.000 C 
BRANCH   9  10
ATOM     10  C   UNL     1      -8.725  -9.390  -4.849  1.00  0.00     0.006 C 
BRANCH  10  11
ATOM     11  C   UNL     1      -7.337  -9.844  -5.319  1.00  0.00     0.053 C 
BRANCH  11  12
ATOM     12  C   UNL     1      -7.403 -11.116  -6.106  1.00  0.00     0.041 C 
ATOM     13  O   UNL     1      -8.434 -11.838  -6.056  1.00  0.00    -0.550 OA
ATOM     14  O   UNL     1      -6.314 -11.522  -6.867  1.00  0.00    -0.550 OA
ENDBRANCH  11  12
ENDBRANCH  10  11
ENDBRANCH   9  10
ENDBRANCH   8   9
ENDBRANCH   1   8
TORSDOF 9
ENDMDL
MODEL 9
REMARK VINA RESULT:    -4.253      2.432      3.271
REMARK INTER + INTRA:          -7.139
REMARK INTER:                  -6.670
REMARK INTRA:                  -0.469
REMARK UNBOUND:                -0.647
REMARK SMILES O=C([O-])CCCCCCCCC(=O)[O-]
REMARK SMILES IDX 7 1 6 2 5 3 4 4 2 5 1 6 3 7 8 8 9 9 10 10 11 11 12 12 13 13
REMARK SMILES IDX 14 14
REMARK H PARENT
REMARK Flexibility Score: inf
ROOT
ATOM      1  C   UNL     1     -11.132  -5.488  -5.242  1.00  0.00     0.000 C 
ENDROOT
BRANCH   1   2
ATOM      2  C   UNL     1     -12.472  -4.988  -5.802  1.00  0.00     0.000 C 
BRANCH   2   3
ATOM      3  C   UNL     1     -12.295  -3.970  -6.940  1.00  0.00     0.006 C 
BRANCH   3   4
ATOM      4  C   UNL     1     -10.853  -3.908  -7.459  1.00  0.00     0.053 C 
BRANCH   4   5
ATOM      5  C   UNL     1     -10.745  -4.595  -8.784  1.00  0.00     0.041 C 
ATOM      6  O   UNL     1     -10.367  -5.794  -8.847  1.00  0.00    -0.550 OA
ATOM      7  O   UNL     1     -11.110  -3.925  -9.944  1.00  0.00    -0.550 OA
ENDBRANCH   4   5
ENDBRANCH   3   4
ENDBRANCH   2   3
ENDBRANCH   1   2
BRANCH   1   8
ATOM      8  C   UNL     1     -10.945  -6.984  -5.520  1.00  0.00     0.000 C 
BRANCH   8   9
ATOM      9  C   UNL     1      -9.461  -7.369  -5.491  1.00  0.00     0.000 C 
BRANCH   9  10
ATOM     10  C   UNL     1      -9.285  -8.861  -5.175  1.00  0.00     0.006 C 
BRANCH  10  11
ATOM     11  C   UNL     1      -7.845  -9.205  -4.773  1.00  0.00     0.053 C 
BRANCH  11  12
ATOM     12  C   UNL     1      -7.309 -10.363  -5.557  1.00  0.00     0.041 C 
ATOM     13  O   UNL     1      -6.140 -10.324  -6.024  1.00  0.00    -0.550 OA
ATOM     14  O   UNL     1      -8.111 -11.470  -5.800  1.00  0.00    -0.550 OA
ENDBRANCH  11  12
ENDBRANCH  10  11
ENDBRANCH   9  10
ENDBRANCH   8   9
ENDBRANCH   1   8
TORSDOF 9
ENDMDL
