MODEL 1
REMARK VINA RESULT:    -3.944      0.000      0.000
REMARK INTER + INTRA:          -5.679
REMARK INTER:                  -5.328
REMARK INTRA:                  -0.351
REMARK UNBOUND:                -0.351
REMARK SMILES CCCCCCC=CC(=O)[O-]
REMARK SMILES IDX 5 1 6 2 7 3 8 4 9 5 10 6 11 7 4 8 3 9 2 10 1 11
REMARK H PARENT
REMARK Flexibility Score: inf
ROOT
ATOM      1  C   UNL     1      45.634  26.992   8.147  1.00  0.00     0.004 C 
ENDROOT
BRANCH   1   2
ATOM      2  C   UNL     1      46.096  28.116   7.212  1.00  0.00     0.027 C 
BRANCH   2   3
ATOM      3  C   UNL     1      45.991  27.702   5.772  1.00  0.00    -0.025 C 
ATOM      4  C   UNL     1      45.871  26.418   5.422  1.00  0.00     0.020 C 
BRANCH   4   5
ATOM      5  C   UNL     1      45.752  25.999   4.017  1.00  0.00     0.064 C 
ATOM      6  O   UNL     1      46.763  25.558   3.413  1.00  0.00    -0.545 OA
ATOM      7  O   UNL     1      44.538  26.086   3.344  1.00  0.00    -0.545 OA
ENDBRANCH   4   5
ENDBRANCH   2   3
ENDBRANCH   1   2
BRANCH   1   8
ATOM      8  C   UNL     1      45.063  27.563   9.452  1.00  0.00     0.000 C 
BRANCH   8   9
ATOM      9  C   UNL     1      44.813  29.071   9.329  1.00  0.00    -0.000 C 
BRANCH   9  10
ATOM     10  C   UNL     1      44.605  29.708  10.707  1.00  0.00    -0.003 C 
ATOM     11  C   UNL     1      45.877  29.633  11.547  1.00  0.00     0.004 C 
ENDBRANCH   9  10
ENDBRANCH   8   9
ENDBRANCH   1   8
TORSDOF 6
ENDMDL
MODEL 2
REMARK VINA RESULT:    -3.897      3.355      5.766
REMARK INTER + INTRA:          -5.614
REMARK INTER:                  -5.133
REMARK INTRA:                  -0.481
REMARK UNBOUND:                -0.351
REMARK SMILES CCCCCCC=CC(=O)[O-]
REMARK SMILES IDX 5 1 6 2 7 3 8 4 9 5 10 6 11 7 4 8 3 9 2 10 1 11
REMARK H PARENT
REMARK Flexibility Score: inf
ROOT
ATOM      1  C   UNL     1      46.840  26.425   5.362  1.00  0.00     0.004 C 
ENDROOT
BRANCH   1   2
ATOM      2  C   UNL     1      46.292  27.807   5.741  1.00  0.00     0.027 C 
BRANCH   2   3
ATOM      3  C   UNL     1      45.951  27.874   7.202  1.00  0.00    -0.025 C 
ATOM      4  C   UNL     1      45.815  26.767   7.939  1.00  0.00     0.020 C 
BRANCH   4   5
ATOM      5  C   UNL     1      45.495  26.818   9.374  1.00  0.00     0.064 C 
ATOM      6  O   UNL     1      45.913  25.908  10.135  1.00  0.00    -0.545 OA
ATOM      7  O   UNL     1      44.736  27.856   9.902  1.00  0.00    -0.545 OA
ENDBRANCH   4   5
ENDBRANCH   2   3
ENDBRANCH   1   2
BRANCH   1   8
ATOM      8  C   UNL     1      46.293  25.972   4.003  1.00  0.00     0.000 C 
BRANCH   8   9
ATOM      9  C   UNL     1      44.795  26.278   3.883  1.00  0.00    -0.000 C 
BRANCH   9  10
ATOM     10  C   UNL     1      44.491  27.041   2.589  1.00  0.00    -0.003 C 
ATOM     11  C   UNL     1      44.151  28.500   2.876  1.00  0.00     0.004 C 
ENDBRANCH   9  10
ENDBRANCH   8   9
ENDBRANCH   1   8
TORSDOF 6
ENDMDL
MODEL 3
REMARK VINA RESULT:    -3.882      1.390      2.048
REMARK INTER + INTRA:          -5.595
REMARK INTER:                  -5.342
REMARK INTRA:                  -0.253
REMARK UNBOUND:                -0.351
REMARK SMILES CCCCCCC=CC(=O)[O-]
REMARK SMILES IDX 5 1 6 2 7 3 8 4 9 5 10 6 11 7 4 8 3 9 2 10 1 11
REMARK H PARENT
REMARK Flexibility Score: inf
ROOT
ATOM      1  C   UNL     1      46.056  27.581   7.378  1.00  0.00     0.004 C 
ENDROOT
BRANCH   1   2
ATOM      2  C   UNL     1      46.162  26.711   6.119  1.00  0.00     0.027 C 
BRANCH   2   3
ATOM      3  C   UNL     1      45.698  27.460   4.902  1.00  0.00    -0.025 C 
ATOM      4  C   UNL     1      45.270  26.820   3.809  1.00  0.00     0.020 C 
BRANCH   4   5
ATOM      5  C   UNL     1      44.798  27.540   2.617  1.00  0.00     0.064 C 
ATOM      6  O   UNL     1      44.109  28.583   2.754  1.00  0.00    -0.545 OA
ATOM      7  O   UNL     1      45.100  27.084   1.338  1.00  0.00    -0.545 OA
ENDBRANCH   4   5
ENDBRANCH   2   3
ENDBRANCH   1   2
BRANCH   1   8
ATOM      8  C   UNL     1      45.865  26.714   8.629  1.00  0.00     0.000 C 
BRANCH   8   9
ATOM      9  C   UNL     1      45.003  27.435   9.672  1.00  0.00    -0.000 C 
BRANCH   9  10
ATOM     10  C   UNL     1      44.873  28.926   9.341  1.00  0.00    -0.003 C 
ATOM     11  C   UNL     1      44.401  29.722  10.554  1.00  0.00     0.004 C 
ENDBRANCH   9  10
ENDBRANCH   8   9
ENDBRANCH   1   8
TORSDOF 6
ENDMDL
MODEL 4
REMARK VINA RESULT:    -3.869      1.166      1.854
REMARK INTER + INTRA:          -5.577
REMARK INTER:                  -5.190
REMARK INTRA:                  -0.387
REMARK UNBOUND:                -0.351
REMARK SMILES CCCCCCC=CC(=O)[O-]
REMARK SMILES IDX 5 1 6 2 7 3 8 4 9 5 10 6 11 7 4 8 3 9 2 10 1 11
REMARK H PARENT
REMARK Flexibility Score: inf
ROOT
ATOM      1  C   UNL     1      46.017  28.528   7.417  1.00  0.00     0.004 C 
ENDROOT
BRANCH   1   2
ATOM      2  C   UNL     1      45.918  29.339   6.119  1.00  0.00     0.027 C 
BRANCH   2   3
ATOM      3  C   UNL     1      45.819  28.437   4.922  1.00  0.00    -0.025 C 
ATOM      4  C   UNL     1      45.720  27.111   5.053  1.00  0.00     0.020 C 
BRANCH   4   5
ATOM      5  C   UNL     1      45.607  26.217   3.890  1.00  0.00     0.064 C 
ATOM      6  O   UNL     1      46.568  25.463   3.591  1.00  0.00    -0.545 OA
ATOM      7  O   UNL     1      44.453  26.196   3.113  1.00  0.00    -0.545 OA
ENDBRANCH   4   5
ENDBRANCH   2   3
ENDBRANCH   1   2
BRANCH   1   8
ATOM      8  C   UNL     1      45.086  29.100   8.494  1.00  0.00     0.000 C 
BRANCH   8   9
ATOM      9  C   UNL     1      44.940  28.126   9.669  1.00  0.00    -0.000 C 
BRANCH   9  10
ATOM     10  C   UNL     1      45.389  26.715   9.273  1.00  0.00    -0.003 C 
ATOM     11  C   UNL     1      46.491  26.207  10.198  1.00  0.00     0.004 C 
ENDBRANCH   9  10
ENDBRANCH   8   9
ENDBRANCH   1   8
TORSDOF 6
ENDMDL
MODEL 5
REMARK VINA RESULT:    -3.502      6.237      8.601
REMARK INTER + INTRA:          -5.081
REMARK INTER:                  -4.904
REMARK INTRA:                  -0.177
REMARK UNBOUND:                -0.351
REMARK SMILES CCCCCCC=CC(=O)[O-]
REMARK SMILES IDX 5 1 6 2 7 3 8 4 9 5 10 6 11 7 4 8 3 9 2 10 1 11
REMARK H PARENT
REMARK Flexibility Score: inf
ROOT
ATOM      1  C   UNL     1      45.520  28.678  -0.292  1.00  0.00     0.004 C 
ENDROOT
BRANCH   1   2
ATOM      2  C   UNL     1      45.724  27.820  -1.547  1.00  0.00     0.027 C 
BRANCH   2   3
ATOM      3  C   UNL     1      44.752  28.198  -2.627  1.00  0.00    -0.025 C 
ATOM      4  C   UNL     1      44.117  27.272  -3.352  1.00  0.00     0.020 C 
BRANCH   4   5
ATOM      5  C   UNL     1      43.151  27.628  -4.402  1.00  0.00     0.064 C 
ATOM      6  O   UNL     1      43.477  27.512  -5.611  1.00  0.00    -0.545 OA
ATOM      7  O   UNL     1      41.881  28.094  -4.078  1.00  0.00    -0.545 OA
ENDBRANCH   4   5
ENDBRANCH   2   3
ENDBRANCH   1   2
BRANCH   1   8
ATOM      8  C   UNL     1      45.771  27.858   0.980  1.00  0.00     0.000 C 
BRANCH   8   9
ATOM      9  C   UNL     1      44.895  28.355   2.137  1.00  0.00    -0.000 C 
BRANCH   9  10
ATOM     10  C   UNL     1      44.073  27.208   2.736  1.00  0.00    -0.003 C 
ATOM     11  C   UNL     1      44.899  26.398   3.731  1.00  0.00     0.004 C 
ENDBRANCH   9  10
ENDBRANCH   8   9
ENDBRANCH   1   8
TORSDOF 6
ENDMDL
MODEL 6
REMARK VINA RESULT:    -3.491      3.502      5.273
REMARK INTER + INTRA:          -5.067
REMARK INTER:                  -4.581
REMARK INTRA:                  -0.486
REMARK UNBOUND:                -0.351
REMARK SMILES CCCCCCC=CC(=O)[O-]
REMARK SMILES IDX 5 1 6 2 7 3 8 4 9 5 10 6 11 7 4 8 3 9 2 10 1 11
REMARK H PARENT
REMARK Flexibility Score: inf
ROOT
ATOM      1  C   UNL     1      44.131  27.160   2.995  1.00  0.00     0.004 C 
ENDROOT
BRANCH   1   2
ATOM      2  C   UNL     1      44.901  28.485   2.905  1.00  0.00     0.027 C 
BRANCH   2   3
ATOM      3  C   UNL     1      45.244  28.818   1.482  1.00  0.00    -0.025 C 
ATOM      4  C   UNL     1      45.479  27.861   0.578  1.00  0.00     0.020 C 
BRANCH   4   5
ATOM      5  C   UNL     1      45.800  28.173  -0.823  1.00  0.00     0.064 C 
ATOM      6  O   UNL     1      46.646  27.473  -1.436  1.00  0.00    -0.545 OA
ATOM      7  O   UNL     1      45.184  29.233  -1.481  1.00  0.00    -0.545 OA
ENDBRANCH   4   5
ENDBRANCH   2   3
ENDBRANCH   1   2
BRANCH   1   8
ATOM      8  C   UNL     1      44.882  26.148   3.870  1.00  0.00     0.000 C 
BRANCH   8   9
ATOM      9  C   UNL     1      46.117  26.788   4.515  1.00  0.00    -0.000 C 
BRANCH   9  10
ATOM     10  C   UNL     1      45.989  26.812   6.042  1.00  0.00    -0.003 C 
ATOM     11  C   UNL     1      45.959  28.243   6.571  1.00  0.00     0.004 C 
ENDBRANCH   9  10
ENDBRANCH   8   9
ENDBRANCH   1   8
TORSDOF 6
ENDMDL
MODEL 7
REMARK VINA RESULT:    -3.377      5.810      7.944
REMARK INTER + INTRA:          -4.912
REMARK INTER:                  -4.665
REMARK INTRA:                  -0.246
REMARK UNBOUND:                -0.351
REMARK SMILES CCCCCCC=CC(=O)[O-]
REMARK SMILES IDX 5 1 6 2 7 3 8 4 9 5 10 6 11 7 4 8 3 9 2 10 1 11
REMARK H PARENT
REMARK Flexibility Score: inf
ROOT
ATOM      1  C   UNL     1      45.430  27.917   0.721  1.00  0.00     0.004 C 
ENDROOT
BRANCH   1   2
ATOM      2  C   UNL     1      45.937  28.527  -0.592  1.00  0.00     0.027 C 
BRANCH   2   3
ATOM      3  C   UNL     1      45.529  27.693  -1.772  1.00  0.00    -0.025 C 
ATOM      4  C   UNL     1      44.723  28.176  -2.724  1.00  0.00     0.020 C 
BRANCH   4   5
ATOM      5  C   UNL     1      44.328  27.376  -3.893  1.00  0.00     0.064 C 
ATOM      6  O   UNL     1      43.303  26.649  -3.829  1.00  0.00    -0.545 OA
ATOM      7  O   UNL     1      45.072  27.408  -5.067  1.00  0.00    -0.545 OA
ENDBRANCH   4   5
ENDBRANCH   2   3
ENDBRANCH   1   2
BRANCH   1   8
ATOM      8  C   UNL     1      45.286  28.991   1.806  1.00  0.00     0.000 C 
BRANCH   8   9
ATOM      9  C   UNL     1      44.379  28.506   2.943  1.00  0.00    -0.000 C 
BRANCH   9  10
ATOM     10  C   UNL     1      44.060  27.014   2.794  1.00  0.00    -0.003 C 
ATOM     11  C   UNL     1      44.792  26.186   3.846  1.00  0.00     0.004 C 
ENDBRANCH   9  10
ENDBRANCH   8   9
ENDBRANCH   1   8
TORSDOF 6
ENDMDL
MODEL 8
REMARK VINA RESULT:    -3.247      7.935     11.427
REMARK INTER + INTRA:          -4.736
REMARK INTER:                  -4.350
REMARK INTRA:                  -0.386
REMARK UNBOUND:                -0.351
REMARK SMILES CCCCCCC=CC(=O)[O-]
REMARK SMILES IDX 5 1 6 2 7 3 8 4 9 5 10 6 11 7 4 8 3 9 2 10 1 11
REMARK H PARENT
REMARK Flexibility Score: inf
ROOT
ATOM      1  C   UNL     1      43.391  26.963  -3.797  1.00  0.00     0.004 C 
ENDROOT
BRANCH   1   2
ATOM      2  C   UNL     1      44.710  27.716  -3.583  1.00  0.00     0.027 C 
BRANCH   2   3
ATOM      3  C   UNL     1      45.254  27.476  -2.204  1.00  0.00    -0.025 C 
ATOM      4  C   UNL     1      45.331  28.460  -1.302  1.00  0.00     0.020 C 
BRANCH   4   5
ATOM      5  C   UNL     1      45.848  28.236   0.057  1.00  0.00     0.064 C 
ATOM      6  O   UNL     1      46.831  28.906   0.465  1.00  0.00    -0.545 OA
ATOM      7  O   UNL     1      45.267  27.292   0.897  1.00  0.00    -0.545 OA
ENDBRANCH   4   5
ENDBRANCH   2   3
ENDBRANCH   1   2
BRANCH   1   8
ATOM      8  C   UNL     1      42.331  27.879  -4.422  1.00  0.00     0.000 C 
BRANCH   8   9
ATOM      9  C   UNL     1      42.762  29.348  -4.350  1.00  0.00    -0.000 C 
BRANCH   9  10
ATOM     10  C   UNL     1      42.700  30.008  -5.733  1.00  0.00    -0.003 C 
ATOM     11  C   UNL     1      41.339  29.790  -6.387  1.00  0.00     0.004 C 
ENDBRANCH   9  10
ENDBRANCH   8   9
ENDBRANCH   1   8
TORSDOF 6
ENDMDL
MODEL 9
REMARK VINA RESULT:    -3.109      3.627      6.086
REMARK INTER + INTRA:          -4.550
REMARK INTER:                  -4.209
REMARK INTRA:                  -0.342
REMARK UNBOUND:                -0.351
REMARK SMILES CCCCCCC=CC(=O)[O-]
REMARK SMILES IDX 5 1 6 2 7 3 8 4 9 5 10 6 11 7 4 8 3 9 2 10 1 11
REMARK H PARENT
REMARK Flexibility Score: inf
ROOT
ATOM      1  C   UNL     1      46.118  26.726   6.129  1.00  0.00     0.004 C 
ENDROOT
BRANCH   1   2
ATOM      2  C   UNL     1      46.642  26.658   7.569  1.00  0.00     0.027 C 
BRANCH   2   3
ATOM      3  C   UNL     1      46.336  27.923   8.318  1.00  0.00    -0.025 C 
ATOM      4  C   UNL     1      45.404  27.959   9.277  1.00  0.00     0.020 C 
BRANCH   4   5
ATOM      5  C   UNL     1      45.105  29.187  10.029  1.00  0.00     0.064 C 
ATOM      6  O   UNL     1      44.484  30.125   9.465  1.00  0.00    -0.545 OA
ATOM      7  O   UNL     1      45.500  29.329  11.355  1.00  0.00    -0.545 OA
ENDBRANCH   4   5
ENDBRANCH   2   3
ENDBRANCH   1   2
BRANCH   1   8
ATOM      8  C   UNL     1      46.342  28.120   5.529  1.00  0.00     0.000 C 
BRANCH   8   9
ATOM      9  C   UNL     1      45.675  28.241   4.153  1.00  0.00    -0.000 C 
BRANCH   9  10
ATOM     10  C   UNL     1      45.060  26.905   3.722  1.00  0.00    -0.003 C 
ATOM     11  C   UNL     1      43.988  27.109   2.656  1.00  0.00     0.004 C 
ENDBRANCH   9  10
ENDBRANCH   8   9
ENDBRANCH   1   8
TORSDOF 6
ENDMDL
