MODEL 1
REMARK VINA RESULT:    -2.505      0.000      0.000
REMARK INTER + INTRA:          -2.931
REMARK INTER:                  -3.018
REMARK INTRA:                   0.087
REMARK UNBOUND:                 0.087
REMARK SMILES O=c1c(O)c(-c2ccc(O)c(O)c2)oc2cc(O)cc(O)c12
REMARK SMILES IDX 5 1 3 2 2 3 1 4 22 5 20 6 19 7 17 8 16 9 15 10 14 11 6 12
REMARK SMILES IDX 7 13 8 14 9 15 13 16 11 17 10 18 12 20 4 22 21 24 18 26
REMARK H PARENT 10 19 12 21 4 23 21 25 18 27
REMARK Flexibility Score: inf
ROOT
ATOM      1  C   UNL     1      94.800 104.609  98.621  1.00  0.00     0.180 A 
ATOM      2  C   UNL     1      95.654 104.008  97.676  1.00  0.00     0.208 A 
ATOM      3  C   UNL     1      95.601 102.616  97.504  1.00  0.00     0.238 A 
ATOM      4  O   UNL     1      96.369 102.066  96.668  1.00  0.00    -0.285 OA
ATOM      5  C   UNL     1      94.687 101.854  98.259  1.00  0.00     0.111 A 
ATOM      6  C   UNL     1      94.569 100.448  98.143  1.00  0.00     0.134 A 
ATOM      7  C   UNL     1      93.627  99.762  98.923  1.00  0.00     0.093 A 
ATOM      8  C   UNL     1      92.803 100.452  99.816  1.00  0.00     0.123 A 
ATOM      9  C   UNL     1      92.915 101.840  99.936  1.00  0.00     0.094 A 
ATOM     10  C   UNL     1      93.849 102.543  99.168  1.00  0.00     0.146 A 
ATOM     11  O   UNL     1      93.939 103.861  99.305  1.00  0.00    -0.452 OA
ENDROOT
BRANCH   1  12
ATOM     12  C   UNL     1      94.809 106.068  98.874  1.00  0.00     0.025 A 
ATOM     13  C   UNL     1      94.850 106.994  97.817  1.00  0.00     0.016 A 
ATOM     14  C   UNL     1      94.882 108.366  98.080  1.00  0.00     0.051 A 
ATOM     15  C   UNL     1      94.888 108.833  99.401  1.00  0.00     0.157 A 
ATOM     16  C   UNL     1      94.836 106.540 100.196  1.00  0.00     0.062 A 
ATOM     17  C   UNL     1      94.868 107.913 100.464  1.00  0.00     0.158 A 
BRANCH  15  18
ATOM     18  O   UNL     1      94.918 110.202  99.662  1.00  0.00    -0.504 OA
ATOM     19  H   UNL     1      94.067 110.732  99.808  1.00  0.00     0.293 HD
ENDBRANCH  15  18
BRANCH  17  20
ATOM     20  O   UNL     1      94.881 108.345 101.790  1.00  0.00    -0.504 OA
ATOM     21  H   UNL     1      95.357 107.829 102.520  1.00  0.00     0.293 HD
ENDBRANCH  17  20
ENDBRANCH   1  12
BRANCH   2  22
ATOM     22  O   UNL     1      96.516 104.792  96.905  1.00  0.00    -0.502 OA
ATOM     23  H   UNL     1      96.758 104.554  95.951  1.00  0.00     0.293 HD
ENDBRANCH   2  22
BRANCH   6  24
ATOM     24  O   UNL     1      95.377  99.730  97.259  1.00  0.00    -0.507 OA
ATOM     25  H   UNL     1      95.744  98.816  97.496  1.00  0.00     0.293 HD
ENDBRANCH   6  24
BRANCH   8  26
ATOM     26  O   UNL     1      91.875  99.746 100.579  1.00  0.00    -0.508 OA
ATOM     27  H   UNL     1      91.371  98.954 100.200  1.00  0.00     0.293 HD
ENDBRANCH   8  26
TORSDOF 6
ENDMDL
MODEL 2
REMARK VINA RESULT:    -1.210      1.698      2.863
REMARK INTER + INTRA:          -1.371
REMARK INTER:                  -1.044
REMARK INTRA:                  -0.327
REMARK UNBOUND:                 0.087
REMARK SMILES O=c1c(O)c(-c2ccc(O)c(O)c2)oc2cc(O)cc(O)c12
REMARK SMILES IDX 5 1 3 2 2 3 1 4 22 5 20 6 19 7 17 8 16 9 15 10 14 11 6 12
REMARK SMILES IDX 7 13 8 14 9 15 13 16 11 17 10 18 12 20 4 22 21 24 18 26
REMARK H PARENT 10 19 12 21 4 23 21 25 18 27
REMARK Flexibility Score: inf
ROOT
ATOM      1  C   UNL     1      94.480 104.274  99.642  1.00  0.00     0.180 A 
ATOM      2  C   UNL     1      93.221 103.647  99.710  1.00  0.00     0.208 A 
ATOM      3  C   UNL     1      93.162 102.246  99.762  1.00  0.00     0.238 A 
ATOM      4  O   UNL     1      92.039 101.674  99.812  1.00  0.00    -0.285 OA
ATOM      5  C   UNL     1      94.357 101.498  99.767  1.00  0.00     0.111 A 
ATOM      6  C   UNL     1      94.384 100.084  99.821  1.00  0.00     0.134 A 
ATOM      7  C   UNL     1      95.615  99.411  99.832  1.00  0.00     0.093 A 
ATOM      8  C   UNL     1      96.816 100.124  99.789  1.00  0.00     0.123 A 
ATOM      9  C   UNL     1      96.796 101.521  99.734  1.00  0.00     0.094 A 
ATOM     10  C   UNL     1      95.579 102.209  99.722  1.00  0.00     0.146 A 
ATOM     11  O   UNL     1      95.587 103.536  99.664  1.00  0.00    -0.452 OA
ENDROOT
BRANCH   1  12
ATOM     12  C   UNL     1      94.624 105.745  99.566  1.00  0.00     0.025 A 
ATOM     13  C   UNL     1      94.738 106.406  98.331  1.00  0.00     0.016 A 
ATOM     14  C   UNL     1      94.897 107.793  98.284  1.00  0.00     0.051 A 
ATOM     15  C   UNL     1      94.960 108.539  99.468  1.00  0.00     0.157 A 
ATOM     16  C   UNL     1      94.709 106.494 100.751  1.00  0.00     0.062 A 
ATOM     17  C   UNL     1      94.868 107.884 100.708  1.00  0.00     0.158 A 
BRANCH  15  18
ATOM     18  O   UNL     1      95.118 109.923  99.419  1.00  0.00    -0.504 OA
ATOM     19  H   UNL     1      94.849 110.515 100.196  1.00  0.00     0.293 HD
ENDBRANCH  15  18
BRANCH  17  20
ATOM     20  O   UNL     1      94.935 108.596 101.906  1.00  0.00    -0.504 OA
ATOM     21  H   UNL     1      94.912 108.136 102.808  1.00  0.00     0.293 HD
ENDBRANCH  17  20
ENDBRANCH   1  12
BRANCH   2  22
ATOM     22  O   UNL     1      92.053 104.414  99.754  1.00  0.00    -0.502 OA
ATOM     23  H   UNL     1      92.066 105.414  99.916  1.00  0.00     0.293 HD
ENDBRANCH   2  22
BRANCH   6  24
ATOM     24  O   UNL     1      93.202  99.343  99.866  1.00  0.00    -0.507 OA
ATOM     25  H   UNL     1      92.751  99.008  99.022  1.00  0.00     0.293 HD
ENDBRANCH   6  24
BRANCH   8  26
ATOM     26  O   UNL     1      98.026  99.432  99.801  1.00  0.00    -0.508 OA
ATOM     27  H   UNL     1      98.902  99.901  99.997  1.00  0.00     0.293 HD
ENDBRANCH   8  26
TORSDOF 6
ENDMDL
