MODEL 1
REMARK VINA RESULT:    -5.770      0.000      0.000
REMARK INTER + INTRA:         -11.443
REMARK INTER:                 -10.493
REMARK INTRA:                  -0.950
REMARK UNBOUND:                -0.950
REMARK SMILES CCCCCCCCCCCCCCCC(=O)[O-]
REMARK SMILES IDX 9 1 10 2 11 3 12 4 13 5 14 6 15 7 16 8 17 9 18 10 8 11 7 12
REMARK SMILES IDX 6 13 5 14 4 15 3 16 2 17 1 18
REMARK H PARENT
REMARK Flexibility Score: inf
ROOT
ATOM      1  C   UNL     1     103.685 312.794 196.714  1.00  0.00     0.000 C 
ENDROOT
BRANCH   1   2
ATOM      2  C   UNL     1     103.826 311.381 197.300  1.00  0.00     0.000 C 
BRANCH   2   3
ATOM      3  C   UNL     1     103.434 311.308 198.786  1.00  0.00     0.000 C 
BRANCH   3   4
ATOM      4  C   UNL     1     103.713 312.633 199.529  1.00  0.00     0.000 C 
BRANCH   4   5
ATOM      5  C   UNL     1     104.757 312.502 200.656  1.00  0.00     0.000 C 
BRANCH   5   6
ATOM      6  C   UNL     1     104.166 312.408 202.072  1.00  0.00     0.006 C 
BRANCH   6   7
ATOM      7  C   UNL     1     104.020 310.960 202.560  1.00  0.00     0.053 C 
BRANCH   7   8
ATOM      8  C   UNL     1     102.615 310.698 203.001  1.00  0.00     0.041 C 
ATOM      9  O   UNL     1     101.670 310.748 202.170  1.00  0.00    -0.550 OA
ATOM     10  O   UNL     1     102.343 310.449 204.341  1.00  0.00    -0.550 OA
ENDBRANCH   7   8
ENDBRANCH   6   7
ENDBRANCH   5   6
ENDBRANCH   4   5
ENDBRANCH   3   4
ENDBRANCH   2   3
ENDBRANCH   1   2
BRANCH   1  11
ATOM     11  C   UNL     1     103.997 312.844 195.209  1.00  0.00     0.000 C 
BRANCH  11  12
ATOM     12  C   UNL     1     103.815 311.482 194.515  1.00  0.00    -0.000 C 
BRANCH  12  13
ATOM     13  C   UNL     1     104.523 311.337 193.152  1.00  0.00    -0.000 C 
BRANCH  13  14
ATOM     14  C   UNL     1     105.691 312.312 192.914  1.00  0.00    -0.000 C 
BRANCH  14  15
ATOM     15  C   UNL     1     105.442 313.265 191.735  1.00  0.00    -0.000 C 
BRANCH  15  16
ATOM     16  C   UNL     1     103.941 313.385 191.435  1.00  0.00    -0.000 C 
BRANCH  16  17
ATOM     17  C   UNL     1     103.659 314.146 190.130  1.00  0.00    -0.003 C 
ATOM     18  C   UNL     1     104.820 315.047 189.708  1.00  0.00     0.004 C 
ENDBRANCH  16  17
ENDBRANCH  15  16
ENDBRANCH  14  15
ENDBRANCH  13  14
ENDBRANCH  12  13
ENDBRANCH  11  12
ENDBRANCH   1  11
TORSDOF 14
ENDMDL
MODEL 2
REMARK VINA RESULT:    -5.725      1.449      1.860
REMARK INTER + INTRA:         -11.360
REMARK INTER:                 -10.429
REMARK INTRA:                  -0.931
REMARK UNBOUND:                -0.950
REMARK SMILES CCCCCCCCCCCCCCCC(=O)[O-]
REMARK SMILES IDX 9 1 10 2 11 3 12 4 13 5 14 6 15 7 16 8 17 9 18 10 8 11 7 12
REMARK SMILES IDX 6 13 5 14 4 15 3 16 2 17 1 18
REMARK H PARENT
REMARK Flexibility Score: inf
ROOT
ATOM      1  C   UNL     1     103.819 311.563 196.178  1.00  0.00     0.000 C 
ENDROOT
BRANCH   1   2
ATOM      2  C   UNL     1     103.834 311.092 197.640  1.00  0.00     0.000 C 
BRANCH   2   3
ATOM      3  C   UNL     1     103.445 312.204 198.630  1.00  0.00     0.000 C 
BRANCH   3   4
ATOM      4  C   UNL     1     103.581 311.751 200.100  1.00  0.00     0.000 C 
BRANCH   4   5
ATOM      5  C   UNL     1     102.230 311.579 200.822  1.00  0.00     0.000 C 
BRANCH   5   6
ATOM      6  C   UNL     1     102.330 311.013 202.249  1.00  0.00     0.006 C 
BRANCH   6   7
ATOM      7  C   UNL     1     103.775 310.707 202.667  1.00  0.00     0.053 C 
BRANCH   7   8
ATOM      8  C   UNL     1     104.087 311.359 203.976  1.00  0.00     0.041 C 
ATOM      9  O   UNL     1     104.039 310.693 205.044  1.00  0.00    -0.550 OA
ATOM     10  O   UNL     1     104.381 312.717 204.023  1.00  0.00    -0.550 OA
ENDBRANCH   7   8
ENDBRANCH   6   7
ENDBRANCH   5   6
ENDBRANCH   4   5
ENDBRANCH   3   4
ENDBRANCH   2   3
ENDBRANCH   1   2
BRANCH   1  11
ATOM     11  C   UNL     1     103.877 313.095 196.051  1.00  0.00     0.000 C 
BRANCH  11  12
ATOM     12  C   UNL     1     104.772 313.565 194.889  1.00  0.00    -0.000 C 
BRANCH  12  13
ATOM     13  C   UNL     1     105.700 312.486 194.294  1.00  0.00    -0.000 C 
BRANCH  13  14
ATOM     14  C   UNL     1     105.714 312.412 192.756  1.00  0.00    -0.000 C 
BRANCH  14  15
ATOM     15  C   UNL     1     104.326 312.629 192.135  1.00  0.00    -0.000 C 
BRANCH  15  16
ATOM     16  C   UNL     1     104.385 313.677 191.014  1.00  0.00    -0.000 C 
BRANCH  16  17
ATOM     17  C   UNL     1     105.810 314.197 190.766  1.00  0.00    -0.003 C 
ATOM     18  C   UNL     1     105.849 315.377 189.795  1.00  0.00     0.004 C 
ENDBRANCH  16  17
ENDBRANCH  15  16
ENDBRANCH  14  15
ENDBRANCH  13  14
ENDBRANCH  12  13
ENDBRANCH  11  12
ENDBRANCH   1  11
TORSDOF 14
ENDMDL
MODEL 3
REMARK VINA RESULT:    -5.678     19.621     20.542
REMARK INTER + INTRA:         -11.274
REMARK INTER:                 -10.149
REMARK INTRA:                  -1.125
REMARK UNBOUND:                -0.950
REMARK SMILES CCCCCCCCCCCCCCCC(=O)[O-]
REMARK SMILES IDX 9 1 10 2 11 3 12 4 13 5 14 6 15 7 16 8 17 9 18 10 8 11 7 12
REMARK SMILES IDX 6 13 5 14 4 15 3 16 2 17 1 18
REMARK H PARENT
REMARK Flexibility Score: inf
ROOT
ATOM      1  C   UNL     1      88.454 326.549 194.821  1.00  0.00     0.000 C 
ENDROOT
BRANCH   1   2
ATOM      2  C   UNL     1      88.332 326.349 196.339  1.00  0.00     0.000 C 
BRANCH   2   3
ATOM      3  C   UNL     1      88.504 324.880 196.764  1.00  0.00     0.000 C 
BRANCH   3   4
ATOM      4  C   UNL     1      89.152 324.748 198.160  1.00  0.00     0.000 C 
BRANCH   4   5
ATOM      5  C   UNL     1      89.170 326.065 198.960  1.00  0.00     0.000 C 
BRANCH   5   6
ATOM      6  C   UNL     1      89.253 325.890 200.486  1.00  0.00     0.006 C 
BRANCH   6   7
ATOM      7  C   UNL     1      90.630 326.261 201.052  1.00  0.00     0.053 C 
BRANCH   7   8
ATOM      8  C   UNL     1      90.485 326.909 202.393  1.00  0.00     0.041 C 
ATOM      9  O   UNL     1      91.483 327.428 202.958  1.00  0.00    -0.550 OA
ATOM     10  O   UNL     1      89.256 326.894 203.042  1.00  0.00    -0.550 OA
ENDBRANCH   7   8
ENDBRANCH   6   7
ENDBRANCH   5   6
ENDBRANCH   4   5
ENDBRANCH   3   4
ENDBRANCH   2   3
ENDBRANCH   1   2
BRANCH   1  11
ATOM     11  C   UNL     1      87.121 326.954 194.169  1.00  0.00     0.000 C 
BRANCH  11  12
ATOM     12  C   UNL     1      86.048 325.855 194.268  1.00  0.00    -0.000 C 
BRANCH  12  13
ATOM     13  C   UNL     1      86.012 324.861 193.089  1.00  0.00    -0.000 C 
BRANCH  13  14
ATOM     14  C   UNL     1      86.809 323.561 193.305  1.00  0.00    -0.000 C 
BRANCH  14  15
ATOM     15  C   UNL     1      88.216 323.614 192.692  1.00  0.00    -0.000 C 
BRANCH  15  16
ATOM     16  C   UNL     1      88.176 324.217 191.280  1.00  0.00    -0.000 C 
BRANCH  16  17
ATOM     17  C   UNL     1      88.755 323.269 190.217  1.00  0.00    -0.003 C 
ATOM     18  C   UNL     1      87.707 322.801 189.208  1.00  0.00     0.004 C 
ENDBRANCH  16  17
ENDBRANCH  15  16
ENDBRANCH  14  15
ENDBRANCH  13  14
ENDBRANCH  12  13
ENDBRANCH  11  12
ENDBRANCH   1  11
TORSDOF 14
ENDMDL
MODEL 4
REMARK VINA RESULT:    -5.673     19.848     20.611
REMARK INTER + INTRA:         -11.266
REMARK INTER:                 -10.180
REMARK INTRA:                  -1.085
REMARK UNBOUND:                -0.950
REMARK SMILES CCCCCCCCCCCCCCCC(=O)[O-]
REMARK SMILES IDX 9 1 10 2 11 3 12 4 13 5 14 6 15 7 16 8 17 9 18 10 8 11 7 12
REMARK SMILES IDX 6 13 5 14 4 15 3 16 2 17 1 18
REMARK H PARENT
REMARK Flexibility Score: inf
ROOT
ATOM      1  C   UNL     1      88.873 324.539 196.961  1.00  0.00     0.000 C 
ENDROOT
BRANCH   1   2
ATOM      2  C   UNL     1      89.264 324.739 198.433  1.00  0.00     0.000 C 
BRANCH   2   3
ATOM      3  C   UNL     1      88.893 326.134 198.966  1.00  0.00     0.000 C 
BRANCH   3   4
ATOM      4  C   UNL     1      89.769 326.552 200.167  1.00  0.00     0.000 C 
BRANCH   4   5
ATOM      5  C   UNL     1      89.058 326.417 201.528  1.00  0.00     0.000 C 
BRANCH   5   6
ATOM      6  C   UNL     1      89.966 326.624 202.752  1.00  0.00     0.006 C 
BRANCH   6   7
ATOM      7  C   UNL     1      89.247 327.328 203.911  1.00  0.00     0.053 C 
BRANCH   7   8
ATOM      8  C   UNL     1      89.328 326.500 205.153  1.00  0.00     0.041 C 
ATOM      9  O   UNL     1      90.449 326.162 205.619  1.00  0.00    -0.550 OA
ATOM     10  O   UNL     1      88.164 326.056 205.769  1.00  0.00    -0.550 OA
ENDBRANCH   7   8
ENDBRANCH   6   7
ENDBRANCH   5   6
ENDBRANCH   4   5
ENDBRANCH   3   4
ENDBRANCH   2   3
ENDBRANCH   1   2
BRANCH   1  11
ATOM     11  C   UNL     1      87.937 325.644 196.443  1.00  0.00     0.000 C 
BRANCH  11  12
ATOM     12  C   UNL     1      88.586 326.517 195.353  1.00  0.00    -0.000 C 
BRANCH  12  13
ATOM     13  C   UNL     1      87.772 326.658 194.051  1.00  0.00    -0.000 C 
BRANCH  13  14
ATOM     14  C   UNL     1      86.474 325.832 193.997  1.00  0.00    -0.000 C 
BRANCH  14  15
ATOM     15  C   UNL     1      86.448 324.837 192.827  1.00  0.00    -0.000 C 
BRANCH  15  16
ATOM     16  C   UNL     1      87.848 324.668 192.219  1.00  0.00    -0.000 C 
BRANCH  16  17
ATOM     17  C   UNL     1      88.357 323.221 192.303  1.00  0.00    -0.003 C 
ATOM     18  C   UNL     1      88.683 322.790 193.733  1.00  0.00     0.004 C 
ENDBRANCH  16  17
ENDBRANCH  15  16
ENDBRANCH  14  15
ENDBRANCH  13  14
ENDBRANCH  12  13
ENDBRANCH  11  12
ENDBRANCH   1  11
TORSDOF 14
ENDMDL
MODEL 5
REMARK VINA RESULT:    -5.649      6.130      9.549
REMARK INTER + INTRA:         -11.222
REMARK INTER:                  -9.178
REMARK INTRA:                  -2.044
REMARK UNBOUND:                -0.950
REMARK SMILES CCCCCCCCCCCCCCCC(=O)[O-]
REMARK SMILES IDX 9 1 10 2 11 3 12 4 13 5 14 6 15 7 16 8 17 9 18 10 8 11 7 12
REMARK SMILES IDX 6 13 5 14 4 15 3 16 2 17 1 18
REMARK H PARENT
REMARK Flexibility Score: inf
ROOT
ATOM      1  C   UNL     1     104.358 311.511 192.865  1.00  0.00     0.000 C 
ENDROOT
BRANCH   1   2
ATOM      2  C   UNL     1     104.090 312.725 191.962  1.00  0.00     0.000 C 
BRANCH   2   3
ATOM      3  C   UNL     1     105.383 313.373 191.435  1.00  0.00     0.000 C 
BRANCH   3   4
ATOM      4  C   UNL     1     105.097 314.511 190.431  1.00  0.00     0.000 C 
BRANCH   4   5
ATOM      5  C   UNL     1     103.605 314.881 190.322  1.00  0.00     0.000 C 
BRANCH   5   6
ATOM      6  C   UNL     1     102.937 314.479 188.997  1.00  0.00     0.006 C 
BRANCH   6   7
ATOM      7  C   UNL     1     102.810 315.653 188.016  1.00  0.00     0.053 C 
BRANCH   7   8
ATOM      8  C   UNL     1     101.375 316.043 187.853  1.00  0.00     0.041 C 
ATOM      9  O   UNL     1     100.487 315.507 188.568  1.00  0.00    -0.550 OA
ATOM     10  O   UNL     1     101.012 316.961 186.875  1.00  0.00    -0.550 OA
ENDBRANCH   7   8
ENDBRANCH   6   7
ENDBRANCH   5   6
ENDBRANCH   4   5
ENDBRANCH   3   4
ENDBRANCH   2   3
ENDBRANCH   1   2
BRANCH   1  11
ATOM     11  C   UNL     1     105.693 311.621 193.622  1.00  0.00     0.000 C 
BRANCH  11  12
ATOM     12  C   UNL     1     105.508 311.912 195.123  1.00  0.00    -0.000 C 
BRANCH  12  13
ATOM     13  C   UNL     1     104.051 311.869 195.628  1.00  0.00    -0.000 C 
BRANCH  13  14
ATOM     14  C   UNL     1     103.507 313.204 196.170  1.00  0.00    -0.000 C 
BRANCH  14  15
ATOM     15  C   UNL     1     104.263 314.424 195.620  1.00  0.00    -0.000 C 
BRANCH  15  16
ATOM     16  C   UNL     1     103.482 315.080 194.472  1.00  0.00    -0.000 C 
BRANCH  16  17
ATOM     17  C   UNL     1     104.285 316.184 193.767  1.00  0.00    -0.003 C 
ATOM     18  C   UNL     1     105.796 315.997 193.906  1.00  0.00     0.004 C 
ENDBRANCH  16  17
ENDBRANCH  15  16
ENDBRANCH  14  15
ENDBRANCH  13  14
ENDBRANCH  12  13
ENDBRANCH  11  12
ENDBRANCH   1  11
TORSDOF 14
ENDMDL
MODEL 6
REMARK VINA RESULT:    -5.596     19.250     21.661
REMARK INTER + INTRA:         -11.126
REMARK INTER:                  -9.969
REMARK INTRA:                  -1.157
REMARK UNBOUND:                -0.950
REMARK SMILES CCCCCCCCCCCCCCCC(=O)[O-]
REMARK SMILES IDX 9 1 10 2 11 3 12 4 13 5 14 6 15 7 16 8 17 9 18 10 8 11 7 12
REMARK SMILES IDX 6 13 5 14 4 15 3 16 2 17 1 18
REMARK H PARENT
REMARK Flexibility Score: inf
ROOT
ATOM      1  C   UNL     1      85.889 325.712 193.837  1.00  0.00     0.000 C 
ENDROOT
BRANCH   1   2
ATOM      2  C   UNL     1      86.346 324.693 192.782  1.00  0.00     0.000 C 
BRANCH   2   3
ATOM      3  C   UNL     1      87.827 324.856 192.397  1.00  0.00     0.000 C 
BRANCH   3   4
ATOM      4  C   UNL     1      88.381 323.611 191.669  1.00  0.00     0.000 C 
BRANCH   4   5
ATOM      5  C   UNL     1      87.479 323.111 190.524  1.00  0.00     0.000 C 
BRANCH   5   6
ATOM      6  C   UNL     1      88.186 322.958 189.167  1.00  0.00     0.006 C 
BRANCH   6   7
ATOM      7  C   UNL     1      89.561 323.641 189.133  1.00  0.00     0.053 C 
BRANCH   7   8
ATOM      8  C   UNL     1      90.612 322.673 188.693  1.00  0.00     0.041 C 
ATOM      9  O   UNL     1      90.357 321.440 188.639  1.00  0.00    -0.550 OA
ATOM     10  O   UNL     1      91.891 323.125 188.391  1.00  0.00    -0.550 OA
ENDBRANCH   7   8
ENDBRANCH   6   7
ENDBRANCH   5   6
ENDBRANCH   4   5
ENDBRANCH   3   4
ENDBRANCH   2   3
ENDBRANCH   1   2
BRANCH   1  11
ATOM     11  C   UNL     1      87.058 326.529 194.414  1.00  0.00     0.000 C 
BRANCH  11  12
ATOM     12  C   UNL     1      87.327 326.222 195.899  1.00  0.00    -0.000 C 
BRANCH  12  13
ATOM     13  C   UNL     1      88.695 325.578 196.202  1.00  0.00    -0.000 C 
BRANCH  13  14
ATOM     14  C   UNL     1      88.642 324.096 196.617  1.00  0.00    -0.000 C 
BRANCH  14  15
ATOM     15  C   UNL     1      89.690 323.736 197.681  1.00  0.00    -0.000 C 
BRANCH  15  16
ATOM     16  C   UNL     1      89.156 324.016 199.094  1.00  0.00    -0.000 C 
BRANCH  16  17
ATOM     17  C   UNL     1      89.990 325.068 199.843  1.00  0.00    -0.003 C 
ATOM     18  C   UNL     1      89.366 326.463 199.793  1.00  0.00     0.004 C 
ENDBRANCH  16  17
ENDBRANCH  15  16
ENDBRANCH  14  15
ENDBRANCH  13  14
ENDBRANCH  12  13
ENDBRANCH  11  12
ENDBRANCH   1  11
TORSDOF 14
ENDMDL
MODEL 7
REMARK VINA RESULT:    -5.548      1.984      2.704
REMARK INTER + INTRA:         -11.039
REMARK INTER:                 -10.493
REMARK INTRA:                  -0.546
REMARK UNBOUND:                -0.950
REMARK SMILES CCCCCCCCCCCCCCCC(=O)[O-]
REMARK SMILES IDX 9 1 10 2 11 3 12 4 13 5 14 6 15 7 16 8 17 9 18 10 8 11 7 12
REMARK SMILES IDX 6 13 5 14 4 15 3 16 2 17 1 18
REMARK H PARENT
REMARK Flexibility Score: inf
ROOT
ATOM      1  C   UNL     1     103.636 312.364 198.368  1.00  0.00     0.000 C 
ENDROOT
BRANCH   1   2
ATOM      2  C   UNL     1     103.237 311.546 199.606  1.00  0.00     0.000 C 
BRANCH   2   3
ATOM      3  C   UNL     1     104.183 311.768 200.799  1.00  0.00     0.000 C 
BRANCH   3   4
ATOM      4  C   UNL     1     103.430 311.777 202.147  1.00  0.00     0.000 C 
BRANCH   4   5
ATOM      5  C   UNL     1     103.983 310.767 203.172  1.00  0.00     0.000 C 
BRANCH   5   6
ATOM      6  C   UNL     1     103.493 310.979 204.614  1.00  0.00     0.006 C 
BRANCH   6   7
ATOM      7  C   UNL     1     104.609 311.451 205.557  1.00  0.00     0.053 C 
BRANCH   7   8
ATOM      8  C   UNL     1     104.999 312.859 205.238  1.00  0.00     0.041 C 
ATOM      9  O   UNL     1     106.124 313.107 204.729  1.00  0.00    -0.550 OA
ATOM     10  O   UNL     1     104.139 313.905 205.550  1.00  0.00    -0.550 OA
ENDBRANCH   7   8
ENDBRANCH   6   7
ENDBRANCH   5   6
ENDBRANCH   4   5
ENDBRANCH   3   4
ENDBRANCH   2   3
ENDBRANCH   1   2
BRANCH   1  11
ATOM     11  C   UNL     1     103.831 311.488 197.119  1.00  0.00     0.000 C 
BRANCH  11  12
ATOM     12  C   UNL     1     103.858 312.304 195.814  1.00  0.00    -0.000 C 
BRANCH  12  13
ATOM     13  C   UNL     1     104.449 311.573 194.591  1.00  0.00    -0.000 C 
BRANCH  13  14
ATOM     14  C   UNL     1     105.776 312.148 194.064  1.00  0.00    -0.000 C 
BRANCH  14  15
ATOM     15  C   UNL     1     105.726 312.488 192.566  1.00  0.00    -0.000 C 
BRANCH  15  16
ATOM     16  C   UNL     1     104.275 312.594 192.077  1.00  0.00    -0.000 C 
BRANCH  16  17
ATOM     17  C   UNL     1     103.871 314.036 191.732  1.00  0.00    -0.003 C 
ATOM     18  C   UNL     1     103.945 314.329 190.233  1.00  0.00     0.004 C 
ENDBRANCH  16  17
ENDBRANCH  15  16
ENDBRANCH  14  15
ENDBRANCH  13  14
ENDBRANCH  12  13
ENDBRANCH  11  12
ENDBRANCH   1  11
TORSDOF 14
ENDMDL
MODEL 8
REMARK VINA RESULT:    -5.519     19.052     21.374
REMARK INTER + INTRA:         -10.986
REMARK INTER:                  -9.374
REMARK INTRA:                  -1.612
REMARK UNBOUND:                -0.950
REMARK SMILES CCCCCCCCCCCCCCCC(=O)[O-]
REMARK SMILES IDX 9 1 10 2 11 3 12 4 13 5 14 6 15 7 16 8 17 9 18 10 8 11 7 12
REMARK SMILES IDX 6 13 5 14 4 15 3 16 2 17 1 18
REMARK H PARENT
REMARK Flexibility Score: inf
ROOT
ATOM      1  C   UNL     1      87.586 325.635 193.304  1.00  0.00     0.000 C 
ENDROOT
BRANCH   1   2
ATOM      2  C   UNL     1      86.299 324.859 192.988  1.00  0.00     0.000 C 
BRANCH   2   3
ATOM      3  C   UNL     1      86.504 323.776 191.913  1.00  0.00     0.000 C 
BRANCH   3   4
ATOM      4  C   UNL     1      87.916 323.832 191.290  1.00  0.00     0.000 C 
BRANCH   4   5
ATOM      5  C   UNL     1      88.241 322.628 190.385  1.00  0.00     0.000 C 
BRANCH   5   6
ATOM      6  C   UNL     1      88.581 322.990 188.929  1.00  0.00     0.006 C 
BRANCH   6   7
ATOM      7  C   UNL     1      89.933 323.705 188.795  1.00  0.00     0.053 C 
BRANCH   7   8
ATOM      8  C   UNL     1      91.001 322.730 188.413  1.00  0.00     0.041 C 
ATOM      9  O   UNL     1      92.195 323.114 188.288  1.00  0.00    -0.550 OA
ATOM     10  O   UNL     1      90.671 321.407 188.144  1.00  0.00    -0.550 OA
ENDBRANCH   7   8
ENDBRANCH   6   7
ENDBRANCH   5   6
ENDBRANCH   4   5
ENDBRANCH   3   4
ENDBRANCH   2   3
ENDBRANCH   1   2
BRANCH   1  11
ATOM     11  C   UNL     1      87.371 326.726 194.367  1.00  0.00     0.000 C 
BRANCH  11  12
ATOM     12  C   UNL     1      87.357 326.169 195.802  1.00  0.00    -0.000 C 
BRANCH  12  13
ATOM     13  C   UNL     1      88.740 326.035 196.471  1.00  0.00    -0.000 C 
BRANCH  13  14
ATOM     14  C   UNL     1      88.857 324.906 197.511  1.00  0.00    -0.000 C 
BRANCH  14  15
ATOM     15  C   UNL     1      89.216 323.551 196.882  1.00  0.00    -0.000 C 
BRANCH  15  16
ATOM     16  C   UNL     1      87.975 322.654 196.766  1.00  0.00    -0.000 C 
BRANCH  16  17
ATOM     17  C   UNL     1      87.621 322.322 195.308  1.00  0.00    -0.003 C 
ATOM     18  C   UNL     1      88.843 322.319 194.388  1.00  0.00     0.004 C 
ENDBRANCH  16  17
ENDBRANCH  15  16
ENDBRANCH  14  15
ENDBRANCH  13  14
ENDBRANCH  12  13
ENDBRANCH  11  12
ENDBRANCH   1  11
TORSDOF 14
ENDMDL
MODEL 9
REMARK VINA RESULT:    -5.506      1.555      2.375
REMARK INTER + INTRA:         -10.963
REMARK INTER:                  -9.575
REMARK INTRA:                  -1.388
REMARK UNBOUND:                -0.950
REMARK SMILES CCCCCCCCCCCCCCCC(=O)[O-]
REMARK SMILES IDX 9 1 10 2 11 3 12 4 13 5 14 6 15 7 16 8 17 9 18 10 8 11 7 12
REMARK SMILES IDX 6 13 5 14 4 15 3 16 2 17 1 18
REMARK H PARENT
REMARK Flexibility Score: inf
ROOT
ATOM      1  C   UNL     1     104.006 312.108 195.039  1.00  0.00     0.000 C 
ENDROOT
BRANCH   1   2
ATOM      2  C   UNL     1     103.889 311.951 196.563  1.00  0.00     0.000 C 
BRANCH   2   3
ATOM      3  C   UNL     1     103.493 313.260 197.269  1.00  0.00     0.000 C 
BRANCH   3   4
ATOM      4  C   UNL     1     103.029 313.021 198.723  1.00  0.00     0.000 C 
BRANCH   4   5
ATOM      5  C   UNL     1     103.521 311.687 199.319  1.00  0.00     0.000 C 
BRANCH   5   6
ATOM      6  C   UNL     1     104.466 311.829 200.524  1.00  0.00     0.006 C 
BRANCH   6   7
ATOM      7  C   UNL     1     103.734 312.249 201.806  1.00  0.00     0.053 C 
BRANCH   7   8
ATOM      8  C   UNL     1     103.322 311.043 202.588  1.00  0.00     0.041 C 
ATOM      9  O   UNL     1     102.136 310.620 202.526  1.00  0.00    -0.550 OA
ATOM     10  O   UNL     1     104.234 310.413 203.427  1.00  0.00    -0.550 OA
ENDBRANCH   7   8
ENDBRANCH   6   7
ENDBRANCH   5   6
ENDBRANCH   4   5
ENDBRANCH   3   4
ENDBRANCH   2   3
ENDBRANCH   1   2
BRANCH   1  11
ATOM     11  C   UNL     1     105.447 311.917 194.535  1.00  0.00     0.000 C 
BRANCH  11  12
ATOM     12  C   UNL     1     105.554 311.955 193.000  1.00  0.00    -0.000 C 
BRANCH  12  13
ATOM     13  C   UNL     1     104.225 312.186 192.252  1.00  0.00    -0.000 C 
BRANCH  13  14
ATOM     14  C   UNL     1     104.255 313.305 191.195  1.00  0.00    -0.000 C 
BRANCH  14  15
ATOM     15  C   UNL     1     104.573 314.684 191.794  1.00  0.00    -0.000 C 
BRANCH  15  16
ATOM     16  C   UNL     1     103.461 315.135 192.751  1.00  0.00    -0.000 C 
BRANCH  16  17
ATOM     17  C   UNL     1     104.005 315.606 194.109  1.00  0.00    -0.003 C 
ATOM     18  C   UNL     1     102.939 316.276 194.975  1.00  0.00     0.004 C 
ENDBRANCH  16  17
ENDBRANCH  15  16
ENDBRANCH  14  15
ENDBRANCH  13  14
ENDBRANCH  12  13
ENDBRANCH  11  12
ENDBRANCH   1  11
TORSDOF 14
ENDMDL
