MODEL 1
REMARK VINA RESULT:    -5.360      0.000      0.000
REMARK INTER + INTRA:         -11.733
REMARK INTER:                 -10.374
REMARK INTRA:                  -1.360
REMARK UNBOUND:                -1.360
REMARK SMILES CCCCCCCCCCCCCCCCCC(=O)[O-]
REMARK SMILES IDX 10 1 11 2 12 3 13 4 14 5 15 6 16 7 17 8 18 9 19 10 20 11
REMARK SMILES IDX 9 12 8 13 7 14 6 15 5 16 4 17 3 18 2 19 1 20
REMARK H PARENT
REMARK Flexibility Score: inf
ROOT
ATOM      1  C   UNL     1       4.159  58.142  21.952  1.00  0.00     0.000 C 
ENDROOT
BRANCH   1   2
ATOM      2  C   UNL     1       3.298  58.939  22.954  1.00  0.00     0.000 C 
BRANCH   2   3
ATOM      3  C   UNL     1       2.922  60.364  22.511  1.00  0.00     0.000 C 
BRANCH   3   4
ATOM      4  C   UNL     1       1.409  60.541  22.294  1.00  0.00     0.000 C 
BRANCH   4   5
ATOM      5  C   UNL     1       1.063  60.960  20.855  1.00  0.00     0.000 C 
BRANCH   5   6
ATOM      6  C   UNL     1       0.679  59.768  19.967  1.00  0.00     0.000 C 
BRANCH   6   7
ATOM      7  C   UNL     1       1.866  59.320  19.105  1.00  0.00     0.006 C 
BRANCH   7   8
ATOM      8  C   UNL     1       1.443  59.130  17.645  1.00  0.00     0.053 C 
BRANCH   8   9
ATOM      9  C   UNL     1       1.804  60.330  16.829  1.00  0.00     0.041 C 
ATOM     10  O   UNL     1       2.855  60.332  16.135  1.00  0.00    -0.550 OA
ATOM     11  O   UNL     1       0.963  61.436  16.808  1.00  0.00    -0.550 OA
ENDBRANCH   8   9
ENDBRANCH   7   8
ENDBRANCH   6   7
ENDBRANCH   5   6
ENDBRANCH   4   5
ENDBRANCH   3   4
ENDBRANCH   2   3
ENDBRANCH   1   2
BRANCH   1  12
ATOM     12  C   UNL     1       5.150  57.152  22.589  1.00  0.00     0.000 C 
BRANCH  12  13
ATOM     13  C   UNL     1       6.446  57.003  21.775  1.00  0.00    -0.000 C 
BRANCH  13  14
ATOM     14  C   UNL     1       7.619  56.483  22.622  1.00  0.00    -0.000 C 
BRANCH  14  15
ATOM     15  C   UNL     1       8.176  55.147  22.097  1.00  0.00    -0.000 C 
BRANCH  15  16
ATOM     16  C   UNL     1       7.263  53.955  22.426  1.00  0.00    -0.000 C 
BRANCH  16  17
ATOM     17  C   UNL     1       6.893  53.887  23.918  1.00  0.00    -0.000 C 
BRANCH  17  18
ATOM     18  C   UNL     1       8.052  53.377  24.790  1.00  0.00    -0.000 C 
BRANCH  18  19
ATOM     19  C   UNL     1       8.544  54.425  25.800  1.00  0.00    -0.003 C 
ATOM     20  C   UNL     1       9.953  54.899  25.457  1.00  0.00     0.004 C 
ENDBRANCH  18  19
ENDBRANCH  17  18
ENDBRANCH  16  17
ENDBRANCH  15  16
ENDBRANCH  14  15
ENDBRANCH  13  14
ENDBRANCH  12  13
ENDBRANCH   1  12
TORSDOF 16
ENDMDL
MODEL 2
REMARK VINA RESULT:    -5.305      1.124      1.739
REMARK INTER + INTRA:         -11.627
REMARK INTER:                 -10.406
REMARK INTRA:                  -1.220
REMARK UNBOUND:                -1.360
REMARK SMILES CCCCCCCCCCCCCCCCCC(=O)[O-]
REMARK SMILES IDX 10 1 11 2 12 3 13 4 14 5 15 6 16 7 17 8 18 9 19 10 20 11
REMARK SMILES IDX 9 12 8 13 7 14 6 15 5 16 4 17 3 18 2 19 1 20
REMARK H PARENT
REMARK Flexibility Score: inf
ROOT
ATOM      1  C   UNL     1       5.301  56.997  22.630  1.00  0.00     0.000 C 
ENDROOT
BRANCH   1   2
ATOM      2  C   UNL     1       4.443  58.020  21.856  1.00  0.00     0.000 C 
BRANCH   2   3
ATOM      3  C   UNL     1       3.221  58.563  22.617  1.00  0.00     0.000 C 
BRANCH   3   4
ATOM      4  C   UNL     1       3.095  60.094  22.528  1.00  0.00     0.000 C 
BRANCH   4   5
ATOM      5  C   UNL     1       2.787  60.581  21.102  1.00  0.00     0.000 C 
BRANCH   5   6
ATOM      6  C   UNL     1       1.302  60.909  20.895  1.00  0.00     0.000 C 
BRANCH   6   7
ATOM      7  C   UNL     1       0.664  59.950  19.881  1.00  0.00     0.006 C 
BRANCH   7   8
ATOM      8  C   UNL     1       1.736  59.146  19.138  1.00  0.00     0.053 C 
BRANCH   8   9
ATOM      9  C   UNL     1       1.550  59.258  17.658  1.00  0.00     0.041 C 
ATOM     10  O   UNL     1       1.968  60.273  17.041  1.00  0.00    -0.550 OA
ATOM     11  O   UNL     1       0.945  58.226  16.953  1.00  0.00    -0.550 OA
ENDBRANCH   8   9
ENDBRANCH   7   8
ENDBRANCH   6   7
ENDBRANCH   5   6
ENDBRANCH   4   5
ENDBRANCH   3   4
ENDBRANCH   2   3
ENDBRANCH   1   2
BRANCH   1  12
ATOM     12  C   UNL     1       6.793  56.988  22.258  1.00  0.00     0.000 C 
BRANCH  12  13
ATOM     13  C   UNL     1       7.086  56.151  21.000  1.00  0.00    -0.000 C 
BRANCH  13  14
ATOM     14  C   UNL     1       7.749  54.803  21.330  1.00  0.00    -0.000 C 
BRANCH  14  15
ATOM     15  C   UNL     1       8.784  54.920  22.464  1.00  0.00    -0.000 C 
BRANCH  15  16
ATOM     16  C   UNL     1       9.474  53.581  22.775  1.00  0.00    -0.000 C 
BRANCH  16  17
ATOM     17  C   UNL     1       9.271  53.136  24.234  1.00  0.00    -0.000 C 
BRANCH  17  18
ATOM     18  C   UNL     1       8.397  54.117  25.034  1.00  0.00    -0.000 C 
BRANCH  18  19
ATOM     19  C   UNL     1       9.145  54.752  26.217  1.00  0.00    -0.003 C 
ATOM     20  C   UNL     1      10.654  54.710  25.998  1.00  0.00     0.004 C 
ENDBRANCH  18  19
ENDBRANCH  17  18
ENDBRANCH  16  17
ENDBRANCH  15  16
ENDBRANCH  14  15
ENDBRANCH  13  14
ENDBRANCH  12  13
ENDBRANCH   1  12
TORSDOF 16
ENDMDL
MODEL 3
REMARK VINA RESULT:    -5.226      4.382      9.742
REMARK INTER + INTRA:         -11.474
REMARK INTER:                 -10.437
REMARK INTRA:                  -1.037
REMARK UNBOUND:                -1.360
REMARK SMILES CCCCCCCCCCCCCCCCCC(=O)[O-]
REMARK SMILES IDX 10 1 11 2 12 3 13 4 14 5 15 6 16 7 17 8 18 9 19 10 20 11
REMARK SMILES IDX 9 12 8 13 7 14 6 15 5 16 4 17 3 18 2 19 1 20
REMARK H PARENT
REMARK Flexibility Score: inf
ROOT
ATOM      1  C   UNL     1       6.755  56.875  21.759  1.00  0.00     0.000 C 
ENDROOT
BRANCH   1   2
ATOM      2  C   UNL     1       7.867  55.940  22.277  1.00  0.00     0.000 C 
BRANCH   2   3
ATOM      3  C   UNL     1       7.954  54.571  21.579  1.00  0.00     0.000 C 
BRANCH   3   4
ATOM      4  C   UNL     1       7.362  53.431  22.425  1.00  0.00     0.000 C 
BRANCH   4   5
ATOM      5  C   UNL     1       6.918  53.898  23.821  1.00  0.00     0.000 C 
BRANCH   5   6
ATOM      6  C   UNL     1       7.692  53.207  24.952  1.00  0.00     0.000 C 
BRANCH   6   7
ATOM      7  C   UNL     1       8.144  54.222  26.010  1.00  0.00     0.006 C 
BRANCH   7   8
ATOM      8  C   UNL     1       9.173  55.197  25.429  1.00  0.00     0.053 C 
BRANCH   8   9
ATOM      9  C   UNL     1      10.452  54.489  25.112  1.00  0.00     0.041 C 
ATOM     10  O   UNL     1      10.664  54.053  23.950  1.00  0.00    -0.550 OA
ATOM     11  O   UNL     1      11.426  54.339  26.091  1.00  0.00    -0.550 OA
ENDBRANCH   8   9
ENDBRANCH   7   8
ENDBRANCH   6   7
ENDBRANCH   5   6
ENDBRANCH   4   5
ENDBRANCH   3   4
ENDBRANCH   2   3
ENDBRANCH   1   2
BRANCH   1  12
ATOM     12  C   UNL     1       5.366  56.640  22.378  1.00  0.00     0.000 C 
BRANCH  12  13
ATOM     13  C   UNL     1       4.638  57.952  22.717  1.00  0.00    -0.000 C 
BRANCH  13  14
ATOM     14  C   UNL     1       3.587  58.333  21.661  1.00  0.00    -0.000 C 
BRANCH  14  15
ATOM     15  C   UNL     1       3.083  59.779  21.830  1.00  0.00    -0.000 C 
BRANCH  15  16
ATOM     16  C   UNL     1       2.290  60.275  20.610  1.00  0.00    -0.000 C 
BRANCH  16  17
ATOM     17  C   UNL     1       1.895  59.132  19.657  1.00  0.00    -0.000 C 
BRANCH  17  18
ATOM     18  C   UNL     1       1.585  59.630  18.236  1.00  0.00    -0.000 C 
BRANCH  18  19
ATOM     19  C   UNL     1       0.880  58.570  17.375  1.00  0.00    -0.003 C 
ATOM     20  C   UNL     1      -0.627  58.579  17.617  1.00  0.00     0.004 C 
ENDBRANCH  18  19
ENDBRANCH  17  18
ENDBRANCH  16  17
ENDBRANCH  15  16
ENDBRANCH  14  15
ENDBRANCH  13  14
ENDBRANCH  12  13
ENDBRANCH   1  12
TORSDOF 16
ENDMDL
MODEL 4
REMARK VINA RESULT:    -5.104      4.267      9.808
REMARK INTER + INTRA:         -11.238
REMARK INTER:                 -10.135
REMARK INTRA:                  -1.102
REMARK UNBOUND:                -1.360
REMARK SMILES CCCCCCCCCCCCCCCCCC(=O)[O-]
REMARK SMILES IDX 10 1 11 2 12 3 13 4 14 5 15 6 16 7 17 8 18 9 19 10 20 11
REMARK SMILES IDX 9 12 8 13 7 14 6 15 5 16 4 17 3 18 2 19 1 20
REMARK H PARENT
REMARK Flexibility Score: inf
ROOT
ATOM      1  C   UNL     1       3.018  58.962  22.894  1.00  0.00     0.000 C 
ENDROOT
BRANCH   1   2
ATOM      2  C   UNL     1       3.984  58.242  21.930  1.00  0.00     0.000 C 
BRANCH   2   3
ATOM      3  C   UNL     1       5.010  57.311  22.600  1.00  0.00     0.000 C 
BRANCH   3   4
ATOM      4  C   UNL     1       6.309  57.171  21.788  1.00  0.00     0.000 C 
BRANCH   4   5
ATOM      5  C   UNL     1       7.456  56.556  22.608  1.00  0.00     0.000 C 
BRANCH   5   6
ATOM      6  C   UNL     1       8.263  55.519  21.813  1.00  0.00     0.000 C 
BRANCH   6   7
ATOM      7  C   UNL     1       8.465  54.237  22.630  1.00  0.00     0.006 C 
BRANCH   7   8
ATOM      8  C   UNL     1       9.864  54.200  23.254  1.00  0.00     0.053 C 
BRANCH   8   9
ATOM      9  C   UNL     1       9.788  54.392  24.735  1.00  0.00     0.041 C 
ATOM     10  O   UNL     1       8.676  54.591  25.293  1.00  0.00    -0.550 OA
ATOM     11  O   UNL     1      10.940  54.319  25.507  1.00  0.00    -0.550 OA
ENDBRANCH   8   9
ENDBRANCH   7   8
ENDBRANCH   6   7
ENDBRANCH   5   6
ENDBRANCH   4   5
ENDBRANCH   3   4
ENDBRANCH   2   3
ENDBRANCH   1   2
BRANCH   1  12
ATOM     12  C   UNL     1       2.823  60.463  22.618  1.00  0.00     0.000 C 
BRANCH  12  13
ATOM     13  C   UNL     1       2.665  60.775  21.120  1.00  0.00    -0.000 C 
BRANCH  13  14
ATOM     14  C   UNL     1       1.193  60.866  20.688  1.00  0.00    -0.000 C 
BRANCH  14  15
ATOM     15  C   UNL     1       0.736  59.628  19.893  1.00  0.00    -0.000 C 
BRANCH  15  16
ATOM     16  C   UNL     1       1.720  59.248  18.774  1.00  0.00    -0.000 C 
BRANCH  16  17
ATOM     17  C   UNL     1       1.104  59.390  17.372  1.00  0.00    -0.000 C 
BRANCH  17  18
ATOM     18  C   UNL     1       1.452  60.732  16.707  1.00  0.00    -0.000 C 
BRANCH  18  19
ATOM     19  C   UNL     1       0.441  61.840  17.038  1.00  0.00    -0.003 C 
ATOM     20  C   UNL     1      -0.014  62.564  15.774  1.00  0.00     0.004 C 
ENDBRANCH  18  19
ENDBRANCH  17  18
ENDBRANCH  16  17
ENDBRANCH  15  16
ENDBRANCH  14  15
ENDBRANCH  13  14
ENDBRANCH  12  13
ENDBRANCH   1  12
TORSDOF 16
ENDMDL
MODEL 5
REMARK VINA RESULT:    -5.103      3.804      4.880
REMARK INTER + INTRA:         -11.235
REMARK INTER:                  -9.941
REMARK INTRA:                  -1.294
REMARK UNBOUND:                -1.360
REMARK SMILES CCCCCCCCCCCCCCCCCC(=O)[O-]
REMARK SMILES IDX 10 1 11 2 12 3 13 4 14 5 15 6 16 7 17 8 18 9 19 10 20 11
REMARK SMILES IDX 9 12 8 13 7 14 6 15 5 16 4 17 3 18 2 19 1 20
REMARK H PARENT
REMARK Flexibility Score: inf
ROOT
ATOM      1  C   UNL     1       6.680  56.983  21.681  1.00  0.00     0.000 C 
ENDROOT
BRANCH   1   2
ATOM      2  C   UNL     1       5.291  56.756  22.312  1.00  0.00     0.000 C 
BRANCH   2   3
ATOM      3  C   UNL     1       4.490  58.033  22.618  1.00  0.00     0.000 C 
BRANCH   3   4
ATOM      4  C   UNL     1       3.349  58.278  21.616  1.00  0.00     0.000 C 
BRANCH   4   5
ATOM      5  C   UNL     1       2.002  58.550  22.306  1.00  0.00     0.000 C 
BRANCH   5   6
ATOM      6  C   UNL     1       2.053  59.761  23.249  1.00  0.00     0.000 C 
BRANCH   6   7
ATOM      7  C   UNL     1       0.662  60.076  23.814  1.00  0.00     0.006 C 
BRANCH   7   8
ATOM      8  C   UNL     1      -0.234  58.833  23.788  1.00  0.00     0.053 C 
BRANCH   8   9
ATOM      9  C   UNL     1      -0.398  58.271  25.164  1.00  0.00     0.041 C 
ATOM     10  O   UNL     1      -0.658  57.049  25.323  1.00  0.00    -0.550 OA
ATOM     11  O   UNL     1      -0.231  59.088  26.275  1.00  0.00    -0.550 OA
ENDBRANCH   8   9
ENDBRANCH   7   8
ENDBRANCH   6   7
ENDBRANCH   5   6
ENDBRANCH   4   5
ENDBRANCH   3   4
ENDBRANCH   2   3
ENDBRANCH   1   2
BRANCH   1  12
ATOM     12  C   UNL     1       7.600  55.750  21.673  1.00  0.00     0.000 C 
BRANCH  12  13
ATOM     13  C   UNL     1       6.840  54.444  21.388  1.00  0.00    -0.000 C 
BRANCH  13  14
ATOM     14  C   UNL     1       6.940  53.438  22.547  1.00  0.00    -0.000 C 
BRANCH  14  15
ATOM     15  C   UNL     1       6.718  54.100  23.920  1.00  0.00    -0.000 C 
BRANCH  15  16
ATOM     16  C   UNL     1       7.771  53.677  24.958  1.00  0.00    -0.000 C 
BRANCH  16  17
ATOM     17  C   UNL     1       8.885  54.724  25.130  1.00  0.00    -0.000 C 
BRANCH  17  18
ATOM     18  C   UNL     1      10.273  54.175  24.761  1.00  0.00    -0.000 C 
BRANCH  18  19
ATOM     19  C   UNL     1      10.406  53.853  23.264  1.00  0.00    -0.003 C 
ATOM     20  C   UNL     1      10.371  52.347  23.022  1.00  0.00     0.004 C 
ENDBRANCH  18  19
ENDBRANCH  17  18
ENDBRANCH  16  17
ENDBRANCH  15  16
ENDBRANCH  14  15
ENDBRANCH  13  14
ENDBRANCH  12  13
ENDBRANCH   1  12
TORSDOF 16
ENDMDL
MODEL 6
REMARK VINA RESULT:    -5.071      1.248      1.610
REMARK INTER + INTRA:         -11.175
REMARK INTER:                 -10.179
REMARK INTRA:                  -0.995
REMARK UNBOUND:                -1.360
REMARK SMILES CCCCCCCCCCCCCCCCCC(=O)[O-]
REMARK SMILES IDX 10 1 11 2 12 3 13 4 14 5 15 6 16 7 17 8 18 9 19 10 20 11
REMARK SMILES IDX 9 12 8 13 7 14 6 15 5 16 4 17 3 18 2 19 1 20
REMARK H PARENT
REMARK Flexibility Score: inf
ROOT
ATOM      1  C   UNL     1       3.936  58.178  22.078  1.00  0.00     0.000 C 
ENDROOT
BRANCH   1   2
ATOM      2  C   UNL     1       3.437  59.248  23.072  1.00  0.00     0.000 C 
BRANCH   2   3
ATOM      3  C   UNL     1       2.713  60.449  22.438  1.00  0.00     0.000 C 
BRANCH   3   4
ATOM      4  C   UNL     1       2.511  60.291  20.921  1.00  0.00     0.000 C 
BRANCH   4   5
ATOM      5  C   UNL     1       1.238  60.991  20.417  1.00  0.00     0.000 C 
BRANCH   5   6
ATOM      6  C   UNL     1       0.718  60.399  19.099  1.00  0.00     0.000 C 
BRANCH   6   7
ATOM      7  C   UNL     1       1.597  59.231  18.637  1.00  0.00     0.006 C 
BRANCH   7   8
ATOM      8  C   UNL     1       1.277  58.843  17.190  1.00  0.00     0.053 C 
BRANCH   8   9
ATOM      9  C   UNL     1       2.370  59.284  16.269  1.00  0.00     0.041 C 
ATOM     10  O   UNL     1       2.689  60.501  16.201  1.00  0.00    -0.550 OA
ATOM     11  O   UNL     1       3.061  58.349  15.510  1.00  0.00    -0.550 OA
ENDBRANCH   8   9
ENDBRANCH   7   8
ENDBRANCH   6   7
ENDBRANCH   5   6
ENDBRANCH   4   5
ENDBRANCH   3   4
ENDBRANCH   2   3
ENDBRANCH   1   2
BRANCH   1  12
ATOM     12  C   UNL     1       5.032  57.247  22.622  1.00  0.00     0.000 C 
BRANCH  12  13
ATOM     13  C   UNL     1       6.211  57.084  21.647  1.00  0.00    -0.000 C 
BRANCH  13  14
ATOM     14  C   UNL     1       7.539  56.800  22.369  1.00  0.00    -0.000 C 
BRANCH  14  15
ATOM     15  C   UNL     1       8.175  55.469  21.925  1.00  0.00    -0.000 C 
BRANCH  15  16
ATOM     16  C   UNL     1       7.352  54.246  22.362  1.00  0.00    -0.000 C 
BRANCH  16  17
ATOM     17  C   UNL     1       7.983  53.504  23.554  1.00  0.00    -0.000 C 
BRANCH  17  18
ATOM     18  C   UNL     1       9.321  54.122  23.992  1.00  0.00    -0.000 C 
BRANCH  18  19
ATOM     19  C   UNL     1      10.533  53.280  23.566  1.00  0.00    -0.003 C 
ATOM     20  C   UNL     1      10.136  51.826  23.329  1.00  0.00     0.004 C 
ENDBRANCH  18  19
ENDBRANCH  17  18
ENDBRANCH  16  17
ENDBRANCH  15  16
ENDBRANCH  14  15
ENDBRANCH  13  14
ENDBRANCH  12  13
ENDBRANCH   1  12
TORSDOF 16
ENDMDL
MODEL 7
REMARK VINA RESULT:    -5.017      8.126     13.194
REMARK INTER + INTRA:         -11.069
REMARK INTER:                  -9.693
REMARK INTRA:                  -1.376
REMARK UNBOUND:                -1.360
REMARK SMILES CCCCCCCCCCCCCCCCCC(=O)[O-]
REMARK SMILES IDX 10 1 11 2 12 3 13 4 14 5 15 6 16 7 17 8 18 9 19 10 20 11
REMARK SMILES IDX 9 12 8 13 7 14 6 15 5 16 4 17 3 18 2 19 1 20
REMARK H PARENT
REMARK Flexibility Score: inf
ROOT
ATOM      1  C   UNL     1       9.877  51.372  23.738  1.00  0.00     0.000 C 
ENDROOT
BRANCH   1   2
ATOM      2  C   UNL     1      10.651  50.038  23.697  1.00  0.00     0.000 C 
BRANCH   2   3
ATOM      3  C   UNL     1      10.210  48.989  24.733  1.00  0.00     0.000 C 
BRANCH   3   4
ATOM      4  C   UNL     1      10.642  47.561  24.358  1.00  0.00     0.000 C 
BRANCH   4   5
ATOM      5  C   UNL     1      12.169  47.379  24.383  1.00  0.00     0.000 C 
BRANCH   5   6
ATOM      6  C   UNL     1      12.674  46.789  25.708  1.00  0.00     0.000 C 
BRANCH   6   7
ATOM      7  C   UNL     1      13.045  47.900  26.698  1.00  0.00     0.006 C 
BRANCH   7   8
ATOM      8  C   UNL     1      12.075  47.923  27.884  1.00  0.00     0.053 C 
BRANCH   8   9
ATOM      9  C   UNL     1      12.776  48.353  29.132  1.00  0.00     0.041 C 
ATOM     10  O   UNL     1      12.257  48.133  30.259  1.00  0.00    -0.550 OA
ATOM     11  O   UNL     1      14.020  48.967  29.057  1.00  0.00    -0.550 OA
ENDBRANCH   8   9
ENDBRANCH   7   8
ENDBRANCH   6   7
ENDBRANCH   5   6
ENDBRANCH   4   5
ENDBRANCH   3   4
ENDBRANCH   2   3
ENDBRANCH   1   2
BRANCH   1  12
ATOM     12  C   UNL     1      10.547  52.536  22.987  1.00  0.00     0.000 C 
BRANCH  12  13
ATOM     13  C   UNL     1       9.841  53.882  23.228  1.00  0.00    -0.000 C 
BRANCH  13  14
ATOM     14  C   UNL     1       9.285  54.009  24.655  1.00  0.00    -0.000 C 
BRANCH  14  15
ATOM     15  C   UNL     1       7.778  54.326  24.671  1.00  0.00    -0.000 C 
BRANCH  15  16
ATOM     16  C   UNL     1       7.016  53.637  23.526  1.00  0.00    -0.000 C 
BRANCH  16  17
ATOM     17  C   UNL     1       6.154  54.620  22.715  1.00  0.00    -0.000 C 
BRANCH  17  18
ATOM     18  C   UNL     1       6.825  55.993  22.546  1.00  0.00    -0.000 C 
BRANCH  18  19
ATOM     19  C   UNL     1       7.695  56.079  21.282  1.00  0.00    -0.003 C 
ATOM     20  C   UNL     1       7.215  55.097  20.217  1.00  0.00     0.004 C 
ENDBRANCH  18  19
ENDBRANCH  17  18
ENDBRANCH  16  17
ENDBRANCH  15  16
ENDBRANCH  14  15
ENDBRANCH  13  14
ENDBRANCH  12  13
ENDBRANCH   1  12
TORSDOF 16
ENDMDL
MODEL 8
REMARK VINA RESULT:    -4.943      2.806      3.622
REMARK INTER + INTRA:         -10.926
REMARK INTER:                  -9.576
REMARK INTRA:                  -1.350
REMARK UNBOUND:                -1.360
REMARK SMILES CCCCCCCCCCCCCCCCCC(=O)[O-]
REMARK SMILES IDX 10 1 11 2 12 3 13 4 14 5 15 6 16 7 17 8 18 9 19 10 20 11
REMARK SMILES IDX 9 12 8 13 7 14 6 15 5 16 4 17 3 18 2 19 1 20
REMARK H PARENT
REMARK Flexibility Score: inf
ROOT
ATOM      1  C   UNL     1       4.844  57.337  22.614  1.00  0.00     0.000 C 
ENDROOT
BRANCH   1   2
ATOM      2  C   UNL     1       3.887  58.496  22.269  1.00  0.00     0.000 C 
BRANCH   2   3
ATOM      3  C   UNL     1       2.560  58.081  21.610  1.00  0.00     0.000 C 
BRANCH   3   4
ATOM      4  C   UNL     1       2.113  59.052  20.504  1.00  0.00     0.000 C 
BRANCH   4   5
ATOM      5  C   UNL     1       2.226  60.525  20.929  1.00  0.00     0.000 C 
BRANCH   5   6
ATOM      6  C   UNL     1       0.887  61.271  20.846  1.00  0.00     0.000 C 
BRANCH   6   7
ATOM      7  C   UNL     1      -0.211  60.513  21.602  1.00  0.00     0.006 C 
BRANCH   7   8
ATOM      8  C   UNL     1      -0.017  60.630  23.117  1.00  0.00     0.053 C 
BRANCH   8   9
ATOM      9  C   UNL     1      -0.046  59.281  23.760  1.00  0.00     0.041 C 
ATOM     10  O   UNL     1      -0.687  58.337  23.226  1.00  0.00    -0.550 OA
ATOM     11  O   UNL     1       0.662  59.053  24.933  1.00  0.00    -0.550 OA
ENDBRANCH   8   9
ENDBRANCH   7   8
ENDBRANCH   6   7
ENDBRANCH   5   6
ENDBRANCH   4   5
ENDBRANCH   3   4
ENDBRANCH   2   3
ENDBRANCH   1   2
BRANCH   1  12
ATOM     12  C   UNL     1       6.073  57.214  21.696  1.00  0.00     0.000 C 
BRANCH  12  13
ATOM     13  C   UNL     1       7.324  56.718  22.443  1.00  0.00    -0.000 C 
BRANCH  13  14
ATOM     14  C   UNL     1       8.216  55.823  21.568  1.00  0.00    -0.000 C 
BRANCH  14  15
ATOM     15  C   UNL     1       8.501  54.458  22.223  1.00  0.00    -0.000 C 
BRANCH  15  16
ATOM     16  C   UNL     1       7.215  53.690  22.571  1.00  0.00    -0.000 C 
BRANCH  16  17
ATOM     17  C   UNL     1       6.893  53.728  24.076  1.00  0.00    -0.000 C 
BRANCH  17  18
ATOM     18  C   UNL     1       8.104  53.358  24.948  1.00  0.00    -0.000 C 
BRANCH  18  19
ATOM     19  C   UNL     1       8.547  54.505  25.869  1.00  0.00    -0.003 C 
ATOM     20  C   UNL     1      10.015  54.854  25.644  1.00  0.00     0.004 C 
ENDBRANCH  18  19
ENDBRANCH  17  18
ENDBRANCH  16  17
ENDBRANCH  15  16
ENDBRANCH  14  15
ENDBRANCH  13  14
ENDBRANCH  12  13
ENDBRANCH   1  12
TORSDOF 16
ENDMDL
MODEL 9
REMARK VINA RESULT:    -4.886      4.366      9.507
REMARK INTER + INTRA:         -10.815
REMARK INTER:                  -9.380
REMARK INTRA:                  -1.435
REMARK UNBOUND:                -1.360
REMARK SMILES CCCCCCCCCCCCCCCCCC(=O)[O-]
REMARK SMILES IDX 10 1 11 2 12 3 13 4 14 5 15 6 16 7 17 8 18 9 19 10 20 11
REMARK SMILES IDX 9 12 8 13 7 14 6 15 5 16 4 17 3 18 2 19 1 20
REMARK H PARENT
REMARK Flexibility Score: inf
ROOT
ATOM      1  C   UNL     1       2.009  58.850  20.591  1.00  0.00     0.000 C 
ENDROOT
BRANCH   1   2
ATOM      2  C   UNL     1       2.734  58.179  21.776  1.00  0.00     0.000 C 
BRANCH   2   3
ATOM      3  C   UNL     1       4.247  58.447  21.857  1.00  0.00     0.000 C 
BRANCH   3   4
ATOM      4  C   UNL     1       5.016  57.317  22.562  1.00  0.00     0.000 C 
BRANCH   4   5
ATOM      5  C   UNL     1       6.278  56.890  21.794  1.00  0.00     0.000 C 
BRANCH   5   6
ATOM      6  C   UNL     1       7.448  56.537  22.724  1.00  0.00     0.000 C 
BRANCH   6   7
ATOM      7  C   UNL     1       7.655  55.018  22.792  1.00  0.00     0.006 C 
BRANCH   7   8
ATOM      8  C   UNL     1       9.142  54.673  22.924  1.00  0.00     0.053 C 
BRANCH   8   9
ATOM      9  C   UNL     1       9.330  53.198  23.086  1.00  0.00     0.041 C 
ATOM     10  O   UNL     1      10.298  52.617  22.527  1.00  0.00    -0.550 OA
ATOM     11  O   UNL     1       8.456  52.468  23.881  1.00  0.00    -0.550 OA
ENDBRANCH   8   9
ENDBRANCH   7   8
ENDBRANCH   6   7
ENDBRANCH   5   6
ENDBRANCH   4   5
ENDBRANCH   3   4
ENDBRANCH   2   3
ENDBRANCH   1   2
BRANCH   1  12
ATOM     12  C   UNL     1       2.058  60.387  20.584  1.00  0.00     0.000 C 
BRANCH  12  13
ATOM     13  C   UNL     1       0.704  61.026  20.940  1.00  0.00    -0.000 C 
BRANCH  13  14
ATOM     14  C   UNL     1      -0.218  61.174  19.718  1.00  0.00    -0.000 C 
BRANCH  14  15
ATOM     15  C   UNL     1      -1.406  60.194  19.757  1.00  0.00    -0.000 C 
BRANCH  15  16
ATOM     16  C   UNL     1      -1.598  59.445  18.428  1.00  0.00    -0.000 C 
BRANCH  16  17
ATOM     17  C   UNL     1      -0.460  59.714  17.428  1.00  0.00    -0.000 C 
BRANCH  17  18
ATOM     18  C   UNL     1       0.531  58.542  17.332  1.00  0.00    -0.000 C 
BRANCH  18  19
ATOM     19  C   UNL     1       1.896  58.961  16.764  1.00  0.00    -0.003 C 
ATOM     20  C   UNL     1       2.028  60.481  16.717  1.00  0.00     0.004 C 
ENDBRANCH  18  19
ENDBRANCH  17  18
ENDBRANCH  16  17
ENDBRANCH  15  16
ENDBRANCH  14  15
ENDBRANCH  13  14
ENDBRANCH  12  13
ENDBRANCH   1  12
TORSDOF 16
ENDMDL
