MODEL 1
REMARK VINA RESULT:    -2.974      0.000      0.000
REMARK INTER + INTRA:          -3.585
REMARK INTER:                  -3.495
REMARK INTRA:                  -0.090
REMARK UNBOUND:                -0.090
REMARK SMILES CCCCC(=O)[O-]
REMARK SMILES IDX 4 1 5 2 6 3 7 4 3 5 2 6 1 7
REMARK H PARENT
REMARK Flexibility Score: inf
ROOT
ATOM      1  C   UNL     1      48.068 -15.733 -56.006  1.00  0.00     0.053 C 
ENDROOT
BRANCH   1   2
ATOM      2  C   UNL     1      47.136 -16.251 -57.058  1.00  0.00     0.041 C 
ATOM      3  O   UNL     1      46.147 -15.562 -57.423  1.00  0.00    -0.550 OA
ATOM      4  O   UNL     1      47.378 -17.480 -57.658  1.00  0.00    -0.550 OA
ENDBRANCH   1   2
BRANCH   1   5
ATOM      5  C   UNL     1      47.686 -14.317 -55.544  1.00  0.00     0.006 C 
BRANCH   5   6
ATOM      6  C   UNL     1      48.610 -13.210 -56.079  1.00  0.00    -0.003 C 
ATOM      7  C   UNL     1      47.859 -12.137 -56.867  1.00  0.00     0.004 C 
ENDBRANCH   5   6
ENDBRANCH   1   5
TORSDOF 3
ENDMDL
MODEL 2
REMARK VINA RESULT:    -2.932      1.663      2.323
REMARK INTER + INTRA:          -3.537
REMARK INTER:                  -3.484
REMARK INTRA:                  -0.052
REMARK UNBOUND:                -0.090
REMARK SMILES CCCCC(=O)[O-]
REMARK SMILES IDX 4 1 5 2 6 3 7 4 3 5 2 6 1 7
REMARK H PARENT
REMARK Flexibility Score: inf
ROOT
ATOM      1  C   UNL     1      49.062 -13.577 -56.206  1.00  0.00     0.053 C 
ENDROOT
BRANCH   1   2
ATOM      2  C   UNL     1      48.118 -14.674 -55.819  1.00  0.00     0.041 C 
ATOM      3  O   UNL     1      47.250 -14.477 -54.928  1.00  0.00    -0.550 OA
ATOM      4  O   UNL     1      48.176 -15.902 -56.465  1.00  0.00    -0.550 OA
ENDBRANCH   1   2
BRANCH   1   5
ATOM      5  C   UNL     1      48.433 -12.186 -56.029  1.00  0.00     0.006 C 
BRANCH   5   6
ATOM      6  C   UNL     1      47.555 -11.737 -57.209  1.00  0.00    -0.003 C 
ATOM      7  C   UNL     1      47.629 -10.233 -57.469  1.00  0.00     0.004 C 
ENDBRANCH   5   6
ENDBRANCH   1   5
TORSDOF 3
ENDMDL
MODEL 3
REMARK VINA RESULT:    -2.916      2.273      3.875
REMARK INTER + INTRA:          -3.518
REMARK INTER:                  -3.463
REMARK INTRA:                  -0.055
REMARK UNBOUND:                -0.090
REMARK SMILES CCCCC(=O)[O-]
REMARK SMILES IDX 4 1 5 2 6 3 7 4 3 5 2 6 1 7
REMARK H PARENT
REMARK Flexibility Score: inf
ROOT
ATOM      1  C   UNL     1      48.600 -13.306 -56.072  1.00  0.00     0.053 C 
ENDROOT
BRANCH   1   2
ATOM      2  C   UNL     1      47.782 -12.237 -56.730  1.00  0.00     0.041 C 
ATOM      3  O   UNL     1      46.856 -12.548 -57.526  1.00  0.00    -0.550 OA
ATOM      4  O   UNL     1      48.020 -10.900 -56.439  1.00  0.00    -0.550 OA
ENDBRANCH   1   2
BRANCH   1   5
ATOM      5  C   UNL     1      47.740 -14.503 -55.634  1.00  0.00     0.006 C 
BRANCH   5   6
ATOM      6  C   UNL     1      48.297 -15.870 -56.068  1.00  0.00    -0.003 C 
ATOM      7  C   UNL     1      47.371 -16.610 -57.032  1.00  0.00     0.004 C 
ENDBRANCH   5   6
ENDBRANCH   1   5
TORSDOF 3
ENDMDL
MODEL 4
REMARK VINA RESULT:    -2.888      8.859     10.051
REMARK INTER + INTRA:          -3.484
REMARK INTER:                  -3.465
REMARK INTRA:                  -0.019
REMARK UNBOUND:                -0.090
REMARK SMILES CCCCC(=O)[O-]
REMARK SMILES IDX 4 1 5 2 6 3 7 4 3 5 2 6 1 7
REMARK H PARENT
REMARK Flexibility Score: inf
ROOT
ATOM      1  C   UNL     1      51.115  -6.203 -57.017  1.00  0.00     0.053 C 
ENDROOT
BRANCH   1   2
ATOM      2  C   UNL     1      52.296  -5.919 -57.894  1.00  0.00     0.041 C 
ATOM      3  O   UNL     1      53.087  -4.981 -57.607  1.00  0.00    -0.550 OA
ATOM      4  O   UNL     1      52.540  -6.709 -59.010  1.00  0.00    -0.550 OA
ENDBRANCH   1   2
BRANCH   1   5
ATOM      5  C   UNL     1      51.476  -6.132 -55.524  1.00  0.00     0.006 C 
BRANCH   5   6
ATOM      6  C   UNL     1      50.265  -6.211 -54.579  1.00  0.00    -0.003 C 
ATOM      7  C   UNL     1      49.941  -7.640 -54.144  1.00  0.00     0.004 C 
ENDBRANCH   5   6
ENDBRANCH   1   5
TORSDOF 3
ENDMDL
MODEL 5
REMARK VINA RESULT:    -2.862      9.702     10.397
REMARK INTER + INTRA:          -3.454
REMARK INTER:                  -3.435
REMARK INTRA:                  -0.019
REMARK UNBOUND:                -0.090
REMARK SMILES CCCCC(=O)[O-]
REMARK SMILES IDX 4 1 5 2 6 3 7 4 3 5 2 6 1 7
REMARK H PARENT
REMARK Flexibility Score: inf
ROOT
ATOM      1  C   UNL     1      51.279  -6.113 -55.134  1.00  0.00     0.053 C 
ENDROOT
BRANCH   1   2
ATOM      2  C   UNL     1      50.137  -5.410 -54.466  1.00  0.00     0.041 C 
ATOM      3  O   UNL     1      49.046  -6.010 -54.278  1.00  0.00    -0.550 OA
ATOM      4  O   UNL     1      50.289  -4.102 -54.023  1.00  0.00    -0.550 OA
ENDBRANCH   1   2
BRANCH   1   5
ATOM      5  C   UNL     1      51.125  -6.137 -56.664  1.00  0.00     0.006 C 
BRANCH   5   6
ATOM      6  C   UNL     1      52.403  -5.756 -57.431  1.00  0.00    -0.003 C 
ATOM      7  C   UNL     1      52.497  -6.427 -58.801  1.00  0.00     0.004 C 
ENDBRANCH   5   6
ENDBRANCH   1   5
TORSDOF 3
ENDMDL
MODEL 6
REMARK VINA RESULT:    -2.853      8.028      9.538
REMARK INTER + INTRA:          -3.444
REMARK INTER:                  -3.341
REMARK INTRA:                  -0.103
REMARK UNBOUND:                -0.090
REMARK SMILES CCCCC(=O)[O-]
REMARK SMILES IDX 4 1 5 2 6 3 7 4 3 5 2 6 1 7
REMARK H PARENT
REMARK Flexibility Score: inf
ROOT
ATOM      1  C   UNL     1      51.672  -6.233 -55.247  1.00  0.00     0.053 C 
ENDROOT
BRANCH   1   2
ATOM      2  C   UNL     1      51.628  -5.957 -56.719  1.00  0.00     0.041 C 
ATOM      3  O   UNL     1      50.638  -6.326 -57.404  1.00  0.00    -0.550 OA
ATOM      4  O   UNL     1      52.667  -5.266 -57.328  1.00  0.00    -0.550 OA
ENDBRANCH   1   2
BRANCH   1   5
ATOM      5  C   UNL     1      50.263  -6.344 -54.640  1.00  0.00     0.006 C 
BRANCH   5   6
ATOM      6  C   UNL     1      49.858  -7.775 -54.247  1.00  0.00    -0.003 C 
ATOM      7  C   UNL     1      48.701  -8.317 -55.085  1.00  0.00     0.004 C 
ENDBRANCH   5   6
ENDBRANCH   1   5
TORSDOF 3
ENDMDL
MODEL 7
REMARK VINA RESULT:    -2.834      8.593      9.380
REMARK INTER + INTRA:          -3.421
REMARK INTER:                  -3.333
REMARK INTRA:                  -0.088
REMARK UNBOUND:                -0.090
REMARK SMILES CCCCC(=O)[O-]
REMARK SMILES IDX 4 1 5 2 6 3 7 4 3 5 2 6 1 7
REMARK H PARENT
REMARK Flexibility Score: inf
ROOT
ATOM      1  C   UNL     1      51.404  -6.194 -55.198  1.00  0.00     0.053 C 
ENDROOT
BRANCH   1   2
ATOM      2  C   UNL     1      50.166  -7.016 -55.011  1.00  0.00     0.041 C 
ATOM      3  O   UNL     1      49.279  -7.038 -55.905  1.00  0.00    -0.550 OA
ATOM      4  O   UNL     1      50.006  -7.782 -53.863  1.00  0.00    -0.550 OA
ENDBRANCH   1   2
BRANCH   1   5
ATOM      5  C   UNL     1      51.396  -5.438 -56.537  1.00  0.00     0.006 C 
BRANCH   5   6
ATOM      6  C   UNL     1      52.460  -5.920 -57.539  1.00  0.00    -0.003 C 
ATOM      7  C   UNL     1      51.855  -6.572 -58.781  1.00  0.00     0.004 C 
ENDBRANCH   5   6
ENDBRANCH   1   5
TORSDOF 3
ENDMDL
MODEL 8
REMARK VINA RESULT:    -2.754      9.731     10.369
REMARK INTER + INTRA:          -3.327
REMARK INTER:                  -3.236
REMARK INTRA:                  -0.091
REMARK UNBOUND:                -0.090
REMARK SMILES CCCCC(=O)[O-]
REMARK SMILES IDX 4 1 5 2 6 3 7 4 3 5 2 6 1 7
REMARK H PARENT
REMARK Flexibility Score: inf
ROOT
ATOM      1  C   UNL     1      51.661  -6.145 -55.232  1.00  0.00     0.053 C 
ENDROOT
BRANCH   1   2
ATOM      2  C   UNL     1      51.554  -5.876 -56.702  1.00  0.00     0.041 C 
ATOM      3  O   UNL     1      52.495  -5.301 -57.311  1.00  0.00    -0.550 OA
ATOM      4  O   UNL     1      50.428  -6.287 -57.404  1.00  0.00    -0.550 OA
ENDBRANCH   1   2
BRANCH   1   5
ATOM      5  C   UNL     1      50.358  -5.812 -54.489  1.00  0.00     0.006 C 
BRANCH   5   6
ATOM      6  C   UNL     1      50.121  -4.306 -54.277  1.00  0.00    -0.003 C 
ATOM      7  C   UNL     1      48.660  -3.901 -54.466  1.00  0.00     0.004 C 
ENDBRANCH   5   6
ENDBRANCH   1   5
TORSDOF 3
ENDMDL
MODEL 9
REMARK VINA RESULT:    -2.737      7.329      8.539
REMARK INTER + INTRA:          -3.307
REMARK INTER:                  -3.240
REMARK INTRA:                  -0.066
REMARK UNBOUND:                -0.090
REMARK SMILES CCCCC(=O)[O-]
REMARK SMILES IDX 4 1 5 2 6 3 7 4 3 5 2 6 1 7
REMARK H PARENT
REMARK Flexibility Score: inf
ROOT
ATOM      1  C   UNL     1      49.177  -7.128 -53.841  1.00  0.00     0.053 C 
ENDROOT
BRANCH   1   2
ATOM      2  C   UNL     1      48.091  -7.795 -54.629  1.00  0.00     0.041 C 
ATOM      3  O   UNL     1      46.910  -7.363 -54.570  1.00  0.00    -0.550 OA
ATOM      4  O   UNL     1      48.390  -8.873 -55.453  1.00  0.00    -0.550 OA
ENDBRANCH   1   2
BRANCH   1   5
ATOM      5  C   UNL     1      50.476  -6.991 -54.653  1.00  0.00     0.006 C 
BRANCH   5   6
ATOM      6  C   UNL     1      50.740  -5.570 -55.181  1.00  0.00    -0.003 C 
ATOM      7  C   UNL     1      50.124  -4.484 -54.301  1.00  0.00     0.004 C 
ENDBRANCH   5   6
ENDBRANCH   1   5
TORSDOF 3
ENDMDL
