MODEL 1
REMARK VINA RESULT:    -2.830      0.000      0.000
REMARK INTER + INTRA:         -12.779
REMARK INTER:                  -7.132
REMARK INTRA:                  -5.648
REMARK UNBOUND:                -5.648
REMARK SMILES CCCCCCCCCCCCCCCCCCCCCCCCCCCC(=O)[O-]
REMARK SMILES IDX 15 1 16 2 17 3 18 4 19 5 20 6 21 7 22 8 23 9 24 10 25 11
REMARK SMILES IDX 26 12 27 13 28 14 29 15 30 16 14 17 13 18 12 19 11 20 10 21
REMARK SMILES IDX 9 22 8 23 7 24 6 25 5 26 4 27 3 28 2 29 1 30
REMARK H PARENT
REMARK Flexibility Score: inf
ROOT
ATOM      1  C   UNL     1      67.813  17.649  76.767  1.00  0.00     0.000 C 
ENDROOT
BRANCH   1   2
ATOM      2  C   UNL     1      67.536  16.239  76.214  1.00  0.00     0.000 C 
BRANCH   2   3
ATOM      3  C   UNL     1      68.340  15.153  76.948  1.00  0.00     0.000 C 
BRANCH   3   4
ATOM      4  C   UNL     1      69.450  14.552  76.066  1.00  0.00     0.000 C 
BRANCH   4   5
ATOM      5  C   UNL     1      70.857  14.752  76.670  1.00  0.00     0.000 C 
BRANCH   5   6
ATOM      6  C   UNL     1      70.871  14.790  78.210  1.00  0.00     0.000 C 
BRANCH   6   7
ATOM      7  C   UNL     1      71.534  16.036  78.827  1.00  0.00     0.000 C 
BRANCH   7   8
ATOM      8  C   UNL     1      70.825  16.596  80.075  1.00  0.00     0.000 C 
BRANCH   8   9
ATOM      9  C   UNL     1      69.545  15.825  80.430  1.00  0.00     0.000 C 
BRANCH   9  10
ATOM     10  C   UNL     1      68.305  16.723  80.295  1.00  0.00     0.000 C 
BRANCH  10  11
ATOM     11  C   UNL     1      66.997  15.918  80.238  1.00  0.00     0.000 C 
BRANCH  11  12
ATOM     12  C   UNL     1      66.173  16.034  81.533  1.00  0.00     0.006 C 
BRANCH  12  13
ATOM     13  C   UNL     1      66.516  17.303  82.326  1.00  0.00     0.053 C 
BRANCH  13  14
ATOM     14  C   UNL     1      67.033  16.988  83.696  1.00  0.00     0.041 C 
ATOM     15  O   UNL     1      66.247  16.946  84.681  1.00  0.00    -0.550 OA
ATOM     16  O   UNL     1      68.389  16.744  83.887  1.00  0.00    -0.550 OA
ENDBRANCH  13  14
ENDBRANCH  12  13
ENDBRANCH  11  12
ENDBRANCH  10  11
ENDBRANCH   9  10
ENDBRANCH   8   9
ENDBRANCH   7   8
ENDBRANCH   6   7
ENDBRANCH   5   6
ENDBRANCH   4   5
ENDBRANCH   3   4
ENDBRANCH   2   3
ENDBRANCH   1   2
BRANCH   1  17
ATOM     17  C   UNL     1      69.292  18.057  76.626  1.00  0.00     0.000 C 
BRANCH  17  18
ATOM     18  C   UNL     1      69.505  19.454  76.011  1.00  0.00     0.000 C 
BRANCH  18  19
ATOM     19  C   UNL     1      70.212  20.422  76.976  1.00  0.00     0.000 C 
BRANCH  19  20
ATOM     20  C   UNL     1      70.258  19.897  78.427  1.00  0.00     0.000 C 
BRANCH  20  21
ATOM     21  C   UNL     1      69.481  20.771  79.431  1.00  0.00     0.000 C 
BRANCH  21  22
ATOM     22  C   UNL     1      68.175  20.144  79.955  1.00  0.00    -0.000 C 
BRANCH  22  23
ATOM     23  C   UNL     1      66.963  20.387  79.027  1.00  0.00    -0.000 C 
BRANCH  23  24
ATOM     24  C   UNL     1      65.746  19.525  79.408  1.00  0.00    -0.000 C 
BRANCH  24  25
ATOM     25  C   UNL     1      64.967  19.021  78.183  1.00  0.00    -0.000 C 
BRANCH  25  26
ATOM     26  C   UNL     1      64.471  17.577  78.351  1.00  0.00    -0.000 C 
BRANCH  26  27
ATOM     27  C   UNL     1      63.401  17.232  77.309  1.00  0.00    -0.000 C 
BRANCH  27  28
ATOM     28  C   UNL     1      63.807  15.990  76.498  1.00  0.00    -0.000 C 
BRANCH  28  29
ATOM     29  C   UNL     1      64.064  14.764  77.386  1.00  0.00    -0.003 C 
ATOM     30  C   UNL     1      64.867  13.675  76.676  1.00  0.00     0.004 C 
ENDBRANCH  28  29
ENDBRANCH  27  28
ENDBRANCH  26  27
ENDBRANCH  25  26
ENDBRANCH  24  25
ENDBRANCH  23  24
ENDBRANCH  22  23
ENDBRANCH  21  22
ENDBRANCH  20  21
ENDBRANCH  19  20
ENDBRANCH  18  19
ENDBRANCH  17  18
ENDBRANCH   1  17
TORSDOF 26
ENDMDL
MODEL 2
REMARK VINA RESULT:    -2.811      1.884      6.231
REMARK INTER + INTRA:         -12.730
REMARK INTER:                  -7.028
REMARK INTRA:                  -5.702
REMARK UNBOUND:                -5.648
REMARK SMILES CCCCCCCCCCCCCCCCCCCCCCCCCCCC(=O)[O-]
REMARK SMILES IDX 15 1 16 2 17 3 18 4 19 5 20 6 21 7 22 8 23 9 24 10 25 11
REMARK SMILES IDX 26 12 27 13 28 14 29 15 30 16 14 17 13 18 12 19 11 20 10 21
REMARK SMILES IDX 9 22 8 23 7 24 6 25 5 26 4 27 3 28 2 29 1 30
REMARK H PARENT
REMARK Flexibility Score: inf
ROOT
ATOM      1  C   UNL     1      67.510  17.214  80.578  1.00  0.00     0.000 C 
ENDROOT
BRANCH   1   2
ATOM      2  C   UNL     1      66.780  15.860  80.499  1.00  0.00     0.000 C 
BRANCH   2   3
ATOM      3  C   UNL     1      65.648  15.865  79.459  1.00  0.00     0.000 C 
BRANCH   3   4
ATOM      4  C   UNL     1      64.279  16.182  80.088  1.00  0.00     0.000 C 
BRANCH   4   5
ATOM      5  C   UNL     1      63.187  15.174  79.667  1.00  0.00     0.000 C 
BRANCH   5   6
ATOM      6  C   UNL     1      63.463  14.492  78.313  1.00  0.00     0.000 C 
BRANCH   6   7
ATOM      7  C   UNL     1      62.392  14.730  77.232  1.00  0.00     0.000 C 
BRANCH   7   8
ATOM      8  C   UNL     1      62.938  15.214  75.875  1.00  0.00     0.000 C 
BRANCH   8   9
ATOM      9  C   UNL     1      64.138  16.164  76.019  1.00  0.00     0.000 C 
BRANCH   9  10
ATOM     10  C   UNL     1      63.690  17.632  75.958  1.00  0.00     0.000 C 
BRANCH  10  11
ATOM     11  C   UNL     1      63.573  18.272  77.351  1.00  0.00     0.000 C 
BRANCH  11  12
ATOM     12  C   UNL     1      64.391  19.569  77.478  1.00  0.00     0.006 C 
BRANCH  12  13
ATOM     13  C   UNL     1      65.310  19.555  78.708  1.00  0.00     0.053 C 
BRANCH  13  14
ATOM     14  C   UNL     1      64.622  20.078  79.931  1.00  0.00     0.041 C 
ATOM     15  O   UNL     1      64.778  19.507  81.045  1.00  0.00    -0.550 OA
ATOM     16  O   UNL     1      63.801  21.197  79.841  1.00  0.00    -0.550 OA
ENDBRANCH  13  14
ENDBRANCH  12  13
ENDBRANCH  11  12
ENDBRANCH  10  11
ENDBRANCH   9  10
ENDBRANCH   8   9
ENDBRANCH   7   8
ENDBRANCH   6   7
ENDBRANCH   5   6
ENDBRANCH   4   5
ENDBRANCH   3   4
ENDBRANCH   2   3
ENDBRANCH   1   2
BRANCH   1  17
ATOM     17  C   UNL     1      69.042  17.058  80.551  1.00  0.00     0.000 C 
BRANCH  17  18
ATOM     18  C   UNL     1      69.527  15.616  80.307  1.00  0.00     0.000 C 
BRANCH  18  19
ATOM     19  C   UNL     1      71.029  15.545  79.982  1.00  0.00     0.000 C 
BRANCH  19  20
ATOM     20  C   UNL     1      71.345  15.902  78.514  1.00  0.00     0.000 C 
BRANCH  20  21
ATOM     21  C   UNL     1      71.104  14.744  77.526  1.00  0.00     0.000 C 
BRANCH  21  22
ATOM     22  C   UNL     1      70.237  15.106  76.306  1.00  0.00    -0.000 C 
BRANCH  22  23
ATOM     23  C   UNL     1      68.889  14.352  76.266  1.00  0.00    -0.000 C 
BRANCH  23  24
ATOM     24  C   UNL     1      67.679  15.298  76.374  1.00  0.00    -0.000 C 
BRANCH  24  25
ATOM     25  C   UNL     1      68.045  16.664  76.976  1.00  0.00    -0.000 C 
BRANCH  25  26
ATOM     26  C   UNL     1      67.419  17.836  76.205  1.00  0.00    -0.000 C 
BRANCH  26  27
ATOM     27  C   UNL     1      68.408  19.001  76.068  1.00  0.00    -0.000 C 
BRANCH  27  28
ATOM     28  C   UNL     1      69.650  18.770  76.943  1.00  0.00    -0.000 C 
BRANCH  28  29
ATOM     29  C   UNL     1      69.742  19.763  78.111  1.00  0.00    -0.003 C 
ATOM     30  C   UNL     1      71.069  19.674  78.862  1.00  0.00     0.004 C 
ENDBRANCH  28  29
ENDBRANCH  27  28
ENDBRANCH  26  27
ENDBRANCH  25  26
ENDBRANCH  24  25
ENDBRANCH  23  24
ENDBRANCH  22  23
ENDBRANCH  21  22
ENDBRANCH  20  21
ENDBRANCH  19  20
ENDBRANCH  18  19
ENDBRANCH  17  18
ENDBRANCH   1  17
TORSDOF 26
ENDMDL
MODEL 3
REMARK VINA RESULT:    -2.758      1.538      4.368
REMARK INTER + INTRA:         -12.597
REMARK INTER:                  -7.354
REMARK INTRA:                  -5.243
REMARK UNBOUND:                -5.648
REMARK SMILES CCCCCCCCCCCCCCCCCCCCCCCCCCCC(=O)[O-]
REMARK SMILES IDX 15 1 16 2 17 3 18 4 19 5 20 6 21 7 22 8 23 9 24 10 25 11
REMARK SMILES IDX 26 12 27 13 28 14 29 15 30 16 14 17 13 18 12 19 11 20 10 21
REMARK SMILES IDX 9 22 8 23 7 24 6 25 5 26 4 27 3 28 2 29 1 30
REMARK H PARENT
REMARK Flexibility Score: inf
ROOT
ATOM      1  C   UNL     1      66.969  15.013  75.875  1.00  0.00     0.000 C 
ENDROOT
BRANCH   1   2
ATOM      2  C   UNL     1      68.307  14.313  76.173  1.00  0.00     0.000 C 
BRANCH   2   3
ATOM      3  C   UNL     1      69.440  15.313  76.464  1.00  0.00     0.000 C 
BRANCH   3   4
ATOM      4  C   UNL     1      70.811  14.622  76.581  1.00  0.00     0.000 C 
BRANCH   4   5
ATOM      5  C   UNL     1      71.489  14.884  77.943  1.00  0.00     0.000 C 
BRANCH   5   6
ATOM      6  C   UNL     1      70.496  15.024  79.113  1.00  0.00     0.000 C 
BRANCH   6   7
ATOM      7  C   UNL     1      71.108  15.531  80.433  1.00  0.00     0.000 C 
BRANCH   7   8
ATOM      8  C   UNL     1      71.696  16.953  80.370  1.00  0.00     0.000 C 
BRANCH   8   9
ATOM      9  C   UNL     1      71.522  17.729  81.685  1.00  0.00     0.000 C 
BRANCH   9  10
ATOM     10  C   UNL     1      70.819  19.074  81.443  1.00  0.00     0.000 C 
BRANCH  10  11
ATOM     11  C   UNL     1      69.785  19.403  82.532  1.00  0.00     0.000 C 
BRANCH  11  12
ATOM     12  C   UNL     1      69.490  18.204  83.450  1.00  0.00     0.006 C 
BRANCH  12  13
ATOM     13  C   UNL     1      68.103  17.601  83.187  1.00  0.00     0.053 C 
BRANCH  13  14
ATOM     14  C   UNL     1      67.462  17.093  84.442  1.00  0.00     0.041 C 
ATOM     15  O   UNL     1      68.124  17.022  85.513  1.00  0.00    -0.550 OA
ATOM     16  O   UNL     1      66.130  16.692  84.429  1.00  0.00    -0.550 OA
ENDBRANCH  13  14
ENDBRANCH  12  13
ENDBRANCH  11  12
ENDBRANCH  10  11
ENDBRANCH   9  10
ENDBRANCH   8   9
ENDBRANCH   7   8
ENDBRANCH   6   7
ENDBRANCH   5   6
ENDBRANCH   4   5
ENDBRANCH   3   4
ENDBRANCH   2   3
ENDBRANCH   1   2
BRANCH   1  17
ATOM     17  C   UNL     1      67.060  16.544  76.021  1.00  0.00     0.000 C 
BRANCH  17  18
ATOM     18  C   UNL     1      65.695  17.249  76.143  1.00  0.00     0.000 C 
BRANCH  18  19
ATOM     19  C   UNL     1      64.516  16.261  76.103  1.00  0.00     0.000 C 
BRANCH  19  20
ATOM     20  C   UNL     1      63.797  16.126  77.463  1.00  0.00     0.000 C 
BRANCH  20  21
ATOM     21  C   UNL     1      64.457  15.113  78.418  1.00  0.00     0.000 C 
BRANCH  21  22
ATOM     22  C   UNL     1      64.203  15.378  79.914  1.00  0.00    -0.000 C 
BRANCH  22  23
ATOM     23  C   UNL     1      65.233  16.340  80.550  1.00  0.00    -0.000 C 
BRANCH  23  24
ATOM     24  C   UNL     1      66.677  15.823  80.427  1.00  0.00    -0.000 C 
BRANCH  24  25
ATOM     25  C   UNL     1      67.558  16.724  79.546  1.00  0.00    -0.000 C 
BRANCH  25  26
ATOM     26  C   UNL     1      67.275  18.219  79.762  1.00  0.00    -0.000 C 
BRANCH  26  27
ATOM     27  C   UNL     1      67.894  19.067  78.645  1.00  0.00    -0.000 C 
BRANCH  27  28
ATOM     28  C   UNL     1      69.254  18.494  78.212  1.00  0.00    -0.000 C 
BRANCH  28  29
ATOM     29  C   UNL     1      70.003  19.421  77.244  1.00  0.00    -0.003 C 
ATOM     30  C   UNL     1      69.328  19.521  75.877  1.00  0.00     0.004 C 
ENDBRANCH  28  29
ENDBRANCH  27  28
ENDBRANCH  26  27
ENDBRANCH  25  26
ENDBRANCH  24  25
ENDBRANCH  23  24
ENDBRANCH  22  23
ENDBRANCH  21  22
ENDBRANCH  20  21
ENDBRANCH  19  20
ENDBRANCH  18  19
ENDBRANCH  17  18
ENDBRANCH   1  17
TORSDOF 26
ENDMDL
MODEL 4
REMARK VINA RESULT:    -2.700      2.673      5.377
REMARK INTER + INTRA:         -12.451
REMARK INTER:                  -7.869
REMARK INTRA:                  -4.582
REMARK UNBOUND:                -5.648
REMARK SMILES CCCCCCCCCCCCCCCCCCCCCCCCCCCC(=O)[O-]
REMARK SMILES IDX 15 1 16 2 17 3 18 4 19 5 20 6 21 7 22 8 23 9 24 10 25 11
REMARK SMILES IDX 26 12 27 13 28 14 29 15 30 16 14 17 13 18 12 19 11 20 10 21
REMARK SMILES IDX 9 22 8 23 7 24 6 25 5 26 4 27 3 28 2 29 1 30
REMARK H PARENT
REMARK Flexibility Score: inf
ROOT
ATOM      1  C   UNL     1      67.521  16.718  81.577  1.00  0.00     0.000 C 
ENDROOT
BRANCH   1   2
ATOM      2  C   UNL     1      68.323  15.603  80.881  1.00  0.00     0.000 C 
BRANCH   2   3
ATOM      3  C   UNL     1      69.234  16.146  79.767  1.00  0.00     0.000 C 
BRANCH   3   4
ATOM      4  C   UNL     1      70.561  15.370  79.670  1.00  0.00     0.000 C 
BRANCH   4   5
ATOM      5  C   UNL     1      71.042  15.204  78.211  1.00  0.00     0.000 C 
BRANCH   5   6
ATOM      6  C   UNL     1      70.038  15.724  77.165  1.00  0.00     0.000 C 
BRANCH   6   7
ATOM      7  C   UNL     1      69.606  14.693  76.105  1.00  0.00     0.000 C 
BRANCH   7   8
ATOM      8  C   UNL     1      68.114  14.312  76.143  1.00  0.00     0.000 C 
BRANCH   8   9
ATOM      9  C   UNL     1      67.257  15.332  76.908  1.00  0.00     0.000 C 
BRANCH   9  10
ATOM     10  C   UNL     1      65.763  14.989  76.798  1.00  0.00     0.000 C 
BRANCH  10  11
ATOM     11  C   UNL     1      65.510  13.709  75.985  1.00  0.00     0.000 C 
BRANCH  11  12
ATOM     12  C   UNL     1      64.187  13.018  76.365  1.00  0.00     0.006 C 
BRANCH  12  13
ATOM     13  C   UNL     1      63.168  14.004  76.953  1.00  0.00     0.053 C 
BRANCH  13  14
ATOM     14  C   UNL     1      62.255  13.347  77.943  1.00  0.00     0.041 C 
ATOM     15  O   UNL     1      62.685  13.006  79.078  1.00  0.00    -0.550 OA
ATOM     16  O   UNL     1      60.927  13.105  77.608  1.00  0.00    -0.550 OA
ENDBRANCH  13  14
ENDBRANCH  12  13
ENDBRANCH  11  12
ENDBRANCH  10  11
ENDBRANCH   9  10
ENDBRANCH   8   9
ENDBRANCH   7   8
ENDBRANCH   6   7
ENDBRANCH   5   6
ENDBRANCH   4   5
ENDBRANCH   3   4
ENDBRANCH   2   3
ENDBRANCH   1   2
BRANCH   1  17
ATOM     17  C   UNL     1      68.198  17.212  82.869  1.00  0.00     0.000 C 
BRANCH  17  18
ATOM     18  C   UNL     1      68.933  18.558  82.722  1.00  0.00     0.000 C 
BRANCH  18  19
ATOM     19  C   UNL     1      70.443  18.382  82.483  1.00  0.00     0.000 C 
BRANCH  19  20
ATOM     20  C   UNL     1      71.027  19.438  81.520  1.00  0.00     0.000 C 
BRANCH  20  21
ATOM     21  C   UNL     1      70.228  19.597  80.212  1.00  0.00     0.000 C 
BRANCH  21  22
ATOM     22  C   UNL     1      71.034  19.334  78.927  1.00  0.00    -0.000 C 
BRANCH  22  23
ATOM     23  C   UNL     1      71.114  20.561  77.991  1.00  0.00    -0.000 C 
BRANCH  23  24
ATOM     24  C   UNL     1      69.937  20.627  77.002  1.00  0.00    -0.000 C 
BRANCH  24  25
ATOM     25  C   UNL     1      69.665  19.282  76.310  1.00  0.00    -0.000 C 
BRANCH  25  26
ATOM     26  C   UNL     1      68.172  18.920  76.287  1.00  0.00    -0.000 C 
BRANCH  26  27
ATOM     27  C   UNL     1      67.649  18.632  77.699  1.00  0.00    -0.000 C 
BRANCH  27  28
ATOM     28  C   UNL     1      66.501  19.588  78.063  1.00  0.00    -0.000 C 
BRANCH  28  29
ATOM     29  C   UNL     1      65.733  19.139  79.315  1.00  0.00    -0.003 C 
ATOM     30  C   UNL     1      66.125  19.925  80.564  1.00  0.00     0.004 C 
ENDBRANCH  28  29
ENDBRANCH  27  28
ENDBRANCH  26  27
ENDBRANCH  25  26
ENDBRANCH  24  25
ENDBRANCH  23  24
ENDBRANCH  22  23
ENDBRANCH  21  22
ENDBRANCH  20  21
ENDBRANCH  19  20
ENDBRANCH  18  19
ENDBRANCH  17  18
ENDBRANCH   1  17
TORSDOF 26
ENDMDL
MODEL 5
REMARK VINA RESULT:    -2.666      2.046      5.752
REMARK INTER + INTRA:         -12.365
REMARK INTER:                  -6.615
REMARK INTRA:                  -5.749
REMARK UNBOUND:                -5.648
REMARK SMILES CCCCCCCCCCCCCCCCCCCCCCCCCCCC(=O)[O-]
REMARK SMILES IDX 15 1 16 2 17 3 18 4 19 5 20 6 21 7 22 8 23 9 24 10 25 11
REMARK SMILES IDX 26 12 27 13 28 14 29 15 30 16 14 17 13 18 12 19 11 20 10 21
REMARK SMILES IDX 9 22 8 23 7 24 6 25 5 26 4 27 3 28 2 29 1 30
REMARK H PARENT
REMARK Flexibility Score: inf
ROOT
ATOM      1  C   UNL     1      68.554  18.559  77.884  1.00  0.00     0.000 C 
ENDROOT
BRANCH   1   2
ATOM      2  C   UNL     1      69.582  18.694  76.746  1.00  0.00     0.000 C 
BRANCH   2   3
ATOM      3  C   UNL     1      69.334  19.939  75.877  1.00  0.00     0.000 C 
BRANCH   3   4
ATOM      4  C   UNL     1      70.245  21.116  76.269  1.00  0.00     0.000 C 
BRANCH   4   5
ATOM      5  C   UNL     1      69.450  22.326  76.805  1.00  0.00     0.000 C 
BRANCH   5   6
ATOM      6  C   UNL     1      67.927  22.094  76.854  1.00  0.00     0.000 C 
BRANCH   6   7
ATOM      7  C   UNL     1      67.335  21.943  78.268  1.00  0.00     0.000 C 
BRANCH   7   8
ATOM      8  C   UNL     1      68.350  22.106  79.416  1.00  0.00     0.000 C 
BRANCH   8   9
ATOM      9  C   UNL     1      68.146  21.082  80.542  1.00  0.00     0.000 C 
BRANCH   9  10
ATOM     10  C   UNL     1      69.424  20.921  81.380  1.00  0.00     0.000 C 
BRANCH  10  11
ATOM     11  C   UNL     1      70.417  19.926  80.756  1.00  0.00     0.000 C 
BRANCH  11  12
ATOM     12  C   UNL     1      71.322  19.257  81.805  1.00  0.00     0.006 C 
BRANCH  12  13
ATOM     13  C   UNL     1      70.568  18.942  83.105  1.00  0.00     0.053 C 
BRANCH  13  14
ATOM     14  C   UNL     1      71.017  17.650  83.717  1.00  0.00     0.041 C 
ATOM     15  O   UNL     1      70.439  17.195  84.742  1.00  0.00    -0.550 OA
ATOM     16  O   UNL     1      72.078  16.948  83.157  1.00  0.00    -0.550 OA
ENDBRANCH  13  14
ENDBRANCH  12  13
ENDBRANCH  11  12
ENDBRANCH  10  11
ENDBRANCH   9  10
ENDBRANCH   8   9
ENDBRANCH   7   8
ENDBRANCH   6   7
ENDBRANCH   5   6
ENDBRANCH   4   5
ENDBRANCH   3   4
ENDBRANCH   2   3
ENDBRANCH   1   2
BRANCH   1  17
ATOM     17  C   UNL     1      67.297  17.782  77.453  1.00  0.00     0.000 C 
BRANCH  17  18
ATOM     18  C   UNL     1      67.553  16.722  76.363  1.00  0.00     0.000 C 
BRANCH  18  19
ATOM     19  C   UNL     1      67.556  15.289  76.924  1.00  0.00     0.000 C 
BRANCH  19  20
ATOM     20  C   UNL     1      68.650  14.399  76.295  1.00  0.00     0.000 C 
BRANCH  20  21
ATOM     21  C   UNL     1      70.035  15.071  76.226  1.00  0.00     0.000 C 
BRANCH  21  22
ATOM     22  C   UNL     1      70.971  14.741  77.404  1.00  0.00    -0.000 C 
BRANCH  22  23
ATOM     23  C   UNL     1      71.146  15.913  78.396  1.00  0.00    -0.000 C 
BRANCH  23  24
ATOM     24  C   UNL     1      70.882  15.496  79.854  1.00  0.00    -0.000 C 
BRANCH  24  25
ATOM     25  C   UNL     1      69.744  16.298  80.505  1.00  0.00    -0.000 C 
BRANCH  25  26
ATOM     26  C   UNL     1      68.451  15.481  80.645  1.00  0.00    -0.000 C 
BRANCH  26  27
ATOM     27  C   UNL     1      67.226  16.396  80.761  1.00  0.00    -0.000 C 
BRANCH  27  28
ATOM     28  C   UNL     1      67.528  17.603  81.664  1.00  0.00    -0.000 C 
BRANCH  28  29
ATOM     29  C   UNL     1      66.952  17.441  83.078  1.00  0.00    -0.003 C 
ATOM     30  C   UNL     1      66.922  18.753  83.860  1.00  0.00     0.004 C 
ENDBRANCH  28  29
ENDBRANCH  27  28
ENDBRANCH  26  27
ENDBRANCH  25  26
ENDBRANCH  24  25
ENDBRANCH  23  24
ENDBRANCH  22  23
ENDBRANCH  21  22
ENDBRANCH  20  21
ENDBRANCH  19  20
ENDBRANCH  18  19
ENDBRANCH  17  18
ENDBRANCH   1  17
TORSDOF 26
ENDMDL
MODEL 6
REMARK VINA RESULT:    -2.650      2.806      6.371
REMARK INTER + INTRA:         -12.325
REMARK INTER:                  -6.789
REMARK INTRA:                  -5.536
REMARK UNBOUND:                -5.648
REMARK SMILES CCCCCCCCCCCCCCCCCCCCCCCCCCCC(=O)[O-]
REMARK SMILES IDX 15 1 16 2 17 3 18 4 19 5 20 6 21 7 22 8 23 9 24 10 25 11
REMARK SMILES IDX 26 12 27 13 28 14 29 15 30 16 14 17 13 18 12 19 11 20 10 21
REMARK SMILES IDX 9 22 8 23 7 24 6 25 5 26 4 27 3 28 2 29 1 30
REMARK H PARENT
REMARK Flexibility Score: inf
ROOT
ATOM      1  C   UNL     1      67.690  19.252  76.083  1.00  0.00     0.000 C 
ENDROOT
BRANCH   1   2
ATOM      2  C   UNL     1      69.207  18.995  76.019  1.00  0.00     0.000 C 
BRANCH   2   3
ATOM      3  C   UNL     1      69.819  18.744  77.408  1.00  0.00     0.000 C 
BRANCH   3   4
ATOM      4  C   UNL     1      69.881  20.027  78.257  1.00  0.00     0.000 C 
BRANCH   4   5
ATOM      5  C   UNL     1      69.312  19.823  79.678  1.00  0.00     0.000 C 
BRANCH   5   6
ATOM      6  C   UNL     1      67.810  19.481  79.701  1.00  0.00     0.000 C 
BRANCH   6   7
ATOM      7  C   UNL     1      66.885  20.568  79.121  1.00  0.00     0.000 C 
BRANCH   7   8
ATOM      8  C   UNL     1      65.381  20.240  79.187  1.00  0.00     0.000 C 
BRANCH   8   9
ATOM      9  C   UNL     1      64.541  21.100  78.229  1.00  0.00     0.000 C 
BRANCH   9  10
ATOM     10  C   UNL     1      63.874  20.233  77.151  1.00  0.00     0.000 C 
BRANCH  10  11
ATOM     11  C   UNL     1      63.388  18.881  77.699  1.00  0.00     0.000 C 
BRANCH  11  12
ATOM     12  C   UNL     1      62.789  17.979  76.604  1.00  0.00     0.006 C 
BRANCH  12  13
ATOM     13  C   UNL     1      62.866  16.491  76.974  1.00  0.00     0.053 C 
BRANCH  13  14
ATOM     14  C   UNL     1      61.592  15.766  76.663  1.00  0.00     0.041 C 
ATOM     15  O   UNL     1      61.395  14.603  77.107  1.00  0.00    -0.550 OA
ATOM     16  O   UNL     1      60.621  16.376  75.876  1.00  0.00    -0.550 OA
ENDBRANCH  13  14
ENDBRANCH  12  13
ENDBRANCH  11  12
ENDBRANCH  10  11
ENDBRANCH   9  10
ENDBRANCH   8   9
ENDBRANCH   7   8
ENDBRANCH   6   7
ENDBRANCH   5   6
ENDBRANCH   4   5
ENDBRANCH   3   4
ENDBRANCH   2   3
ENDBRANCH   1   2
BRANCH   1  17
ATOM     17  C   UNL     1      66.867  17.961  75.917  1.00  0.00     0.000 C 
BRANCH  17  18
ATOM     18  C   UNL     1      66.466  17.293  77.247  1.00  0.00     0.000 C 
BRANCH  18  19
ATOM     19  C   UNL     1      66.574  15.759  77.192  1.00  0.00     0.000 C 
BRANCH  19  20
ATOM     20  C   UNL     1      67.480  15.260  76.045  1.00  0.00     0.000 C 
BRANCH  20  21
ATOM     21  C   UNL     1      68.746  14.526  76.527  1.00  0.00     0.000 C 
BRANCH  21  22
ATOM     22  C   UNL     1      70.068  15.264  76.240  1.00  0.00    -0.000 C 
BRANCH  22  23
ATOM     23  C   UNL     1      71.264  14.717  77.052  1.00  0.00    -0.000 C 
BRANCH  23  24
ATOM     24  C   UNL     1      70.984  14.685  78.565  1.00  0.00    -0.000 C 
BRANCH  24  25
ATOM     25  C   UNL     1      71.021  16.082  79.206  1.00  0.00    -0.000 C 
BRANCH  25  26
ATOM     26  C   UNL     1      70.102  16.193  80.432  1.00  0.00    -0.000 C 
BRANCH  26  27
ATOM     27  C   UNL     1      68.717  15.602  80.143  1.00  0.00    -0.000 C 
BRANCH  27  28
ATOM     28  C   UNL     1      67.699  16.049  81.205  1.00  0.00    -0.000 C 
BRANCH  28  29
ATOM     29  C   UNL     1      66.246  15.840  80.755  1.00  0.00    -0.003 C 
ATOM     30  C   UNL     1      65.351  17.040  81.062  1.00  0.00     0.004 C 
ENDBRANCH  28  29
ENDBRANCH  27  28
ENDBRANCH  26  27
ENDBRANCH  25  26
ENDBRANCH  24  25
ENDBRANCH  23  24
ENDBRANCH  22  23
ENDBRANCH  21  22
ENDBRANCH  20  21
ENDBRANCH  19  20
ENDBRANCH  18  19
ENDBRANCH  17  18
ENDBRANCH   1  17
TORSDOF 26
ENDMDL
MODEL 7
REMARK VINA RESULT:    -2.621      2.282      4.623
REMARK INTER + INTRA:         -12.252
REMARK INTER:                  -6.805
REMARK INTRA:                  -5.447
REMARK UNBOUND:                -5.648
REMARK SMILES CCCCCCCCCCCCCCCCCCCCCCCCCCCC(=O)[O-]
REMARK SMILES IDX 15 1 16 2 17 3 18 4 19 5 20 6 21 7 22 8 23 9 24 10 25 11
REMARK SMILES IDX 26 12 27 13 28 14 29 15 30 16 14 17 13 18 12 19 11 20 10 21
REMARK SMILES IDX 9 22 8 23 7 24 6 25 5 26 4 27 3 28 2 29 1 30
REMARK H PARENT
REMARK Flexibility Score: inf
ROOT
ATOM      1  C   UNL     1      69.268  15.833  79.837  1.00  0.00     0.000 C 
ENDROOT
BRANCH   1   2
ATOM      2  C   UNL     1      70.781  15.565  79.937  1.00  0.00     0.000 C 
BRANCH   2   3
ATOM      3  C   UNL     1      71.476  15.611  78.565  1.00  0.00     0.000 C 
BRANCH   3   4
ATOM      4  C   UNL     1      71.004  14.479  77.634  1.00  0.00     0.000 C 
BRANCH   4   5
ATOM      5  C   UNL     1      70.236  15.008  76.403  1.00  0.00     0.000 C 
BRANCH   5   6
ATOM      6  C   UNL     1      68.804  14.451  76.281  1.00  0.00     0.000 C 
BRANCH   6   7
ATOM      7  C   UNL     1      67.719  15.501  75.974  1.00  0.00     0.000 C 
BRANCH   7   8
ATOM      8  C   UNL     1      66.886  15.946  77.190  1.00  0.00     0.000 C 
BRANCH   8   9
ATOM      9  C   UNL     1      65.375  15.771  76.975  1.00  0.00     0.000 C 
BRANCH   9  10
ATOM     10  C   UNL     1      64.705  15.175  78.222  1.00  0.00     0.000 C 
BRANCH  10  11
ATOM     11  C   UNL     1      65.384  15.622  79.527  1.00  0.00     0.000 C 
BRANCH  11  12
ATOM     12  C   UNL     1      64.464  15.482  80.752  1.00  0.00     0.006 C 
BRANCH  12  13
ATOM     13  C   UNL     1      63.479  16.654  80.874  1.00  0.00     0.053 C 
BRANCH  13  14
ATOM     14  C   UNL     1      62.055  16.190  80.912  1.00  0.00     0.041 C 
ATOM     15  O   UNL     1      61.311  16.495  81.884  1.00  0.00    -0.550 OA
ATOM     16  O   UNL     1      61.548  15.417  79.874  1.00  0.00    -0.550 OA
ENDBRANCH  13  14
ENDBRANCH  12  13
ENDBRANCH  11  12
ENDBRANCH  10  11
ENDBRANCH   9  10
ENDBRANCH   8   9
ENDBRANCH   7   8
ENDBRANCH   6   7
ENDBRANCH   5   6
ENDBRANCH   4   5
ENDBRANCH   3   4
ENDBRANCH   2   3
ENDBRANCH   1   2
BRANCH   1  17
ATOM     17  C   UNL     1      68.522  15.480  81.137  1.00  0.00     0.000 C 
BRANCH  17  18
ATOM     18  C   UNL     1      68.055  16.704  81.949  1.00  0.00     0.000 C 
BRANCH  18  19
ATOM     19  C   UNL     1      69.225  17.454  82.610  1.00  0.00     0.000 C 
BRANCH  19  20
ATOM     20  C   UNL     1      69.295  18.941  82.202  1.00  0.00     0.000 C 
BRANCH  20  21
ATOM     21  C   UNL     1      70.155  19.203  80.950  1.00  0.00     0.000 C 
BRANCH  21  22
ATOM     22  C   UNL     1      69.357  19.575  79.686  1.00  0.00    -0.000 C 
BRANCH  22  23
ATOM     23  C   UNL     1      70.204  19.539  78.394  1.00  0.00    -0.000 C 
BRANCH  23  24
ATOM     24  C   UNL     1      69.775  18.413  77.437  1.00  0.00    -0.000 C 
BRANCH  24  25
ATOM     25  C   UNL     1      69.189  18.943  76.119  1.00  0.00    -0.000 C 
BRANCH  25  26
ATOM     26  C   UNL     1      68.241  20.134  76.330  1.00  0.00    -0.000 C 
BRANCH  26  27
ATOM     27  C   UNL     1      66.789  19.666  76.480  1.00  0.00    -0.000 C 
BRANCH  27  28
ATOM     28  C   UNL     1      66.171  20.207  77.780  1.00  0.00    -0.000 C 
BRANCH  28  29
ATOM     29  C   UNL     1      65.713  19.087  78.726  1.00  0.00    -0.003 C 
ATOM     30  C   UNL     1      65.921  19.434  80.199  1.00  0.00     0.004 C 
ENDBRANCH  28  29
ENDBRANCH  27  28
ENDBRANCH  26  27
ENDBRANCH  25  26
ENDBRANCH  24  25
ENDBRANCH  23  24
ENDBRANCH  22  23
ENDBRANCH  21  22
ENDBRANCH  20  21
ENDBRANCH  19  20
ENDBRANCH  18  19
ENDBRANCH  17  18
ENDBRANCH   1  17
TORSDOF 26
ENDMDL
MODEL 8
REMARK VINA RESULT:    -2.614      1.460      4.666
REMARK INTER + INTRA:         -12.235
REMARK INTER:                  -7.278
REMARK INTRA:                  -4.957
REMARK UNBOUND:                -5.648
REMARK SMILES CCCCCCCCCCCCCCCCCCCCCCCCCCCC(=O)[O-]
REMARK SMILES IDX 15 1 16 2 17 3 18 4 19 5 20 6 21 7 22 8 23 9 24 10 25 11
REMARK SMILES IDX 26 12 27 13 28 14 29 15 30 16 14 17 13 18 12 19 11 20 10 21
REMARK SMILES IDX 9 22 8 23 7 24 6 25 5 26 4 27 3 28 2 29 1 30
REMARK H PARENT
REMARK Flexibility Score: inf
ROOT
ATOM      1  C   UNL     1      67.484  15.130  75.996  1.00  0.00     0.000 C 
ENDROOT
BRANCH   1   2
ATOM      2  C   UNL     1      68.768  14.295  76.158  1.00  0.00     0.000 C 
BRANCH   2   3
ATOM      3  C   UNL     1      69.959  15.140  76.641  1.00  0.00     0.000 C 
BRANCH   3   4
ATOM      4  C   UNL     1      70.199  14.998  78.155  1.00  0.00     0.000 C 
BRANCH   4   5
ATOM      5  C   UNL     1      71.459  15.755  78.627  1.00  0.00     0.000 C 
BRANCH   5   6
ATOM      6  C   UNL     1      71.205  17.240  78.951  1.00  0.00     0.000 C 
BRANCH   6   7
ATOM      7  C   UNL     1      71.474  17.646  80.412  1.00  0.00     0.000 C 
BRANCH   7   8
ATOM      8  C   UNL     1      70.586  16.939  81.454  1.00  0.00     0.000 C 
BRANCH   8   9
ATOM      9  C   UNL     1      70.820  17.452  82.883  1.00  0.00     0.000 C 
BRANCH   9  10
ATOM     10  C   UNL     1      69.487  17.690  83.609  1.00  0.00     0.000 C 
BRANCH  10  11
ATOM     11  C   UNL     1      68.306  16.989  82.917  1.00  0.00     0.000 C 
BRANCH  11  12
ATOM     12  C   UNL     1      66.978  17.745  83.104  1.00  0.00     0.006 C 
BRANCH  12  13
ATOM     13  C   UNL     1      65.796  16.791  83.330  1.00  0.00     0.053 C 
BRANCH  13  14
ATOM     14  C   UNL     1      65.430  16.681  84.779  1.00  0.00     0.041 C 
ATOM     15  O   UNL     1      66.310  16.823  85.671  1.00  0.00    -0.550 OA
ATOM     16  O   UNL     1      64.115  16.418  85.145  1.00  0.00    -0.550 OA
ENDBRANCH  13  14
ENDBRANCH  12  13
ENDBRANCH  11  12
ENDBRANCH  10  11
ENDBRANCH   9  10
ENDBRANCH   8   9
ENDBRANCH   7   8
ENDBRANCH   6   7
ENDBRANCH   5   6
ENDBRANCH   4   5
ENDBRANCH   3   4
ENDBRANCH   2   3
ENDBRANCH   1   2
BRANCH   1  17
ATOM     17  C   UNL     1      66.219  14.255  75.912  1.00  0.00     0.000 C 
BRANCH  17  18
ATOM     18  C   UNL     1      65.120  14.635  76.922  1.00  0.00     0.000 C 
BRANCH  18  19
ATOM     19  C   UNL     1      65.270  16.075  77.443  1.00  0.00     0.000 C 
BRANCH  19  20
ATOM     20  C   UNL     1      65.062  16.189  78.968  1.00  0.00     0.000 C 
BRANCH  20  21
ATOM     21  C   UNL     1      66.364  16.079  79.784  1.00  0.00     0.000 C 
BRANCH  21  22
ATOM     22  C   UNL     1      67.576  16.802  79.165  1.00  0.00    -0.000 C 
BRANCH  22  23
ATOM     23  C   UNL     1      67.588  18.323  79.439  1.00  0.00    -0.000 C 
BRANCH  23  24
ATOM     24  C   UNL     1      67.621  19.156  78.145  1.00  0.00    -0.000 C 
BRANCH  24  25
ATOM     25  C   UNL     1      68.194  18.375  76.951  1.00  0.00    -0.000 C 
BRANCH  25  26
ATOM     26  C   UNL     1      69.530  18.949  76.457  1.00  0.00    -0.000 C 
BRANCH  26  27
ATOM     27  C   UNL     1      69.355  20.371  75.908  1.00  0.00    -0.000 C 
BRANCH  27  28
ATOM     28  C   UNL     1      70.127  21.387  76.765  1.00  0.00    -0.000 C 
BRANCH  28  29
ATOM     29  C   UNL     1      71.028  20.713  77.811  1.00  0.00    -0.003 C 
ATOM     30  C   UNL     1      70.744  21.192  79.234  1.00  0.00     0.004 C 
ENDBRANCH  28  29
ENDBRANCH  27  28
ENDBRANCH  26  27
ENDBRANCH  25  26
ENDBRANCH  24  25
ENDBRANCH  23  24
ENDBRANCH  22  23
ENDBRANCH  21  22
ENDBRANCH  20  21
ENDBRANCH  19  20
ENDBRANCH  18  19
ENDBRANCH  17  18
ENDBRANCH   1  17
TORSDOF 26
ENDMDL
MODEL 9
REMARK VINA RESULT:    -2.614      2.760      6.174
REMARK INTER + INTRA:         -12.234
REMARK INTER:                  -7.046
REMARK INTRA:                  -5.188
REMARK UNBOUND:                -5.648
REMARK SMILES CCCCCCCCCCCCCCCCCCCCCCCCCCCC(=O)[O-]
REMARK SMILES IDX 15 1 16 2 17 3 18 4 19 5 20 6 21 7 22 8 23 9 24 10 25 11
REMARK SMILES IDX 26 12 27 13 28 14 29 15 30 16 14 17 13 18 12 19 11 20 10 21
REMARK SMILES IDX 9 22 8 23 7 24 6 25 5 26 4 27 3 28 2 29 1 30
REMARK H PARENT
REMARK Flexibility Score: inf
ROOT
ATOM      1  C   UNL     1      70.547  17.858  80.298  1.00  0.00     0.000 C 
ENDROOT
BRANCH   1   2
ATOM      2  C   UNL     1      70.207  16.843  81.404  1.00  0.00     0.000 C 
BRANCH   2   3
ATOM      3  C   UNL     1      68.694  16.748  81.666  1.00  0.00     0.000 C 
BRANCH   3   4
ATOM      4  C   UNL     1      68.023  15.651  80.819  1.00  0.00     0.000 C 
BRANCH   4   5
ATOM      5  C   UNL     1      66.840  16.190  79.986  1.00  0.00     0.000 C 
BRANCH   5   6
ATOM      6  C   UNL     1      66.367  17.593  80.416  1.00  0.00     0.000 C 
BRANCH   6   7
ATOM      7  C   UNL     1      65.028  18.046  79.806  1.00  0.00     0.000 C 
BRANCH   7   8
ATOM      8  C   UNL     1      65.147  18.804  78.470  1.00  0.00     0.000 C 
BRANCH   8   9
ATOM      9  C   UNL     1      63.924  18.608  77.561  1.00  0.00     0.000 C 
BRANCH   9  10
ATOM     10  C   UNL     1      64.345  18.104  76.172  1.00  0.00     0.000 C 
BRANCH  10  11
ATOM     11  C   UNL     1      64.303  16.571  76.064  1.00  0.00     0.000 C 
BRANCH  11  12
ATOM     12  C   UNL     1      63.486  15.919  77.193  1.00  0.00     0.006 C 
BRANCH  12  13
ATOM     13  C   UNL     1      64.182  14.677  77.769  1.00  0.00     0.053 C 
BRANCH  13  14
ATOM     14  C   UNL     1      64.251  13.558  76.775  1.00  0.00     0.041 C 
ATOM     15  O   UNL     1      63.205  12.941  76.437  1.00  0.00    -0.550 OA
ATOM     16  O   UNL     1      65.474  13.193  76.224  1.00  0.00    -0.550 OA
ENDBRANCH  13  14
ENDBRANCH  12  13
ENDBRANCH  11  12
ENDBRANCH  10  11
ENDBRANCH   9  10
ENDBRANCH   8   9
ENDBRANCH   7   8
ENDBRANCH   6   7
ENDBRANCH   5   6
ENDBRANCH   4   5
ENDBRANCH   3   4
ENDBRANCH   2   3
ENDBRANCH   1   2
BRANCH   1  17
ATOM     17  C   UNL     1      71.174  17.191  79.059  1.00  0.00     0.000 C 
BRANCH  17  18
ATOM     18  C   UNL     1      71.597  15.725  79.278  1.00  0.00     0.000 C 
BRANCH  18  19
ATOM     19  C   UNL     1      70.750  14.739  78.455  1.00  0.00     0.000 C 
BRANCH  19  20
ATOM     20  C   UNL     1      70.638  15.136  76.967  1.00  0.00     0.000 C 
BRANCH  20  21
ATOM     21  C   UNL     1      69.300  14.736  76.315  1.00  0.00     0.000 C 
BRANCH  21  22
ATOM     22  C   UNL     1      68.060  15.429  76.911  1.00  0.00    -0.000 C 
BRANCH  22  23
ATOM     23  C   UNL     1      67.761  16.805  76.273  1.00  0.00    -0.000 C 
BRANCH  23  24
ATOM     24  C   UNL     1      68.381  17.970  77.065  1.00  0.00    -0.000 C 
BRANCH  24  25
ATOM     25  C   UNL     1      69.481  18.704  76.281  1.00  0.00    -0.000 C 
BRANCH  25  26
ATOM     26  C   UNL     1      69.271  20.225  76.253  1.00  0.00    -0.000 C 
BRANCH  26  27
ATOM     27  C   UNL     1      68.168  20.651  77.230  1.00  0.00    -0.000 C 
BRANCH  27  28
ATOM     28  C   UNL     1      67.371  21.841  76.670  1.00  0.00    -0.000 C 
BRANCH  28  29
ATOM     29  C   UNL     1      66.081  22.111  77.459  1.00  0.00    -0.003 C 
ATOM     30  C   UNL     1      64.839  22.143  76.570  1.00  0.00     0.004 C 
ENDBRANCH  28  29
ENDBRANCH  27  28
ENDBRANCH  26  27
ENDBRANCH  25  26
ENDBRANCH  24  25
ENDBRANCH  23  24
ENDBRANCH  22  23
ENDBRANCH  21  22
ENDBRANCH  20  21
ENDBRANCH  19  20
ENDBRANCH  18  19
ENDBRANCH  17  18
ENDBRANCH   1  17
TORSDOF 26
ENDMDL
