MODEL 1
REMARK VINA RESULT:    -3.963      0.000      0.000
REMARK INTER + INTRA:          -4.329
REMARK INTER:                  -4.310
REMARK INTRA:                  -0.018
REMARK UNBOUND:                -0.018
REMARK SMILES OCc1ccco1
REMARK SMILES IDX 2 1 3 2 5 3 6 4 4 5 7 6 1 7
REMARK H PARENT 1 8
REMARK Flexibility Score: inf
ROOT
ATOM      1  C   UNL     1      -3.966  -9.656   1.421  1.00  0.00     0.231 C 
ENDROOT
BRANCH   1   2
ATOM      2  C   UNL     1      -5.001  -9.306   0.400  1.00  0.00     0.129 A 
ATOM      3  C   UNL     1      -6.015  -8.480  -1.364  1.00  0.00     0.042 A 
ATOM      4  C   UNL     1      -6.862  -9.294  -0.638  1.00  0.00     0.195 A 
ATOM      5  C   UNL     1      -4.810  -8.490  -0.696  1.00  0.00     0.048 A 
ATOM      6  O   UNL     1      -6.228  -9.775   0.406  1.00  0.00    -0.467 OA
ENDBRANCH   1   2
BRANCH   1   7
ATOM      7  O   UNL     1      -4.545  -9.702   2.696  1.00  0.00    -0.388 OA
ATOM      8  H   UNL     1      -4.258  -8.876   3.168  1.00  0.00     0.211 HD
ENDBRANCH   1   7
TORSDOF 2
ENDMDL
MODEL 2
REMARK VINA RESULT:    -3.891     16.948     17.525
REMARK INTER + INTRA:          -4.250
REMARK INTER:                  -4.238
REMARK INTRA:                  -0.012
REMARK UNBOUND:                -0.018
REMARK SMILES OCc1ccco1
REMARK SMILES IDX 2 1 3 2 5 3 6 4 4 5 7 6 1 7
REMARK H PARENT 1 8
REMARK Flexibility Score: inf
ROOT
ATOM      1  C   UNL     1       8.011   1.910   2.097  1.00  0.00     0.231 C 
ENDROOT
BRANCH   1   2
ATOM      2  C   UNL     1       7.387   2.596   0.923  1.00  0.00     0.129 A 
ATOM      3  C   UNL     1       6.245   3.003  -0.907  1.00  0.00     0.042 A 
ATOM      4  C   UNL     1       6.782   4.163  -0.388  1.00  0.00     0.195 A 
ATOM      5  C   UNL     1       6.631   1.988  -0.059  1.00  0.00     0.048 A 
ATOM      6  O   UNL     1       7.456   3.889   0.706  1.00  0.00    -0.467 OA
ENDBRANCH   1   2
BRANCH   1   7
ATOM      7  O   UNL     1       9.223   1.318   1.719  1.00  0.00    -0.388 OA
ATOM      8  H   UNL     1       9.693   1.072   2.559  1.00  0.00     0.211 HD
ENDBRANCH   1   7
TORSDOF 2
ENDMDL
MODEL 3
REMARK VINA RESULT:    -3.685     16.238     17.058
REMARK INTER + INTRA:          -4.026
REMARK INTER:                  -4.012
REMARK INTRA:                  -0.014
REMARK UNBOUND:                -0.018
REMARK SMILES OCc1ccco1
REMARK SMILES IDX 2 1 3 2 5 3 6 4 4 5 7 6 1 7
REMARK H PARENT 1 8
REMARK Flexibility Score: inf
ROOT
ATOM      1  C   UNL     1       6.639   2.651  -1.300  1.00  0.00     0.231 C 
ENDROOT
BRANCH   1   2
ATOM      2  C   UNL     1       6.878   2.231   0.116  1.00  0.00     0.129 A 
ATOM      3  C   UNL     1       6.812   1.145   2.023  1.00  0.00     0.042 A 
ATOM      4  C   UNL     1       7.723   2.181   2.071  1.00  0.00     0.195 A 
ATOM      5  C   UNL     1       6.267   1.174   0.757  1.00  0.00     0.048 A 
ATOM      6  O   UNL     1       7.743   2.808   0.918  1.00  0.00    -0.467 OA
ENDBRANCH   1   2
BRANCH   1   7
ATOM      7  O   UNL     1       7.371   1.836  -2.173  1.00  0.00    -0.388 OA
ATOM      8  H   UNL     1       6.838   1.764  -3.008  1.00  0.00     0.211 HD
ENDBRANCH   1   7
TORSDOF 2
ENDMDL
MODEL 4
REMARK VINA RESULT:    -3.677     15.316     15.771
REMARK INTER + INTRA:          -4.018
REMARK INTER:                  -3.997
REMARK INTRA:                  -0.021
REMARK UNBOUND:                -0.018
REMARK SMILES OCc1ccco1
REMARK SMILES IDX 2 1 3 2 5 3 6 4 4 5 7 6 1 7
REMARK H PARENT 1 8
REMARK Flexibility Score: inf
ROOT
ATOM      1  C   UNL     1      -9.490   4.776   1.511  1.00  0.00     0.231 C 
ENDROOT
BRANCH   1   2
ATOM      2  C   UNL     1      -8.368   5.759   1.401  1.00  0.00     0.129 A 
ATOM      3  C   UNL     1      -6.642   6.901   0.669  1.00  0.00     0.042 A 
ATOM      4  C   UNL     1      -7.097   7.404   1.871  1.00  0.00     0.195 A 
ATOM      5  C   UNL     1      -7.465   5.839   0.361  1.00  0.00     0.048 A 
ATOM      6  O   UNL     1      -8.130   6.704   2.281  1.00  0.00    -0.467 OA
ENDBRANCH   1   2
BRANCH   1   7
ATOM      7  O   UNL     1     -10.125   4.908   2.753  1.00  0.00    -0.388 OA
ATOM      8  H   UNL     1      -9.447   4.683   3.443  1.00  0.00     0.211 HD
ENDBRANCH   1   7
TORSDOF 2
ENDMDL
MODEL 5
REMARK VINA RESULT:    -3.609     13.283     14.233
REMARK INTER + INTRA:          -3.944
REMARK INTER:                  -3.930
REMARK INTRA:                  -0.014
REMARK UNBOUND:                -0.018
REMARK SMILES OCc1ccco1
REMARK SMILES IDX 2 1 3 2 5 3 6 4 4 5 7 6 1 7
REMARK H PARENT 1 8
REMARK Flexibility Score: inf
ROOT
ATOM      1  C   UNL     1      -0.390   1.124   8.315  1.00  0.00     0.231 C 
ENDROOT
BRANCH   1   2
ATOM      2  C   UNL     1       0.419  -0.014   8.854  1.00  0.00     0.129 A 
ATOM      3  C   UNL     1       2.019  -1.199   9.778  1.00  0.00     0.042 A 
ATOM      4  C   UNL     1       0.932  -1.989   9.464  1.00  0.00     0.195 A 
ATOM      5  C   UNL     1       1.688   0.081   9.387  1.00  0.00     0.048 A 
ATOM      6  O   UNL     1      -0.008  -1.254   8.917  1.00  0.00    -0.467 OA
ENDBRANCH   1   2
BRANCH   1   7
ATOM      7  O   UNL     1      -0.754   1.989   9.355  1.00  0.00    -0.388 OA
ATOM      8  H   UNL     1      -0.385   2.882   9.123  1.00  0.00     0.211 HD
ENDBRANCH   1   7
TORSDOF 2
ENDMDL
MODEL 6
REMARK VINA RESULT:    -3.525     16.671     17.565
REMARK INTER + INTRA:          -3.853
REMARK INTER:                  -3.831
REMARK INTRA:                  -0.022
REMARK UNBOUND:                -0.018
REMARK SMILES OCc1ccco1
REMARK SMILES IDX 2 1 3 2 5 3 6 4 4 5 7 6 1 7
REMARK H PARENT 1 8
REMARK Flexibility Score: inf
ROOT
ATOM      1  C   UNL     1       7.688   2.590   1.300  1.00  0.00     0.231 C 
ENDROOT
BRANCH   1   2
ATOM      2  C   UNL     1       8.132   1.313   1.939  1.00  0.00     0.129 A 
ATOM      3  C   UNL     1       8.157  -0.711   2.791  1.00  0.00     0.042 A 
ATOM      4  C   UNL     1       9.426  -0.167   2.761  1.00  0.00     0.195 A 
ATOM      5  C   UNL     1       7.319   0.244   2.256  1.00  0.00     0.048 A 
ATOM      6  O   UNL     1       9.380   1.039   2.245  1.00  0.00    -0.467 OA
ENDBRANCH   1   2
BRANCH   1   7
ATOM      7  O   UNL     1       8.801   3.348   0.915  1.00  0.00    -0.388 OA
ATOM      8  H   UNL     1       8.629   3.654  -0.014  1.00  0.00     0.211 HD
ENDBRANCH   1   7
TORSDOF 2
ENDMDL
MODEL 7
REMARK VINA RESULT:    -3.519     15.550     16.286
REMARK INTER + INTRA:          -3.846
REMARK INTER:                  -3.830
REMARK INTRA:                  -0.016
REMARK UNBOUND:                -0.018
REMARK SMILES OCc1ccco1
REMARK SMILES IDX 2 1 3 2 5 3 6 4 4 5 7 6 1 7
REMARK H PARENT 1 8
REMARK Flexibility Score: inf
ROOT
ATOM      1  C   UNL     1       7.389   2.807   0.648  1.00  0.00     0.231 C 
ENDROOT
BRANCH   1   2
ATOM      2  C   UNL     1       6.872   1.466   1.062  1.00  0.00     0.129 A 
ATOM      3  C   UNL     1       6.749  -0.611   1.763  1.00  0.00     0.042 A 
ATOM      4  C   UNL     1       5.492  -0.077   1.565  1.00  0.00     0.195 A 
ATOM      5  C   UNL     1       7.644   0.387   1.441  1.00  0.00     0.048 A 
ATOM      6  O   UNL     1       5.598   1.164   1.150  1.00  0.00    -0.467 OA
ENDBRANCH   1   2
BRANCH   1   7
ATOM      7  O   UNL     1       8.699   2.982   1.112  1.00  0.00    -0.388 OA
ATOM      8  H   UNL     1       8.884   3.957   1.079  1.00  0.00     0.211 HD
ENDBRANCH   1   7
TORSDOF 2
ENDMDL
MODEL 8
REMARK VINA RESULT:    -3.428     15.678     16.440
REMARK INTER + INTRA:          -3.747
REMARK INTER:                  -3.733
REMARK INTRA:                  -0.014
REMARK UNBOUND:                -0.018
REMARK SMILES OCc1ccco1
REMARK SMILES IDX 2 1 3 2 5 3 6 4 4 5 7 6 1 7
REMARK H PARENT 1 8
REMARK Flexibility Score: inf
ROOT
ATOM      1  C   UNL     1       5.934   0.245   1.525  1.00  0.00     0.231 C 
ENDROOT
BRANCH   1   2
ATOM      2  C   UNL     1       6.577   1.514   1.063  1.00  0.00     0.129 A 
ATOM      3  C   UNL     1       7.067   3.325  -0.078  1.00  0.00     0.042 A 
ATOM      4  C   UNL     1       7.850   3.223   1.054  1.00  0.00     0.195 A 
ATOM      5  C   UNL     1       6.240   2.222  -0.073  1.00  0.00     0.048 A 
ATOM      6  O   UNL     1       7.533   2.134   1.716  1.00  0.00    -0.467 OA
ENDBRANCH   1   2
BRANCH   1   7
ATOM      7  O   UNL     1       4.543   0.405   1.580  1.00  0.00    -0.388 OA
ATOM      8  H   UNL     1       4.224  -0.149   2.341  1.00  0.00     0.211 HD
ENDBRANCH   1   7
TORSDOF 2
ENDMDL
MODEL 9
REMARK VINA RESULT:    -3.354     15.385     16.134
REMARK INTER + INTRA:          -3.666
REMARK INTER:                  -3.646
REMARK INTRA:                  -0.020
REMARK UNBOUND:                -0.018
REMARK SMILES OCc1ccco1
REMARK SMILES IDX 2 1 3 2 5 3 6 4 4 5 7 6 1 7
REMARK H PARENT 1 8
REMARK Flexibility Score: inf
ROOT
ATOM      1  C   UNL     1       9.165  -0.105   2.240  1.00  0.00     0.231 C 
ENDROOT
BRANCH   1   2
ATOM      2  C   UNL     1       7.736   0.067   1.835  1.00  0.00     0.129 A 
ATOM      3  C   UNL     1       5.582  -0.249   1.551  1.00  0.00     0.042 A 
ATOM      4  C   UNL     1       5.975   0.975   1.049  1.00  0.00     0.195 A 
ATOM      5  C   UNL     1       6.718  -0.837   2.063  1.00  0.00     0.048 A 
ATOM      6  O   UNL     1       7.265   1.137   1.236  1.00  0.00    -0.467 OA
ENDBRANCH   1   2
BRANCH   1   7
ATOM      7  O   UNL     1       9.719   1.134   2.586  1.00  0.00    -0.388 OA
ATOM      8  H   UNL     1       9.247   1.818   2.042  1.00  0.00     0.211 HD
ENDBRANCH   1   7
TORSDOF 2
ENDMDL
