MODEL 1
REMARK VINA RESULT:    -3.107      0.000      0.000
REMARK INTER + INTRA:          -4.296
REMARK INTER:                  -4.015
REMARK INTRA:                  -0.280
REMARK UNBOUND:                -0.280
REMARK SMILES CCCCCCC(=O)[O-]
REMARK SMILES IDX 5 1 6 2 7 3 8 4 9 5 4 6 3 7 2 8 1 9
REMARK H PARENT
REMARK Flexibility Score: inf
ROOT
ATOM      1  C   UNL     1     -24.347   2.810 -32.805  1.00  0.00     0.006 C 
ENDROOT
BRANCH   1   2
ATOM      2  C   UNL     1     -25.603   2.572 -33.649  1.00  0.00     0.053 C 
BRANCH   2   3
ATOM      3  C   UNL     1     -26.577   3.692 -33.469  1.00  0.00     0.041 C 
ATOM      4  O   UNL     1     -26.242   4.729 -32.838  1.00  0.00    -0.550 OA
ATOM      5  O   UNL     1     -27.873   3.572 -33.955  1.00  0.00    -0.550 OA
ENDBRANCH   2   3
ENDBRANCH   1   2
BRANCH   1   6
ATOM      6  C   UNL     1     -23.138   3.126 -33.697  1.00  0.00     0.000 C 
BRANCH   6   7
ATOM      7  C   UNL     1     -22.794   1.975 -34.657  1.00  0.00    -0.000 C 
BRANCH   7   8
ATOM      8  C   UNL     1     -22.744   2.424 -36.125  1.00  0.00    -0.003 C 
ATOM      9  C   UNL     1     -22.795   3.945 -36.235  1.00  0.00     0.004 C 
ENDBRANCH   7   8
ENDBRANCH   6   7
ENDBRANCH   1   6
TORSDOF 5
ENDMDL
MODEL 2
REMARK VINA RESULT:    -3.060      2.959      4.365
REMARK INTER + INTRA:          -4.235
REMARK INTER:                  -3.904
REMARK INTRA:                  -0.331
REMARK UNBOUND:                -0.280
REMARK SMILES CCCCCCC(=O)[O-]
REMARK SMILES IDX 5 1 6 2 7 3 8 4 9 5 4 6 3 7 2 8 1 9
REMARK H PARENT
REMARK Flexibility Score: inf
ROOT
ATOM      1  C   UNL     1     -22.675   2.855 -34.058  1.00  0.00     0.006 C 
ENDROOT
BRANCH   1   2
ATOM      2  C   UNL     1     -22.921   3.842 -35.203  1.00  0.00     0.053 C 
BRANCH   2   3
ATOM      3  C   UNL     1     -22.663   3.189 -36.524  1.00  0.00     0.041 C 
ATOM      4  O   UNL     1     -22.701   1.934 -36.629  1.00  0.00    -0.550 OA
ATOM      5  O   UNL     1     -22.330   3.962 -37.629  1.00  0.00    -0.550 OA
ENDBRANCH   2   3
ENDBRANCH   1   2
BRANCH   1   6
ATOM      6  C   UNL     1     -23.881   2.804 -33.109  1.00  0.00     0.000 C 
BRANCH   6   7
ATOM      7  C   UNL     1     -25.206   2.551 -33.848  1.00  0.00    -0.000 C 
BRANCH   7   8
ATOM      8  C   UNL     1     -26.294   3.569 -33.477  1.00  0.00    -0.003 C 
ATOM      9  C   UNL     1     -25.756   4.616 -32.505  1.00  0.00     0.004 C 
ENDBRANCH   7   8
ENDBRANCH   6   7
ENDBRANCH   1   6
TORSDOF 5
ENDMDL
MODEL 3
REMARK VINA RESULT:    -3.014      2.504      4.068
REMARK INTER + INTRA:          -4.176
REMARK INTER:                  -3.834
REMARK INTRA:                  -0.342
REMARK UNBOUND:                -0.280
REMARK SMILES CCCCCCC(=O)[O-]
REMARK SMILES IDX 5 1 6 2 7 3 8 4 9 5 4 6 3 7 2 8 1 9
REMARK H PARENT
REMARK Flexibility Score: inf
ROOT
ATOM      1  C   UNL     1     -24.179   2.498 -33.330  1.00  0.00     0.006 C 
ENDROOT
BRANCH   1   2
ATOM      2  C   UNL     1     -22.753   2.851 -33.764  1.00  0.00     0.053 C 
BRANCH   2   3
ATOM      3  C   UNL     1     -22.733   3.296 -35.192  1.00  0.00     0.041 C 
ATOM      4  O   UNL     1     -22.785   4.522 -35.475  1.00  0.00    -0.550 OA
ATOM      5  O   UNL     1     -22.709   2.355 -36.214  1.00  0.00    -0.550 OA
ENDBRANCH   2   3
ENDBRANCH   1   2
BRANCH   1   6
ATOM      6  C   UNL     1     -24.724   3.536 -32.339  1.00  0.00     0.000 C 
BRANCH   6   7
ATOM      7  C   UNL     1     -25.579   4.616 -33.023  1.00  0.00    -0.000 C 
BRANCH   7   8
ATOM      8  C   UNL     1     -26.291   4.098 -34.281  1.00  0.00    -0.003 C 
ATOM      9  C   UNL     1     -27.728   3.691 -33.970  1.00  0.00     0.004 C 
ENDBRANCH   7   8
ENDBRANCH   6   7
ENDBRANCH   1   6
TORSDOF 5
ENDMDL
MODEL 4
REMARK VINA RESULT:    -2.963     21.057     22.043
REMARK INTER + INTRA:          -4.110
REMARK INTER:                  -3.984
REMARK INTRA:                  -0.126
REMARK UNBOUND:                -0.280
REMARK SMILES CCCCCCC(=O)[O-]
REMARK SMILES IDX 5 1 6 2 7 3 8 4 9 5 4 6 3 7 2 8 1 9
REMARK H PARENT
REMARK Flexibility Score: inf
ROOT
ATOM      1  C   UNL     1     -20.088 -13.249 -19.151  1.00  0.00     0.006 C 
ENDROOT
BRANCH   1   2
ATOM      2  C   UNL     1     -20.226 -11.726 -19.225  1.00  0.00     0.053 C 
BRANCH   2   3
ATOM      3  C   UNL     1     -19.040 -11.124 -19.912  1.00  0.00     0.041 C 
ATOM      4  O   UNL     1     -18.202 -11.862 -20.494  1.00  0.00    -0.550 OA
ATOM      5  O   UNL     1     -18.833  -9.751 -19.866  1.00  0.00    -0.550 OA
ENDBRANCH   2   3
ENDBRANCH   1   2
BRANCH   1   6
ATOM      6  C   UNL     1     -21.447 -13.910 -18.875  1.00  0.00     0.000 C 
BRANCH   6   7
ATOM      7  C   UNL     1     -22.493 -13.584 -19.954  1.00  0.00    -0.000 C 
BRANCH   7   8
ATOM      8  C   UNL     1     -23.116 -14.844 -20.573  1.00  0.00    -0.003 C 
ATOM      9  C   UNL     1     -23.816 -14.519 -21.889  1.00  0.00     0.004 C 
ENDBRANCH   7   8
ENDBRANCH   6   7
ENDBRANCH   1   6
TORSDOF 5
ENDMDL
MODEL 5
REMARK VINA RESULT:    -2.897      2.861      4.342
REMARK INTER + INTRA:          -4.025
REMARK INTER:                  -3.629
REMARK INTRA:                  -0.396
REMARK UNBOUND:                -0.280
REMARK SMILES CCCCCCC(=O)[O-]
REMARK SMILES IDX 5 1 6 2 7 3 8 4 9 5 4 6 3 7 2 8 1 9
REMARK H PARENT
REMARK Flexibility Score: inf
ROOT
ATOM      1  C   UNL     1     -24.371   4.288 -36.010  1.00  0.00     0.006 C 
ENDROOT
BRANCH   1   2
ATOM      2  C   UNL     1     -22.936   3.883 -35.662  1.00  0.00     0.053 C 
BRANCH   2   3
ATOM      3  C   UNL     1     -22.776   2.397 -35.741  1.00  0.00     0.041 C 
ATOM      4  O   UNL     1     -22.556   1.728 -34.697  1.00  0.00    -0.550 OA
ATOM      5  O   UNL     1     -22.820   1.757 -36.973  1.00  0.00    -0.550 OA
ENDBRANCH   2   3
ENDBRANCH   1   2
BRANCH   1   6
ATOM      6  C   UNL     1     -25.086   4.877 -34.785  1.00  0.00     0.000 C 
BRANCH   6   7
ATOM      7  C   UNL     1     -26.230   3.981 -34.280  1.00  0.00    -0.000 C 
BRANCH   7   8
ATOM      8  C   UNL     1     -25.728   2.807 -33.427  1.00  0.00    -0.003 C 
ATOM      9  C   UNL     1     -24.694   3.273 -32.407  1.00  0.00     0.004 C 
ENDBRANCH   7   8
ENDBRANCH   6   7
ENDBRANCH   1   6
TORSDOF 5
ENDMDL
MODEL 6
REMARK VINA RESULT:    -2.831      1.237      1.795
REMARK INTER + INTRA:          -3.939
REMARK INTER:                  -3.751
REMARK INTRA:                  -0.188
REMARK UNBOUND:                -0.280
REMARK SMILES CCCCCCC(=O)[O-]
REMARK SMILES IDX 5 1 6 2 7 3 8 4 9 5 4 6 3 7 2 8 1 9
REMARK H PARENT
REMARK Flexibility Score: inf
ROOT
ATOM      1  C   UNL     1     -25.781   2.680 -33.533  1.00  0.00     0.006 C 
ENDROOT
BRANCH   1   2
ATOM      2  C   UNL     1     -26.513   4.019 -33.401  1.00  0.00     0.053 C 
BRANCH   2   3
ATOM      3  C   UNL     1     -27.678   4.075 -34.338  1.00  0.00     0.041 C 
ATOM      4  O   UNL     1     -28.754   3.488 -34.048  1.00  0.00    -0.550 OA
ATOM      5  O   UNL     1     -27.561   4.734 -35.556  1.00  0.00    -0.550 OA
ENDBRANCH   2   3
ENDBRANCH   1   2
BRANCH   1   6
ATOM      6  C   UNL     1     -24.419   2.728 -32.826  1.00  0.00     0.000 C 
BRANCH   6   7
ATOM      7  C   UNL     1     -23.274   2.207 -33.710  1.00  0.00    -0.000 C 
BRANCH   7   8
ATOM      8  C   UNL     1     -22.773   3.259 -34.709  1.00  0.00    -0.003 C 
ATOM      9  C   UNL     1     -22.778   2.710 -36.133  1.00  0.00     0.004 C 
ENDBRANCH   7   8
ENDBRANCH   6   7
ENDBRANCH   1   6
TORSDOF 5
ENDMDL
MODEL 7
REMARK VINA RESULT:    -2.815      1.508      2.324
REMARK INTER + INTRA:          -3.918
REMARK INTER:                  -3.503
REMARK INTRA:                  -0.415
REMARK UNBOUND:                -0.280
REMARK SMILES CCCCCCC(=O)[O-]
REMARK SMILES IDX 5 1 6 2 7 3 8 4 9 5 4 6 3 7 2 8 1 9
REMARK H PARENT
REMARK Flexibility Score: inf
ROOT
ATOM      1  C   UNL     1     -25.382   4.250 -35.409  1.00  0.00     0.006 C 
ENDROOT
BRANCH   1   2
ATOM      2  C   UNL     1     -25.194   5.008 -34.092  1.00  0.00     0.053 C 
BRANCH   2   3
ATOM      3  C   UNL     1     -25.463   4.111 -32.926  1.00  0.00     0.041 C 
ATOM      4  O   UNL     1     -25.277   4.525 -31.751  1.00  0.00    -0.550 OA
ATOM      5  O   UNL     1     -25.870   2.799 -33.136  1.00  0.00    -0.550 OA
ENDBRANCH   2   3
ENDBRANCH   1   2
BRANCH   1   6
ATOM      6  C   UNL     1     -24.149   4.402 -36.311  1.00  0.00     0.000 C 
BRANCH   6   7
ATOM      7  C   UNL     1     -22.881   3.797 -35.688  1.00  0.00    -0.000 C 
BRANCH   7   8
ATOM      8  C   UNL     1     -22.961   2.270 -35.548  1.00  0.00    -0.003 C 
ATOM      9  C   UNL     1     -22.617   1.831 -34.128  1.00  0.00     0.004 C 
ENDBRANCH   7   8
ENDBRANCH   6   7
ENDBRANCH   1   6
TORSDOF 5
ENDMDL
MODEL 8
REMARK VINA RESULT:    -2.729      1.556      2.322
REMARK INTER + INTRA:          -3.807
REMARK INTER:                  -3.586
REMARK INTRA:                  -0.221
REMARK UNBOUND:                -0.280
REMARK SMILES CCCCCCC(=O)[O-]
REMARK SMILES IDX 5 1 6 2 7 3 8 4 9 5 4 6 3 7 2 8 1 9
REMARK H PARENT
REMARK Flexibility Score: inf
ROOT
ATOM      1  C   UNL     1     -23.289   2.904 -34.971  1.00  0.00     0.006 C 
ENDROOT
BRANCH   1   2
ATOM      2  C   UNL     1     -23.496   2.396 -33.541  1.00  0.00     0.053 C 
BRANCH   2   3
ATOM      3  C   UNL     1     -24.769   2.935 -32.971  1.00  0.00     0.041 C 
ATOM      4  O   UNL     1     -24.742   3.699 -31.970  1.00  0.00    -0.550 OA
ATOM      5  O   UNL     1     -25.991   2.554 -33.513  1.00  0.00    -0.550 OA
ENDBRANCH   2   3
ENDBRANCH   1   2
BRANCH   1   6
ATOM      6  C   UNL     1     -23.112   4.429 -34.991  1.00  0.00     0.000 C 
BRANCH   6   7
ATOM      7  C   UNL     1     -22.679   4.956 -36.369  1.00  0.00    -0.000 C 
BRANCH   7   8
ATOM      8  C   UNL     1     -22.280   3.831 -37.335  1.00  0.00    -0.003 C 
ATOM      9  C   UNL     1     -22.731   4.145 -38.759  1.00  0.00     0.004 C 
ENDBRANCH   7   8
ENDBRANCH   6   7
ENDBRANCH   1   6
TORSDOF 5
ENDMDL
MODEL 9
REMARK VINA RESULT:    -2.524     13.726     14.858
REMARK INTER + INTRA:          -3.542
REMARK INTER:                  -3.301
REMARK INTRA:                  -0.240
REMARK UNBOUND:                -0.280
REMARK SMILES CCCCCCC(=O)[O-]
REMARK SMILES IDX 5 1 6 2 7 3 8 4 9 5 4 6 3 7 2 8 1 9
REMARK H PARENT
REMARK Flexibility Score: inf
ROOT
ATOM      1  C   UNL     1     -10.371   4.747 -35.621  1.00  0.00     0.006 C 
ENDROOT
BRANCH   1   2
ATOM      2  C   UNL     1      -9.078   4.628 -34.808  1.00  0.00     0.053 C 
BRANCH   2   3
ATOM      3  C   UNL     1      -9.208   3.561 -33.767  1.00  0.00     0.041 C 
ATOM      4  O   UNL     1      -9.183   2.346 -34.099  1.00  0.00    -0.550 OA
ATOM      5  O   UNL     1      -9.408   3.906 -32.437  1.00  0.00    -0.550 OA
ENDBRANCH   2   3
ENDBRANCH   1   2
BRANCH   1   6
ATOM      6  C   UNL     1     -10.162   4.251 -37.059  1.00  0.00     0.000 C 
BRANCH   6   7
ATOM      7  C   UNL     1     -10.760   2.855 -37.296  1.00  0.00    -0.000 C 
BRANCH   7   8
ATOM      8  C   UNL     1     -12.249   2.905 -37.669  1.00  0.00    -0.003 C 
ATOM      9  C   UNL     1     -12.521   4.008 -38.688  1.00  0.00     0.004 C 
ENDBRANCH   7   8
ENDBRANCH   6   7
ENDBRANCH   1   6
TORSDOF 5
ENDMDL
