MODEL 1
REMARK VINA RESULT:    -3.561      0.000      0.000
REMARK INTER + INTRA:          -5.662
REMARK INTER:                  -5.018
REMARK INTRA:                  -0.643
REMARK UNBOUND:                -0.643
REMARK SMILES CCCCCCCCC(=O)[O-]
REMARK SMILES IDX 6 1 7 2 8 3 9 4 10 5 11 6 5 7 4 8 3 9 2 10 1 11
REMARK H PARENT
REMARK Flexibility Score: inf
ROOT
ATOM      1  C   UNL     1     -22.172  -6.326 -15.046  1.00  0.00     0.000 C 
ENDROOT
BRANCH   1   2
ATOM      2  C   UNL     1     -22.823  -4.936 -15.098  1.00  0.00     0.006 C 
BRANCH   2   3
ATOM      3  C   UNL     1     -23.204  -4.420 -13.705  1.00  0.00     0.053 C 
BRANCH   3   4
ATOM      4  C   UNL     1     -22.093  -3.636 -13.077  1.00  0.00     0.041 C 
ATOM      5  O   UNL     1     -21.994  -3.571 -11.823  1.00  0.00    -0.550 OA
ATOM      6  O   UNL     1     -21.188  -2.948 -13.875  1.00  0.00    -0.550 OA
ENDBRANCH   3   4
ENDBRANCH   2   3
ENDBRANCH   1   2
BRANCH   1   7
ATOM      7  C   UNL     1     -20.665  -6.239 -15.318  1.00  0.00     0.000 C 
BRANCH   7   8
ATOM      8  C   UNL     1     -19.872  -7.061 -14.297  1.00  0.00    -0.000 C 
BRANCH   8   9
ATOM      9  C   UNL     1     -20.508  -6.969 -12.902  1.00  0.00    -0.000 C 
BRANCH   9  10
ATOM     10  C   UNL     1     -20.695  -8.345 -12.246  1.00  0.00    -0.003 C 
ATOM     11  C   UNL     1     -20.139  -9.487 -13.096  1.00  0.00     0.004 C 
ENDBRANCH   9  10
ENDBRANCH   8   9
ENDBRANCH   7   8
ENDBRANCH   1   7
TORSDOF 7
ENDMDL
MODEL 2
REMARK VINA RESULT:    -3.557     18.822     19.767
REMARK INTER + INTRA:          -5.656
REMARK INTER:                  -5.353
REMARK INTRA:                  -0.303
REMARK UNBOUND:                -0.643
REMARK SMILES CCCCCCCCC(=O)[O-]
REMARK SMILES IDX 6 1 7 2 8 3 9 4 10 5 11 6 5 7 4 8 3 9 2 10 1 11
REMARK H PARENT
REMARK Flexibility Score: inf
ROOT
ATOM      1  C   UNL     1      -7.547  -5.485   1.670  1.00  0.00     0.000 C 
ENDROOT
BRANCH   1   2
ATOM      2  C   UNL     1      -8.842  -5.698   2.468  1.00  0.00     0.006 C 
BRANCH   2   3
ATOM      3  C   UNL     1      -9.612  -4.390   2.688  1.00  0.00     0.053 C 
BRANCH   3   4
ATOM      4  C   UNL     1     -11.006  -4.465   2.145  1.00  0.00     0.041 C 
ATOM      5  O   UNL     1     -11.994  -4.344   2.917  1.00  0.00    -0.550 OA
ATOM      6  O   UNL     1     -11.215  -4.705   0.792  1.00  0.00    -0.550 OA
ENDBRANCH   3   4
ENDBRANCH   2   3
ENDBRANCH   1   2
BRANCH   1   7
ATOM      7  C   UNL     1      -6.849  -6.820   1.388  1.00  0.00     0.000 C 
BRANCH   7   8
ATOM      8  C   UNL     1      -6.818  -7.119  -0.115  1.00  0.00    -0.000 C 
BRANCH   8   9
ATOM      9  C   UNL     1      -7.654  -8.365  -0.446  1.00  0.00    -0.000 C 
BRANCH   9  10
ATOM     10  C   UNL     1      -7.204  -9.604   0.341  1.00  0.00    -0.003 C 
ATOM     11  C   UNL     1      -6.379 -10.575  -0.503  1.00  0.00     0.004 C 
ENDBRANCH   9  10
ENDBRANCH   8   9
ENDBRANCH   7   8
ENDBRANCH   1   7
TORSDOF 7
ENDMDL
MODEL 3
REMARK VINA RESULT:    -3.546     20.155     21.675
REMARK INTER + INTRA:          -5.641
REMARK INTER:                  -5.341
REMARK INTRA:                  -0.299
REMARK UNBOUND:                -0.643
REMARK SMILES CCCCCCCCC(=O)[O-]
REMARK SMILES IDX 6 1 7 2 8 3 9 4 10 5 11 6 5 7 4 8 3 9 2 10 1 11
REMARK H PARENT
REMARK Flexibility Score: inf
ROOT
ATOM      1  C   UNL     1      -6.352 -10.598  -0.605  1.00  0.00     0.000 C 
ENDROOT
BRANCH   1   2
ATOM      2  C   UNL     1      -5.225 -11.343   0.126  1.00  0.00     0.006 C 
BRANCH   2   3
ATOM      3  C   UNL     1      -5.242 -12.849  -0.162  1.00  0.00     0.053 C 
BRANCH   3   4
ATOM      4  C   UNL     1      -6.080 -13.596   0.831  1.00  0.00     0.041 C 
ATOM      5  O   UNL     1      -6.450 -14.775   0.586  1.00  0.00    -0.550 OA
ATOM      6  O   UNL     1      -6.481 -12.979   2.009  1.00  0.00    -0.550 OA
ENDBRANCH   3   4
ENDBRANCH   2   3
ENDBRANCH   1   2
BRANCH   1   7
ATOM      7  C   UNL     1      -7.123  -9.686   0.357  1.00  0.00     0.000 C 
BRANCH   7   8
ATOM      8  C   UNL     1      -7.783  -8.524  -0.394  1.00  0.00    -0.000 C 
BRANCH   8   9
ATOM      9  C   UNL     1      -7.486  -7.184   0.296  1.00  0.00    -0.000 C 
BRANCH   9  10
ATOM     10  C   UNL     1      -6.232  -6.496  -0.265  1.00  0.00    -0.003 C 
ATOM     11  C   UNL     1      -5.811  -5.276   0.554  1.00  0.00     0.004 C 
ENDBRANCH   9  10
ENDBRANCH   8   9
ENDBRANCH   7   8
ENDBRANCH   1   7
TORSDOF 7
ENDMDL
MODEL 4
REMARK VINA RESULT:    -3.530      1.144      1.562
REMARK INTER + INTRA:          -5.618
REMARK INTER:                  -5.006
REMARK INTRA:                  -0.612
REMARK UNBOUND:                -0.643
REMARK SMILES CCCCCCCCC(=O)[O-]
REMARK SMILES IDX 6 1 7 2 8 3 9 4 10 5 11 6 5 7 4 8 3 9 2 10 1 11
REMARK H PARENT
REMARK Flexibility Score: inf
ROOT
ATOM      1  C   UNL     1     -19.875  -4.864 -14.393  1.00  0.00     0.000 C 
ENDROOT
BRANCH   1   2
ATOM      2  C   UNL     1     -20.580  -3.503 -14.500  1.00  0.00     0.006 C 
BRANCH   2   3
ATOM      3  C   UNL     1     -22.094  -3.613 -14.281  1.00  0.00     0.053 C 
BRANCH   3   4
ATOM      4  C   UNL     1     -22.436  -3.799 -12.835  1.00  0.00     0.041 C 
ATOM      5  O   UNL     1     -23.264  -4.683 -12.489  1.00  0.00    -0.550 OA
ATOM      6  O   UNL     1     -21.869  -2.974 -11.873  1.00  0.00    -0.550 OA
ENDBRANCH   3   4
ENDBRANCH   2   3
ENDBRANCH   1   2
BRANCH   1   7
ATOM      7  C   UNL     1     -20.560  -5.909 -15.282  1.00  0.00     0.000 C 
BRANCH   7   8
ATOM      8  C   UNL     1     -20.960  -7.146 -14.470  1.00  0.00    -0.000 C 
BRANCH   8   9
ATOM      9  C   UNL     1     -20.541  -6.998 -12.999  1.00  0.00    -0.000 C 
BRANCH   9  10
ATOM     10  C   UNL     1     -20.563  -8.334 -12.242  1.00  0.00    -0.003 C 
ATOM     11  C   UNL     1     -20.170  -9.520 -13.123  1.00  0.00     0.004 C 
ENDBRANCH   9  10
ENDBRANCH   8   9
ENDBRANCH   7   8
ENDBRANCH   1   7
TORSDOF 7
ENDMDL
MODEL 5
REMARK VINA RESULT:    -3.516     19.504     21.082
REMARK INTER + INTRA:          -5.598
REMARK INTER:                  -5.227
REMARK INTRA:                  -0.371
REMARK UNBOUND:                -0.643
REMARK SMILES CCCCCCCCC(=O)[O-]
REMARK SMILES IDX 6 1 7 2 8 3 9 4 10 5 11 6 5 7 4 8 3 9 2 10 1 11
REMARK H PARENT
REMARK Flexibility Score: inf
ROOT
ATOM      1  C   UNL     1      -6.371 -10.536  -0.549  1.00  0.00     0.000 C 
ENDROOT
BRANCH   1   2
ATOM      2  C   UNL     1      -7.108  -9.572   0.393  1.00  0.00     0.006 C 
BRANCH   2   3
ATOM      3  C   UNL     1      -7.762  -8.408  -0.362  1.00  0.00     0.053 C 
BRANCH   3   4
ATOM      4  C   UNL     1      -7.266  -7.081   0.123  1.00  0.00     0.041 C 
ATOM      5  O   UNL     1      -7.902  -6.452   1.009  1.00  0.00    -0.550 OA
ATOM      6  O   UNL     1      -6.121  -6.521  -0.429  1.00  0.00    -0.550 OA
ENDBRANCH   3   4
ENDBRANCH   2   3
ENDBRANCH   1   2
BRANCH   1   7
ATOM      7  C   UNL     1      -5.600 -11.598   0.245  1.00  0.00     0.000 C 
BRANCH   7   8
ATOM      8  C   UNL     1      -6.083 -11.659   1.698  1.00  0.00    -0.000 C 
BRANCH   8   9
ATOM      9  C   UNL     1      -6.375 -13.107   2.120  1.00  0.00    -0.000 C 
BRANCH   9  10
ATOM     10  C   UNL     1      -5.792 -14.137   1.141  1.00  0.00    -0.003 C 
ATOM     11  C   UNL     1      -6.732 -15.317   0.894  1.00  0.00     0.004 C 
ENDBRANCH   9  10
ENDBRANCH   8   9
ENDBRANCH   7   8
ENDBRANCH   1   7
TORSDOF 7
ENDMDL
MODEL 6
REMARK VINA RESULT:    -3.506     20.128     21.418
REMARK INTER + INTRA:          -5.583
REMARK INTER:                  -5.181
REMARK INTRA:                  -0.402
REMARK UNBOUND:                -0.643
REMARK SMILES CCCCCCCCC(=O)[O-]
REMARK SMILES IDX 6 1 7 2 8 3 9 4 10 5 11 6 5 7 4 8 3 9 2 10 1 11
REMARK H PARENT
REMARK Flexibility Score: inf
ROOT
ATOM      1  C   UNL     1      -7.243  -9.269   0.479  1.00  0.00     0.000 C 
ENDROOT
BRANCH   1   2
ATOM      2  C   UNL     1      -6.703 -10.326  -0.498  1.00  0.00     0.006 C 
BRANCH   2   3
ATOM      3  C   UNL     1      -5.537 -11.125   0.097  1.00  0.00     0.053 C 
BRANCH   3   4
ATOM      4  C   UNL     1      -6.007 -12.375   0.776  1.00  0.00     0.041 C 
ATOM      5  O   UNL     1      -6.051 -13.462   0.142  1.00  0.00    -0.550 OA
ATOM      6  O   UNL     1      -6.429 -12.332   2.099  1.00  0.00    -0.550 OA
ENDBRANCH   3   4
ENDBRANCH   2   3
ENDBRANCH   1   2
BRANCH   1   7
ATOM      7  C   UNL     1      -7.660  -7.995  -0.265  1.00  0.00     0.000 C 
BRANCH   7   8
ATOM      8  C   UNL     1      -6.542  -6.948  -0.236  1.00  0.00    -0.000 C 
BRANCH   8   9
ATOM      9  C   UNL     1      -6.489  -6.237   1.125  1.00  0.00    -0.000 C 
BRANCH   9  10
ATOM     10  C   UNL     1      -7.876  -5.799   1.617  1.00  0.00    -0.003 C 
ATOM     11  C   UNL     1      -8.240  -6.400   2.974  1.00  0.00     0.004 C 
ENDBRANCH   9  10
ENDBRANCH   8   9
ENDBRANCH   7   8
ENDBRANCH   1   7
TORSDOF 7
ENDMDL
MODEL 7
REMARK VINA RESULT:    -3.383      1.819      2.460
REMARK INTER + INTRA:          -5.411
REMARK INTER:                  -4.814
REMARK INTRA:                  -0.597
REMARK UNBOUND:                -0.643
REMARK SMILES CCCCCCCCC(=O)[O-]
REMARK SMILES IDX 6 1 7 2 8 3 9 4 10 5 11 6 5 7 4 8 3 9 2 10 1 11
REMARK H PARENT
REMARK Flexibility Score: inf
ROOT
ATOM      1  C   UNL     1     -20.711  -3.864 -13.182  1.00  0.00     0.000 C 
ENDROOT
BRANCH   1   2
ATOM      2  C   UNL     1     -22.046  -3.607 -12.467  1.00  0.00     0.006 C 
BRANCH   2   3
ATOM      3  C   UNL     1     -23.051  -4.744 -12.687  1.00  0.00     0.053 C 
BRANCH   3   4
ATOM      4  C   UNL     1     -23.781  -4.599 -13.987  1.00  0.00     0.041 C 
ATOM      5  O   UNL     1     -23.364  -5.192 -15.017  1.00  0.00    -0.550 OA
ATOM      6  O   UNL     1     -24.901  -3.781 -14.070  1.00  0.00    -0.550 OA
ENDBRANCH   3   4
ENDBRANCH   2   3
ENDBRANCH   1   2
BRANCH   1   7
ATOM      7  C   UNL     1     -20.230  -5.301 -12.949  1.00  0.00     0.000 C 
BRANCH   7   8
ATOM      8  C   UNL     1     -19.894  -5.992 -14.276  1.00  0.00    -0.000 C 
BRANCH   8   9
ATOM      9  C   UNL     1     -20.452  -7.423 -14.307  1.00  0.00    -0.000 C 
BRANCH   9  10
ATOM     10  C   UNL     1     -20.514  -8.064 -12.913  1.00  0.00    -0.003 C 
ATOM     11  C   UNL     1     -20.125  -9.542 -12.923  1.00  0.00     0.004 C 
ENDBRANCH   9  10
ENDBRANCH   8   9
ENDBRANCH   7   8
ENDBRANCH   1   7
TORSDOF 7
ENDMDL
MODEL 8
REMARK VINA RESULT:    -3.371     19.612     20.838
REMARK INTER + INTRA:          -5.394
REMARK INTER:                  -4.963
REMARK INTRA:                  -0.431
REMARK UNBOUND:                -0.643
REMARK SMILES CCCCCCCCC(=O)[O-]
REMARK SMILES IDX 6 1 7 2 8 3 9 4 10 5 11 6 5 7 4 8 3 9 2 10 1 11
REMARK H PARENT
REMARK Flexibility Score: inf
ROOT
ATOM      1  C   UNL     1      -7.440  -8.274  -0.378  1.00  0.00     0.000 C 
ENDROOT
BRANCH   1   2
ATOM      2  C   UNL     1      -6.409  -7.438   0.395  1.00  0.00     0.006 C 
BRANCH   2   3
ATOM      3  C   UNL     1      -6.942  -6.046   0.755  1.00  0.00     0.053 C 
BRANCH   3   4
ATOM      4  C   UNL     1      -7.940  -6.102   1.871  1.00  0.00     0.041 C 
ATOM      5  O   UNL     1      -8.885  -5.270   1.917  1.00  0.00    -0.550 OA
ATOM      6  O   UNL     1      -7.808  -7.050   2.877  1.00  0.00    -0.550 OA
ENDBRANCH   3   4
ENDBRANCH   2   3
ENDBRANCH   1   2
BRANCH   1   7
ATOM      7  C   UNL     1      -7.419  -9.737   0.083  1.00  0.00     0.000 C 
BRANCH   7   8
ATOM      8  C   UNL     1      -6.301 -10.518  -0.616  1.00  0.00    -0.000 C 
BRANCH   8   9
ATOM      9  C   UNL     1      -5.695 -11.572   0.324  1.00  0.00    -0.000 C 
BRANCH   9  10
ATOM     10  C   UNL     1      -6.192 -11.429   1.770  1.00  0.00    -0.003 C 
ATOM     11  C   UNL     1      -6.474 -12.776   2.435  1.00  0.00     0.004 C 
ENDBRANCH   9  10
ENDBRANCH   8   9
ENDBRANCH   7   8
ENDBRANCH   1   7
TORSDOF 7
ENDMDL
MODEL 9
REMARK VINA RESULT:    -3.356      2.666      3.349
REMARK INTER + INTRA:          -5.372
REMARK INTER:                  -4.773
REMARK INTRA:                  -0.599
REMARK UNBOUND:                -0.643
REMARK SMILES CCCCCCCCC(=O)[O-]
REMARK SMILES IDX 6 1 7 2 8 3 9 4 10 5 11 6 5 7 4 8 3 9 2 10 1 11
REMARK H PARENT
REMARK Flexibility Score: inf
ROOT
ATOM      1  C   UNL     1     -22.458  -5.200 -13.835  1.00  0.00     0.000 C 
ENDROOT
BRANCH   1   2
ATOM      2  C   UNL     1     -22.370  -4.850 -15.329  1.00  0.00     0.006 C 
BRANCH   2   3
ATOM      3  C   UNL     1     -21.906  -6.040 -16.178  1.00  0.00     0.053 C 
BRANCH   3   4
ATOM      4  C   UNL     1     -22.957  -7.104 -16.269  1.00  0.00     0.041 C 
ATOM      5  O   UNL     1     -22.628  -8.319 -16.275  1.00  0.00    -0.550 OA
ATOM      6  O   UNL     1     -24.296  -6.752 -16.382  1.00  0.00    -0.550 OA
ENDBRANCH   3   4
ENDBRANCH   2   3
ENDBRANCH   1   2
BRANCH   1   7
ATOM      7  C   UNL     1     -21.241  -4.664 -13.072  1.00  0.00     0.000 C 
BRANCH   7   8
ATOM      8  C   UNL     1     -20.119  -5.707 -13.021  1.00  0.00    -0.000 C 
BRANCH   8   9
ATOM      9  C   UNL     1     -20.673  -7.095 -12.667  1.00  0.00    -0.000 C 
BRANCH   9  10
ATOM     10  C   UNL     1     -20.189  -8.187 -13.632  1.00  0.00    -0.003 C 
ATOM     11  C   UNL     1     -20.166  -9.575 -12.991  1.00  0.00     0.004 C 
ENDBRANCH   9  10
ENDBRANCH   8   9
ENDBRANCH   7   8
ENDBRANCH   1   7
TORSDOF 7
ENDMDL
