MODEL 1
REMARK VINA RESULT:    -3.802      0.000      0.000
REMARK INTER + INTRA:          -5.879
REMARK INTER:                  -5.357
REMARK INTRA:                  -0.522
REMARK UNBOUND:                -0.522
REMARK SMILES CCCCCCCCC(=O)[O-]
REMARK SMILES IDX 6 1 7 2 8 3 9 4 10 5 11 6 5 7 4 8 3 9 2 10 1 11
REMARK H PARENT
REMARK Flexibility Score: inf
ROOT
ATOM      1  C   UNL     1       0.615  22.586  26.035  1.00  0.00     0.000 C 
ENDROOT
BRANCH   1   2
ATOM      2  C   UNL     1       0.111  23.594  27.075  1.00  0.00     0.006 C 
BRANCH   2   3
ATOM      3  C   UNL     1      -0.816  24.629  26.433  1.00  0.00     0.053 C 
BRANCH   3   4
ATOM      4  C   UNL     1      -0.062  25.883  26.116  1.00  0.00     0.041 C 
ATOM      5  O   UNL     1      -0.139  26.879  26.882  1.00  0.00    -0.550 OA
ATOM      6  O   UNL     1       0.686  25.967  24.948  1.00  0.00    -0.550 OA
ENDBRANCH   3   4
ENDBRANCH   2   3
ENDBRANCH   1   2
BRANCH   1   7
ATOM      7  C   UNL     1       2.141  22.672  25.879  1.00  0.00     0.000 C 
BRANCH   7   8
ATOM      8  C   UNL     1       2.574  23.169  24.487  1.00  0.00    -0.000 C 
BRANCH   8   9
ATOM      9  C   UNL     1       1.573  22.881  23.353  1.00  0.00    -0.000 C 
BRANCH   9  10
ATOM     10  C   UNL     1       2.068  23.361  21.982  1.00  0.00    -0.003 C 
ATOM     11  C   UNL     1       2.291  24.871  21.976  1.00  0.00     0.004 C 
ENDBRANCH   9  10
ENDBRANCH   8   9
ENDBRANCH   7   8
ENDBRANCH   1   7
TORSDOF 7
ENDMDL
MODEL 2
REMARK VINA RESULT:    -3.722      2.085      3.041
REMARK INTER + INTRA:          -5.767
REMARK INTER:                  -5.330
REMARK INTRA:                  -0.437
REMARK UNBOUND:                -0.522
REMARK SMILES CCCCCCCCC(=O)[O-]
REMARK SMILES IDX 6 1 7 2 8 3 9 4 10 5 11 6 5 7 4 8 3 9 2 10 1 11
REMARK H PARENT
REMARK Flexibility Score: inf
ROOT
ATOM      1  C   UNL     1       0.865  25.904  24.539  1.00  0.00     0.000 C 
ENDROOT
BRANCH   1   2
ATOM      2  C   UNL     1       0.103  25.397  25.769  1.00  0.00     0.006 C 
BRANCH   2   3
ATOM      3  C   UNL     1       0.792  24.172  26.376  1.00  0.00     0.053 C 
BRANCH   3   4
ATOM      4  C   UNL     1      -0.224  23.169  26.826  1.00  0.00     0.041 C 
ATOM      5  O   UNL     1       0.077  21.949  26.893  1.00  0.00    -0.550 OA
ATOM      6  O   UNL     1      -1.518  23.577  27.125  1.00  0.00    -0.550 OA
ENDBRANCH   3   4
ENDBRANCH   2   3
ENDBRANCH   1   2
BRANCH   1   7
ATOM      7  C   UNL     1       1.977  24.923  24.139  1.00  0.00     0.000 C 
BRANCH   7   8
ATOM      8  C   UNL     1       2.317  24.982  22.638  1.00  0.00    -0.000 C 
BRANCH   8   9
ATOM      9  C   UNL     1       2.247  23.631  21.902  1.00  0.00    -0.000 C 
BRANCH   9  10
ATOM     10  C   UNL     1       1.606  22.521  22.747  1.00  0.00    -0.003 C 
ATOM     11  C   UNL     1       1.106  21.379  21.866  1.00  0.00     0.004 C 
ENDBRANCH   9  10
ENDBRANCH   8   9
ENDBRANCH   7   8
ENDBRANCH   1   7
TORSDOF 7
ENDMDL
MODEL 3
REMARK VINA RESULT:    -3.688      2.087      4.453
REMARK INTER + INTRA:          -5.719
REMARK INTER:                  -5.385
REMARK INTRA:                  -0.334
REMARK UNBOUND:                -0.522
REMARK SMILES CCCCCCCCC(=O)[O-]
REMARK SMILES IDX 6 1 7 2 8 3 9 4 10 5 11 6 5 7 4 8 3 9 2 10 1 11
REMARK H PARENT
REMARK Flexibility Score: inf
ROOT
ATOM      1  C   UNL     1       1.214  23.074  24.215  1.00  0.00     0.000 C 
ENDROOT
BRANCH   1   2
ATOM      2  C   UNL     1       1.634  22.323  22.946  1.00  0.00     0.006 C 
BRANCH   2   3
ATOM      3  C   UNL     1       1.968  23.299  21.815  1.00  0.00     0.053 C 
BRANCH   3   4
ATOM      4  C   UNL     1       2.770  24.450  22.336  1.00  0.00     0.041 C 
ATOM      5  O   UNL     1       2.363  25.631  22.176  1.00  0.00    -0.550 OA
ATOM      6  O   UNL     1       3.993  24.221  22.956  1.00  0.00    -0.550 OA
ENDBRANCH   3   4
ENDBRANCH   2   3
ENDBRANCH   1   2
BRANCH   1   7
ATOM      7  C   UNL     1       1.927  22.506  25.451  1.00  0.00     0.000 C 
BRANCH   7   8
ATOM      8  C   UNL     1       1.300  22.980  26.776  1.00  0.00    -0.000 C 
BRANCH   8   9
ATOM      9  C   UNL     1      -0.178  22.593  26.971  1.00  0.00    -0.000 C 
BRANCH   9  10
ATOM     10  C   UNL     1      -1.115  23.808  27.006  1.00  0.00    -0.003 C 
ATOM     11  C   UNL     1      -0.328  25.112  26.895  1.00  0.00     0.004 C 
ENDBRANCH   9  10
ENDBRANCH   8   9
ENDBRANCH   7   8
ENDBRANCH   1   7
TORSDOF 7
ENDMDL
MODEL 4
REMARK VINA RESULT:    -3.647      1.326      2.047
REMARK INTER + INTRA:          -5.662
REMARK INTER:                  -4.919
REMARK INTRA:                  -0.743
REMARK UNBOUND:                -0.522
REMARK SMILES CCCCCCCCC(=O)[O-]
REMARK SMILES IDX 6 1 7 2 8 3 9 4 10 5 11 6 5 7 4 8 3 9 2 10 1 11
REMARK H PARENT
REMARK Flexibility Score: inf
ROOT
ATOM      1  C   UNL     1       3.266  23.061  25.639  1.00  0.00     0.000 C 
ENDROOT
BRANCH   1   2
ATOM      2  C   UNL     1       2.119  23.411  26.594  1.00  0.00     0.006 C 
BRANCH   2   3
ATOM      3  C   UNL     1       0.769  23.367  25.872  1.00  0.00     0.053 C 
BRANCH   3   4
ATOM      4  C   UNL     1       0.016  24.641  26.091  1.00  0.00     0.041 C 
ATOM      5  O   UNL     1      -1.047  24.640  26.766  1.00  0.00    -0.550 OA
ATOM      6  O   UNL     1       0.461  25.820  25.507  1.00  0.00    -0.550 OA
ENDBRANCH   3   4
ENDBRANCH   2   3
ENDBRANCH   1   2
BRANCH   1   7
ATOM      7  C   UNL     1       3.827  24.323  24.967  1.00  0.00     0.000 C 
BRANCH   7   8
ATOM      8  C   UNL     1       3.824  24.237  23.430  1.00  0.00    -0.000 C 
BRANCH   8   9
ATOM      9  C   UNL     1       2.450  24.452  22.769  1.00  0.00    -0.000 C 
BRANCH   9  10
ATOM     10  C   UNL     1       2.081  23.340  21.779  1.00  0.00    -0.003 C 
ATOM     11  C   UNL     1       1.391  22.178  22.490  1.00  0.00     0.004 C 
ENDBRANCH   9  10
ENDBRANCH   8   9
ENDBRANCH   7   8
ENDBRANCH   1   7
TORSDOF 7
ENDMDL
MODEL 5
REMARK VINA RESULT:    -3.639      2.467      3.388
REMARK INTER + INTRA:          -5.651
REMARK INTER:                  -5.092
REMARK INTRA:                  -0.559
REMARK UNBOUND:                -0.522
REMARK SMILES CCCCCCCCC(=O)[O-]
REMARK SMILES IDX 6 1 7 2 8 3 9 4 10 5 11 6 5 7 4 8 3 9 2 10 1 11
REMARK H PARENT
REMARK Flexibility Score: inf
ROOT
ATOM      1  C   UNL     1       0.351  24.406  26.035  1.00  0.00     0.000 C 
ENDROOT
BRANCH   1   2
ATOM      2  C   UNL     1       0.600  22.909  25.812  1.00  0.00     0.006 C 
BRANCH   2   3
ATOM      3  C   UNL     1       1.123  22.242  27.087  1.00  0.00     0.053 C 
BRANCH   3   4
ATOM      4  C   UNL     1       2.610  22.087  27.025  1.00  0.00     0.041 C 
ATOM      5  O   UNL     1       3.124  20.942  26.927  1.00  0.00    -0.550 OA
ATOM      6  O   UNL     1       3.430  23.204  27.125  1.00  0.00    -0.550 OA
ENDBRANCH   3   4
ENDBRANCH   2   3
ENDBRANCH   1   2
BRANCH   1   7
ATOM      7  C   UNL     1       0.977  25.242  24.910  1.00  0.00     0.000 C 
BRANCH   7   8
ATOM      8  C   UNL     1       2.089  24.491  24.152  1.00  0.00    -0.000 C 
BRANCH   8   9
ATOM      9  C   UNL     1       2.288  24.928  22.689  1.00  0.00    -0.000 C 
BRANCH   9  10
ATOM     10  C   UNL     1       2.364  23.744  21.716  1.00  0.00    -0.003 C 
ATOM     11  C   UNL     1       1.699  22.504  22.307  1.00  0.00     0.004 C 
ENDBRANCH   9  10
ENDBRANCH   8   9
ENDBRANCH   7   8
ENDBRANCH   1   7
TORSDOF 7
ENDMDL
MODEL 6
REMARK VINA RESULT:    -3.608      1.616      2.520
REMARK INTER + INTRA:          -5.606
REMARK INTER:                  -5.116
REMARK INTRA:                  -0.490
REMARK UNBOUND:                -0.522
REMARK SMILES CCCCCCCCC(=O)[O-]
REMARK SMILES IDX 6 1 7 2 8 3 9 4 10 5 11 6 5 7 4 8 3 9 2 10 1 11
REMARK H PARENT
REMARK Flexibility Score: inf
ROOT
ATOM      1  C   UNL     1       1.835  22.485  24.259  1.00  0.00     0.000 C 
ENDROOT
BRANCH   1   2
ATOM      2  C   UNL     1       0.729  22.971  25.203  1.00  0.00     0.006 C 
BRANCH   2   3
ATOM      3  C   UNL     1       1.175  24.215  25.977  1.00  0.00     0.053 C 
BRANCH   3   4
ATOM      4  C   UNL     1       0.009  25.115  26.240  1.00  0.00     0.041 C 
ATOM      5  O   UNL     1      -1.094  24.632  26.608  1.00  0.00    -0.550 OA
ATOM      6  O   UNL     1       0.126  26.484  26.030  1.00  0.00    -0.550 OA
ENDBRANCH   3   4
ENDBRANCH   2   3
ENDBRANCH   1   2
BRANCH   1   7
ATOM      7  C   UNL     1       1.502  22.830  22.799  1.00  0.00     0.000 C 
BRANCH   7   8
ATOM      8  C   UNL     1       2.613  23.639  22.106  1.00  0.00    -0.000 C 
BRANCH   8   9
ATOM      9  C   UNL     1       3.343  24.649  23.010  1.00  0.00    -0.000 C 
BRANCH   9  10
ATOM     10  C   UNL     1       4.733  24.168  23.446  1.00  0.00    -0.003 C 
ATOM     11  C   UNL     1       4.900  24.267  24.961  1.00  0.00     0.004 C 
ENDBRANCH   9  10
ENDBRANCH   8   9
ENDBRANCH   7   8
ENDBRANCH   1   7
TORSDOF 7
ENDMDL
MODEL 7
REMARK VINA RESULT:    -3.571      2.769      3.558
REMARK INTER + INTRA:          -5.554
REMARK INTER:                  -5.006
REMARK INTRA:                  -0.549
REMARK UNBOUND:                -0.522
REMARK SMILES CCCCCCCCC(=O)[O-]
REMARK SMILES IDX 6 1 7 2 8 3 9 4 10 5 11 6 5 7 4 8 3 9 2 10 1 11
REMARK H PARENT
REMARK Flexibility Score: inf
ROOT
ATOM      1  C   UNL     1       1.834  22.517  26.554  1.00  0.00     0.000 C 
ENDROOT
BRANCH   1   2
ATOM      2  C   UNL     1       2.866  23.643  26.695  1.00  0.00     0.006 C 
BRANCH   2   3
ATOM      3  C   UNL     1       4.276  23.140  26.374  1.00  0.00     0.053 C 
BRANCH   3   4
ATOM      4  C   UNL     1       4.981  24.101  25.469  1.00  0.00     0.041 C 
ATOM      5  O   UNL     1       4.887  23.981  24.220  1.00  0.00    -0.550 OA
ATOM      6  O   UNL     1       5.785  25.099  26.007  1.00  0.00    -0.550 OA
ENDBRANCH   3   4
ENDBRANCH   2   3
ENDBRANCH   1   2
BRANCH   1   7
ATOM      7  C   UNL     1       0.783  22.866  25.490  1.00  0.00     0.000 C 
BRANCH   7   8
ATOM      8  C   UNL     1       1.373  23.629  24.289  1.00  0.00    -0.000 C 
BRANCH   8   9
ATOM      9  C   UNL     1       1.700  22.757  23.063  1.00  0.00    -0.000 C 
BRANCH   9  10
ATOM     10  C   UNL     1       2.159  23.578  21.850  1.00  0.00    -0.003 C 
ATOM     11  C   UNL     1       2.240  25.064  22.191  1.00  0.00     0.004 C 
ENDBRANCH   9  10
ENDBRANCH   8   9
ENDBRANCH   7   8
ENDBRANCH   1   7
TORSDOF 7
ENDMDL
MODEL 8
REMARK VINA RESULT:    -3.553      3.140      3.981
REMARK INTER + INTRA:          -5.529
REMARK INTER:                  -4.887
REMARK INTRA:                  -0.642
REMARK UNBOUND:                -0.522
REMARK SMILES CCCCCCCCC(=O)[O-]
REMARK SMILES IDX 6 1 7 2 8 3 9 4 10 5 11 6 5 7 4 8 3 9 2 10 1 11
REMARK H PARENT
REMARK Flexibility Score: inf
ROOT
ATOM      1  C   UNL     1       2.385  23.738  25.958  1.00  0.00     0.000 C 
ENDROOT
BRANCH   1   2
ATOM      2  C   UNL     1       3.897  23.662  26.205  1.00  0.00     0.006 C 
BRANCH   2   3
ATOM      3  C   UNL     1       4.679  24.105  24.965  1.00  0.00     0.053 C 
BRANCH   3   4
ATOM      4  C   UNL     1       5.899  24.874  25.363  1.00  0.00     0.041 C 
ATOM      5  O   UNL     1       6.092  25.177  26.570  1.00  0.00    -0.550 OA
ATOM      6  O   UNL     1       6.799  25.300  24.394  1.00  0.00    -0.550 OA
ENDBRANCH   3   4
ENDBRANCH   2   3
ENDBRANCH   1   2
BRANCH   1   7
ATOM      7  C   UNL     1       1.927  22.624  25.005  1.00  0.00     0.000 C 
BRANCH   7   8
ATOM      8  C   UNL     1       1.176  23.161  23.772  1.00  0.00    -0.000 C 
BRANCH   8   9
ATOM      9  C   UNL     1       1.779  22.752  22.415  1.00  0.00    -0.000 C 
BRANCH   9  10
ATOM     10  C   UNL     1       2.711  23.821  21.828  1.00  0.00    -0.003 C 
ATOM     11  C   UNL     1       2.269  25.222  22.239  1.00  0.00     0.004 C 
ENDBRANCH   9  10
ENDBRANCH   8   9
ENDBRANCH   7   8
ENDBRANCH   1   7
TORSDOF 7
ENDMDL
MODEL 9
REMARK VINA RESULT:    -3.396     18.013     19.311
REMARK INTER + INTRA:          -5.308
REMARK INTER:                  -4.805
REMARK INTRA:                  -0.503
REMARK UNBOUND:                -0.522
REMARK SMILES CCCCCCCCC(=O)[O-]
REMARK SMILES IDX 6 1 7 2 8 3 9 4 10 5 11 6 5 7 4 8 3 9 2 10 1 11
REMARK H PARENT
REMARK Flexibility Score: inf
ROOT
ATOM      1  C   UNL     1     -10.842  24.032  10.816  1.00  0.00     0.000 C 
ENDROOT
BRANCH   1   2
ATOM      2  C   UNL     1     -12.296  23.771  10.402  1.00  0.00     0.006 C 
BRANCH   2   3
ATOM      3  C   UNL     1     -12.369  23.212   8.978  1.00  0.00     0.053 C 
BRANCH   3   4
ATOM      4  C   UNL     1     -11.881  24.225   7.992  1.00  0.00     0.041 C 
ATOM      5  O   UNL     1     -12.524  25.292   7.808  1.00  0.00    -0.550 OA
ATOM      6  O   UNL     1     -10.742  23.968   7.238  1.00  0.00    -0.550 OA
ENDBRANCH   3   4
ENDBRANCH   2   3
ENDBRANCH   1   2
BRANCH   1   7
ATOM      7  C   UNL     1     -10.488  23.259  12.095  1.00  0.00     0.000 C 
BRANCH   7   8
ATOM      8  C   UNL     1     -11.691  22.507  12.695  1.00  0.00    -0.000 C 
BRANCH   8   9
ATOM      9  C   UNL     1     -11.983  22.822  14.173  1.00  0.00    -0.000 C 
BRANCH   9  10
ATOM     10  C   UNL     1     -11.898  24.320  14.494  1.00  0.00    -0.003 C 
ATOM     11  C   UNL     1     -10.809  24.599  15.527  1.00  0.00     0.004 C 
ENDBRANCH   9  10
ENDBRANCH   8   9
ENDBRANCH   7   8
ENDBRANCH   1   7
TORSDOF 7
ENDMDL
