MODEL 1
REMARK VINA RESULT:    -4.020      0.000      0.000
REMARK INTER + INTRA:          -7.613
REMARK INTER:                  -6.371
REMARK INTRA:                  -1.242
REMARK UNBOUND:                -1.242
REMARK SMILES CCCCCCCCCCCC(=O)[O-]
REMARK SMILES IDX 7 1 8 2 9 3 10 4 11 5 12 6 13 7 14 8 6 9 5 10 4 11 3 12 2 13
REMARK SMILES IDX 1 14
REMARK H PARENT
REMARK Flexibility Score: inf
ROOT
ATOM      1  C   UNL     1      -9.737  -2.179   2.197  1.00  0.00     0.000 C 
ENDROOT
BRANCH   1   2
ATOM      2  C   UNL     1      -9.750  -3.352   3.189  1.00  0.00     0.000 C 
BRANCH   2   3
ATOM      3  C   UNL     1      -8.638  -3.249   4.243  1.00  0.00     0.000 C 
BRANCH   3   4
ATOM      4  C   UNL     1      -9.203  -3.435   5.658  1.00  0.00     0.006 C 
BRANCH   4   5
ATOM      5  C   UNL     1      -8.395  -4.473   6.440  1.00  0.00     0.053 C 
BRANCH   5   6
ATOM      6  C   UNL     1      -9.118  -5.782   6.474  1.00  0.00     0.041 C 
ATOM      7  O   UNL     1      -9.405  -6.376   5.400  1.00  0.00    -0.550 OA
ATOM      8  O   UNL     1      -9.431  -6.374   7.691  1.00  0.00    -0.550 OA
ENDBRANCH   5   6
ENDBRANCH   4   5
ENDBRANCH   3   4
ENDBRANCH   2   3
ENDBRANCH   1   2
BRANCH   1   9
ATOM      9  C   UNL     1      -8.667  -1.129   2.535  1.00  0.00     0.000 C 
BRANCH   9  10
ATOM     10  C   UNL     1      -9.171   0.288   2.221  1.00  0.00    -0.000 C 
BRANCH  10  11
ATOM     11  C   UNL     1     -10.568   0.562   2.798  1.00  0.00    -0.000 C 
BRANCH  11  12
ATOM     12  C   UNL     1     -10.576   0.613   4.333  1.00  0.00    -0.000 C 
BRANCH  12  13
ATOM     13  C   UNL     1     -11.527  -0.440   4.913  1.00  0.00    -0.003 C 
ATOM     14  C   UNL     1     -12.669  -0.744   3.948  1.00  0.00     0.004 C 
ENDBRANCH  12  13
ENDBRANCH  11  12
ENDBRANCH  10  11
ENDBRANCH   9  10
ENDBRANCH   1   9
TORSDOF 10
ENDMDL
MODEL 2
REMARK VINA RESULT:    -3.995      2.907      6.173
REMARK INTER + INTRA:          -7.572
REMARK INTER:                  -6.801
REMARK INTRA:                  -0.771
REMARK UNBOUND:                -1.242
REMARK SMILES CCCCCCCCCCCC(=O)[O-]
REMARK SMILES IDX 7 1 8 2 9 3 10 4 11 5 12 6 13 7 14 8 6 9 5 10 4 11 3 12 2 13
REMARK SMILES IDX 1 14
REMARK H PARENT
REMARK Flexibility Score: inf
ROOT
ATOM      1  C   UNL     1      -8.831  -3.303   4.134  1.00  0.00     0.000 C 
ENDROOT
BRANCH   1   2
ATOM      2  C   UNL     1      -9.836  -3.285   2.972  1.00  0.00     0.000 C 
BRANCH   2   3
ATOM      3  C   UNL     1      -9.800  -1.971   2.178  1.00  0.00     0.000 C 
BRANCH   3   4
ATOM      4  C   UNL     1      -8.818  -0.975   2.808  1.00  0.00     0.006 C 
BRANCH   4   5
ATOM      5  C   UNL     1      -9.486   0.383   3.039  1.00  0.00     0.053 C 
BRANCH   5   6
ATOM      6  C   UNL     1     -10.816   0.207   3.701  1.00  0.00     0.041 C 
ATOM      7  O   UNL     1     -10.886  -0.261   4.869  1.00  0.00    -0.550 OA
ATOM      8  O   UNL     1     -11.976   0.605   3.049  1.00  0.00    -0.550 OA
ENDBRANCH   5   6
ENDBRANCH   4   5
ENDBRANCH   3   4
ENDBRANCH   2   3
ENDBRANCH   1   2
BRANCH   1   9
ATOM      9  C   UNL     1      -9.483  -3.665   5.477  1.00  0.00     0.000 C 
BRANCH   9  10
ATOM     10  C   UNL     1      -8.507  -4.450   6.366  1.00  0.00    -0.000 C 
BRANCH  10  11
ATOM     11  C   UNL     1      -8.981  -5.886   6.642  1.00  0.00    -0.000 C 
BRANCH  11  12
ATOM     12  C   UNL     1      -9.859  -6.448   5.514  1.00  0.00    -0.000 C 
BRANCH  12  13
ATOM     13  C   UNL     1      -9.316  -7.791   5.013  1.00  0.00    -0.003 C 
ATOM     14  C   UNL     1      -8.245  -8.339   5.952  1.00  0.00     0.004 C 
ENDBRANCH  12  13
ENDBRANCH  11  12
ENDBRANCH  10  11
ENDBRANCH   9  10
ENDBRANCH   1   9
TORSDOF 10
ENDMDL
MODEL 3
REMARK VINA RESULT:    -3.969      3.175      5.721
REMARK INTER + INTRA:          -7.531
REMARK INTER:                  -6.046
REMARK INTRA:                  -1.486
REMARK UNBOUND:                -1.242
REMARK SMILES CCCCCCCCCCCC(=O)[O-]
REMARK SMILES IDX 7 1 8 2 9 3 10 4 11 5 12 6 13 7 14 8 6 9 5 10 4 11 3 12 2 13
REMARK SMILES IDX 1 14
REMARK H PARENT
REMARK Flexibility Score: inf
ROOT
ATOM      1  C   UNL     1      -9.155  -5.588   6.887  1.00  0.00     0.000 C 
ENDROOT
BRANCH   1   2
ATOM      2  C   UNL     1      -8.385  -4.364   6.370  1.00  0.00     0.000 C 
BRANCH   2   3
ATOM      3  C   UNL     1      -9.272  -3.403   5.564  1.00  0.00     0.000 C 
BRANCH   3   4
ATOM      4  C   UNL     1      -8.750  -3.247   4.129  1.00  0.00     0.006 C 
BRANCH   4   5
ATOM      5  C   UNL     1      -9.884  -3.400   3.112  1.00  0.00     0.053 C 
BRANCH   5   6
ATOM      6  C   UNL     1     -10.128  -2.107   2.401  1.00  0.00     0.041 C 
ATOM      7  O   UNL     1     -11.295  -1.641   2.314  1.00  0.00    -0.550 OA
ATOM      8  O   UNL     1      -9.060  -1.389   1.876  1.00  0.00    -0.550 OA
ENDBRANCH   5   6
ENDBRANCH   4   5
ENDBRANCH   3   4
ENDBRANCH   2   3
ENDBRANCH   1   2
BRANCH   1   9
ATOM      9  C   UNL     1      -8.856  -6.861   6.081  1.00  0.00     0.000 C 
BRANCH   9  10
ATOM     10  C   UNL     1      -9.810  -6.988   4.883  1.00  0.00    -0.000 C 
BRANCH  10  11
ATOM     11  C   UNL     1     -11.289  -6.998   5.303  1.00  0.00    -0.000 C 
BRANCH  11  12
ATOM     12  C   UNL     1     -12.127  -5.957   4.547  1.00  0.00    -0.000 C 
BRANCH  12  13
ATOM     13  C   UNL     1     -12.604  -4.847   5.490  1.00  0.00    -0.003 C 
ATOM     14  C   UNL     1     -12.867  -5.389   6.892  1.00  0.00     0.004 C 
ENDBRANCH  12  13
ENDBRANCH  11  12
ENDBRANCH  10  11
ENDBRANCH   9  10
ENDBRANCH   1   9
TORSDOF 10
ENDMDL
MODEL 4
REMARK VINA RESULT:    -3.954      3.450      6.987
REMARK INTER + INTRA:          -7.507
REMARK INTER:                  -6.817
REMARK INTRA:                  -0.691
REMARK UNBOUND:                -1.242
REMARK SMILES CCCCCCCCCCCC(=O)[O-]
REMARK SMILES IDX 7 1 8 2 9 3 10 4 11 5 12 6 13 7 14 8 6 9 5 10 4 11 3 12 2 13
REMARK SMILES IDX 1 14
REMARK H PARENT
REMARK Flexibility Score: inf
ROOT
ATOM      1  C   UNL     1      -9.636  -4.991   6.141  1.00  0.00     0.000 C 
ENDROOT
BRANCH   1   2
ATOM      2  C   UNL     1      -8.655  -3.860   5.796  1.00  0.00     0.000 C 
BRANCH   2   3
ATOM      3  C   UNL     1      -8.631  -3.534   4.296  1.00  0.00     0.000 C 
BRANCH   3   4
ATOM      4  C   UNL     1      -9.460  -2.278   3.994  1.00  0.00     0.006 C 
BRANCH   4   5
ATOM      5  C   UNL     1      -9.141  -1.731   2.600  1.00  0.00     0.053 C 
BRANCH   5   6
ATOM      6  C   UNL     1      -8.662  -0.317   2.690  1.00  0.00     0.041 C 
ATOM      7  O   UNL     1      -7.477  -0.027   2.373  1.00  0.00    -0.550 OA
ATOM      8  O   UNL     1      -9.536   0.691   3.077  1.00  0.00    -0.550 OA
ENDBRANCH   5   6
ENDBRANCH   4   5
ENDBRANCH   3   4
ENDBRANCH   2   3
ENDBRANCH   1   2
BRANCH   1   9
ATOM      9  C   UNL     1      -9.920  -5.914   4.946  1.00  0.00     0.000 C 
BRANCH   9  10
ATOM     10  C   UNL     1     -10.941  -6.999   5.321  1.00  0.00    -0.000 C 
BRANCH  10  11
ATOM     11  C   UNL     1     -10.285  -8.361   5.594  1.00  0.00    -0.000 C 
BRANCH  11  12
ATOM     12  C   UNL     1      -9.090  -8.640   4.670  1.00  0.00    -0.000 C 
BRANCH  12  13
ATOM     13  C   UNL     1      -7.864  -9.083   5.477  1.00  0.00    -0.003 C 
ATOM     14  C   UNL     1      -8.069  -8.842   6.970  1.00  0.00     0.004 C 
ENDBRANCH  12  13
ENDBRANCH  11  12
ENDBRANCH  10  11
ENDBRANCH   9  10
ENDBRANCH   1   9
TORSDOF 10
ENDMDL
MODEL 5
REMARK VINA RESULT:    -3.933      3.932      5.945
REMARK INTER + INTRA:          -7.474
REMARK INTER:                  -6.114
REMARK INTRA:                  -1.360
REMARK UNBOUND:                -1.242
REMARK SMILES CCCCCCCCCCCC(=O)[O-]
REMARK SMILES IDX 7 1 8 2 9 3 10 4 11 5 12 6 13 7 14 8 6 9 5 10 4 11 3 12 2 13
REMARK SMILES IDX 1 14
REMARK H PARENT
REMARK Flexibility Score: inf
ROOT
ATOM      1  C   UNL     1      -8.698  -0.013   2.628  1.00  0.00     0.000 C 
ENDROOT
BRANCH   1   2
ATOM      2  C   UNL     1     -10.097   0.621   2.668  1.00  0.00     0.000 C 
BRANCH   2   3
ATOM      3  C   UNL     1     -10.479   1.126   4.067  1.00  0.00     0.000 C 
BRANCH   3   4
ATOM      4  C   UNL     1     -11.863   0.606   4.480  1.00  0.00     0.006 C 
BRANCH   4   5
ATOM      5  C   UNL     1     -12.713   0.273   3.251  1.00  0.00     0.053 C 
BRANCH   5   6
ATOM      6  C   UNL     1     -13.674   1.383   2.962  1.00  0.00     0.041 C 
ATOM      7  O   UNL     1     -13.312   2.368   2.265  1.00  0.00    -0.550 OA
ATOM      8  O   UNL     1     -14.983   1.307   3.419  1.00  0.00    -0.550 OA
ENDBRANCH   5   6
ENDBRANCH   4   5
ENDBRANCH   3   4
ENDBRANCH   2   3
ENDBRANCH   1   2
BRANCH   1   9
ATOM      9  C   UNL     1      -8.713  -1.506   2.988  1.00  0.00     0.000 C 
BRANCH   9  10
ATOM     10  C   UNL     1      -9.928  -2.208   2.364  1.00  0.00    -0.000 C 
BRANCH  10  11
ATOM     11  C   UNL     1     -10.638  -3.151   3.349  1.00  0.00    -0.000 C 
BRANCH  11  12
ATOM     12  C   UNL     1     -10.410  -2.758   4.816  1.00  0.00    -0.000 C 
BRANCH  12  13
ATOM     13  C   UNL     1      -9.963  -3.967   5.645  1.00  0.00    -0.003 C 
ATOM     14  C   UNL     1      -8.475  -3.891   5.975  1.00  0.00     0.004 C 
ENDBRANCH  12  13
ENDBRANCH  11  12
ENDBRANCH  10  11
ENDBRANCH   9  10
ENDBRANCH   1   9
TORSDOF 10
ENDMDL
MODEL 6
REMARK VINA RESULT:    -3.895      3.264      5.994
REMARK INTER + INTRA:          -7.414
REMARK INTER:                  -6.655
REMARK INTRA:                  -0.759
REMARK UNBOUND:                -1.242
REMARK SMILES CCCCCCCCCCCC(=O)[O-]
REMARK SMILES IDX 7 1 8 2 9 3 10 4 11 5 12 6 13 7 14 8 6 9 5 10 4 11 3 12 2 13
REMARK SMILES IDX 1 14
REMARK H PARENT
REMARK Flexibility Score: inf
ROOT
ATOM      1  C   UNL     1      -9.860  -2.196   2.402  1.00  0.00     0.000 C 
ENDROOT
BRANCH   1   2
ATOM      2  C   UNL     1      -8.699  -1.190   2.409  1.00  0.00     0.000 C 
BRANCH   2   3
ATOM      3  C   UNL     1      -9.134   0.213   2.855  1.00  0.00     0.000 C 
BRANCH   3   4
ATOM      4  C   UNL     1     -10.407   0.653   2.121  1.00  0.00     0.006 C 
BRANCH   4   5
ATOM      5  C   UNL     1     -11.396   1.316   3.084  1.00  0.00     0.053 C 
BRANCH   5   6
ATOM      6  C   UNL     1     -12.751   0.695   2.953  1.00  0.00     0.041 C 
ATOM      7  O   UNL     1     -13.735   1.391   2.586  1.00  0.00    -0.550 OA
ATOM      8  O   UNL     1     -12.919  -0.664   3.188  1.00  0.00    -0.550 OA
ENDBRANCH   5   6
ENDBRANCH   4   5
ENDBRANCH   3   4
ENDBRANCH   2   3
ENDBRANCH   1   2
BRANCH   1   9
ATOM      9  C   UNL     1      -9.844  -3.129   3.623  1.00  0.00     0.000 C 
BRANCH   9  10
ATOM     10  C   UNL     1      -8.453  -3.158   4.273  1.00  0.00    -0.000 C 
BRANCH  10  11
ATOM     11  C   UNL     1      -8.471  -3.760   5.686  1.00  0.00    -0.000 C 
BRANCH  11  12
ATOM     12  C   UNL     1      -9.625  -4.753   5.893  1.00  0.00    -0.000 C 
BRANCH  12  13
ATOM     13  C   UNL     1      -9.093  -6.172   6.125  1.00  0.00    -0.003 C 
ATOM     14  C   UNL     1      -9.670  -7.151   5.108  1.00  0.00     0.004 C 
ENDBRANCH  12  13
ENDBRANCH  11  12
ENDBRANCH  10  11
ENDBRANCH   9  10
ENDBRANCH   1   9
TORSDOF 10
ENDMDL
MODEL 7
REMARK VINA RESULT:    -3.884      2.952      4.645
REMARK INTER + INTRA:          -7.397
REMARK INTER:                  -6.400
REMARK INTRA:                  -0.996
REMARK UNBOUND:                -1.242
REMARK SMILES CCCCCCCCCCCC(=O)[O-]
REMARK SMILES IDX 7 1 8 2 9 3 10 4 11 5 12 6 13 7 14 8 6 9 5 10 4 11 3 12 2 13
REMARK SMILES IDX 1 14
REMARK H PARENT
REMARK Flexibility Score: inf
ROOT
ATOM      1  C   UNL     1      -8.957  -5.023   5.917  1.00  0.00     0.000 C 
ENDROOT
BRANCH   1   2
ATOM      2  C   UNL     1      -9.897  -5.627   4.862  1.00  0.00     0.000 C 
BRANCH   2   3
ATOM      3  C   UNL     1     -11.351  -5.716   5.347  1.00  0.00     0.000 C 
BRANCH   3   4
ATOM      4  C   UNL     1     -12.276  -4.862   4.469  1.00  0.00     0.006 C 
BRANCH   4   5
ATOM      5  C   UNL     1     -12.428  -3.450   5.041  1.00  0.00     0.053 C 
BRANCH   5   6
ATOM      6  C   UNL     1     -13.411  -2.662   4.235  1.00  0.00     0.041 C 
ATOM      7  O   UNL     1     -13.035  -1.642   3.597  1.00  0.00    -0.550 OA
ATOM      8  O   UNL     1     -14.733  -3.079   4.147  1.00  0.00    -0.550 OA
ENDBRANCH   5   6
ENDBRANCH   4   5
ENDBRANCH   3   4
ENDBRANCH   2   3
ENDBRANCH   1   2
BRANCH   1   9
ATOM      9  C   UNL     1      -8.665  -3.535   5.670  1.00  0.00     0.000 C 
BRANCH   9  10
ATOM     10  C   UNL     1      -8.580  -3.235   4.165  1.00  0.00    -0.000 C 
BRANCH  10  11
ATOM     11  C   UNL     1      -9.369  -1.978   3.767  1.00  0.00    -0.000 C 
BRANCH  11  12
ATOM     12  C   UNL     1      -9.258  -1.658   2.269  1.00  0.00    -0.000 C 
BRANCH  12  13
ATOM     13  C   UNL     1      -8.763  -0.224   2.048  1.00  0.00    -0.003 C 
ATOM     14  C   UNL     1      -7.241  -0.150   2.112  1.00  0.00     0.004 C 
ENDBRANCH  12  13
ENDBRANCH  11  12
ENDBRANCH  10  11
ENDBRANCH   9  10
ENDBRANCH   1   9
TORSDOF 10
ENDMDL
MODEL 8
REMARK VINA RESULT:    -3.857      3.234      6.439
REMARK INTER + INTRA:          -7.354
REMARK INTER:                  -6.577
REMARK INTRA:                  -0.777
REMARK UNBOUND:                -1.242
REMARK SMILES CCCCCCCCCCCC(=O)[O-]
REMARK SMILES IDX 7 1 8 2 9 3 10 4 11 5 12 6 13 7 14 8 6 9 5 10 4 11 3 12 2 13
REMARK SMILES IDX 1 14
REMARK H PARENT
REMARK Flexibility Score: inf
ROOT
ATOM      1  C   UNL     1      -8.980  -3.053   4.462  1.00  0.00     0.000 C 
ENDROOT
BRANCH   1   2
ATOM      2  C   UNL     1      -9.755  -3.890   3.433  1.00  0.00     0.000 C 
BRANCH   2   3
ATOM      3  C   UNL     1     -10.845  -3.083   2.713  1.00  0.00     0.000 C 
BRANCH   3   4
ATOM      4  C   UNL     1     -11.429  -2.004   3.635  1.00  0.00     0.006 C 
BRANCH   4   5
ATOM      5  C   UNL     1     -11.605  -0.680   2.887  1.00  0.00     0.053 C 
BRANCH   5   6
ATOM      6  C   UNL     1     -10.478   0.253   3.201  1.00  0.00     0.041 C 
ATOM      7  O   UNL     1      -9.677   0.605   2.294  1.00  0.00    -0.550 OA
ATOM      8  O   UNL     1     -10.340   0.772   4.481  1.00  0.00    -0.550 OA
ENDBRANCH   5   6
ENDBRANCH   4   5
ENDBRANCH   3   4
ENDBRANCH   2   3
ENDBRANCH   1   2
BRANCH   1   9
ATOM      9  C   UNL     1      -8.635  -3.846   5.733  1.00  0.00     0.000 C 
BRANCH   9  10
ATOM     10  C   UNL     1      -9.686  -4.933   6.003  1.00  0.00    -0.000 C 
BRANCH  10  11
ATOM     11  C   UNL     1      -9.075  -6.341   6.077  1.00  0.00    -0.000 C 
BRANCH  11  12
ATOM     12  C   UNL     1      -9.579  -7.267   4.960  1.00  0.00    -0.000 C 
BRANCH  12  13
ATOM     13  C   UNL     1      -8.882  -8.631   5.022  1.00  0.00    -0.003 C 
ATOM     14  C   UNL     1      -7.745  -8.625   6.039  1.00  0.00     0.004 C 
ENDBRANCH  12  13
ENDBRANCH  11  12
ENDBRANCH  10  11
ENDBRANCH   9  10
ENDBRANCH   1   9
TORSDOF 10
ENDMDL
MODEL 9
REMARK VINA RESULT:    -3.834      3.297      5.484
REMARK INTER + INTRA:          -7.318
REMARK INTER:                  -5.837
REMARK INTRA:                  -1.481
REMARK UNBOUND:                -1.242
REMARK SMILES CCCCCCCCCCCC(=O)[O-]
REMARK SMILES IDX 7 1 8 2 9 3 10 4 11 5 12 6 13 7 14 8 6 9 5 10 4 11 3 12 2 13
REMARK SMILES IDX 1 14
REMARK H PARENT
REMARK Flexibility Score: inf
ROOT
ATOM      1  C   UNL     1      -8.654  -4.352   6.193  1.00  0.00     0.000 C 
ENDROOT
BRANCH   1   2
ATOM      2  C   UNL     1      -8.587  -3.428   4.967  1.00  0.00     0.000 C 
BRANCH   2   3
ATOM      3  C   UNL     1      -9.298  -4.020   3.741  1.00  0.00     0.000 C 
BRANCH   3   4
ATOM      4  C   UNL     1      -9.824  -2.909   2.822  1.00  0.00     0.006 C 
BRANCH   4   5
ATOM      5  C   UNL     1      -9.833  -1.558   3.542  1.00  0.00     0.053 C 
BRANCH   5   6
ATOM      6  C   UNL     1     -10.598  -0.547   2.748  1.00  0.00     0.041 C 
ATOM      7  O   UNL     1     -10.007   0.450   2.255  1.00  0.00    -0.550 OA
ATOM      8  O   UNL     1     -11.954  -0.729   2.511  1.00  0.00    -0.550 OA
ENDBRANCH   5   6
ENDBRANCH   4   5
ENDBRANCH   3   4
ENDBRANCH   2   3
ENDBRANCH   1   2
BRANCH   1   9
ATOM      9  C   UNL     1      -9.324  -5.699   5.885  1.00  0.00     0.000 C 
BRANCH   9  10
ATOM     10  C   UNL     1     -10.607  -5.875   6.712  1.00  0.00    -0.000 C 
BRANCH  10  11
ATOM     11  C   UNL     1     -11.881  -5.611   5.893  1.00  0.00    -0.000 C 
BRANCH  11  12
ATOM     12  C   UNL     1     -12.341  -4.148   5.966  1.00  0.00    -0.000 C 
BRANCH  12  13
ATOM     13  C   UNL     1     -12.941  -3.693   4.631  1.00  0.00    -0.003 C 
ATOM     14  C   UNL     1     -12.983  -4.840   3.625  1.00  0.00     0.004 C 
ENDBRANCH  12  13
ENDBRANCH  11  12
ENDBRANCH  10  11
ENDBRANCH   9  10
ENDBRANCH   1   9
TORSDOF 10
ENDMDL
