MODEL 1
REMARK VINA RESULT:    -3.032      0.000      0.000
REMARK INTER + INTRA:          -3.612
REMARK INTER:                  -3.564
REMARK INTRA:                  -0.049
REMARK UNBOUND:                -0.049
REMARK SMILES O=C([O-])CCC(=O)[O-]
REMARK SMILES IDX 4 1 2 2 1 3 3 4 5 5 6 6 7 7 8 8
REMARK H PARENT
REMARK Flexibility Score: inf
ROOT
ATOM      1  C   UNL     1       8.600 -33.134   7.423  1.00  0.00     0.059 C 
ENDROOT
BRANCH   1   2
ATOM      2  C   UNL     1       9.749 -32.352   6.870  1.00  0.00     0.042 C 
ATOM      3  O   UNL     1       9.703 -31.908   5.692  1.00  0.00    -0.550 OA
ATOM      4  O   UNL     1      10.849 -32.070   7.670  1.00  0.00    -0.550 OA
ENDBRANCH   1   2
BRANCH   1   5
ATOM      5  C   UNL     1       7.729 -32.247   8.315  1.00  0.00     0.059 C 
BRANCH   5   6
ATOM      6  C   UNL     1       7.131 -33.050   9.427  1.00  0.00     0.042 C 
ATOM      7  O   UNL     1       7.808 -33.947   9.994  1.00  0.00    -0.550 OA
ATOM      8  O   UNL     1       5.810 -32.841   9.803  1.00  0.00    -0.550 OA
ENDBRANCH   5   6
ENDBRANCH   1   5
TORSDOF 3
ENDMDL
MODEL 2
REMARK VINA RESULT:    -3.011     21.760     22.354
REMARK INTER + INTRA:          -3.587
REMARK INTER:                  -3.499
REMARK INTRA:                  -0.089
REMARK UNBOUND:                -0.049
REMARK SMILES O=C([O-])CCC(=O)[O-]
REMARK SMILES IDX 4 1 2 2 1 3 3 4 5 5 6 6 7 7 8 8
REMARK H PARENT
REMARK Flexibility Score: inf
ROOT
ATOM      1  C   UNL     1      -2.364 -50.702   1.660  1.00  0.00     0.059 C 
ENDROOT
BRANCH   1   2
ATOM      2  C   UNL     1      -1.854 -51.382   0.429  1.00  0.00     0.042 C 
ATOM      3  O   UNL     1      -2.661 -51.897  -0.389  1.00  0.00    -0.550 OA
ATOM      4  O   UNL     1      -0.491 -51.404   0.160  1.00  0.00    -0.550 OA
ENDBRANCH   1   2
BRANCH   1   5
ATOM      5  C   UNL     1      -2.734 -51.734   2.728  1.00  0.00     0.059 C 
BRANCH   5   6
ATOM      6  C   UNL     1      -1.729 -51.725   3.836  1.00  0.00     0.042 C 
ATOM      7  O   UNL     1      -0.506 -51.561   3.579  1.00  0.00    -0.550 OA
ATOM      8  O   UNL     1      -2.135 -51.945   5.145  1.00  0.00    -0.550 OA
ENDBRANCH   5   6
ENDBRANCH   1   5
TORSDOF 3
ENDMDL
MODEL 3
REMARK VINA RESULT:    -3.009     21.761     22.393
REMARK INTER + INTRA:          -3.586
REMARK INTER:                  -3.496
REMARK INTRA:                  -0.090
REMARK UNBOUND:                -0.049
REMARK SMILES O=C([O-])CCC(=O)[O-]
REMARK SMILES IDX 4 1 2 2 1 3 3 4 5 5 6 6 7 7 8 8
REMARK H PARENT
REMARK Flexibility Score: inf
ROOT
ATOM      1  C   UNL     1      -2.339 -50.654   1.600  1.00  0.00     0.059 C 
ENDROOT
BRANCH   1   2
ATOM      2  C   UNL     1      -1.849 -51.382   0.389  1.00  0.00     0.042 C 
ATOM      3  O   UNL     1      -2.666 -51.963  -0.373  1.00  0.00    -0.550 OA
ATOM      4  O   UNL     1      -0.496 -51.379   0.075  1.00  0.00    -0.550 OA
ENDBRANCH   1   2
BRANCH   1   5
ATOM      5  C   UNL     1      -2.832 -51.644   2.658  1.00  0.00     0.059 C 
BRANCH   5   6
ATOM      6  C   UNL     1      -1.847 -51.745   3.779  1.00  0.00     0.042 C 
ATOM      7  O   UNL     1      -2.233 -52.071   4.933  1.00  0.00    -0.550 OA
ATOM      8  O   UNL     1      -0.511 -51.431   3.563  1.00  0.00    -0.550 OA
ENDBRANCH   5   6
ENDBRANCH   1   5
TORSDOF 3
ENDMDL
MODEL 4
REMARK VINA RESULT:    -2.984     22.422     23.092
REMARK INTER + INTRA:          -3.556
REMARK INTER:                  -3.478
REMARK INTRA:                  -0.077
REMARK UNBOUND:                -0.049
REMARK SMILES O=C([O-])CCC(=O)[O-]
REMARK SMILES IDX 4 1 2 2 1 3 3 4 5 5 6 6 7 7 8 8
REMARK H PARENT
REMARK Flexibility Score: inf
ROOT
ATOM      1  C   UNL     1      -2.499 -50.600   1.565  1.00  0.00     0.059 C 
ENDROOT
BRANCH   1   2
ATOM      2  C   UNL     1      -1.337 -51.537   1.658  1.00  0.00     0.042 C 
ATOM      3  O   UNL     1      -0.807 -51.994   0.610  1.00  0.00    -0.550 OA
ATOM      4  O   UNL     1      -0.808 -51.868   2.899  1.00  0.00    -0.550 OA
ENDBRANCH   1   2
BRANCH   1   5
ATOM      5  C   UNL     1      -3.220 -50.772   0.226  1.00  0.00     0.059 C 
BRANCH   5   6
ATOM      6  C   UNL     1      -4.638 -51.194   0.446  1.00  0.00     0.042 C 
ATOM      7  O   UNL     1      -5.490 -51.052  -0.472  1.00  0.00    -0.550 OA
ATOM      8  O   UNL     1      -5.032 -51.697   1.679  1.00  0.00    -0.550 OA
ENDBRANCH   5   6
ENDBRANCH   1   5
TORSDOF 3
ENDMDL
MODEL 5
REMARK VINA RESULT:    -2.971     22.529     23.342
REMARK INTER + INTRA:          -3.541
REMARK INTER:                  -3.482
REMARK INTRA:                  -0.059
REMARK UNBOUND:                -0.049
REMARK SMILES O=C([O-])CCC(=O)[O-]
REMARK SMILES IDX 4 1 2 2 1 3 3 4 5 5 6 6 7 7 8 8
REMARK H PARENT
REMARK Flexibility Score: inf
ROOT
ATOM      1  C   UNL     1      -3.363 -50.832   0.162  1.00  0.00     0.059 C 
ENDROOT
BRANCH   1   2
ATOM      2  C   UNL     1      -4.768 -51.269   0.429  1.00  0.00     0.042 C 
ATOM      3  O   UNL     1      -5.631 -51.219  -0.487  1.00  0.00    -0.550 OA
ATOM      4  O   UNL     1      -5.114 -51.778   1.674  1.00  0.00    -0.550 OA
ENDBRANCH   1   2
BRANCH   1   5
ATOM      5  C   UNL     1      -2.582 -50.711   1.473  1.00  0.00     0.059 C 
BRANCH   5   6
ATOM      6  C   UNL     1      -1.312 -51.498   1.400  1.00  0.00     0.042 C 
ATOM      7  O   UNL     1      -0.898 -52.125   2.411  1.00  0.00    -0.550 OA
ATOM      8  O   UNL     1      -0.561 -51.501   0.231  1.00  0.00    -0.550 OA
ENDBRANCH   5   6
ENDBRANCH   1   5
TORSDOF 3
ENDMDL
MODEL 6
REMARK VINA RESULT:    -2.917     21.933     23.005
REMARK INTER + INTRA:          -3.477
REMARK INTER:                  -3.441
REMARK INTRA:                  -0.036
REMARK UNBOUND:                -0.049
REMARK SMILES O=C([O-])CCC(=O)[O-]
REMARK SMILES IDX 4 1 2 2 1 3 3 4 5 5 6 6 7 7 8 8
REMARK H PARENT
REMARK Flexibility Score: inf
ROOT
ATOM      1  C   UNL     1      -3.239 -51.740   3.937  1.00  0.00     0.059 C 
ENDROOT
BRANCH   1   2
ATOM      2  C   UNL     1      -4.718 -51.832   4.143  1.00  0.00     0.042 C 
ATOM      3  O   UNL     1      -5.194 -51.861   5.309  1.00  0.00    -0.550 OA
ATOM      4  O   UNL     1      -5.574 -51.836   3.049  1.00  0.00    -0.550 OA
ENDBRANCH   1   2
BRANCH   1   5
ATOM      5  C   UNL     1      -2.924 -51.288   2.510  1.00  0.00     0.059 C 
BRANCH   5   6
ATOM      6  C   UNL     1      -1.445 -51.214   2.298  1.00  0.00     0.042 C 
ATOM      7  O   UNL     1      -0.975 -51.169   1.131  1.00  0.00    -0.550 OA
ATOM      8  O   UNL     1      -0.585 -51.245   3.387  1.00  0.00    -0.550 OA
ENDBRANCH   5   6
ENDBRANCH   1   5
TORSDOF 3
ENDMDL
MODEL 7
REMARK VINA RESULT:    -2.874     21.465     22.030
REMARK INTER + INTRA:          -3.426
REMARK INTER:                  -3.392
REMARK INTRA:                  -0.035
REMARK UNBOUND:                -0.049
REMARK SMILES O=C([O-])CCC(=O)[O-]
REMARK SMILES IDX 4 1 2 2 1 3 3 4 5 5 6 6 7 7 8 8
REMARK H PARENT
REMARK Flexibility Score: inf
ROOT
ATOM      1  C   UNL     1      -3.006 -51.346   6.131  1.00  0.00     0.059 C 
ENDROOT
BRANCH   1   2
ATOM      2  C   UNL     1      -2.944 -51.041   7.594  1.00  0.00     0.042 C 
ATOM      3  O   UNL     1      -3.924 -50.495   8.169  1.00  0.00    -0.550 OA
ATOM      4  O   UNL     1      -1.825 -51.402   8.333  1.00  0.00    -0.550 OA
ENDBRANCH   1   2
BRANCH   1   5
ATOM      5  C   UNL     1      -1.625 -51.749   5.609  1.00  0.00     0.059 C 
BRANCH   5   6
ATOM      6  C   UNL     1      -1.613 -51.758   4.113  1.00  0.00     0.042 C 
ATOM      7  O   UNL     1      -0.536 -51.567   3.488  1.00  0.00    -0.550 OA
ATOM      8  O   UNL     1      -2.798 -51.928   3.409  1.00  0.00    -0.550 OA
ENDBRANCH   5   6
ENDBRANCH   1   5
TORSDOF 3
ENDMDL
MODEL 8
REMARK VINA RESULT:    -2.855     21.337     21.723
REMARK INTER + INTRA:          -3.405
REMARK INTER:                  -3.365
REMARK INTRA:                  -0.040
REMARK UNBOUND:                -0.049
REMARK SMILES O=C([O-])CCC(=O)[O-]
REMARK SMILES IDX 4 1 2 2 1 3 3 4 5 5 6 6 7 7 8 8
REMARK H PARENT
REMARK Flexibility Score: inf
ROOT
ATOM      1  C   UNL     1      -2.478 -52.023   5.078  1.00  0.00     0.059 C 
ENDROOT
BRANCH   1   2
ATOM      2  C   UNL     1      -1.927 -51.756   3.713  1.00  0.00     0.042 C 
ATOM      3  O   UNL     1      -2.706 -51.630   2.731  1.00  0.00    -0.550 OA
ATOM      4  O   UNL     1      -0.559 -51.598   3.533  1.00  0.00    -0.550 OA
ENDBRANCH   1   2
BRANCH   1   5
ATOM      5  C   UNL     1      -1.510 -51.523   6.153  1.00  0.00     0.059 C 
BRANCH   5   6
ATOM      6  C   UNL     1      -2.254 -51.154   7.397  1.00  0.00     0.042 C 
ATOM      7  O   UNL     1      -1.869 -51.585   8.516  1.00  0.00    -0.550 OA
ATOM      8  O   UNL     1      -3.401 -50.375   7.316  1.00  0.00    -0.550 OA
ENDBRANCH   5   6
ENDBRANCH   1   5
TORSDOF 3
ENDMDL
MODEL 9
REMARK VINA RESULT:    -1.425     22.068     22.604
REMARK INTER + INTRA:          -1.723
REMARK INTER:                  -1.601
REMARK INTRA:                  -0.122
REMARK UNBOUND:                -0.049
REMARK SMILES O=C([O-])CCC(=O)[O-]
REMARK SMILES IDX 4 1 2 2 1 3 3 4 5 5 6 6 7 7 8 8
REMARK H PARENT
REMARK Flexibility Score: inf
ROOT
ATOM      1  C   UNL     1      -2.934 -51.029   2.225  1.00  0.00     0.059 C 
ENDROOT
BRANCH   1   2
ATOM      2  C   UNL     1      -1.501 -51.435   2.090  1.00  0.00     0.042 C 
ATOM      3  O   UNL     1      -0.873 -51.880   3.088  1.00  0.00    -0.550 OA
ATOM      4  O   UNL     1      -0.873 -51.370   0.854  1.00  0.00    -0.550 OA
ENDBRANCH   1   2
BRANCH   1   5
ATOM      5  C   UNL     1      -3.738 -52.125   2.929  1.00  0.00     0.059 C 
BRANCH   5   6
ATOM      6  C   UNL     1      -4.278 -51.624   4.231  1.00  0.00     0.042 C 
ATOM      7  O   UNL     1      -5.508 -51.384   4.355  1.00  0.00    -0.550 OA
ATOM      8  O   UNL     1      -3.417 -51.375   5.292  1.00  0.00    -0.550 OA
ENDBRANCH   5   6
ENDBRANCH   1   5
TORSDOF 3
ENDMDL
