MODEL 1
REMARK VINA RESULT:    -5.353      0.000      0.000
REMARK INTER + INTRA:          -6.423
REMARK INTER:                  -6.292
REMARK INTRA:                  -0.132
REMARK UNBOUND:                -0.132
REMARK SMILES O=C([O-])C=Cc1ccc(O)c(O)c1
REMARK SMILES IDX 6 1 13 2 7 3 11 4 8 5 9 6 5 7 4 8 2 9 1 10 3 11 12 12 10 14
REMARK H PARENT 12 13 10 15
REMARK Flexibility Score: inf
ROOT
ATOM      1  C   UNL     1      17.315   9.212 -20.791  1.00  0.00    -0.022 A 
ATOM      2  C   UNL     1      17.034   9.964 -21.945  1.00  0.00     0.058 A 
ATOM      3  C   UNL     1      18.532   9.435 -20.116  1.00  0.00     0.012 A 
ATOM      4  C   UNL     1      17.956  10.901 -22.434  1.00  0.00     0.157 A 
ATOM      5  C   UNL     1      19.450  10.370 -20.602  1.00  0.00     0.051 A 
ATOM      6  C   UNL     1      19.170  11.102 -21.758  1.00  0.00     0.157 A 
ENDROOT
BRANCH   1   7
ATOM      7  C   UNL     1      16.302   8.241 -20.311  1.00  0.00     0.010 C 
ATOM      8  C   UNL     1      15.305   7.767 -21.073  1.00  0.00     0.025 C 
BRANCH   8   9
ATOM      9  C   UNL     1      14.310   6.810 -20.559  1.00  0.00     0.064 C 
ATOM     10  O   UNL     1      14.563   5.578 -20.493  1.00  0.00    -0.545 OA
ATOM     11  O   UNL     1      13.071   7.275 -20.139  1.00  0.00    -0.545 OA
ENDBRANCH   8   9
ENDBRANCH   1   7
BRANCH   4  12
ATOM     12  O   UNL     1      17.667  11.632 -23.586  1.00  0.00    -0.504 OA
ATOM     13  H   UNL     1      16.742  12.006 -23.759  1.00  0.00     0.293 HD
ENDBRANCH   4  12
BRANCH   6  14
ATOM     14  O   UNL     1      20.108  12.026 -22.220  1.00  0.00    -0.504 OA
ATOM     15  H   UNL     1      19.836  12.925 -22.598  1.00  0.00     0.293 HD
ENDBRANCH   6  14
TORSDOF 4
ENDMDL
MODEL 2
REMARK VINA RESULT:    -5.186      1.285      2.088
REMARK INTER + INTRA:          -6.226
REMARK INTER:                  -6.097
REMARK INTRA:                  -0.129
REMARK UNBOUND:                -0.132
REMARK SMILES O=C([O-])C=Cc1ccc(O)c(O)c1
REMARK SMILES IDX 6 1 13 2 7 3 11 4 8 5 9 6 5 7 4 8 2 9 1 10 3 11 12 12 10 14
REMARK H PARENT 12 13 10 15
REMARK Flexibility Score: inf
ROOT
ATOM      1  C   UNL     1      16.893   9.292 -21.249  1.00  0.00    -0.022 A 
ATOM      2  C   UNL     1      17.961   8.967 -20.395  1.00  0.00     0.058 A 
ATOM      3  C   UNL     1      16.938  10.507 -21.960  1.00  0.00     0.012 A 
ATOM      4  C   UNL     1      19.041   9.846 -20.230  1.00  0.00     0.157 A 
ATOM      5  C   UNL     1      18.015  11.384 -21.796  1.00  0.00     0.051 A 
ATOM      6  C   UNL     1      19.065  11.061 -20.934  1.00  0.00     0.157 A 
ENDROOT
BRANCH   1   7
ATOM      7  C   UNL     1      15.780   8.322 -21.394  1.00  0.00     0.010 C 
ATOM      8  C   UNL     1      15.372   7.504 -20.413  1.00  0.00     0.025 C 
BRANCH   8   9
ATOM      9  C   UNL     1      14.269   6.546 -20.598  1.00  0.00     0.064 C 
ATOM     10  O   UNL     1      14.493   5.332 -20.849  1.00  0.00    -0.545 OA
ATOM     11  O   UNL     1      12.956   6.989 -20.494  1.00  0.00    -0.545 OA
ENDBRANCH   8   9
ENDBRANCH   1   7
BRANCH   4  12
ATOM     12  O   UNL     1      20.089   9.515 -19.372  1.00  0.00    -0.504 OA
ATOM     13  H   UNL     1      20.674  10.226 -18.950  1.00  0.00     0.293 HD
ENDBRANCH   4  12
BRANCH   6  14
ATOM     14  O   UNL     1      20.125  11.956 -20.792  1.00  0.00    -0.504 OA
ATOM     15  H   UNL     1      20.578  12.386 -21.589  1.00  0.00     0.293 HD
ENDBRANCH   6  14
TORSDOF 4
ENDMDL
MODEL 3
REMARK VINA RESULT:    -5.141      2.346      2.745
REMARK INTER + INTRA:          -6.174
REMARK INTER:                  -6.045
REMARK INTRA:                  -0.129
REMARK UNBOUND:                -0.132
REMARK SMILES O=C([O-])C=Cc1ccc(O)c(O)c1
REMARK SMILES IDX 6 1 13 2 7 3 11 4 8 5 9 6 5 7 4 8 2 9 1 10 3 11 12 12 10 14
REMARK H PARENT 12 13 10 15
REMARK Flexibility Score: inf
ROOT
ATOM      1  C   UNL     1      17.719  10.977 -21.182  1.00  0.00    -0.022 A 
ATOM      2  C   UNL     1      17.072  11.994 -20.461  1.00  0.00     0.058 A 
ATOM      3  C   UNL     1      19.111  11.066 -21.383  1.00  0.00     0.012 A 
ATOM      4  C   UNL     1      17.790  13.094 -19.970  1.00  0.00     0.157 A 
ATOM      5  C   UNL     1      19.827  12.162 -20.894  1.00  0.00     0.051 A 
ATOM      6  C   UNL     1      19.175  13.177 -20.190  1.00  0.00     0.157 A 
ENDROOT
BRANCH   1   7
ATOM      7  C   UNL     1      16.913   9.831 -21.672  1.00  0.00     0.010 C 
ATOM      8  C   UNL     1      16.594   8.769 -20.918  1.00  0.00     0.025 C 
BRANCH   8   9
ATOM      9  C   UNL     1      15.801   7.644 -21.442  1.00  0.00     0.064 C 
ATOM     10  O   UNL     1      15.582   7.518 -22.676  1.00  0.00    -0.545 OA
ATOM     11  O   UNL     1      15.283   6.705 -20.559  1.00  0.00    -0.545 OA
ENDBRANCH   8   9
ENDBRANCH   1   7
BRANCH   4  12
ATOM     12  O   UNL     1      17.134  14.102 -19.264  1.00  0.00    -0.504 OA
ATOM     13  H   UNL     1      17.370  15.079 -19.390  1.00  0.00     0.293 HD
ENDBRANCH   4  12
BRANCH   6  14
ATOM     14  O   UNL     1      19.918  14.258 -19.715  1.00  0.00    -0.504 OA
ATOM     15  H   UNL     1      19.484  15.134 -19.450  1.00  0.00     0.293 HD
ENDBRANCH   6  14
TORSDOF 4
ENDMDL
MODEL 4
REMARK VINA RESULT:    -5.011     15.787     16.969
REMARK INTER + INTRA:          -6.021
REMARK INTER:                  -5.890
REMARK INTRA:                  -0.131
REMARK UNBOUND:                -0.132
REMARK SMILES O=C([O-])C=Cc1ccc(O)c(O)c1
REMARK SMILES IDX 6 1 13 2 7 3 11 4 8 5 9 6 5 7 4 8 2 9 1 10 3 11 12 12 10 14
REMARK H PARENT 12 13 10 15
REMARK Flexibility Score: inf
ROOT
ATOM      1  C   UNL     1       7.555  -2.404 -27.832  1.00  0.00    -0.022 A 
ATOM      2  C   UNL     1       7.381  -2.427 -26.438  1.00  0.00     0.058 A 
ATOM      3  C   UNL     1       8.716  -2.985 -28.381  1.00  0.00     0.012 A 
ATOM      4  C   UNL     1       8.354  -2.993 -25.602  1.00  0.00     0.157 A 
ATOM      5  C   UNL     1       9.686  -3.550 -27.548  1.00  0.00     0.051 A 
ATOM      6  C   UNL     1       9.513  -3.555 -26.162  1.00  0.00     0.157 A 
ENDROOT
BRANCH   1   7
ATOM      7  C   UNL     1       6.490  -1.802 -28.671  1.00  0.00     0.010 C 
ATOM      8  C   UNL     1       5.194  -1.784 -28.330  1.00  0.00     0.025 C 
BRANCH   8   9
ATOM      9  C   UNL     1       4.162  -1.185 -29.195  1.00  0.00     0.064 C 
ATOM     10  O   UNL     1       3.295  -0.399 -28.728  1.00  0.00    -0.545 OA
ATOM     11  O   UNL     1       4.144  -1.494 -30.549  1.00  0.00    -0.545 OA
ENDBRANCH   8   9
ENDBRANCH   1   7
BRANCH   4  12
ATOM     12  O   UNL     1       8.173  -3.000 -24.219  1.00  0.00    -0.504 OA
ATOM     13  H   UNL     1       8.896  -3.329 -23.591  1.00  0.00     0.293 HD
ENDBRANCH   4  12
BRANCH   6  14
ATOM     14  O   UNL     1      10.500  -4.125 -25.358  1.00  0.00    -0.504 OA
ATOM     15  H   UNL     1      10.585  -5.127 -25.238  1.00  0.00     0.293 HD
ENDBRANCH   6  14
TORSDOF 4
ENDMDL
MODEL 5
REMARK VINA RESULT:    -4.968     16.199     18.091
REMARK INTER + INTRA:          -5.971
REMARK INTER:                  -5.838
REMARK INTRA:                  -0.132
REMARK UNBOUND:                -0.132
REMARK SMILES O=C([O-])C=Cc1ccc(O)c(O)c1
REMARK SMILES IDX 6 1 13 2 7 3 11 4 8 5 9 6 5 7 4 8 2 9 1 10 3 11 12 12 10 14
REMARK H PARENT 12 13 10 15
REMARK Flexibility Score: inf
ROOT
ATOM      1  C   UNL     1       6.388  -2.017 -28.241  1.00  0.00    -0.022 A 
ATOM      2  C   UNL     1       5.522  -3.104 -28.445  1.00  0.00     0.058 A 
ATOM      3  C   UNL     1       5.871  -0.709 -28.339  1.00  0.00     0.012 A 
ATOM      4  C   UNL     1       4.173  -2.897 -28.767  1.00  0.00     0.157 A 
ATOM      5  C   UNL     1       4.526  -0.503 -28.660  1.00  0.00     0.051 A 
ATOM      6  C   UNL     1       3.675  -1.589 -28.876  1.00  0.00     0.157 A 
ENDROOT
BRANCH   1   7
ATOM      7  C   UNL     1       7.804  -2.291 -27.893  1.00  0.00     0.010 C 
ATOM      8  C   UNL     1       8.288  -3.519 -27.656  1.00  0.00     0.025 C 
BRANCH   8   9
ATOM      9  C   UNL     1       9.699  -3.752 -27.303  1.00  0.00     0.064 C 
ATOM     10  O   UNL     1      10.090  -3.697 -26.106  1.00  0.00    -0.545 OA
ATOM     11  O   UNL     1      10.615  -4.036 -28.307  1.00  0.00    -0.545 OA
ENDBRANCH   8   9
ENDBRANCH   1   7
BRANCH   4  12
ATOM     12  O   UNL     1       3.327  -3.986 -28.977  1.00  0.00    -0.504 OA
ATOM     13  H   UNL     1       2.329  -3.920 -28.822  1.00  0.00     0.293 HD
ENDBRANCH   4  12
BRANCH   6  14
ATOM     14  O   UNL     1       2.338  -1.350 -29.196  1.00  0.00    -0.504 OA
ATOM     15  H   UNL     1       2.068  -0.769 -29.981  1.00  0.00     0.293 HD
ENDBRANCH   6  14
TORSDOF 4
ENDMDL
MODEL 6
REMARK VINA RESULT:    -4.879      2.404      5.707
REMARK INTER + INTRA:          -5.866
REMARK INTER:                  -5.740
REMARK INTRA:                  -0.127
REMARK UNBOUND:                -0.132
REMARK SMILES O=C([O-])C=Cc1ccc(O)c(O)c1
REMARK SMILES IDX 6 1 13 2 7 3 11 4 8 5 9 6 5 7 4 8 2 9 1 10 3 11 12 12 10 14
REMARK H PARENT 12 13 10 15
REMARK Flexibility Score: inf
ROOT
ATOM      1  C   UNL     1      17.493  10.408 -20.644  1.00  0.00    -0.022 A 
ATOM      2  C   UNL     1      16.718  10.200 -21.797  1.00  0.00     0.058 A 
ATOM      3  C   UNL     1      17.531   9.400 -19.660  1.00  0.00     0.012 A 
ATOM      4  C   UNL     1      15.972   9.024 -21.958  1.00  0.00     0.157 A 
ATOM      5  C   UNL     1      16.789   8.226 -19.821  1.00  0.00     0.051 A 
ATOM      6  C   UNL     1      16.008   8.033 -20.963  1.00  0.00     0.157 A 
ENDROOT
BRANCH   1   7
ATOM      7  C   UNL     1      18.270  11.667 -20.528  1.00  0.00     0.010 C 
ATOM      8  C   UNL     1      17.813  12.771 -19.918  1.00  0.00     0.025 C 
BRANCH   8   9
ATOM      9  C   UNL     1      18.610  14.006 -19.832  1.00  0.00     0.064 C 
ATOM     10  O   UNL     1      18.109  15.127 -20.117  1.00  0.00    -0.545 OA
ATOM     11  O   UNL     1      19.937  13.935 -19.430  1.00  0.00    -0.545 OA
ENDBRANCH   8   9
ENDBRANCH   1   7
BRANCH   4  12
ATOM     12  O   UNL     1      15.199   8.835 -23.103  1.00  0.00    -0.504 OA
ATOM     13  H   UNL     1      15.363   9.369 -23.948  1.00  0.00     0.293 HD
ENDBRANCH   4  12
BRANCH   6  14
ATOM     14  O   UNL     1      15.277   6.853 -21.094  1.00  0.00    -0.504 OA
ATOM     15  H   UNL     1      15.097   6.242 -20.306  1.00  0.00     0.293 HD
ENDBRANCH   6  14
TORSDOF 4
ENDMDL
MODEL 7
REMARK VINA RESULT:    -4.872      3.102      3.713
REMARK INTER + INTRA:          -5.858
REMARK INTER:                  -5.734
REMARK INTRA:                  -0.124
REMARK UNBOUND:                -0.132
REMARK SMILES O=C([O-])C=Cc1ccc(O)c(O)c1
REMARK SMILES IDX 6 1 13 2 7 3 11 4 8 5 9 6 5 7 4 8 2 9 1 10 3 11 12 12 10 14
REMARK H PARENT 12 13 10 15
REMARK Flexibility Score: inf
ROOT
ATOM      1  C   UNL     1      18.747  10.957 -21.825  1.00  0.00    -0.022 A 
ATOM      2  C   UNL     1      17.688  10.837 -22.740  1.00  0.00     0.058 A 
ATOM      3  C   UNL     1      19.967  11.506 -22.266  1.00  0.00     0.012 A 
ATOM      4  C   UNL     1      17.846  11.231 -24.077  1.00  0.00     0.157 A 
ATOM      5  C   UNL     1      20.125  11.899 -23.598  1.00  0.00     0.051 A 
ATOM      6  C   UNL     1      19.072  11.763 -24.506  1.00  0.00     0.157 A 
ENDROOT
BRANCH   1   7
ATOM      7  C   UNL     1      18.523  10.533 -20.421  1.00  0.00     0.010 C 
ATOM      8  C   UNL     1      18.610   9.262 -20.003  1.00  0.00     0.025 C 
BRANCH   8   9
ATOM      9  C   UNL     1      18.370   8.878 -18.601  1.00  0.00     0.064 C 
ATOM     10  O   UNL     1      17.426   9.384 -17.938  1.00  0.00    -0.545 OA
ATOM     11  O   UNL     1      19.201   7.942 -17.999  1.00  0.00    -0.545 OA
ENDBRANCH   8   9
ENDBRANCH   1   7
BRANCH   4  12
ATOM     12  O   UNL     1      16.789  11.096 -24.977  1.00  0.00    -0.504 OA
ATOM     13  H   UNL     1      16.434  10.187 -25.246  1.00  0.00     0.293 HD
ENDBRANCH   4  12
BRANCH   6  14
ATOM     14  O   UNL     1      19.262  12.164 -25.829  1.00  0.00    -0.504 OA
ATOM     15  H   UNL     1      18.890  11.636 -26.610  1.00  0.00     0.293 HD
ENDBRANCH   6  14
TORSDOF 4
ENDMDL
MODEL 8
REMARK VINA RESULT:    -4.815     15.813     16.915
REMARK INTER + INTRA:          -5.791
REMARK INTER:                  -5.668
REMARK INTRA:                  -0.123
REMARK UNBOUND:                -0.132
REMARK SMILES O=C([O-])C=Cc1ccc(O)c(O)c1
REMARK SMILES IDX 6 1 13 2 7 3 11 4 8 5 9 6 5 7 4 8 2 9 1 10 3 11 12 12 10 14
REMARK H PARENT 12 13 10 15
REMARK Flexibility Score: inf
ROOT
ATOM      1  C   UNL     1       7.297  -3.004 -27.206  1.00  0.00    -0.022 A 
ATOM      2  C   UNL     1       8.377  -3.347 -28.036  1.00  0.00     0.058 A 
ATOM      3  C   UNL     1       7.482  -3.020 -25.809  1.00  0.00     0.012 A 
ATOM      4  C   UNL     1       9.611  -3.726 -27.488  1.00  0.00     0.157 A 
ATOM      5  C   UNL     1       8.712  -3.397 -25.263  1.00  0.00     0.051 A 
ATOM      6  C   UNL     1       9.777  -3.752 -26.094  1.00  0.00     0.157 A 
ENDROOT
BRANCH   1   7
ATOM      7  C   UNL     1       6.016  -2.602 -27.837  1.00  0.00     0.010 C 
ATOM      8  C   UNL     1       5.771  -1.370 -28.308  1.00  0.00     0.025 C 
BRANCH   8   9
ATOM      9  C   UNL     1       4.482  -1.005 -28.919  1.00  0.00     0.064 C 
ATOM     10  O   UNL     1       4.179  -1.386 -30.081  1.00  0.00    -0.545 OA
ATOM     11  O   UNL     1       3.585  -0.223 -28.203  1.00  0.00    -0.545 OA
ENDBRANCH   8   9
ENDBRANCH   1   7
BRANCH   4  12
ATOM     12  O   UNL     1      10.672  -4.074 -28.324  1.00  0.00    -0.504 OA
ATOM     13  H   UNL     1      10.525  -4.308 -29.299  1.00  0.00     0.293 HD
ENDBRANCH   4  12
BRANCH   6  14
ATOM     14  O   UNL     1      10.991  -4.124 -25.519  1.00  0.00    -0.504 OA
ATOM     15  H   UNL     1      11.757  -3.471 -25.407  1.00  0.00     0.293 HD
ENDBRANCH   6  14
TORSDOF 4
ENDMDL
MODEL 9
REMARK VINA RESULT:    -4.745     15.219     16.734
REMARK INTER + INTRA:          -5.709
REMARK INTER:                  -5.581
REMARK INTRA:                  -0.128
REMARK UNBOUND:                -0.132
REMARK SMILES O=C([O-])C=Cc1ccc(O)c(O)c1
REMARK SMILES IDX 6 1 13 2 7 3 11 4 8 5 9 6 5 7 4 8 2 9 1 10 3 11 12 12 10 14
REMARK H PARENT 12 13 10 15
REMARK Flexibility Score: inf
ROOT
ATOM      1  C   UNL     1       1.161   7.905 -16.430  1.00  0.00    -0.022 A 
ATOM      2  C   UNL     1       2.481   8.062 -15.976  1.00  0.00     0.058 A 
ATOM      3  C   UNL     1       0.290   9.012 -16.384  1.00  0.00     0.012 A 
ATOM      4  C   UNL     1       2.922   9.290 -15.460  1.00  0.00     0.157 A 
ATOM      5  C   UNL     1       0.729  10.236 -15.870  1.00  0.00     0.051 A 
ATOM      6  C   UNL     1       2.039  10.380 -15.406  1.00  0.00     0.157 A 
ENDROOT
BRANCH   1   7
ATOM      7  C   UNL     1       0.749   6.588 -16.975  1.00  0.00     0.010 C 
ATOM      8  C   UNL     1       0.548   5.499 -16.219  1.00  0.00     0.025 C 
BRANCH   8   9
ATOM      9  C   UNL     1       0.150   4.204 -16.797  1.00  0.00     0.064 C 
ATOM     10  O   UNL     1       0.051   4.049 -18.044  1.00  0.00    -0.545 OA
ATOM     11  O   UNL     1      -0.123   3.136 -15.953  1.00  0.00    -0.545 OA
ENDBRANCH   8   9
ENDBRANCH   1   7
BRANCH   4  12
ATOM     12  O   UNL     1       4.232   9.429 -15.003  1.00  0.00    -0.504 OA
ATOM     13  H   UNL     1       4.965   8.792 -15.292  1.00  0.00     0.293 HD
ENDBRANCH   4  12
BRANCH   6  14
ATOM     14  O   UNL     1       2.446  11.614 -14.898  1.00  0.00    -0.504 OA
ATOM     15  H   UNL     1       2.982  12.273 -15.449  1.00  0.00     0.293 HD
ENDBRANCH   6  14
TORSDOF 4
ENDMDL
