MODEL 1
REMARK VINA RESULT:    -3.715      0.000      0.000
REMARK INTER + INTRA:          -9.180
REMARK INTER:                  -8.059
REMARK INTRA:                  -1.122
REMARK UNBOUND:                -1.122
REMARK SMILES CCCCCCCCCCCCCCCCCCCCCC(=O)[O-]
REMARK SMILES IDX 12 1 11 2 10 3 9 4 8 5 7 6 6 7 5 8 4 9 3 10 2 11 1 12 13 13
REMARK SMILES IDX 14 14 15 15 16 16 17 17 18 18 19 19 20 20 21 21 22 22 23 23
REMARK SMILES IDX 24 24
REMARK H PARENT
REMARK Flexibility Score: inf
ROOT
ATOM      1  C   UNL     1     -11.307  -8.455  -7.562  1.00  0.00     0.000 C 
ENDROOT
BRANCH   1   2
ATOM      2  C   UNL     1     -10.126  -9.240  -6.976  1.00  0.00     0.000 C 
BRANCH   2   3
ATOM      3  C   UNL     1      -9.171  -8.338  -6.175  1.00  0.00     0.000 C 
BRANCH   3   4
ATOM      4  C   UNL     1      -7.696  -8.720  -6.399  1.00  0.00    -0.000 C 
BRANCH   4   5
ATOM      5  C   UNL     1      -7.503 -10.215  -6.687  1.00  0.00    -0.000 C 
BRANCH   5   6
ATOM      6  C   UNL     1      -6.022 -10.606  -6.846  1.00  0.00    -0.000 C 
BRANCH   6   7
ATOM      7  C   UNL     1      -5.473 -10.229  -8.232  1.00  0.00    -0.000 C 
BRANCH   7   8
ATOM      8  C   UNL     1      -4.604  -8.958  -8.185  1.00  0.00    -0.000 C 
BRANCH   8   9
ATOM      9  C   UNL     1      -3.905  -8.776  -6.825  1.00  0.00    -0.000 C 
BRANCH   9  10
ATOM     10  C   UNL     1      -4.329  -7.502  -6.067  1.00  0.00    -0.000 C 
BRANCH  10  11
ATOM     11  C   UNL     1      -3.285  -6.368  -6.095  1.00  0.00    -0.003 C 
ATOM     12  C   UNL     1      -2.044  -6.679  -5.257  1.00  0.00     0.004 C 
ENDBRANCH  10  11
ENDBRANCH   9  10
ENDBRANCH   8   9
ENDBRANCH   7   8
ENDBRANCH   6   7
ENDBRANCH   5   6
ENDBRANCH   4   5
ENDBRANCH   3   4
ENDBRANCH   2   3
ENDBRANCH   1   2
BRANCH   1  13
ATOM     13  C   UNL     1     -12.371  -8.175  -6.493  1.00  0.00     0.000 C 
BRANCH  13  14
ATOM     14  C   UNL     1     -12.460  -9.337  -5.493  1.00  0.00     0.000 C 
BRANCH  14  15
ATOM     15  C   UNL     1     -13.357 -10.482  -5.989  1.00  0.00     0.000 C 
BRANCH  15  16
ATOM     16  C   UNL     1     -14.447 -10.856  -4.969  1.00  0.00     0.000 C 
BRANCH  16  17
ATOM     17  C   UNL     1     -15.560  -9.799  -4.875  1.00  0.00     0.000 C 
BRANCH  17  18
ATOM     18  C   UNL     1     -16.882 -10.269  -5.501  1.00  0.00     0.000 C 
BRANCH  18  19
ATOM     19  C   UNL     1     -16.712 -10.532  -7.005  1.00  0.00     0.000 C 
BRANCH  19  20
ATOM     20  C   UNL     1     -17.015  -9.293  -7.863  1.00  0.00     0.006 C 
BRANCH  20  21
ATOM     21  C   UNL     1     -16.574  -7.985  -7.193  1.00  0.00     0.053 C 
BRANCH  21  22
ATOM     22  C   UNL     1     -16.087  -7.013  -8.220  1.00  0.00     0.041 C 
ATOM     23  O   UNL     1     -14.895  -7.059  -8.623  1.00  0.00    -0.550 OA
ATOM     24  O   UNL     1     -16.933  -6.017  -8.690  1.00  0.00    -0.550 OA
ENDBRANCH  21  22
ENDBRANCH  20  21
ENDBRANCH  19  20
ENDBRANCH  18  19
ENDBRANCH  17  18
ENDBRANCH  16  17
ENDBRANCH  15  16
ENDBRANCH  14  15
ENDBRANCH  13  14
ENDBRANCH   1  13
TORSDOF 20
ENDMDL
MODEL 2
REMARK VINA RESULT:    -3.513      3.576     10.612
REMARK INTER + INTRA:          -8.742
REMARK INTER:                  -7.331
REMARK INTRA:                  -1.410
REMARK UNBOUND:                -1.122
REMARK SMILES CCCCCCCCCCCCCCCCCCCCCC(=O)[O-]
REMARK SMILES IDX 12 1 11 2 10 3 9 4 8 5 7 6 6 7 5 8 4 9 3 10 2 11 1 12 13 13
REMARK SMILES IDX 14 14 15 15 16 16 17 17 18 18 19 19 20 20 21 21 22 22 23 23
REMARK SMILES IDX 24 24
REMARK H PARENT
REMARK Flexibility Score: inf
ROOT
ATOM      1  C   UNL     1      -8.019  -7.756  -5.773  1.00  0.00     0.000 C 
ENDROOT
BRANCH   1   2
ATOM      2  C   UNL     1      -9.544  -7.714  -5.604  1.00  0.00     0.000 C 
BRANCH   2   3
ATOM      3  C   UNL     1     -10.276  -8.355  -6.794  1.00  0.00     0.000 C 
BRANCH   3   4
ATOM      4  C   UNL     1     -10.948  -9.686  -6.409  1.00  0.00    -0.000 C 
BRANCH   4   5
ATOM      5  C   UNL     1     -12.458  -9.546  -6.170  1.00  0.00    -0.000 C 
BRANCH   5   6
ATOM      6  C   UNL     1     -12.893  -8.090  -5.926  1.00  0.00    -0.000 C 
BRANCH   6   7
ATOM      7  C   UNL     1     -14.366  -7.860  -6.299  1.00  0.00    -0.000 C 
BRANCH   7   8
ATOM      8  C   UNL     1     -14.519  -7.217  -7.690  1.00  0.00    -0.000 C 
BRANCH   8   9
ATOM      9  C   UNL     1     -15.977  -7.227  -8.185  1.00  0.00    -0.000 C 
BRANCH   9  10
ATOM     10  C   UNL     1     -16.884  -8.230  -7.443  1.00  0.00    -0.000 C 
BRANCH  10  11
ATOM     11  C   UNL     1     -17.034  -9.593  -8.147  1.00  0.00    -0.003 C 
ATOM     12  C   UNL     1     -16.831 -10.778  -7.202  1.00  0.00     0.004 C 
ENDBRANCH  10  11
ENDBRANCH   9  10
ENDBRANCH   8   9
ENDBRANCH   7   8
ENDBRANCH   6   7
ENDBRANCH   5   6
ENDBRANCH   4   5
ENDBRANCH   3   4
ENDBRANCH   2   3
ENDBRANCH   1   2
BRANCH   1  13
ATOM     13  C   UNL     1      -7.619  -8.607  -6.984  1.00  0.00     0.000 C 
BRANCH  13  14
ATOM     14  C   UNL     1      -6.922  -9.901  -6.537  1.00  0.00     0.000 C 
BRANCH  14  15
ATOM     15  C   UNL     1      -6.379 -10.723  -7.717  1.00  0.00     0.000 C 
BRANCH  15  16
ATOM     16  C   UNL     1      -4.851 -10.611  -7.855  1.00  0.00     0.000 C 
BRANCH  16  17
ATOM     17  C   UNL     1      -4.117 -10.826  -6.522  1.00  0.00     0.000 C 
BRANCH  17  18
ATOM     18  C   UNL     1      -2.590 -10.872  -6.683  1.00  0.00     0.000 C 
BRANCH  18  19
ATOM     19  C   UNL     1      -1.899 -10.036  -5.596  1.00  0.00     0.000 C 
BRANCH  19  20
ATOM     20  C   UNL     1      -2.785  -8.896  -5.070  1.00  0.00     0.006 C 
BRANCH  20  21
ATOM     21  C   UNL     1      -2.317  -7.513  -5.543  1.00  0.00     0.053 C 
BRANCH  21  22
ATOM     22  C   UNL     1      -3.474  -6.725  -6.071  1.00  0.00     0.041 C 
ATOM     23  O   UNL     1      -3.283  -5.799  -6.902  1.00  0.00    -0.550 OA
ATOM     24  O   UNL     1      -4.756  -6.975  -5.602  1.00  0.00    -0.550 OA
ENDBRANCH  21  22
ENDBRANCH  20  21
ENDBRANCH  19  20
ENDBRANCH  18  19
ENDBRANCH  17  18
ENDBRANCH  16  17
ENDBRANCH  15  16
ENDBRANCH  14  15
ENDBRANCH  13  14
ENDBRANCH   1  13
TORSDOF 20
ENDMDL
MODEL 3
REMARK VINA RESULT:    -2.973      1.367      2.105
REMARK INTER + INTRA:          -7.570
REMARK INTER:                  -5.639
REMARK INTRA:                  -1.931
REMARK UNBOUND:                -1.122
REMARK SMILES CCCCCCCCCCCCCCCCCCCCCC(=O)[O-]
REMARK SMILES IDX 12 1 11 2 10 3 9 4 8 5 7 6 6 7 5 8 4 9 3 10 2 11 1 12 13 13
REMARK SMILES IDX 14 14 15 15 16 16 17 17 18 18 19 19 20 20 21 21 22 22 23 23
REMARK SMILES IDX 24 24
REMARK H PARENT
REMARK Flexibility Score: inf
ROOT
ATOM      1  C   UNL     1     -12.630  -8.162  -6.479  1.00  0.00     0.000 C 
ENDROOT
BRANCH   1   2
ATOM      2  C   UNL     1     -11.283  -8.712  -6.967  1.00  0.00     0.000 C 
BRANCH   2   3
ATOM      3  C   UNL     1     -10.102  -8.168  -6.145  1.00  0.00     0.000 C 
BRANCH   3   4
ATOM      4  C   UNL     1      -8.791  -8.912  -6.459  1.00  0.00    -0.000 C 
BRANCH   4   5
ATOM      5  C   UNL     1      -8.920 -10.435  -6.318  1.00  0.00    -0.000 C 
BRANCH   5   6
ATOM      6  C   UNL     1      -7.974 -11.019  -5.253  1.00  0.00    -0.000 C 
BRANCH   6   7
ATOM      7  C   UNL     1      -6.528 -11.125  -5.764  1.00  0.00    -0.000 C 
BRANCH   7   8
ATOM      8  C   UNL     1      -5.638  -9.988  -5.226  1.00  0.00    -0.000 C 
BRANCH   8   9
ATOM      9  C   UNL     1      -4.851  -9.281  -6.344  1.00  0.00    -0.000 C 
BRANCH   9  10
ATOM     10  C   UNL     1      -3.429  -8.848  -5.933  1.00  0.00    -0.000 C 
BRANCH  10  11
ATOM     11  C   UNL     1      -2.354  -9.938  -6.119  1.00  0.00    -0.003 C 
ATOM     12  C   UNL     1      -2.818 -11.087  -7.015  1.00  0.00     0.004 C 
ENDBRANCH  10  11
ENDBRANCH   9  10
ENDBRANCH   8   9
ENDBRANCH   7   8
ENDBRANCH   6   7
ENDBRANCH   5   6
ENDBRANCH   4   5
ENDBRANCH   3   4
ENDBRANCH   2   3
ENDBRANCH   1   2
BRANCH   1  13
ATOM     13  C   UNL     1     -12.960  -8.676  -5.072  1.00  0.00     0.000 C 
BRANCH  13  14
ATOM     14  C   UNL     1     -13.003 -10.211  -5.046  1.00  0.00     0.000 C 
BRANCH  14  15
ATOM     15  C   UNL     1     -14.436 -10.765  -4.986  1.00  0.00     0.000 C 
BRANCH  15  16
ATOM     16  C   UNL     1     -15.037 -10.987  -6.385  1.00  0.00     0.000 C 
BRANCH  16  17
ATOM     17  C   UNL     1     -16.505 -10.540  -6.479  1.00  0.00     0.000 C 
BRANCH  17  18
ATOM     18  C   UNL     1     -17.091 -10.130  -5.119  1.00  0.00     0.000 C 
BRANCH  18  19
ATOM     19  C   UNL     1     -17.513  -8.654  -5.127  1.00  0.00     0.000 C 
BRANCH  19  20
ATOM     20  C   UNL     1     -16.444  -7.733  -5.734  1.00  0.00     0.006 C 
BRANCH  20  21
ATOM     21  C   UNL     1     -17.044  -6.616  -6.598  1.00  0.00     0.053 C 
BRANCH  21  22
ATOM     22  C   UNL     1     -16.486  -6.674  -7.985  1.00  0.00     0.041 C 
ATOM     23  O   UNL     1     -15.504  -7.417  -8.243  1.00  0.00    -0.550 OA
ATOM     24  O   UNL     1     -17.015  -5.863  -8.980  1.00  0.00    -0.550 OA
ENDBRANCH  21  22
ENDBRANCH  20  21
ENDBRANCH  19  20
ENDBRANCH  18  19
ENDBRANCH  17  18
ENDBRANCH  16  17
ENDBRANCH  15  16
ENDBRANCH  14  15
ENDBRANCH  13  14
ENDBRANCH   1  13
TORSDOF 20
ENDMDL
MODEL 4
REMARK VINA RESULT:    -1.828      3.778     10.095
REMARK INTER + INTRA:          -5.088
REMARK INTER:                  -4.091
REMARK INTRA:                  -0.996
REMARK UNBOUND:                -1.122
REMARK SMILES CCCCCCCCCCCCCCCCCCCCCC(=O)[O-]
REMARK SMILES IDX 12 1 11 2 10 3 9 4 8 5 7 6 6 7 5 8 4 9 3 10 2 11 1 12 13 13
REMARK SMILES IDX 14 14 15 15 16 16 17 17 18 18 19 19 20 20 21 21 22 22 23 23
REMARK SMILES IDX 24 24
REMARK H PARENT
REMARK Flexibility Score: inf
ROOT
ATOM      1  C   UNL     1     -14.234  -9.880  -6.238  1.00  0.00     0.000 C 
ENDROOT
BRANCH   1   2
ATOM      2  C   UNL     1     -13.924  -8.904  -5.095  1.00  0.00     0.000 C 
BRANCH   2   3
ATOM      3  C   UNL     1     -14.542  -7.516  -5.333  1.00  0.00     0.000 C 
BRANCH   3   4
ATOM      4  C   UNL     1     -16.048  -7.495  -5.016  1.00  0.00    -0.000 C 
BRANCH   4   5
ATOM      5  C   UNL     1     -16.782  -6.320  -5.677  1.00  0.00    -0.000 C 
BRANCH   5   6
ATOM      6  C   UNL     1     -17.340  -6.670  -7.068  1.00  0.00    -0.000 C 
BRANCH   6   7
ATOM      7  C   UNL     1     -16.233  -7.113  -8.038  1.00  0.00    -0.000 C 
BRANCH   7   8
ATOM      8  C   UNL     1     -16.413  -8.573  -8.495  1.00  0.00    -0.000 C 
BRANCH   8   9
ATOM      9  C   UNL     1     -17.479  -9.318  -7.673  1.00  0.00    -0.000 C 
BRANCH   9  10
ATOM     10  C   UNL     1     -17.139 -10.797  -7.396  1.00  0.00    -0.000 C 
BRANCH  10  11
ATOM     11  C   UNL     1     -16.890 -11.125  -5.911  1.00  0.00    -0.003 C 
ATOM     12  C   UNL     1     -17.950 -10.530  -4.982  1.00  0.00     0.004 C 
ENDBRANCH  10  11
ENDBRANCH   9  10
ENDBRANCH   8   9
ENDBRANCH   7   8
ENDBRANCH   6   7
ENDBRANCH   5   6
ENDBRANCH   4   5
ENDBRANCH   3   4
ENDBRANCH   2   3
ENDBRANCH   1   2
BRANCH   1  13
ATOM     13  C   UNL     1     -13.115 -10.916  -6.401  1.00  0.00     0.000 C 
BRANCH  13  14
ATOM     14  C   UNL     1     -11.735 -10.256  -6.270  1.00  0.00     0.000 C 
BRANCH  14  15
ATOM     15  C   UNL     1     -10.765 -11.070  -5.398  1.00  0.00     0.000 C 
BRANCH  15  16
ATOM     16  C   UNL     1      -9.294 -10.704  -5.661  1.00  0.00     0.000 C 
BRANCH  16  17
ATOM     17  C   UNL     1      -8.913  -9.328  -5.091  1.00  0.00     0.000 C 
BRANCH  17  18
ATOM     18  C   UNL     1      -8.545  -8.312  -6.183  1.00  0.00     0.000 C 
BRANCH  18  19
ATOM     19  C   UNL     1      -7.076  -8.466  -6.602  1.00  0.00     0.000 C 
BRANCH  19  20
ATOM     20  C   UNL     1      -6.097  -8.168  -5.456  1.00  0.00     0.006 C 
BRANCH  20  21
ATOM     21  C   UNL     1      -4.653  -8.563  -5.791  1.00  0.00     0.053 C 
BRANCH  21  22
ATOM     22  C   UNL     1      -4.636  -9.671  -6.796  1.00  0.00     0.041 C 
ATOM     23  O   UNL     1      -5.057 -10.816  -6.486  1.00  0.00    -0.550 OA
ATOM     24  O   UNL     1      -4.101  -9.454  -8.059  1.00  0.00    -0.550 OA
ENDBRANCH  21  22
ENDBRANCH  20  21
ENDBRANCH  19  20
ENDBRANCH  18  19
ENDBRANCH  17  18
ENDBRANCH  16  17
ENDBRANCH  15  16
ENDBRANCH  14  15
ENDBRANCH  13  14
ENDBRANCH   1  13
TORSDOF 20
ENDMDL
MODEL 5
REMARK VINA RESULT:    -1.440      4.125     10.354
REMARK INTER + INTRA:          -4.245
REMARK INTER:                  -3.606
REMARK INTRA:                  -0.639
REMARK UNBOUND:                -1.122
REMARK SMILES CCCCCCCCCCCCCCCCCCCCCC(=O)[O-]
REMARK SMILES IDX 12 1 11 2 10 3 9 4 8 5 7 6 6 7 5 8 4 9 3 10 2 11 1 12 13 13
REMARK SMILES IDX 14 14 15 15 16 16 17 17 18 18 19 19 20 20 21 21 22 22 23 23
REMARK SMILES IDX 24 24
REMARK H PARENT
REMARK Flexibility Score: inf
ROOT
ATOM      1  C   UNL     1     -10.601  -8.367  -7.980  1.00  0.00     0.000 C 
ENDROOT
BRANCH   1   2
ATOM      2  C   UNL     1     -11.551  -8.561  -6.790  1.00  0.00     0.000 C 
BRANCH   2   3
ATOM      3  C   UNL     1     -11.639  -7.304  -5.908  1.00  0.00     0.000 C 
BRANCH   3   4
ATOM      4  C   UNL     1     -13.095  -6.951  -5.555  1.00  0.00    -0.000 C 
BRANCH   4   5
ATOM      5  C   UNL     1     -13.924  -8.174  -5.139  1.00  0.00    -0.000 C 
BRANCH   5   6
ATOM      6  C   UNL     1     -15.079  -8.472  -6.112  1.00  0.00    -0.000 C 
BRANCH   6   7
ATOM      7  C   UNL     1     -16.232  -7.467  -5.961  1.00  0.00    -0.000 C 
BRANCH   7   8
ATOM      8  C   UNL     1     -17.509  -8.129  -5.409  1.00  0.00    -0.000 C 
BRANCH   8   9
ATOM      9  C   UNL     1     -17.544  -9.646  -5.671  1.00  0.00    -0.000 C 
BRANCH   9  10
ATOM     10  C   UNL     1     -17.939 -10.025  -7.113  1.00  0.00    -0.000 C 
BRANCH  10  11
ATOM     11  C   UNL     1     -17.039 -11.097  -7.758  1.00  0.00    -0.003 C 
ATOM     12  C   UNL     1     -16.967 -10.978  -9.281  1.00  0.00     0.004 C 
ENDBRANCH  10  11
ENDBRANCH   9  10
ENDBRANCH   8   9
ENDBRANCH   7   8
ENDBRANCH   6   7
ENDBRANCH   5   6
ENDBRANCH   4   5
ENDBRANCH   3   4
ENDBRANCH   2   3
ENDBRANCH   1   2
BRANCH   1  13
ATOM     13  C   UNL     1      -9.441  -9.369  -7.932  1.00  0.00     0.000 C 
BRANCH  13  14
ATOM     14  C   UNL     1      -9.080  -9.718  -6.480  1.00  0.00     0.000 C 
BRANCH  14  15
ATOM     15  C   UNL     1      -8.356 -11.069  -6.355  1.00  0.00     0.000 C 
BRANCH  15  16
ATOM     16  C   UNL     1      -7.425 -11.122  -5.132  1.00  0.00     0.000 C 
BRANCH  16  17
ATOM     17  C   UNL     1      -6.064 -10.455  -5.391  1.00  0.00     0.000 C 
BRANCH  17  18
ATOM     18  C   UNL     1      -5.941  -9.888  -6.814  1.00  0.00     0.000 C 
BRANCH  18  19
ATOM     19  C   UNL     1      -5.274  -8.504  -6.796  1.00  0.00     0.000 C 
BRANCH  19  20
ATOM     20  C   UNL     1      -6.017  -7.497  -5.905  1.00  0.00     0.006 C 
BRANCH  20  21
ATOM     21  C   UNL     1      -5.080  -6.733  -4.961  1.00  0.00     0.053 C 
BRANCH  21  22
ATOM     22  C   UNL     1      -3.664  -7.169  -5.169  1.00  0.00     0.041 C 
ATOM     23  O   UNL     1      -3.322  -8.354  -4.919  1.00  0.00    -0.550 OA
ATOM     24  O   UNL     1      -2.709  -6.250  -5.583  1.00  0.00    -0.550 OA
ENDBRANCH  21  22
ENDBRANCH  20  21
ENDBRANCH  19  20
ENDBRANCH  18  19
ENDBRANCH  17  18
ENDBRANCH  16  17
ENDBRANCH  15  16
ENDBRANCH  14  15
ENDBRANCH  13  14
ENDBRANCH   1  13
TORSDOF 20
ENDMDL
MODEL 6
REMARK VINA RESULT:    -0.747      3.795     10.228
REMARK INTER + INTRA:          -2.742
REMARK INTER:                  -2.618
REMARK INTRA:                  -0.124
REMARK UNBOUND:                -1.122
REMARK SMILES CCCCCCCCCCCCCCCCCCCCCC(=O)[O-]
REMARK SMILES IDX 12 1 11 2 10 3 9 4 8 5 7 6 6 7 5 8 4 9 3 10 2 11 1 12 13 13
REMARK SMILES IDX 14 14 15 15 16 16 17 17 18 18 19 19 20 20 21 21 22 22 23 23
REMARK SMILES IDX 24 24
REMARK H PARENT
REMARK Flexibility Score: inf
ROOT
ATOM      1  C   UNL     1     -10.564  -8.339  -8.313  1.00  0.00     0.000 C 
ENDROOT
BRANCH   1   2
ATOM      2  C   UNL     1     -11.567  -8.490  -7.161  1.00  0.00     0.000 C 
BRANCH   2   3
ATOM      3  C   UNL     1     -10.974  -8.042  -5.814  1.00  0.00     0.000 C 
BRANCH   3   4
ATOM      4  C   UNL     1     -11.935  -7.119  -5.042  1.00  0.00    -0.000 C 
BRANCH   4   5
ATOM      5  C   UNL     1     -13.338  -7.721  -4.876  1.00  0.00    -0.000 C 
BRANCH   5   6
ATOM      6  C   UNL     1     -14.430  -6.893  -5.576  1.00  0.00    -0.000 C 
BRANCH   6   7
ATOM      7  C   UNL     1     -15.837  -7.249  -5.067  1.00  0.00    -0.000 C 
BRANCH   7   8
ATOM      8  C   UNL     1     -16.235  -8.693  -5.424  1.00  0.00    -0.000 C 
BRANCH   8   9
ATOM      9  C   UNL     1     -15.739  -9.110  -6.821  1.00  0.00    -0.000 C 
BRANCH   9  10
ATOM     10  C   UNL     1     -16.654  -8.651  -7.974  1.00  0.00    -0.000 C 
BRANCH  10  11
ATOM     11  C   UNL     1     -16.229  -7.324  -8.633  1.00  0.00    -0.003 C 
ATOM     12  C   UNL     1     -16.952  -6.109  -8.049  1.00  0.00     0.004 C 
ENDBRANCH  10  11
ENDBRANCH   9  10
ENDBRANCH   8   9
ENDBRANCH   7   8
ENDBRANCH   6   7
ENDBRANCH   5   6
ENDBRANCH   4   5
ENDBRANCH   3   4
ENDBRANCH   2   3
ENDBRANCH   1   2
BRANCH   1  13
ATOM     13  C   UNL     1      -9.426  -9.360  -8.193  1.00  0.00     0.000 C 
BRANCH  13  14
ATOM     14  C   UNL     1      -9.077  -9.621  -6.720  1.00  0.00     0.000 C 
BRANCH  14  15
ATOM     15  C   UNL     1      -8.349 -10.959  -6.508  1.00  0.00     0.000 C 
BRANCH  15  16
ATOM     16  C   UNL     1      -7.513 -10.972  -5.217  1.00  0.00     0.000 C 
BRANCH  16  17
ATOM     17  C   UNL     1      -6.253 -10.097  -5.315  1.00  0.00     0.000 C 
BRANCH  17  18
ATOM     18  C   UNL     1      -4.964 -10.871  -5.001  1.00  0.00     0.000 C 
BRANCH  18  19
ATOM     19  C   UNL     1      -3.807 -10.393  -5.891  1.00  0.00     0.000 C 
BRANCH  19  20
ATOM     20  C   UNL     1      -3.837  -8.877  -6.142  1.00  0.00     0.006 C 
BRANCH  20  21
ATOM     21  C   UNL     1      -2.884  -8.105  -5.221  1.00  0.00     0.053 C 
BRANCH  21  22
ATOM     22  C   UNL     1      -3.183  -6.640  -5.273  1.00  0.00     0.041 C 
ATOM     23  O   UNL     1      -2.245  -5.800  -5.279  1.00  0.00    -0.550 OA
ATOM     24  O   UNL     1      -4.500  -6.200  -5.254  1.00  0.00    -0.550 OA
ENDBRANCH  21  22
ENDBRANCH  20  21
ENDBRANCH  19  20
ENDBRANCH  18  19
ENDBRANCH  17  18
ENDBRANCH  16  17
ENDBRANCH  15  16
ENDBRANCH  14  15
ENDBRANCH  13  14
ENDBRANCH   1  13
TORSDOF 20
ENDMDL
