MODEL 1
REMARK VINA RESULT:    -2.329      0.000      0.000
REMARK INTER + INTRA:          -2.329
REMARK INTER:                  -2.329
REMARK INTRA:                   0.000
REMARK UNBOUND:                 0.000
REMARK SMILES CC(=O)[O-]
REMARK SMILES IDX 1 1 2 2 3 3 4 4
REMARK H PARENT
REMARK Flexibility Score: inf
ROOT
ATOM      1  C   UNL     1      11.803  24.468  -9.554  1.00  0.00     0.063 C 
ATOM      2  C   UNL     1      12.380  23.934  -8.288  1.00  0.00     0.038 C 
ATOM      3  O   UNL     1      13.414  24.455  -7.795  1.00  0.00    -0.550 OA
ATOM      4  O   UNL     1      11.749  22.894  -7.618  1.00  0.00    -0.550 OA
ENDROOT
TORSDOF 0
ENDMDL
MODEL 2
REMARK VINA RESULT:    -2.320      1.756      2.073
REMARK INTER + INTRA:          -2.320
REMARK INTER:                  -2.320
REMARK INTRA:                   0.000
REMARK UNBOUND:                 0.000
REMARK SMILES CC(=O)[O-]
REMARK SMILES IDX 1 1 2 2 3 3 4 4
REMARK H PARENT
REMARK Flexibility Score: inf
ROOT
ATOM      1  C   UNL     1      10.683  23.454  -9.378  1.00  0.00     0.063 C 
ATOM      2  C   UNL     1      11.869  24.354  -9.433  1.00  0.00     0.038 C 
ATOM      3  O   UNL     1      12.093  25.043 -10.462  1.00  0.00    -0.550 OA
ATOM      4  O   UNL     1      12.704  24.475  -8.329  1.00  0.00    -0.550 OA
ENDROOT
TORSDOF 0
ENDMDL
MODEL 3
REMARK VINA RESULT:    -2.293      5.792      6.144
REMARK INTER + INTRA:          -2.293
REMARK INTER:                  -2.293
REMARK INTRA:                   0.000
REMARK UNBOUND:                 0.000
REMARK SMILES CC(=O)[O-]
REMARK SMILES IDX 1 1 2 2 3 3 4 4
REMARK H PARENT
REMARK Flexibility Score: inf
ROOT
ATOM      1  C   UNL     1       6.859  24.016  -7.497  1.00  0.00     0.063 C 
ATOM      2  C   UNL     1       6.822  24.183  -6.016  1.00  0.00     0.038 C 
ATOM      3  O   UNL     1       7.139  23.226  -5.263  1.00  0.00    -0.550 OA
ATOM      4  O   UNL     1       6.486  25.412  -5.462  1.00  0.00    -0.550 OA
ENDROOT
TORSDOF 0
ENDMDL
MODEL 4
REMARK VINA RESULT:    -2.278      5.797      6.010
REMARK INTER + INTRA:          -2.278
REMARK INTER:                  -2.278
REMARK INTRA:                   0.000
REMARK UNBOUND:                 0.000
REMARK SMILES CC(=O)[O-]
REMARK SMILES IDX 1 1 2 2 3 3 4 4
REMARK H PARENT
REMARK Flexibility Score: inf
ROOT
ATOM      1  C   UNL     1       6.885  24.015  -7.542  1.00  0.00     0.063 C 
ATOM      2  C   UNL     1       6.845  24.145  -6.058  1.00  0.00     0.038 C 
ATOM      3  O   UNL     1       6.520  25.239  -5.528  1.00  0.00    -0.550 OA
ATOM      4  O   UNL     1       7.115  23.045  -5.254  1.00  0.00    -0.550 OA
ENDROOT
TORSDOF 0
ENDMDL
MODEL 5
REMARK VINA RESULT:    -2.261      2.745      3.259
REMARK INTER + INTRA:          -2.261
REMARK INTER:                  -2.261
REMARK INTRA:                   0.000
REMARK UNBOUND:                 0.000
REMARK SMILES CC(=O)[O-]
REMARK SMILES IDX 1 1 2 2 3 3 4 4
REMARK H PARENT
REMARK Flexibility Score: inf
ROOT
ATOM      1  C   UNL     1       8.943  22.578  -9.738  1.00  0.00     0.063 C 
ATOM      2  C   UNL     1      10.432  22.631  -9.738  1.00  0.00     0.038 C 
ATOM      3  O   UNL     1      11.091  21.915  -8.940  1.00  0.00    -0.550 OA
ATOM      4  O   UNL     1      11.101  23.433 -10.655  1.00  0.00    -0.550 OA
ENDROOT
TORSDOF 0
ENDMDL
MODEL 6
REMARK VINA RESULT:    -2.227      2.715      3.043
REMARK INTER + INTRA:          -2.227
REMARK INTER:                  -2.227
REMARK INTRA:                   0.000
REMARK UNBOUND:                 0.000
REMARK SMILES CC(=O)[O-]
REMARK SMILES IDX 1 1 2 2 3 3 4 4
REMARK H PARENT
REMARK Flexibility Score: inf
ROOT
ATOM      1  C   UNL     1       8.929  22.513  -9.610  1.00  0.00     0.063 C 
ATOM      2  C   UNL     1      10.418  22.538  -9.655  1.00  0.00     0.038 C 
ATOM      3  O   UNL     1      11.014  23.255 -10.500  1.00  0.00    -0.550 OA
ATOM      4  O   UNL     1      11.155  21.810  -8.729  1.00  0.00    -0.550 OA
ENDROOT
TORSDOF 0
ENDMDL
MODEL 7
REMARK VINA RESULT:    -2.204      1.680      2.176
REMARK INTER + INTRA:          -2.204
REMARK INTER:                  -2.204
REMARK INTRA:                   0.000
REMARK UNBOUND:                 0.000
REMARK SMILES CC(=O)[O-]
REMARK SMILES IDX 1 1 2 2 3 3 4 4
REMARK H PARENT
REMARK Flexibility Score: inf
ROOT
ATOM      1  C   UNL     1      11.941  24.563  -9.311  1.00  0.00     0.063 C 
ATOM      2  C   UNL     1      11.189  23.289  -9.134  1.00  0.00     0.038 C 
ATOM      3  O   UNL     1      10.811  22.633 -10.139  1.00  0.00    -0.550 OA
ATOM      4  O   UNL     1      10.948  22.794  -7.859  1.00  0.00    -0.550 OA
ENDROOT
TORSDOF 0
ENDMDL
MODEL 8
REMARK VINA RESULT:    -2.154     14.763     15.119
REMARK INTER + INTRA:          -2.154
REMARK INTER:                  -2.154
REMARK INTRA:                   0.000
REMARK UNBOUND:                 0.000
REMARK SMILES CC(=O)[O-]
REMARK SMILES IDX 1 1 2 2 3 3 4 4
REMARK H PARENT
REMARK Flexibility Score: inf
ROOT
ATOM      1  C   UNL     1       7.245  22.904   4.638  1.00  0.00     0.063 C 
ATOM      2  C   UNL     1       5.925  22.731   5.307  1.00  0.00     0.038 C 
ATOM      3  O   UNL     1       5.403  23.690   5.934  1.00  0.00    -0.550 OA
ATOM      4  O   UNL     1       5.240  21.527   5.198  1.00  0.00    -0.550 OA
ENDROOT
TORSDOF 0
ENDMDL
MODEL 9
REMARK VINA RESULT:    -2.127      3.695      4.181
REMARK INTER + INTRA:          -2.127
REMARK INTER:                  -2.127
REMARK INTRA:                   0.000
REMARK UNBOUND:                 0.000
REMARK SMILES CC(=O)[O-]
REMARK SMILES IDX 1 1 2 2 3 3 4 4
REMARK H PARENT
REMARK Flexibility Score: inf
ROOT
ATOM      1  C   UNL     1       7.642  22.319 -10.094  1.00  0.00     0.063 C 
ATOM      2  C   UNL     1       8.869  22.537  -9.276  1.00  0.00     0.038 C 
ATOM      3  O   UNL     1       8.776  22.726  -8.035  1.00  0.00    -0.550 OA
ATOM      4  O   UNL     1      10.123  22.480  -9.872  1.00  0.00    -0.550 OA
ENDROOT
TORSDOF 0
ENDMDL
