MODEL 1
REMARK VINA RESULT:    -2.495      0.000      0.000
REMARK INTER + INTRA:          -2.495
REMARK INTER:                  -2.495
REMARK INTRA:                   0.000
REMARK UNBOUND:                 0.000
REMARK SMILES CC(=O)[O-]
REMARK SMILES IDX 1 1 2 2 3 3 4 4
REMARK H PARENT
REMARK Flexibility Score: inf
ROOT
ATOM      1  C   UNL     1       1.770   0.143 -34.470  1.00  0.00     0.063 C 
ATOM      2  C   UNL     1       0.315  -0.171 -34.368  1.00  0.00     0.038 C 
ATOM      3  O   UNL     1      -0.160  -0.619 -33.291  1.00  0.00    -0.550 OA
ATOM      4  O   UNL     1      -0.529   0.082 -35.441  1.00  0.00    -0.550 OA
ENDROOT
TORSDOF 0
ENDMDL
MODEL 2
REMARK VINA RESULT:    -2.477      0.207      1.625
REMARK INTER + INTRA:          -2.477
REMARK INTER:                  -2.477
REMARK INTRA:                   0.000
REMARK UNBOUND:                 0.000
REMARK SMILES CC(=O)[O-]
REMARK SMILES IDX 1 1 2 2 3 3 4 4
REMARK H PARENT
REMARK Flexibility Score: inf
ROOT
ATOM      1  C   UNL     1       1.835  -0.094 -34.345  1.00  0.00     0.063 C 
ATOM      2  C   UNL     1       0.348  -0.209 -34.300  1.00  0.00     0.038 C 
ATOM      3  O   UNL     1      -0.339   0.076 -35.316  1.00  0.00    -0.550 OA
ATOM      4  O   UNL     1      -0.280  -0.684 -33.156  1.00  0.00    -0.550 OA
ENDROOT
TORSDOF 0
ENDMDL
MODEL 3
REMARK VINA RESULT:    -2.442      1.738      1.958
REMARK INTER + INTRA:          -2.442
REMARK INTER:                  -2.442
REMARK INTRA:                   0.000
REMARK UNBOUND:                 0.000
REMARK SMILES CC(=O)[O-]
REMARK SMILES IDX 1 1 2 2 3 3 4 4
REMARK H PARENT
REMARK Flexibility Score: inf
ROOT
ATOM      1  C   UNL     1       0.723   0.586 -36.013  1.00  0.00     0.063 C 
ATOM      2  C   UNL     1       1.051   0.278 -34.591  1.00  0.00     0.038 C 
ATOM      3  O   UNL     1       2.253   0.214 -34.219  1.00  0.00    -0.550 OA
ATOM      4  O   UNL     1       0.033   0.117 -33.660  1.00  0.00    -0.550 OA
ENDROOT
TORSDOF 0
ENDMDL
MODEL 4
REMARK VINA RESULT:    -2.413      1.716      1.908
REMARK INTER + INTRA:          -2.413
REMARK INTER:                  -2.413
REMARK INTRA:                   0.000
REMARK UNBOUND:                 0.000
REMARK SMILES CC(=O)[O-]
REMARK SMILES IDX 1 1 2 2 3 3 4 4
REMARK H PARENT
REMARK Flexibility Score: inf
ROOT
ATOM      1  C   UNL     1       0.453   0.361 -35.983  1.00  0.00     0.063 C 
ATOM      2  C   UNL     1       0.915   0.240 -34.570  1.00  0.00     0.038 C 
ATOM      3  O   UNL     1       0.076   0.106 -33.640  1.00  0.00    -0.550 OA
ATOM      4  O   UNL     1       2.273   0.218 -34.281  1.00  0.00    -0.550 OA
ENDROOT
TORSDOF 0
ENDMDL
MODEL 5
REMARK VINA RESULT:    -2.385      2.268      2.611
REMARK INTER + INTRA:          -2.385
REMARK INTER:                  -2.385
REMARK INTRA:                   0.000
REMARK UNBOUND:                 0.000
REMARK SMILES CC(=O)[O-]
REMARK SMILES IDX 1 1 2 2 3 3 4 4
REMARK H PARENT
REMARK Flexibility Score: inf
ROOT
ATOM      1  C   UNL     1       0.474  -0.521 -33.915  1.00  0.00     0.063 C 
ATOM      2  C   UNL     1       1.696  -0.856 -34.703  1.00  0.00     0.038 C 
ATOM      3  O   UNL     1       2.478   0.058 -35.075  1.00  0.00    -0.550 OA
ATOM      4  O   UNL     1       2.004  -2.181 -34.981  1.00  0.00    -0.550 OA
ENDROOT
TORSDOF 0
ENDMDL
MODEL 6
REMARK VINA RESULT:    -2.132      8.033      8.380
REMARK INTER + INTRA:          -2.132
REMARK INTER:                  -2.132
REMARK INTRA:                   0.000
REMARK UNBOUND:                 0.000
REMARK SMILES CC(=O)[O-]
REMARK SMILES IDX 1 1 2 2 3 3 4 4
REMARK H PARENT
REMARK Flexibility Score: inf
ROOT
ATOM      1  C   UNL     1       0.445   7.028 -37.079  1.00  0.00     0.063 C 
ATOM      2  C   UNL     1       0.958   7.859 -35.951  1.00  0.00     0.038 C 
ATOM      3  O   UNL     1       0.359   8.916 -35.622  1.00  0.00    -0.550 OA
ATOM      4  O   UNL     1       2.064   7.439 -35.224  1.00  0.00    -0.550 OA
ENDROOT
TORSDOF 0
ENDMDL
MODEL 7
REMARK VINA RESULT:    -2.105      8.099      8.380
REMARK INTER + INTRA:          -2.105
REMARK INTER:                  -2.105
REMARK INTRA:                   0.000
REMARK UNBOUND:                 0.000
REMARK SMILES CC(=O)[O-]
REMARK SMILES IDX 1 1 2 2 3 3 4 4
REMARK H PARENT
REMARK Flexibility Score: inf
ROOT
ATOM      1  C   UNL     1       0.365   7.084 -37.241  1.00  0.00     0.063 C 
ATOM      2  C   UNL     1       0.853   7.865 -36.068  1.00  0.00     0.038 C 
ATOM      3  O   UNL     1       1.862   7.474 -35.424  1.00  0.00    -0.550 OA
ATOM      4  O   UNL     1       0.231   9.056 -35.715  1.00  0.00    -0.550 OA
ENDROOT
TORSDOF 0
ENDMDL
MODEL 8
REMARK VINA RESULT:    -1.997      5.020      5.469
REMARK INTER + INTRA:          -1.997
REMARK INTER:                  -1.997
REMARK INTRA:                   0.000
REMARK UNBOUND:                 0.000
REMARK SMILES CC(=O)[O-]
REMARK SMILES IDX 1 1 2 2 3 3 4 4
REMARK H PARENT
REMARK Flexibility Score: inf
ROOT
ATOM      1  C   UNL     1      -3.331  -2.756 -31.177  1.00  0.00     0.063 C 
ATOM      2  C   UNL     1      -3.962  -2.640 -32.524  1.00  0.00     0.038 C 
ATOM      3  O   UNL     1      -5.125  -3.084 -32.717  1.00  0.00    -0.550 OA
ATOM      4  O   UNL     1      -3.292  -1.993 -33.554  1.00  0.00    -0.550 OA
ENDROOT
TORSDOF 0
ENDMDL
MODEL 9
REMARK VINA RESULT:    -1.937     17.458     17.927
REMARK INTER + INTRA:          -1.937
REMARK INTER:                  -1.937
REMARK INTRA:                   0.000
REMARK UNBOUND:                 0.000
REMARK SMILES CC(=O)[O-]
REMARK SMILES IDX 1 1 2 2 3 3 4 4
REMARK H PARENT
REMARK Flexibility Score: inf
ROOT
ATOM      1  C   UNL     1      10.740   9.995 -22.621  1.00  0.00     0.063 C 
ATOM      2  C   UNL     1      10.992   9.639 -24.047  1.00  0.00     0.038 C 
ATOM      3  O   UNL     1      10.241  10.088 -24.952  1.00  0.00    -0.550 OA
ATOM      4  O   UNL     1      12.089   8.857 -24.387  1.00  0.00    -0.550 OA
ENDROOT
TORSDOF 0
ENDMDL
