MODEL 1
REMARK VINA RESULT:    -5.952      0.000      0.000
REMARK INTER + INTRA:          -6.126
REMARK INTER:                  -6.126
REMARK INTRA:                   0.000
REMARK UNBOUND:                 0.000
REMARK SMILES C=C1[C@H]2C[C@@]3(C[C@@H]1O)[C@H](CC[C@@H]3C)C2(C)C
REMARK SMILES IDX 13 1 12 2 11 3 10 4 9 5 5 6 4 7 3 8 14 9 15 10 16 11 2 12
REMARK SMILES IDX 1 13 7 14 6 15 8 16
REMARK H PARENT 8 17
REMARK Flexibility Score: inf
ROOT
ATOM      1  C   UNL     1     117.679 125.237 130.944  1.00  0.00     0.008 C 
ATOM      2  C   UNL     1     116.150 125.091 130.829  1.00  0.00    -0.008 C 
ATOM      3  C   UNL     1     115.695 125.445 129.412  1.00  0.00     0.004 C 
ATOM      4  C   UNL     1     115.730 124.141 128.628  1.00  0.00     0.005 C 
ATOM      5  C   UNL     1     115.472 123.010 129.644  1.00  0.00     0.002 C 
ATOM      6  C   UNL     1     115.624 123.646 131.050  1.00  0.00    -0.020 C 
ATOM      7  C   UNL     1     114.204 123.656 131.628  1.00  0.00     0.016 C 
ATOM      8  C   UNL     1     113.670 122.322 131.148  1.00  0.00     0.023 C 
ATOM      9  C   UNL     1     114.066 122.307 129.642  1.00  0.00    -0.025 C 
ATOM     10  C   UNL     1     114.152 120.876 129.060  1.00  0.00     0.012 C 
ATOM     11  C   UNL     1     112.973 123.059 128.831  1.00  0.00     0.012 C 
ATOM     12  C   UNL     1     114.379 121.237 131.959  1.00  0.00    -0.045 C 
ATOM     13  C   UNL     1     113.691 120.163 132.377  1.00  0.00     0.011 C 
ATOM     14  C   UNL     1     115.877 121.339 132.255  1.00  0.00     0.140 C 
ATOM     15  C   UNL     1     116.483 122.751 131.994  1.00  0.00     0.044 C 
ENDROOT
BRANCH  14  16
ATOM     16  O   UNL     1     116.577 120.390 131.490  1.00  0.00    -0.389 OA
ATOM     17  H   UNL     1     116.356 119.495 131.856  1.00  0.00     0.211 HD
ENDBRANCH  14  16
TORSDOF 1
ENDMDL
MODEL 2
REMARK VINA RESULT:    -5.889      2.433      4.412
REMARK INTER + INTRA:          -6.061
REMARK INTER:                  -6.061
REMARK INTRA:                   0.000
REMARK UNBOUND:                 0.000
REMARK SMILES C=C1[C@H]2C[C@@]3(C[C@@H]1O)[C@H](CC[C@@H]3C)C2(C)C
REMARK SMILES IDX 13 1 12 2 11 3 10 4 9 5 5 6 4 7 3 8 14 9 15 10 16 11 2 12
REMARK SMILES IDX 1 13 7 14 6 15 8 16
REMARK H PARENT 8 17
REMARK Flexibility Score: inf
ROOT
ATOM      1  C   UNL     1     117.077 128.103 132.790  1.00  0.00     0.008 C 
ATOM      2  C   UNL     1     117.012 128.098 131.251  1.00  0.00    -0.008 C 
ATOM      3  C   UNL     1     118.366 128.504 130.667  1.00  0.00     0.004 C 
ATOM      4  C   UNL     1     119.146 127.209 130.491  1.00  0.00     0.005 C 
ATOM      5  C   UNL     1     118.103 126.097 130.251  1.00  0.00     0.002 C 
ATOM      6  C   UNL     1     116.727 126.705 130.624  1.00  0.00    -0.020 C 
ATOM      7  C   UNL     1     115.986 126.840 129.289  1.00  0.00     0.016 C 
ATOM      8  C   UNL     1     116.397 125.565 128.582  1.00  0.00     0.023 C 
ATOM      9  C   UNL     1     117.938 125.526 128.796  1.00  0.00    -0.025 C 
ATOM     10  C   UNL     1     118.523 124.098 128.682  1.00  0.00     0.012 C 
ATOM     11  C   UNL     1     118.618 126.381 127.690  1.00  0.00     0.012 C 
ATOM     12  C   UNL     1     115.672 124.413 129.278  1.00  0.00    -0.045 C 
ATOM     13  C   UNL     1     115.173 123.403 128.550  1.00  0.00     0.011 C 
ATOM     14  C   UNL     1     115.553 124.375 130.805  1.00  0.00     0.140 C 
ATOM     15  C   UNL     1     115.887 125.729 131.503  1.00  0.00     0.044 C 
ENDROOT
BRANCH  14  16
ATOM     16  O   UNL     1     116.393 123.373 131.320  1.00  0.00    -0.389 OA
ATOM     17  H   UNL     1     116.353 123.436 132.310  1.00  0.00     0.211 HD
ENDBRANCH  14  16
TORSDOF 1
ENDMDL
MODEL 3
REMARK VINA RESULT:    -5.867      1.640      3.978
REMARK INTER + INTRA:          -6.038
REMARK INTER:                  -6.038
REMARK INTRA:                   0.000
REMARK UNBOUND:                 0.000
REMARK SMILES C=C1[C@H]2C[C@@]3(C[C@@H]1O)[C@H](CC[C@@H]3C)C2(C)C
REMARK SMILES IDX 13 1 12 2 11 3 10 4 9 5 5 6 4 7 3 8 14 9 15 10 16 11 2 12
REMARK SMILES IDX 1 13 7 14 6 15 8 16
REMARK H PARENT 8 17
REMARK Flexibility Score: inf
ROOT
ATOM      1  C   UNL     1     115.562 121.508 133.916  1.00  0.00     0.008 C 
ATOM      2  C   UNL     1     115.660 120.855 132.525  1.00  0.00    -0.008 C 
ATOM      3  C   UNL     1     114.414 120.008 132.254  1.00  0.00     0.004 C 
ATOM      4  C   UNL     1     113.418 120.942 131.582  1.00  0.00     0.005 C 
ATOM      5  C   UNL     1     114.247 122.001 130.826  1.00  0.00     0.002 C 
ATOM      6  C   UNL     1     115.702 121.862 131.343  1.00  0.00    -0.020 C 
ATOM      7  C   UNL     1     116.485 121.291 130.155  1.00  0.00     0.016 C 
ATOM      8  C   UNL     1     115.866 122.040 128.993  1.00  0.00     0.023 C 
ATOM      9  C   UNL     1     114.338 121.901 129.260  1.00  0.00    -0.025 C 
ATOM     10  C   UNL     1     113.508 123.013 128.575  1.00  0.00     0.012 C 
ATOM     11  C   UNL     1     113.850 120.547 128.672  1.00  0.00     0.012 C 
ATOM     12  C   UNL     1     116.355 123.486 129.081  1.00  0.00    -0.045 C 
ATOM     13  C   UNL     1     116.679 124.148 127.959  1.00  0.00     0.011 C 
ATOM     14  C   UNL     1     116.430 124.203 130.432  1.00  0.00     0.140 C 
ATOM     15  C   UNL     1     116.331 123.252 131.663  1.00  0.00     0.044 C 
ENDROOT
BRANCH  14  16
ATOM     16  O   UNL     1     115.412 125.168 130.513  1.00  0.00    -0.389 OA
ATOM     17  H   UNL     1     115.750 125.906 131.083  1.00  0.00     0.211 HD
ENDBRANCH  14  16
TORSDOF 1
ENDMDL
MODEL 4
REMARK VINA RESULT:    -5.814      1.768      4.389
REMARK INTER + INTRA:          -5.984
REMARK INTER:                  -5.984
REMARK INTRA:                   0.000
REMARK UNBOUND:                 0.000
REMARK SMILES C=C1[C@H]2C[C@@]3(C[C@@H]1O)[C@H](CC[C@@H]3C)C2(C)C
REMARK SMILES IDX 13 1 12 2 11 3 10 4 9 5 5 6 4 7 3 8 14 9 15 10 16 11 2 12
REMARK SMILES IDX 1 13 7 14 6 15 8 16
REMARK H PARENT 8 17
REMARK Flexibility Score: inf
ROOT
ATOM      1  C   UNL     1     113.756 120.678 127.574  1.00  0.00     0.008 C 
ATOM      2  C   UNL     1     113.787 120.798 129.110  1.00  0.00    -0.008 C 
ATOM      3  C   UNL     1     114.500 119.589 129.717  1.00  0.00     0.004 C 
ATOM      4  C   UNL     1     115.969 119.976 129.804  1.00  0.00     0.005 C 
ATOM      5  C   UNL     1     116.012 121.509 129.971  1.00  0.00     0.002 C 
ATOM      6  C   UNL     1     114.586 122.020 129.642  1.00  0.00    -0.020 C 
ATOM      7  C   UNL     1     114.027 122.505 130.985  1.00  0.00     0.016 C 
ATOM      8  C   UNL     1     115.244 123.160 131.604  1.00  0.00     0.023 C 
ATOM      9  C   UNL     1     116.363 122.099 131.385  1.00  0.00    -0.025 C 
ATOM     10  C   UNL     1     117.783 122.714 131.402  1.00  0.00     0.012 C 
ATOM     11  C   UNL     1     116.305 121.065 132.545  1.00  0.00     0.012 C 
ATOM     12  C   UNL     1     115.496 124.456 130.834  1.00  0.00    -0.045 C 
ATOM     13  C   UNL     1     115.880 125.559 131.494  1.00  0.00     0.011 C 
ATOM     14  C   UNL     1     115.364 124.495 129.308  1.00  0.00     0.140 C 
ATOM     15  C   UNL     1     114.625 123.263 128.702  1.00  0.00     0.044 C 
ENDROOT
BRANCH  14  16
ATOM     16  O   UNL     1     116.639 124.598 128.725  1.00  0.00    -0.389 OA
ATOM     17  H   UNL     1     116.913 123.684 128.453  1.00  0.00     0.211 HD
ENDBRANCH  14  16
TORSDOF 1
ENDMDL
MODEL 5
REMARK VINA RESULT:    -5.739      1.819      4.153
REMARK INTER + INTRA:          -5.907
REMARK INTER:                  -5.907
REMARK INTRA:                   0.000
REMARK UNBOUND:                 0.000
REMARK SMILES C=C1[C@H]2C[C@@]3(C[C@@H]1O)[C@H](CC[C@@H]3C)C2(C)C
REMARK SMILES IDX 13 1 12 2 11 3 10 4 9 5 5 6 4 7 3 8 14 9 15 10 16 11 2 12
REMARK SMILES IDX 1 13 7 14 6 15 8 16
REMARK H PARENT 8 17
REMARK Flexibility Score: inf
ROOT
ATOM      1  C   UNL     1     115.247 119.997 134.622  1.00  0.00     0.008 C 
ATOM      2  C   UNL     1     115.811 121.247 133.920  1.00  0.00    -0.008 C 
ATOM      3  C   UNL     1     117.339 121.240 133.985  1.00  0.00     0.004 C 
ATOM      4  C   UNL     1     117.803 120.509 132.733  1.00  0.00     0.005 C 
ATOM      5  C   UNL     1     116.721 120.748 131.659  1.00  0.00     0.002 C 
ATOM      6  C   UNL     1     115.492 121.330 132.402  1.00  0.00    -0.020 C 
ATOM      7  C   UNL     1     115.408 122.787 131.933  1.00  0.00     0.016 C 
ATOM      8  C   UNL     1     115.764 122.657 130.467  1.00  0.00     0.023 C 
ATOM      9  C   UNL     1     117.033 121.755 130.493  1.00  0.00    -0.025 C 
ATOM     10  C   UNL     1     117.269 121.014 129.155  1.00  0.00     0.012 C 
ATOM     11  C   UNL     1     118.279 122.653 130.736  1.00  0.00     0.012 C 
ATOM     12  C   UNL     1     114.576 121.989 129.774  1.00  0.00    -0.045 C 
ATOM     13  C   UNL     1     114.197 122.403 128.555  1.00  0.00     0.011 C 
ATOM     14  C   UNL     1     113.845 120.818 130.437  1.00  0.00     0.140 C 
ATOM     15  C   UNL     1     114.169 120.640 131.951  1.00  0.00     0.044 C 
ENDROOT
BRANCH  14  16
ATOM     16  O   UNL     1     114.149 119.626 129.758  1.00  0.00    -0.389 OA
ATOM     17  H   UNL     1     114.306 119.860 128.807  1.00  0.00     0.211 HD
ENDBRANCH  14  16
TORSDOF 1
ENDMDL
MODEL 6
REMARK VINA RESULT:    -5.720      1.776      4.308
REMARK INTER + INTRA:          -5.887
REMARK INTER:                  -5.887
REMARK INTRA:                   0.000
REMARK UNBOUND:                 0.000
REMARK SMILES C=C1[C@H]2C[C@@]3(C[C@@H]1O)[C@H](CC[C@@H]3C)C2(C)C
REMARK SMILES IDX 13 1 12 2 11 3 10 4 9 5 5 6 4 7 3 8 14 9 15 10 16 11 2 12
REMARK SMILES IDX 1 13 7 14 6 15 8 16
REMARK H PARENT 8 17
REMARK Flexibility Score: inf
ROOT
ATOM      1  C   UNL     1     116.390 119.269 128.662  1.00  0.00     0.008 C 
ATOM      2  C   UNL     1     115.172 120.211 128.618  1.00  0.00    -0.008 C 
ATOM      3  C   UNL     1     114.146 119.793 129.672  1.00  0.00     0.004 C 
ATOM      4  C   UNL     1     114.511 120.564 130.933  1.00  0.00     0.005 C 
ATOM      5  C   UNL     1     115.180 121.875 130.469  1.00  0.00     0.002 C 
ATOM      6  C   UNL     1     115.493 121.692 128.962  1.00  0.00    -0.020 C 
ATOM      7  C   UNL     1     114.532 122.648 128.246  1.00  0.00     0.016 C 
ATOM      8  C   UNL     1     114.551 123.849 129.168  1.00  0.00     0.023 C 
ATOM      9  C   UNL     1     114.361 123.212 130.577  1.00  0.00    -0.025 C 
ATOM     10  C   UNL     1     114.896 124.110 131.717  1.00  0.00     0.012 C 
ATOM     11  C   UNL     1     112.840 123.015 130.833  1.00  0.00     0.012 C 
ATOM     12  C   UNL     1     115.915 124.520 129.001  1.00  0.00    -0.045 C 
ATOM     13  C   UNL     1     116.000 125.860 128.989  1.00  0.00     0.011 C 
ATOM     14  C   UNL     1     117.191 123.680 128.898  1.00  0.00     0.140 C 
ATOM     15  C   UNL     1     116.936 122.169 128.614  1.00  0.00     0.044 C 
ENDROOT
BRANCH  14  16
ATOM     16  O   UNL     1     117.937 123.806 130.082  1.00  0.00    -0.389 OA
ATOM     17  H   UNL     1     118.157 124.768 130.190  1.00  0.00     0.211 HD
ENDBRANCH  14  16
TORSDOF 1
ENDMDL
MODEL 7
REMARK VINA RESULT:    -5.702      1.849      3.738
REMARK INTER + INTRA:          -5.869
REMARK INTER:                  -5.869
REMARK INTRA:                   0.000
REMARK UNBOUND:                 0.000
REMARK SMILES C=C1[C@H]2C[C@@]3(C[C@@H]1O)[C@H](CC[C@@H]3C)C2(C)C
REMARK SMILES IDX 13 1 12 2 11 3 10 4 9 5 5 6 4 7 3 8 14 9 15 10 16 11 2 12
REMARK SMILES IDX 1 13 7 14 6 15 8 16
REMARK H PARENT 8 17
REMARK Flexibility Score: inf
ROOT
ATOM      1  C   UNL     1     118.787 122.751 131.668  1.00  0.00     0.008 C 
ATOM      2  C   UNL     1     117.748 121.658 131.356  1.00  0.00    -0.008 C 
ATOM      3  C   UNL     1     117.182 121.086 132.657  1.00  0.00     0.004 C 
ATOM      4  C   UNL     1     115.967 121.940 132.990  1.00  0.00     0.005 C 
ATOM      5  C   UNL     1     115.406 122.452 131.647  1.00  0.00     0.002 C 
ATOM      6  C   UNL     1     116.497 122.162 130.584  1.00  0.00    -0.020 C 
ATOM      7  C   UNL     1     115.903 121.054 129.708  1.00  0.00     0.016 C 
ATOM      8  C   UNL     1     114.454 121.483 129.613  1.00  0.00     0.023 C 
ATOM      9  C   UNL     1     114.086 121.805 131.091  1.00  0.00    -0.025 C 
ATOM     10  C   UNL     1     112.888 122.778 131.212  1.00  0.00     0.012 C 
ATOM     11  C   UNL     1     113.668 120.486 131.801  1.00  0.00     0.012 C 
ATOM     12  C   UNL     1     114.410 122.715 128.709  1.00  0.00    -0.045 C 
ATOM     13  C   UNL     1     113.407 122.860 127.828  1.00  0.00     0.011 C 
ATOM     14  C   UNL     1     115.471 123.812 128.833  1.00  0.00     0.140 C 
ATOM     15  C   UNL     1     116.729 123.390 129.651  1.00  0.00     0.044 C 
ENDROOT
BRANCH  14  16
ATOM     16  O   UNL     1     114.904 124.956 129.419  1.00  0.00    -0.389 OA
ATOM     17  H   UNL     1     114.200 124.646 130.047  1.00  0.00     0.211 HD
ENDBRANCH  14  16
TORSDOF 1
ENDMDL
MODEL 8
REMARK VINA RESULT:    -5.685      1.896      4.291
REMARK INTER + INTRA:          -5.851
REMARK INTER:                  -5.851
REMARK INTRA:                   0.000
REMARK UNBOUND:                 0.000
REMARK SMILES C=C1[C@H]2C[C@@]3(C[C@@H]1O)[C@H](CC[C@@H]3C)C2(C)C
REMARK SMILES IDX 13 1 12 2 11 3 10 4 9 5 5 6 4 7 3 8 14 9 15 10 16 11 2 12
REMARK SMILES IDX 1 13 7 14 6 15 8 16
REMARK H PARENT 8 17
REMARK Flexibility Score: inf
ROOT
ATOM      1  C   UNL     1     118.380 121.128 134.579  1.00  0.00     0.008 C 
ATOM      2  C   UNL     1     117.375 120.377 133.685  1.00  0.00    -0.008 C 
ATOM      3  C   UNL     1     116.164 119.939 134.512  1.00  0.00     0.004 C 
ATOM      4  C   UNL     1     115.165 121.084 134.421  1.00  0.00     0.005 C 
ATOM      5  C   UNL     1     115.413 121.777 133.065  1.00  0.00     0.002 C 
ATOM      6  C   UNL     1     116.767 121.234 132.541  1.00  0.00    -0.020 C 
ATOM      7  C   UNL     1     116.398 120.365 131.334  1.00  0.00     0.016 C 
ATOM      8  C   UNL     1     115.293 121.181 130.695  1.00  0.00     0.023 C 
ATOM      9  C   UNL     1     114.379 121.541 131.904  1.00  0.00    -0.025 C 
ATOM     10  C   UNL     1     113.519 122.802 131.650  1.00  0.00     0.012 C 
ATOM     11  C   UNL     1     113.393 120.365 132.151  1.00  0.00     0.012 C 
ATOM     12  C   UNL     1     115.952 122.409 130.064  1.00  0.00    -0.045 C 
ATOM     13  C   UNL     1     115.523 122.855 128.873  1.00  0.00     0.011 C 
ATOM     14  C   UNL     1     117.062 123.163 130.800  1.00  0.00     0.140 C 
ATOM     15  C   UNL     1     117.674 122.382 132.002  1.00  0.00     0.044 C 
ENDROOT
BRANCH  14  16
ATOM     16  O   UNL     1     116.572 124.399 131.257  1.00  0.00    -0.389 OA
ATOM     17  H   UNL     1     116.823 125.083 130.583  1.00  0.00     0.211 HD
ENDBRANCH  14  16
TORSDOF 1
ENDMDL
MODEL 9
REMARK VINA RESULT:    -5.671      1.988      3.052
REMARK INTER + INTRA:          -5.836
REMARK INTER:                  -5.836
REMARK INTRA:                   0.000
REMARK UNBOUND:                 0.000
REMARK SMILES C=C1[C@H]2C[C@@]3(C[C@@H]1O)[C@H](CC[C@@H]3C)C2(C)C
REMARK SMILES IDX 13 1 12 2 11 3 10 4 9 5 5 6 4 7 3 8 14 9 15 10 16 11 2 12
REMARK SMILES IDX 1 13 7 14 6 15 8 16
REMARK H PARENT 8 17
REMARK Flexibility Score: inf
ROOT
ATOM      1  C   UNL     1     118.960 122.881 129.405  1.00  0.00     0.008 C 
ATOM      2  C   UNL     1     117.695 122.419 128.656  1.00  0.00    -0.008 C 
ATOM      3  C   UNL     1     117.838 120.953 128.241  1.00  0.00     0.004 C 
ATOM      4  C   UNL     1     117.273 120.140 129.396  1.00  0.00     0.005 C 
ATOM      5  C   UNL     1     116.201 121.020 130.072  1.00  0.00     0.002 C 
ATOM      6  C   UNL     1     116.397 122.451 129.508  1.00  0.00    -0.020 C 
ATOM      7  C   UNL     1     115.164 122.695 128.630  1.00  0.00     0.016 C 
ATOM      8  C   UNL     1     114.070 122.047 129.453  1.00  0.00     0.023 C 
ATOM      9  C   UNL     1     114.687 120.670 129.836  1.00  0.00    -0.025 C 
ATOM     10  C   UNL     1     114.045 120.058 131.104  1.00  0.00     0.012 C 
ATOM     11  C   UNL     1     114.432 119.668 128.674  1.00  0.00     0.012 C 
ATOM     12  C   UNL     1     113.829 122.947 130.665  1.00  0.00    -0.045 C 
ATOM     13  C   UNL     1     112.577 123.151 131.104  1.00  0.00     0.011 C 
ATOM     14  C   UNL     1     115.006 123.577 131.415  1.00  0.00     0.140 C 
ATOM     15  C   UNL     1     116.357 123.523 130.639  1.00  0.00     0.044 C 
ENDROOT
BRANCH  14  16
ATOM     16  O   UNL     1     115.166 122.947 132.661  1.00  0.00    -0.389 OA
ATOM     17  H   UNL     1     115.425 123.647 133.314  1.00  0.00     0.211 HD
ENDBRANCH  14  16
TORSDOF 1
ENDMDL
