MODEL 1
REMARK VINA RESULT:    -1.919      0.000      0.000
REMARK INTER + INTRA:          -3.470
REMARK INTER:                  -2.817
REMARK INTRA:                  -0.653
REMARK UNBOUND:                -0.653
REMARK SMILES O=C([O-])CCCCCCCC(=O)[O-]
REMARK SMILES IDX 7 1 6 2 5 3 4 4 2 5 1 6 3 7 8 8 9 9 10 10 11 11 12 12 13 13
REMARK H PARENT
REMARK Flexibility Score: inf
ROOT
ATOM      1  C   UNL     1      23.534  25.995  14.729  1.00  0.00     0.000 C 
ENDROOT
BRANCH   1   2
ATOM      2  C   UNL     1      23.469  25.757  13.213  1.00  0.00     0.000 C 
BRANCH   2   3
ATOM      3  C   UNL     1      23.144  27.036  12.427  1.00  0.00     0.006 C 
BRANCH   3   4
ATOM      4  C   UNL     1      23.379  28.311  13.248  1.00  0.00     0.053 C 
BRANCH   4   5
ATOM      5  C   UNL     1      24.581  29.043  12.741  1.00  0.00     0.041 C 
ATOM      6  O   UNL     1      25.734  28.712  13.125  1.00  0.00    -0.550 OA
ATOM      7  O   UNL     1      24.427  30.123  11.882  1.00  0.00    -0.550 OA
ENDBRANCH   4   5
ENDBRANCH   3   4
ENDBRANCH   2   3
ENDBRANCH   1   2
BRANCH   1   8
ATOM      8  C   UNL     1      24.926  25.660  15.279  1.00  0.00     0.000 C 
BRANCH   8   9
ATOM      9  C   UNL     1      25.551  26.878  15.975  1.00  0.00     0.006 C 
BRANCH   9  10
ATOM     10  C   UNL     1      24.617  27.488  17.028  1.00  0.00     0.053 C 
BRANCH  10  11
ATOM     11  C   UNL     1      24.736  28.981  17.077  1.00  0.00     0.041 C 
ATOM     12  O   UNL     1      24.445  29.674  16.068  1.00  0.00    -0.550 OA
ATOM     13  O   UNL     1      25.200  29.603  18.229  1.00  0.00    -0.550 OA
ENDBRANCH  10  11
ENDBRANCH   9  10
ENDBRANCH   8   9
ENDBRANCH   1   8
TORSDOF 8
ENDMDL
MODEL 2
REMARK VINA RESULT:    -1.865      2.231      3.603
REMARK INTER + INTRA:          -3.389
REMARK INTER:                  -2.495
REMARK INTRA:                  -0.894
REMARK UNBOUND:                -0.653
REMARK SMILES O=C([O-])CCCCCCCC(=O)[O-]
REMARK SMILES IDX 7 1 6 2 5 3 4 4 2 5 1 6 3 7 8 8 9 9 10 10 11 11 12 12 13 13
REMARK H PARENT
REMARK Flexibility Score: inf
ROOT
ATOM      1  C   UNL     1      22.781  28.618  11.919  1.00  0.00     0.000 C 
ENDROOT
BRANCH   1   2
ATOM      2  C   UNL     1      21.876  27.555  12.559  1.00  0.00     0.000 C 
BRANCH   2   3
ATOM      3  C   UNL     1      22.605  26.222  12.795  1.00  0.00     0.006 C 
BRANCH   3   4
ATOM      4  C   UNL     1      22.619  25.809  14.272  1.00  0.00     0.053 C 
BRANCH   4   5
ATOM      5  C   UNL     1      23.816  24.962  14.566  1.00  0.00     0.041 C 
ATOM      6  O   UNL     1      24.213  24.113  13.725  1.00  0.00    -0.550 OA
ATOM      7  O   UNL     1      24.466  25.075  15.787  1.00  0.00    -0.550 OA
ENDBRANCH   4   5
ENDBRANCH   3   4
ENDBRANCH   2   3
ENDBRANCH   1   2
BRANCH   1   8
ATOM      8  C   UNL     1      24.239  28.144  11.875  1.00  0.00     0.000 C 
BRANCH   8   9
ATOM      9  C   UNL     1      25.125  28.999  12.793  1.00  0.00     0.006 C 
BRANCH   9  10
ATOM     10  C   UNL     1      25.374  28.328  14.150  1.00  0.00     0.053 C 
BRANCH  10  11
ATOM     11  C   UNL     1      24.504  28.909  15.223  1.00  0.00     0.041 C 
ATOM     12  O   UNL     1      23.876  29.981  15.020  1.00  0.00    -0.550 OA
ATOM     13  O   UNL     1      24.413  28.281  16.459  1.00  0.00    -0.550 OA
ENDBRANCH  10  11
ENDBRANCH   9  10
ENDBRANCH   8   9
ENDBRANCH   1   8
TORSDOF 8
ENDMDL
MODEL 3
REMARK VINA RESULT:    -1.855      2.949      3.701
REMARK INTER + INTRA:          -3.376
REMARK INTER:                  -2.818
REMARK INTRA:                  -0.558
REMARK UNBOUND:                -0.653
REMARK SMILES O=C([O-])CCCCCCCC(=O)[O-]
REMARK SMILES IDX 7 1 6 2 5 3 4 4 2 5 1 6 3 7 8 8 9 9 10 10 11 11 12 12 13 13
REMARK H PARENT
REMARK Flexibility Score: inf
ROOT
ATOM      1  C   UNL     1      24.493  28.325  15.581  1.00  0.00     0.000 C 
ENDROOT
BRANCH   1   2
ATOM      2  C   UNL     1      24.232  29.338  14.456  1.00  0.00     0.000 C 
BRANCH   2   3
ATOM      3  C   UNL     1      25.013  29.014  13.173  1.00  0.00     0.006 C 
BRANCH   3   4
ATOM      4  C   UNL     1      24.125  29.018  11.923  1.00  0.00     0.053 C 
BRANCH   4   5
ATOM      5  C   UNL     1      23.121  27.911  11.992  1.00  0.00     0.041 C 
ATOM      6  O   UNL     1      23.490  26.713  11.875  1.00  0.00    -0.550 OA
ATOM      7  O   UNL     1      21.771  28.204  12.136  1.00  0.00    -0.550 OA
ENDBRANCH   4   5
ENDBRANCH   3   4
ENDBRANCH   2   3
ENDBRANCH   1   2
BRANCH   1   8
ATOM      8  C   UNL     1      25.753  27.499  15.293  1.00  0.00     0.000 C 
BRANCH   8   9
ATOM      9  C   UNL     1      25.958  26.416  16.362  1.00  0.00     0.006 C 
BRANCH   9  10
ATOM     10  C   UNL     1      24.871  25.334  16.309  1.00  0.00     0.053 C 
BRANCH  10  11
ATOM     11  C   UNL     1      25.079  24.395  15.160  1.00  0.00     0.041 C 
ATOM     12  O   UNL     1      26.125  23.696  15.093  1.00  0.00    -0.550 OA
ATOM     13  O   UNL     1      24.132  24.313  14.148  1.00  0.00    -0.550 OA
ENDBRANCH  10  11
ENDBRANCH   9  10
ENDBRANCH   8   9
ENDBRANCH   1   8
TORSDOF 8
ENDMDL
MODEL 4
REMARK VINA RESULT:    -1.842      2.019      4.037
REMARK INTER + INTRA:          -3.356
REMARK INTER:                  -2.560
REMARK INTRA:                  -0.797
REMARK UNBOUND:                -0.653
REMARK SMILES O=C([O-])CCCCCCCC(=O)[O-]
REMARK SMILES IDX 7 1 6 2 5 3 4 4 2 5 1 6 3 7 8 8 9 9 10 10 11 11 12 12 13 13
REMARK H PARENT
REMARK Flexibility Score: inf
ROOT
ATOM      1  C   UNL     1      23.888  27.659  16.616  1.00  0.00     0.000 C 
ENDROOT
BRANCH   1   2
ATOM      2  C   UNL     1      24.971  26.594  16.383  1.00  0.00     0.000 C 
BRANCH   2   3
ATOM      3  C   UNL     1      24.625  25.642  15.227  1.00  0.00     0.006 C 
BRANCH   3   4
ATOM      4  C   UNL     1      23.126  25.327  15.148  1.00  0.00     0.053 C 
BRANCH   4   5
ATOM      5  C   UNL     1      22.622  25.534  13.754  1.00  0.00     0.041 C 
ATOM      6  O   UNL     1      21.412  25.321  13.480  1.00  0.00    -0.550 OA
ATOM      7  O   UNL     1      23.500  25.914  12.747  1.00  0.00    -0.550 OA
ENDBRANCH   4   5
ENDBRANCH   3   4
ENDBRANCH   2   3
ENDBRANCH   1   2
BRANCH   1   8
ATOM      8  C   UNL     1      24.496  29.067  16.624  1.00  0.00     0.000 C 
BRANCH   8   9
ATOM      9  C   UNL     1      23.871  29.944  15.530  1.00  0.00     0.006 C 
BRANCH   9  10
ATOM     10  C   UNL     1      23.501  29.137  14.278  1.00  0.00     0.053 C 
BRANCH  10  11
ATOM     11  C   UNL     1      24.540  29.269  13.206  1.00  0.00     0.041 C 
ATOM     12  O   UNL     1      25.622  28.631  13.290  1.00  0.00    -0.550 OA
ATOM     13  O   UNL     1      24.324  30.120  12.131  1.00  0.00    -0.550 OA
ENDBRANCH  10  11
ENDBRANCH   9  10
ENDBRANCH   8   9
ENDBRANCH   1   8
TORSDOF 8
ENDMDL
MODEL 5
REMARK VINA RESULT:    -1.823      1.687      4.192
REMARK INTER + INTRA:          -3.329
REMARK INTER:                  -2.416
REMARK INTRA:                  -0.913
REMARK UNBOUND:                -0.653
REMARK SMILES O=C([O-])CCCCCCCC(=O)[O-]
REMARK SMILES IDX 7 1 6 2 5 3 4 4 2 5 1 6 3 7 8 8 9 9 10 10 11 11 12 12 13 13
REMARK H PARENT
REMARK Flexibility Score: inf
ROOT
ATOM      1  C   UNL     1      22.094  26.438  15.625  1.00  0.00     0.000 C 
ENDROOT
BRANCH   1   2
ATOM      2  C   UNL     1      22.275  27.914  16.011  1.00  0.00     0.000 C 
BRANCH   2   3
ATOM      3  C   UNL     1      23.333  28.113  17.108  1.00  0.00     0.006 C 
BRANCH   3   4
ATOM      4  C   UNL     1      24.699  28.525  16.545  1.00  0.00     0.053 C 
BRANCH   4   5
ATOM      5  C   UNL     1      25.637  27.359  16.548  1.00  0.00     0.041 C 
ATOM      6  O   UNL     1      25.953  26.798  15.466  1.00  0.00    -0.550 OA
ATOM      7  O   UNL     1      26.125  26.863  17.749  1.00  0.00    -0.550 OA
ENDBRANCH   4   5
ENDBRANCH   3   4
ENDBRANCH   2   3
ENDBRANCH   1   2
BRANCH   1   8
ATOM      8  C   UNL     1      22.469  26.205  14.157  1.00  0.00     0.000 C 
BRANCH   8   9
ATOM      9  C   UNL     1      22.536  27.532  13.387  1.00  0.00     0.006 C 
BRANCH   9  10
ATOM     10  C   UNL     1      23.816  27.654  12.550  1.00  0.00     0.053 C 
BRANCH  10  11
ATOM     11  C   UNL     1      24.607  28.871  12.921  1.00  0.00     0.041 C 
ATOM     12  O   UNL     1      25.864  28.857  12.848  1.00  0.00    -0.550 OA
ATOM     13  O   UNL     1      23.957  30.010  13.376  1.00  0.00    -0.550 OA
ENDBRANCH  10  11
ENDBRANCH   9  10
ENDBRANCH   8   9
ENDBRANCH   1   8
TORSDOF 8
ENDMDL
MODEL 6
REMARK VINA RESULT:    -1.816      2.805      4.488
REMARK INTER + INTRA:          -3.318
REMARK INTER:                  -2.782
REMARK INTRA:                  -0.536
REMARK UNBOUND:                -0.653
REMARK SMILES O=C([O-])CCCCCCCC(=O)[O-]
REMARK SMILES IDX 7 1 6 2 5 3 4 4 2 5 1 6 3 7 8 8 9 9 10 10 11 11 12 12 13 13
REMARK H PARENT
REMARK Flexibility Score: inf
ROOT
ATOM      1  C   UNL     1      22.110  26.610  13.095  1.00  0.00     0.000 C 
ENDROOT
BRANCH   1   2
ATOM      2  C   UNL     1      23.187  25.564  12.770  1.00  0.00     0.000 C 
BRANCH   2   3
ATOM      3  C   UNL     1      23.812  24.947  14.031  1.00  0.00     0.006 C 
BRANCH   3   4
ATOM      4  C   UNL     1      23.931  23.420  13.947  1.00  0.00     0.053 C 
BRANCH   4   5
ATOM      5  C   UNL     1      25.358  22.998  14.104  1.00  0.00     0.041 C 
ATOM      6  O   UNL     1      26.072  23.505  15.009  1.00  0.00    -0.550 OA
ATOM      7  O   UNL     1      25.914  22.083  13.221  1.00  0.00    -0.550 OA
ENDBRANCH   4   5
ENDBRANCH   3   4
ENDBRANCH   2   3
ENDBRANCH   1   2
BRANCH   1   8
ATOM      8  C   UNL     1      22.370  27.918  12.339  1.00  0.00     0.000 C 
BRANCH   8   9
ATOM      9  C   UNL     1      23.867  28.100  12.048  1.00  0.00     0.006 C 
BRANCH   9  10
ATOM     10  C   UNL     1      24.474  29.269  12.835  1.00  0.00     0.053 C 
BRANCH  10  11
ATOM     11  C   UNL     1      24.721  28.906  14.267  1.00  0.00     0.041 C 
ATOM     12  O   UNL     1      24.139  29.534  15.190  1.00  0.00    -0.550 OA
ATOM     13  O   UNL     1      25.617  27.893  14.583  1.00  0.00    -0.550 OA
ENDBRANCH  10  11
ENDBRANCH   9  10
ENDBRANCH   8   9
ENDBRANCH   1   8
TORSDOF 8
ENDMDL
MODEL 7
REMARK VINA RESULT:    -1.767      0.850      4.231
REMARK INTER + INTRA:          -3.245
REMARK INTER:                  -2.619
REMARK INTRA:                  -0.627
REMARK UNBOUND:                -0.653
REMARK SMILES O=C([O-])CCCCCCCC(=O)[O-]
REMARK SMILES IDX 7 1 6 2 5 3 4 4 2 5 1 6 3 7 8 8 9 9 10 10 11 11 12 12 13 13
REMARK H PARENT
REMARK Flexibility Score: inf
ROOT
ATOM      1  C   UNL     1      23.216  25.959  14.515  1.00  0.00     0.000 C 
ENDROOT
BRANCH   1   2
ATOM      2  C   UNL     1      24.521  25.446  15.143  1.00  0.00     0.000 C 
BRANCH   2   3
ATOM      3  C   UNL     1      24.782  26.044  16.535  1.00  0.00     0.006 C 
BRANCH   3   4
ATOM      4  C   UNL     1      24.500  27.551  16.594  1.00  0.00     0.053 C 
BRANCH   4   5
ATOM      5  C   UNL     1      25.352  28.201  17.637  1.00  0.00     0.041 C 
ATOM      6  O   UNL     1      26.125  27.505  18.348  1.00  0.00    -0.550 OA
ATOM      7  O   UNL     1      25.258  29.568  17.859  1.00  0.00    -0.550 OA
ENDBRANCH   4   5
ENDBRANCH   3   4
ENDBRANCH   2   3
ENDBRANCH   1   2
BRANCH   1   8
ATOM      8  C   UNL     1      23.302  25.943  12.984  1.00  0.00     0.000 C 
BRANCH   8   9
ATOM      9  C   UNL     1      22.850  27.287  12.393  1.00  0.00     0.006 C 
BRANCH   9  10
ATOM     10  C   UNL     1      23.189  28.469  13.310  1.00  0.00     0.053 C 
BRANCH  10  11
ATOM     11  C   UNL     1      24.468  29.137  12.906  1.00  0.00     0.041 C 
ATOM     12  O   UNL     1      24.448  30.125  12.125  1.00  0.00    -0.550 OA
ATOM     13  O   UNL     1      25.683  28.648  13.366  1.00  0.00    -0.550 OA
ENDBRANCH  10  11
ENDBRANCH   9  10
ENDBRANCH   8   9
ENDBRANCH   1   8
TORSDOF 8
ENDMDL
MODEL 8
REMARK VINA RESULT:    -1.764      2.473      3.797
REMARK INTER + INTRA:          -3.242
REMARK INTER:                  -2.558
REMARK INTRA:                  -0.684
REMARK UNBOUND:                -0.653
REMARK SMILES O=C([O-])CCCCCCCC(=O)[O-]
REMARK SMILES IDX 7 1 6 2 5 3 4 4 2 5 1 6 3 7 8 8 9 9 10 10 11 11 12 12 13 13
REMARK H PARENT
REMARK Flexibility Score: inf
ROOT
ATOM      1  C   UNL     1      26.125  27.142  16.924  1.00  0.00     0.000 C 
ENDROOT
BRANCH   1   2
ATOM      2  C   UNL     1      24.910  28.072  17.056  1.00  0.00     0.000 C 
BRANCH   2   3
ATOM      3  C   UNL     1      24.434  28.620  15.702  1.00  0.00     0.006 C 
BRANCH   3   4
ATOM      4  C   UNL     1      25.335  28.187  14.539  1.00  0.00     0.053 C 
BRANCH   4   5
ATOM      5  C   UNL     1      24.664  28.460  13.229  1.00  0.00     0.041 C 
ATOM      6  O   UNL     1      25.036  29.430  12.518  1.00  0.00    -0.550 OA
ATOM      7  O   UNL     1      23.597  27.674  12.817  1.00  0.00    -0.550 OA
ENDBRANCH   4   5
ENDBRANCH   3   4
ENDBRANCH   2   3
ENDBRANCH   1   2
BRANCH   1   8
ATOM      8  C   UNL     1      26.015  25.954  17.887  1.00  0.00     0.000 C 
BRANCH   8   9
ATOM      9  C   UNL     1      26.096  24.621  17.130  1.00  0.00     0.006 C 
BRANCH   9  10
ATOM     10  C   UNL     1      26.108  24.816  15.608  1.00  0.00     0.053 C 
BRANCH  10  11
ATOM     11  C   UNL     1      24.790  24.458  14.992  1.00  0.00     0.041 C 
ATOM     12  O   UNL     1      24.740  23.659  14.020  1.00  0.00    -0.550 OA
ATOM     13  O   UNL     1      23.620  25.030  15.473  1.00  0.00    -0.550 OA
ENDBRANCH  10  11
ENDBRANCH   9  10
ENDBRANCH   8   9
ENDBRANCH   1   8
TORSDOF 8
ENDMDL
