MODEL 1
REMARK VINA RESULT:    -5.652      0.000      0.000
REMARK INTER + INTRA:          -7.083
REMARK INTER:                  -6.974
REMARK INTRA:                  -0.109
REMARK UNBOUND:                -0.109
REMARK SMILES O=c1c(O)c(-c2cc(O)c(O)c(O)c2)oc2cc(O)cc(O)c12
REMARK SMILES IDX 5 1 3 2 2 3 1 4 23 5 21 6 20 7 18 8 17 9 16 10 15 11 6 12
REMARK SMILES IDX 7 13 8 14 14 15 10 16 12 17 9 18 11 20 13 22 4 24 22 26
REMARK SMILES IDX 19 28
REMARK H PARENT 9 19 11 21 13 23 4 25 22 27 19 29
REMARK Flexibility Score: inf
ROOT
ATOM      1  C   UNL     1     174.092 169.951 172.913  1.00  0.00     0.180 A 
ATOM      2  C   UNL     1     173.995 168.565 173.121  1.00  0.00     0.208 A 
ATOM      3  C   UNL     1     172.723 167.978 173.221  1.00  0.00     0.238 A 
ATOM      4  O   UNL     1     172.643 166.746 173.462  1.00  0.00    -0.285 OA
ATOM      5  C   UNL     1     171.565 168.783 173.095  1.00  0.00     0.111 A 
ATOM      6  C   UNL     1     170.227 168.289 173.139  1.00  0.00     0.134 A 
ATOM      7  C   UNL     1     169.157 169.192 173.135  1.00  0.00     0.093 A 
ATOM      8  C   UNL     1     169.373 170.565 173.022  1.00  0.00     0.123 A 
ATOM      9  C   UNL     1     170.676 171.055 172.918  1.00  0.00     0.094 A 
ATOM     10  C   UNL     1     171.766 170.181 172.956  1.00  0.00     0.146 A 
ATOM     11  O   UNL     1     172.989 170.688 172.865  1.00  0.00    -0.452 OA
ENDROOT
BRANCH   1  12
ATOM     12  C   UNL     1     175.397 170.637 172.772  1.00  0.00     0.029 A 
ATOM     13  C   UNL     1     176.342 170.223 171.817  1.00  0.00     0.062 A 
ATOM     14  C   UNL     1     177.560 170.897 171.681  1.00  0.00     0.162 A 
ATOM     15  C   UNL     1     175.677 171.760 173.567  1.00  0.00     0.062 A 
ATOM     16  C   UNL     1     177.844 172.006 172.496  1.00  0.00     0.200 A 
ATOM     17  C   UNL     1     176.896 172.439 173.440  1.00  0.00     0.162 A 
BRANCH  14  18
ATOM     18  O   UNL     1     178.474 170.452 170.727  1.00  0.00    -0.504 OA
ATOM     19  H   UNL     1     179.463 170.366 170.926  1.00  0.00     0.293 HD
ENDBRANCH  14  18
BRANCH  16  20
ATOM     20  O   UNL     1     179.064 172.670 172.358  1.00  0.00    -0.502 OA
ATOM     21  H   UNL     1     179.651 172.893 173.152  1.00  0.00     0.293 HD
ENDBRANCH  16  20
BRANCH  17  22
ATOM     22  O   UNL     1     177.167 173.544 174.245  1.00  0.00    -0.504 OA
ATOM     23  H   UNL     1     177.873 173.512 174.971  1.00  0.00     0.293 HD
ENDBRANCH  17  22
ENDBRANCH   1  12
BRANCH   2  24
ATOM     24  O   UNL     1     175.152 167.792 173.264  1.00  0.00    -0.502 OA
ATOM     25  H   UNL     1     175.510 167.512 174.169  1.00  0.00     0.293 HD
ENDBRANCH   2  24
BRANCH   6  26
ATOM     26  O   UNL     1     169.896 166.931 173.161  1.00  0.00    -0.507 OA
ATOM     27  H   UNL     1     169.918 166.322 172.358  1.00  0.00     0.293 HD
ENDBRANCH   6  26
BRANCH   8  28
ATOM     28  O   UNL     1     168.284 171.433 173.005  1.00  0.00    -0.508 OA
ATOM     29  H   UNL     1     168.174 172.131 172.277  1.00  0.00     0.293 HD
ENDBRANCH   8  28
TORSDOF 7
ENDMDL
MODEL 2
REMARK VINA RESULT:    -5.618      4.072      6.494
REMARK INTER + INTRA:          -7.041
REMARK INTER:                  -6.932
REMARK INTRA:                  -0.109
REMARK UNBOUND:                -0.109
REMARK SMILES O=c1c(O)c(-c2cc(O)c(O)c(O)c2)oc2cc(O)cc(O)c12
REMARK SMILES IDX 5 1 3 2 2 3 1 4 23 5 21 6 20 7 18 8 17 9 16 10 15 11 6 12
REMARK SMILES IDX 7 13 8 14 14 15 10 16 12 17 9 18 11 20 13 22 4 24 22 26
REMARK SMILES IDX 19 28
REMARK H PARENT 9 19 11 21 13 23 4 25 22 27 19 29
REMARK Flexibility Score: inf
ROOT
ATOM      1  C   UNL     1     176.396 168.862 170.360  1.00  0.00     0.180 A 
ATOM      2  C   UNL     1     175.291 168.814 169.493  1.00  0.00     0.208 A 
ATOM      3  C   UNL     1     175.137 167.704 168.647  1.00  0.00     0.238 A 
ATOM      4  O   UNL     1     174.176 167.692 167.834  1.00  0.00    -0.285 OA
ATOM      5  C   UNL     1     176.080 166.649 168.691  1.00  0.00     0.111 A 
ATOM      6  C   UNL     1     176.001 165.458 167.908  1.00  0.00     0.134 A 
ATOM      7  C   UNL     1     177.058 164.540 167.937  1.00  0.00     0.093 A 
ATOM      8  C   UNL     1     178.159 164.737 168.768  1.00  0.00     0.123 A 
ATOM      9  C   UNL     1     178.220 165.869 169.583  1.00  0.00     0.094 A 
ATOM     10  C   UNL     1     177.197 166.821 169.549  1.00  0.00     0.146 A 
ATOM     11  O   UNL     1     177.298 167.888 170.332  1.00  0.00    -0.452 OA
ENDROOT
BRANCH   1  12
ATOM     12  C   UNL     1     176.612 169.987 171.299  1.00  0.00     0.029 A 
ATOM     13  C   UNL     1     175.620 170.376 172.216  1.00  0.00     0.062 A 
ATOM     14  C   UNL     1     175.850 171.426 173.111  1.00  0.00     0.162 A 
ATOM     15  C   UNL     1     177.853 170.643 171.316  1.00  0.00     0.062 A 
ATOM     16  C   UNL     1     177.086 172.094 173.108  1.00  0.00     0.200 A 
ATOM     17  C   UNL     1     178.091 171.697 172.209  1.00  0.00     0.162 A 
BRANCH  14  18
ATOM     18  O   UNL     1     174.838 171.785 174.001  1.00  0.00    -0.504 OA
ATOM     19  H   UNL     1     175.028 172.009 174.971  1.00  0.00     0.293 HD
ENDBRANCH  14  18
BRANCH  16  20
ATOM     20  O   UNL     1     177.305 173.143 174.002  1.00  0.00    -0.502 OA
ATOM     21  H   UNL     1     178.209 173.587 174.103  1.00  0.00     0.293 HD
ENDBRANCH  16  20
BRANCH  17  22
ATOM     22  O   UNL     1     179.322 172.350 172.206  1.00  0.00    -0.504 OA
ATOM     23  H   UNL     1     179.421 173.300 172.544  1.00  0.00     0.293 HD
ENDBRANCH  17  22
ENDBRANCH   1  12
BRANCH   2  24
ATOM     24  O   UNL     1     174.384 169.877 169.450  1.00  0.00    -0.502 OA
ATOM     25  H   UNL     1     173.652 169.995 170.140  1.00  0.00     0.293 HD
ENDBRANCH   2  24
BRANCH   6  26
ATOM     26  O   UNL     1     174.902 165.119 167.112  1.00  0.00    -0.507 OA
ATOM     27  H   UNL     1     174.321 165.782 166.623  1.00  0.00     0.293 HD
ENDBRANCH   6  26
BRANCH   8  28
ATOM     28  O   UNL     1     179.186 163.795 168.783  1.00  0.00    -0.508 OA
ATOM     29  H   UNL     1     179.168 163.003 169.415  1.00  0.00     0.293 HD
ENDBRANCH   8  28
TORSDOF 7
ENDMDL
MODEL 3
REMARK VINA RESULT:    -5.572      1.613      3.392
REMARK INTER + INTRA:          -6.985
REMARK INTER:                  -6.630
REMARK INTRA:                  -0.355
REMARK UNBOUND:                -0.109
REMARK SMILES O=c1c(O)c(-c2cc(O)c(O)c(O)c2)oc2cc(O)cc(O)c12
REMARK SMILES IDX 5 1 3 2 2 3 1 4 23 5 21 6 20 7 18 8 17 9 16 10 15 11 6 12
REMARK SMILES IDX 7 13 8 14 14 15 10 16 12 17 9 18 11 20 13 22 4 24 22 26
REMARK SMILES IDX 19 28
REMARK H PARENT 9 19 11 21 13 23 4 25 22 27 19 29
REMARK Flexibility Score: inf
ROOT
ATOM      1  C   UNL     1     174.302 169.768 172.725  1.00  0.00     0.180 A 
ATOM      2  C   UNL     1     173.207 169.949 171.863  1.00  0.00     0.208 A 
ATOM      3  C   UNL     1     172.076 169.130 172.016  1.00  0.00     0.238 A 
ATOM      4  O   UNL     1     171.122 169.260 171.207  1.00  0.00    -0.285 OA
ATOM      5  C   UNL     1     172.050 168.151 173.039  1.00  0.00     0.111 A 
ATOM      6  C   UNL     1     170.942 167.294 173.311  1.00  0.00     0.134 A 
ATOM      7  C   UNL     1     171.074 166.275 174.262  1.00  0.00     0.093 A 
ATOM      8  C   UNL     1     172.248 166.123 174.997  1.00  0.00     0.123 A 
ATOM      9  C   UNL     1     173.318 166.994 174.782  1.00  0.00     0.094 A 
ATOM     10  C   UNL     1     173.229 167.998 173.814  1.00  0.00     0.146 A 
ATOM     11  O   UNL     1     174.272 168.799 173.632  1.00  0.00    -0.452 OA
ENDROOT
BRANCH   1  12
ATOM     12  C   UNL     1     175.518 170.609 172.642  1.00  0.00     0.029 A 
ATOM     13  C   UNL     1     175.677 171.747 173.452  1.00  0.00     0.062 A 
ATOM     14  C   UNL     1     176.842 172.518 173.377  1.00  0.00     0.162 A 
ATOM     15  C   UNL     1     176.560 170.235 171.779  1.00  0.00     0.062 A 
ATOM     16  C   UNL     1     177.872 172.150 172.495  1.00  0.00     0.200 A 
ATOM     17  C   UNL     1     177.729 171.002 171.696  1.00  0.00     0.162 A 
BRANCH  14  18
ATOM     18  O   UNL     1     176.959 173.642 174.193  1.00  0.00    -0.504 OA
ATOM     19  H   UNL     1     176.219 174.328 174.275  1.00  0.00     0.293 HD
ENDBRANCH  14  18
BRANCH  16  20
ATOM     20  O   UNL     1     179.029 172.927 172.423  1.00  0.00    -0.502 OA
ATOM     21  H   UNL     1     179.616 172.947 171.598  1.00  0.00     0.293 HD
ENDBRANCH  16  20
BRANCH  17  22
ATOM     22  O   UNL     1     178.750 170.627 170.824  1.00  0.00    -0.504 OA
ATOM     23  H   UNL     1     179.690 170.440 171.155  1.00  0.00     0.293 HD
ENDBRANCH  17  22
ENDBRANCH   1  12
BRANCH   2  24
ATOM     24  O   UNL     1     173.264 170.906 170.846  1.00  0.00    -0.502 OA
ATOM     25  H   UNL     1     172.763 170.801 169.972  1.00  0.00     0.293 HD
ENDBRANCH   2  24
BRANCH   6  26
ATOM     26  O   UNL     1     169.691 167.418 172.699  1.00  0.00    -0.507 OA
ATOM     27  H   UNL     1     169.310 168.279 172.339  1.00  0.00     0.293 HD
ENDBRANCH   6  26
BRANCH   8  28
ATOM     28  O   UNL     1     172.339 165.109 175.947  1.00  0.00    -0.508 OA
ATOM     29  H   UNL     1     171.987 164.176 175.761  1.00  0.00     0.293 HD
ENDBRANCH   8  28
TORSDOF 7
ENDMDL
MODEL 4
REMARK VINA RESULT:    -5.529      0.341      1.788
REMARK INTER + INTRA:          -6.931
REMARK INTER:                  -6.947
REMARK INTRA:                   0.016
REMARK UNBOUND:                -0.109
REMARK SMILES O=c1c(O)c(-c2cc(O)c(O)c(O)c2)oc2cc(O)cc(O)c12
REMARK SMILES IDX 5 1 3 2 2 3 1 4 23 5 21 6 20 7 18 8 17 9 16 10 15 11 6 12
REMARK SMILES IDX 7 13 8 14 14 15 10 16 12 17 9 18 11 20 13 22 4 24 22 26
REMARK SMILES IDX 19 28
REMARK H PARENT 9 19 11 21 13 23 4 25 22 27 19 29
REMARK Flexibility Score: inf
ROOT
ATOM      1  C   UNL     1     174.320 169.955 172.899  1.00  0.00     0.180 A 
ATOM      2  C   UNL     1     174.321 168.556 173.019  1.00  0.00     0.208 A 
ATOM      3  C   UNL     1     173.095 167.880 173.121  1.00  0.00     0.238 A 
ATOM      4  O   UNL     1     173.104 166.632 173.283  1.00  0.00    -0.285 OA
ATOM      5  C   UNL     1     171.883 168.611 173.086  1.00  0.00     0.111 A 
ATOM      6  C   UNL     1     170.582 168.026 173.141  1.00  0.00     0.134 A 
ATOM      7  C   UNL     1     169.456 168.854 173.231  1.00  0.00     0.093 A 
ATOM      8  C   UNL     1     169.578 170.242 173.201  1.00  0.00     0.123 A 
ATOM      9  C   UNL     1     170.842 170.824 173.087  1.00  0.00     0.094 A 
ATOM     10  C   UNL     1     171.987 170.025 173.032  1.00  0.00     0.146 A 
ATOM     11  O   UNL     1     173.170 170.619 172.935  1.00  0.00    -0.452 OA
ENDROOT
BRANCH   1  12
ATOM     12  C   UNL     1     175.572 170.736 172.761  1.00  0.00     0.029 A 
ATOM     13  C   UNL     1     175.837 171.844 173.584  1.00  0.00     0.062 A 
ATOM     14  C   UNL     1     177.034 172.556 173.456  1.00  0.00     0.162 A 
ATOM     15  C   UNL     1     176.540 170.329 171.830  1.00  0.00     0.062 A 
ATOM     16  C   UNL     1     177.990 172.158 172.506  1.00  0.00     0.200 A 
ATOM     17  C   UNL     1     177.742 171.038 171.694  1.00  0.00     0.162 A 
BRANCH  14  18
ATOM     18  O   UNL     1     177.257 173.654 174.287  1.00  0.00    -0.504 OA
ATOM     19  H   UNL     1     177.633 174.527 173.937  1.00  0.00     0.293 HD
ENDBRANCH  14  18
BRANCH  16  20
ATOM     20  O   UNL     1     179.180 172.877 172.382  1.00  0.00    -0.502 OA
ATOM     21  H   UNL     1     179.272 173.666 171.755  1.00  0.00     0.293 HD
ENDBRANCH  16  20
BRANCH  17  22
ATOM     22  O   UNL     1     178.689 170.632 170.755  1.00  0.00    -0.504 OA
ATOM     23  H   UNL     1     178.689 170.994 169.809  1.00  0.00     0.293 HD
ENDBRANCH  17  22
ENDBRANCH   1  12
BRANCH   2  24
ATOM     24  O   UNL     1     175.530 167.856 173.073  1.00  0.00    -0.502 OA
ATOM     25  H   UNL     1     176.289 168.128 173.686  1.00  0.00     0.293 HD
ENDBRANCH   2  24
BRANCH   6  26
ATOM     26  O   UNL     1     170.342 166.650 173.085  1.00  0.00    -0.507 OA
ATOM     27  H   UNL     1     170.912 165.988 172.581  1.00  0.00     0.293 HD
ENDBRANCH   6  26
BRANCH   8  28
ATOM     28  O   UNL     1     168.435 171.034 173.276  1.00  0.00    -0.508 OA
ATOM     29  H   UNL     1     167.697 170.966 172.585  1.00  0.00     0.293 HD
ENDBRANCH   8  28
TORSDOF 7
ENDMDL
MODEL 5
REMARK VINA RESULT:    -5.512      1.326      6.946
REMARK INTER + INTRA:          -6.909
REMARK INTER:                  -6.673
REMARK INTRA:                  -0.237
REMARK UNBOUND:                -0.109
REMARK SMILES O=c1c(O)c(-c2cc(O)c(O)c(O)c2)oc2cc(O)cc(O)c12
REMARK SMILES IDX 5 1 3 2 2 3 1 4 23 5 21 6 20 7 18 8 17 9 16 10 15 11 6 12
REMARK SMILES IDX 7 13 8 14 14 15 10 16 12 17 9 18 11 20 13 22 4 24 22 26
REMARK SMILES IDX 19 28
REMARK H PARENT 9 19 11 21 13 23 4 25 22 27 19 29
REMARK Flexibility Score: inf
ROOT
ATOM      1  C   UNL     1     173.582 169.879 172.182  1.00  0.00     0.180 A 
ATOM      2  C   UNL     1     174.201 169.327 171.048  1.00  0.00     0.208 A 
ATOM      3  C   UNL     1     175.542 169.645 170.781  1.00  0.00     0.238 A 
ATOM      4  O   UNL     1     176.074 169.192 169.734  1.00  0.00    -0.285 OA
ATOM      5  C   UNL     1     176.252 170.497 171.661  1.00  0.00     0.111 A 
ATOM      6  C   UNL     1     177.626 170.854 171.511  1.00  0.00     0.134 A 
ATOM      7  C   UNL     1     178.190 171.807 172.367  1.00  0.00     0.093 A 
ATOM      8  C   UNL     1     177.450 172.368 173.407  1.00  0.00     0.123 A 
ATOM      9  C   UNL     1     176.123 171.981 173.601  1.00  0.00     0.094 A 
ATOM     10  C   UNL     1     175.522 171.059 172.740  1.00  0.00     0.146 A 
ATOM     11  O   UNL     1     174.254 170.727 172.952  1.00  0.00    -0.452 OA
ENDROOT
BRANCH   1  12
ATOM     12  C   UNL     1     172.179 169.571 172.543  1.00  0.00     0.029 A 
ATOM     13  C   UNL     1     171.789 168.275 172.922  1.00  0.00     0.062 A 
ATOM     14  C   UNL     1     170.464 168.006 173.282  1.00  0.00     0.162 A 
ATOM     15  C   UNL     1     171.228 170.603 172.563  1.00  0.00     0.062 A 
ATOM     16  C   UNL     1     169.512 169.039 173.278  1.00  0.00     0.200 A 
ATOM     17  C   UNL     1     169.898 170.342 172.920  1.00  0.00     0.162 A 
BRANCH  14  18
ATOM     18  O   UNL     1     170.116 166.706 173.647  1.00  0.00    -0.504 OA
ATOM     19  H   UNL     1     170.772 166.078 174.095  1.00  0.00     0.293 HD
ENDBRANCH  14  18
BRANCH  16  20
ATOM     20  O   UNL     1     168.191 168.761 173.634  1.00  0.00    -0.502 OA
ATOM     21  H   UNL     1     167.500 169.490 173.757  1.00  0.00     0.293 HD
ENDBRANCH  16  20
BRANCH  17  22
ATOM     22  O   UNL     1     168.960 171.374 172.922  1.00  0.00    -0.504 OA
ATOM     23  H   UNL     1     169.132 172.247 173.405  1.00  0.00     0.293 HD
ENDBRANCH  17  22
ENDBRANCH   1  12
BRANCH   2  24
ATOM     24  O   UNL     1     173.474 168.506 170.180  1.00  0.00    -0.502 OA
ATOM     25  H   UNL     1     173.749 167.552 169.977  1.00  0.00     0.293 HD
ENDBRANCH   2  24
BRANCH   6  26
ATOM     26  O   UNL     1     178.480 170.286 170.561  1.00  0.00    -0.507 OA
ATOM     27  H   UNL     1     178.184 169.916 169.670  1.00  0.00     0.293 HD
ENDBRANCH   6  26
BRANCH   8  28
ATOM     28  O   UNL     1     178.048 173.302 174.250  1.00  0.00    -0.508 OA
ATOM     29  H   UNL     1     179.050 173.311 174.406  1.00  0.00     0.293 HD
ENDBRANCH   8  28
TORSDOF 7
ENDMDL
MODEL 6
REMARK VINA RESULT:    -5.466      3.834      5.137
REMARK INTER + INTRA:          -6.853
REMARK INTER:                  -6.511
REMARK INTRA:                  -0.342
REMARK UNBOUND:                -0.109
REMARK SMILES O=c1c(O)c(-c2cc(O)c(O)c(O)c2)oc2cc(O)cc(O)c12
REMARK SMILES IDX 5 1 3 2 2 3 1 4 23 5 21 6 20 7 18 8 17 9 16 10 15 11 6 12
REMARK SMILES IDX 7 13 8 14 14 15 10 16 12 17 9 18 11 20 13 22 4 24 22 26
REMARK SMILES IDX 19 28
REMARK H PARENT 9 19 11 21 13 23 4 25 22 27 19 29
REMARK Flexibility Score: inf
ROOT
ATOM      1  C   UNL     1     175.837 169.165 170.582  1.00  0.00     0.180 A 
ATOM      2  C   UNL     1     175.857 167.809 170.949  1.00  0.00     0.208 A 
ATOM      3  C   UNL     1     175.416 166.846 170.026  1.00  0.00     0.238 A 
ATOM      4  O   UNL     1     175.385 165.639 170.381  1.00  0.00    -0.285 OA
ATOM      5  C   UNL     1     174.977 167.252 168.743  1.00  0.00     0.111 A 
ATOM      6  C   UNL     1     174.548 166.359 167.715  1.00  0.00     0.134 A 
ATOM      7  C   UNL     1     174.012 166.877 166.530  1.00  0.00     0.093 A 
ATOM      8  C   UNL     1     173.949 168.252 166.308  1.00  0.00     0.123 A 
ATOM      9  C   UNL     1     174.422 169.133 167.282  1.00  0.00     0.094 A 
ATOM     10  C   UNL     1     174.929 168.647 168.490  1.00  0.00     0.146 A 
ATOM     11  O   UNL     1     175.358 169.519 169.395  1.00  0.00    -0.452 OA
ENDROOT
BRANCH   1  12
ATOM     12  C   UNL     1     176.309 170.235 171.491  1.00  0.00     0.029 A 
ATOM     13  C   UNL     1     175.474 170.771 172.486  1.00  0.00     0.062 A 
ATOM     14  C   UNL     1     175.943 171.764 173.351  1.00  0.00     0.162 A 
ATOM     15  C   UNL     1     177.635 170.686 171.397  1.00  0.00     0.062 A 
ATOM     16  C   UNL     1     177.264 172.228 173.237  1.00  0.00     0.200 A 
ATOM     17  C   UNL     1     178.113 171.683 172.258  1.00  0.00     0.162 A 
BRANCH  14  18
ATOM     18  O   UNL     1     175.081 172.274 174.322  1.00  0.00    -0.504 OA
ATOM     19  H   UNL     1     175.395 172.496 175.259  1.00  0.00     0.293 HD
ENDBRANCH  14  18
BRANCH  16  20
ATOM     20  O   UNL     1     177.723 173.223 174.102  1.00  0.00    -0.502 OA
ATOM     21  H   UNL     1     178.657 173.608 174.036  1.00  0.00     0.293 HD
ENDBRANCH  16  20
BRANCH  17  22
ATOM     22  O   UNL     1     179.427 172.132 172.145  1.00  0.00    -0.504 OA
ATOM     23  H   UNL     1     180.006 172.293 172.961  1.00  0.00     0.293 HD
ENDBRANCH  17  22
ENDBRANCH   1  12
BRANCH   2  24
ATOM     24  O   UNL     1     176.273 167.434 172.230  1.00  0.00    -0.502 OA
ATOM     25  H   UNL     1     177.081 166.844 172.387  1.00  0.00     0.293 HD
ENDBRANCH   2  24
BRANCH   6  26
ATOM     26  O   UNL     1     174.651 164.967 167.796  1.00  0.00    -0.507 OA
ATOM     27  H   UNL     1     175.443 164.471 168.176  1.00  0.00     0.293 HD
ENDBRANCH   6  26
BRANCH   8  28
ATOM     28  O   UNL     1     173.424 168.732 165.111  1.00  0.00    -0.508 OA
ATOM     29  H   UNL     1     172.425 168.751 164.940  1.00  0.00     0.293 HD
ENDBRANCH   8  28
TORSDOF 7
ENDMDL
MODEL 7
REMARK VINA RESULT:    -5.446      3.493      3.756
REMARK INTER + INTRA:          -6.829
REMARK INTER:                  -6.460
REMARK INTRA:                  -0.369
REMARK UNBOUND:                -0.109
REMARK SMILES O=c1c(O)c(-c2cc(O)c(O)c(O)c2)oc2cc(O)cc(O)c12
REMARK SMILES IDX 5 1 3 2 2 3 1 4 23 5 21 6 20 7 18 8 17 9 16 10 15 11 6 12
REMARK SMILES IDX 7 13 8 14 14 15 10 16 12 17 9 18 11 20 13 22 4 24 22 26
REMARK SMILES IDX 19 28
REMARK H PARENT 9 19 11 21 13 23 4 25 22 27 19 29
REMARK Flexibility Score: inf
ROOT
ATOM      1  C   UNL     1     175.414 170.025 170.996  1.00  0.00     0.180 A 
ATOM      2  C   UNL     1     175.209 168.674 171.322  1.00  0.00     0.208 A 
ATOM      3  C   UNL     1     174.346 167.904 170.525  1.00  0.00     0.238 A 
ATOM      4  O   UNL     1     174.124 166.710 170.854  1.00  0.00    -0.285 OA
ATOM      5  C   UNL     1     173.712 168.492 169.404  1.00  0.00     0.111 A 
ATOM      6  C   UNL     1     172.849 167.796 168.505  1.00  0.00     0.134 A 
ATOM      7  C   UNL     1     172.173 168.508 167.506  1.00  0.00     0.093 A 
ATOM      8  C   UNL     1     172.378 169.876 167.333  1.00  0.00     0.123 A 
ATOM      9  C   UNL     1     173.265 170.556 168.170  1.00  0.00     0.094 A 
ATOM     10  C   UNL     1     173.927 169.880 169.198  1.00  0.00     0.146 A 
ATOM     11  O   UNL     1     174.754 170.564 169.978  1.00  0.00    -0.452 OA
ENDROOT
BRANCH   1  12
ATOM     12  C   UNL     1     176.329 170.893 171.773  1.00  0.00     0.029 A 
ATOM     13  C   UNL     1     177.697 170.978 171.462  1.00  0.00     0.062 A 
ATOM     14  C   UNL     1     178.543 171.820 172.191  1.00  0.00     0.162 A 
ATOM     15  C   UNL     1     175.813 171.693 172.805  1.00  0.00     0.062 A 
ATOM     16  C   UNL     1     178.024 172.601 173.238  1.00  0.00     0.200 A 
ATOM     17  C   UNL     1     176.653 172.538 173.542  1.00  0.00     0.162 A 
BRANCH  14  18
ATOM     18  O   UNL     1     179.895 171.872 171.856  1.00  0.00    -0.504 OA
ATOM     19  H   UNL     1     180.366 172.744 171.648  1.00  0.00     0.293 HD
ENDBRANCH  14  18
BRANCH  16  20
ATOM     20  O   UNL     1     178.875 173.435 173.964  1.00  0.00    -0.502 OA
ATOM     21  H   UNL     1     179.878 173.295 173.990  1.00  0.00     0.293 HD
ENDBRANCH  16  20
BRANCH  17  22
ATOM     22  O   UNL     1     176.130 173.316 174.574  1.00  0.00    -0.504 OA
ATOM     23  H   UNL     1     176.425 173.191 175.535  1.00  0.00     0.293 HD
ENDBRANCH  17  22
ENDBRANCH   1  12
BRANCH   2  24
ATOM     24  O   UNL     1     175.829 168.120 172.446  1.00  0.00    -0.502 OA
ATOM     25  H   UNL     1     175.326 167.921 173.302  1.00  0.00     0.293 HD
ENDBRANCH   2  24
BRANCH   6  26
ATOM     26  O   UNL     1     172.645 166.414 168.532  1.00  0.00    -0.507 OA
ATOM     27  H   UNL     1     172.246 165.877 167.777  1.00  0.00     0.293 HD
ENDBRANCH   6  26
BRANCH   8  28
ATOM     28  O   UNL     1     171.701 170.550 166.319  1.00  0.00    -0.508 OA
ATOM     29  H   UNL     1     171.182 171.401 166.503  1.00  0.00     0.293 HD
ENDBRANCH   8  28
TORSDOF 7
ENDMDL
MODEL 8
REMARK VINA RESULT:    -5.435      4.607      5.316
REMARK INTER + INTRA:          -6.815
REMARK INTER:                  -6.646
REMARK INTRA:                  -0.169
REMARK UNBOUND:                -0.109
REMARK SMILES O=c1c(O)c(-c2cc(O)c(O)c(O)c2)oc2cc(O)cc(O)c12
REMARK SMILES IDX 5 1 3 2 2 3 1 4 23 5 21 6 20 7 18 8 17 9 16 10 15 11 6 12
REMARK SMILES IDX 7 13 8 14 14 15 10 16 12 17 9 18 11 20 13 22 4 24 22 26
REMARK SMILES IDX 19 28
REMARK H PARENT 9 19 11 21 13 23 4 25 22 27 19 29
REMARK Flexibility Score: inf
ROOT
ATOM      1  C   UNL     1     173.868 170.300 169.748  1.00  0.00     0.180 A 
ATOM      2  C   UNL     1     172.550 169.867 169.972  1.00  0.00     0.208 A 
ATOM      3  C   UNL     1     171.671 169.766 168.881  1.00  0.00     0.238 A 
ATOM      4  O   UNL     1     170.477 169.431 169.095  1.00  0.00    -0.285 OA
ATOM      5  C   UNL     1     172.128 170.082 167.578  1.00  0.00     0.111 A 
ATOM      6  C   UNL     1     171.336 169.976 166.395  1.00  0.00     0.134 A 
ATOM      7  C   UNL     1     171.849 170.440 165.177  1.00  0.00     0.093 A 
ATOM      8  C   UNL     1     173.145 170.944 165.087  1.00  0.00     0.123 A 
ATOM      9  C   UNL     1     173.950 170.997 166.227  1.00  0.00     0.094 A 
ATOM     10  C   UNL     1     173.453 170.575 167.463  1.00  0.00     0.146 A 
ATOM     11  O   UNL     1     174.247 170.652 168.525  1.00  0.00    -0.452 OA
ENDROOT
BRANCH   1  12
ATOM     12  C   UNL     1     174.859 170.408 170.843  1.00  0.00     0.029 A 
ATOM     13  C   UNL     1     175.224 169.289 171.612  1.00  0.00     0.062 A 
ATOM     14  C   UNL     1     176.179 169.403 172.628  1.00  0.00     0.162 A 
ATOM     15  C   UNL     1     175.491 171.638 171.085  1.00  0.00     0.062 A 
ATOM     16  C   UNL     1     176.791 170.643 172.880  1.00  0.00     0.200 A 
ATOM     17  C   UNL     1     176.446 171.762 172.102  1.00  0.00     0.162 A 
BRANCH  14  18
ATOM     18  O   UNL     1     176.509 168.272 173.372  1.00  0.00    -0.504 OA
ATOM     19  H   UNL     1     175.921 167.929 174.122  1.00  0.00     0.293 HD
ENDBRANCH  14  18
BRANCH  16  20
ATOM     20  O   UNL     1     177.739 170.750 173.899  1.00  0.00    -0.502 OA
ATOM     21  H   UNL     1     177.485 170.977 174.852  1.00  0.00     0.293 HD
ENDBRANCH  16  20
BRANCH  17  22
ATOM     22  O   UNL     1     177.056 172.993 172.341  1.00  0.00    -0.504 OA
ATOM     23  H   UNL     1     177.804 173.338 171.751  1.00  0.00     0.293 HD
ENDBRANCH  17  22
ENDBRANCH   1  12
BRANCH   2  24
ATOM     24  O   UNL     1     172.115 169.581 171.269  1.00  0.00    -0.502 OA
ATOM     25  H   UNL     1     172.703 169.116 171.950  1.00  0.00     0.293 HD
ENDBRANCH   2  24
BRANCH   6  26
ATOM     26  O   UNL     1     170.061 169.404 166.357  1.00  0.00    -0.507 OA
ATOM     27  H   UNL     1     169.315 169.703 165.748  1.00  0.00     0.293 HD
ENDBRANCH   6  26
BRANCH   8  28
ATOM     28  O   UNL     1     173.628 171.382 163.856  1.00  0.00    -0.508 OA
ATOM     29  H   UNL     1     173.002 171.642 163.103  1.00  0.00     0.293 HD
ENDBRANCH   8  28
TORSDOF 7
ENDMDL
MODEL 9
REMARK VINA RESULT:    -5.380      4.096      6.766
REMARK INTER + INTRA:          -6.747
REMARK INTER:                  -6.474
REMARK INTRA:                  -0.274
REMARK UNBOUND:                -0.109
REMARK SMILES O=c1c(O)c(-c2cc(O)c(O)c(O)c2)oc2cc(O)cc(O)c12
REMARK SMILES IDX 5 1 3 2 2 3 1 4 23 5 21 6 20 7 18 8 17 9 16 10 15 11 6 12
REMARK SMILES IDX 7 13 8 14 14 15 10 16 12 17 9 18 11 20 13 22 4 24 22 26
REMARK SMILES IDX 19 28
REMARK H PARENT 9 19 11 21 13 23 4 25 22 27 19 29
REMARK Flexibility Score: inf
ROOT
ATOM      1  C   UNL     1     176.249 167.730 170.632  1.00  0.00     0.180 A 
ATOM      2  C   UNL     1     175.189 167.580 171.542  1.00  0.00     0.208 A 
ATOM      3  C   UNL     1     174.881 168.640 172.410  1.00  0.00     0.238 A 
ATOM      4  O   UNL     1     173.967 168.480 173.260  1.00  0.00    -0.285 OA
ATOM      5  C   UNL     1     175.626 169.843 172.343  1.00  0.00     0.111 A 
ATOM      6  C   UNL     1     175.375 170.996 173.146  1.00  0.00     0.134 A 
ATOM      7  C   UNL     1     176.256 172.083 173.089  1.00  0.00     0.093 A 
ATOM      8  C   UNL     1     177.340 172.086 172.213  1.00  0.00     0.123 A 
ATOM      9  C   UNL     1     177.561 170.987 171.380  1.00  0.00     0.094 A 
ATOM     10  C   UNL     1     176.720 169.873 171.440  1.00  0.00     0.146 A 
ATOM     11  O   UNL     1     176.970 168.845 170.639  1.00  0.00    -0.452 OA
ENDROOT
BRANCH   1  12
ATOM     12  C   UNL     1     176.617 166.666 169.669  1.00  0.00     0.029 A 
ATOM     13  C   UNL     1     177.768 165.881 169.852  1.00  0.00     0.062 A 
ATOM     14  C   UNL     1     178.090 164.865 168.946  1.00  0.00     0.162 A 
ATOM     15  C   UNL     1     175.772 166.396 168.581  1.00  0.00     0.062 A 
ATOM     16  C   UNL     1     177.251 164.614 167.846  1.00  0.00     0.200 A 
ATOM     17  C   UNL     1     176.087 165.381 167.667  1.00  0.00     0.162 A 
BRANCH  14  18
ATOM     18  O   UNL     1     179.243 164.112 169.159  1.00  0.00    -0.504 OA
ATOM     19  H   UNL     1     179.815 163.773 168.394  1.00  0.00     0.293 HD
ENDBRANCH  14  18
BRANCH  16  20
ATOM     20  O   UNL     1     177.581 163.602 166.944  1.00  0.00    -0.502 OA
ATOM     21  H   UNL     1     178.452 163.601 166.426  1.00  0.00     0.293 HD
ENDBRANCH  16  20
BRANCH  17  22
ATOM     22  O   UNL     1     175.246 165.132 166.583  1.00  0.00    -0.504 OA
ATOM     23  H   UNL     1     175.333 165.647 165.715  1.00  0.00     0.293 HD
ENDBRANCH  17  22
ENDBRANCH   1  12
BRANCH   2  24
ATOM     24  O   UNL     1     174.482 166.376 171.605  1.00  0.00    -0.502 OA
ATOM     25  H   UNL     1     173.547 166.314 171.990  1.00  0.00     0.293 HD
ENDBRANCH   2  24
BRANCH   6  26
ATOM     26  O   UNL     1     174.268 171.134 173.989  1.00  0.00    -0.507 OA
ATOM     27  H   UNL     1     174.142 171.883 174.653  1.00  0.00     0.293 HD
ENDBRANCH   6  26
BRANCH   8  28
ATOM     28  O   UNL     1     178.187 173.190 172.170  1.00  0.00    -0.508 OA
ATOM     29  H   UNL     1     178.149 173.859 171.409  1.00  0.00     0.293 HD
ENDBRANCH   8  28
TORSDOF 7
ENDMDL
