MODEL 1
REMARK VINA RESULT:    -4.808      0.000      0.000
REMARK INTER + INTRA:         -11.135
REMARK INTER:                  -8.742
REMARK INTRA:                  -2.393
REMARK UNBOUND:                -2.393
REMARK SMILES CCCCCCCCCCCCCCCC(=O)[O-]
REMARK SMILES IDX 9 1 10 2 11 3 12 4 13 5 14 6 15 7 16 8 17 9 18 10 8 11 7 12
REMARK SMILES IDX 6 13 5 14 4 15 3 16 2 17 1 18
REMARK H PARENT
REMARK Flexibility Score: inf
ROOT
ATOM      1  C   UNL     1      21.703  -3.269  20.036  1.00  0.00     0.000 C 
ENDROOT
BRANCH   1   2
ATOM      2  C   UNL     1      20.918  -3.385  21.349  1.00  0.00     0.000 C 
BRANCH   2   3
ATOM      3  C   UNL     1      19.919  -2.228  21.495  1.00  0.00     0.000 C 
BRANCH   3   4
ATOM      4  C   UNL     1      18.480  -2.644  21.151  1.00  0.00     0.000 C 
BRANCH   4   5
ATOM      5  C   UNL     1      18.333  -4.164  20.965  1.00  0.00     0.000 C 
BRANCH   5   6
ATOM      6  C   UNL     1      17.612  -4.543  19.658  1.00  0.00     0.006 C 
BRANCH   6   7
ATOM      7  C   UNL     1      16.336  -3.724  19.389  1.00  0.00     0.053 C 
BRANCH   7   8
ATOM      8  C   UNL     1      15.589  -4.196  18.180  1.00  0.00     0.041 C 
ATOM      9  O   UNL     1      15.054  -5.336  18.168  1.00  0.00    -0.550 OA
ATOM     10  O   UNL     1      15.509  -3.389  17.053  1.00  0.00    -0.550 OA
ENDBRANCH   7   8
ENDBRANCH   6   7
ENDBRANCH   5   6
ENDBRANCH   4   5
ENDBRANCH   3   4
ENDBRANCH   2   3
ENDBRANCH   1   2
BRANCH   1  11
ATOM     11  C   UNL     1      21.379  -4.439  19.094  1.00  0.00     0.000 C 
BRANCH  11  12
ATOM     12  C   UNL     1      20.785  -3.961  17.752  1.00  0.00    -0.000 C 
BRANCH  12  13
ATOM     13  C   UNL     1      20.218  -2.533  17.804  1.00  0.00    -0.000 C 
BRANCH  13  14
ATOM     14  C   UNL     1      18.885  -2.391  17.051  1.00  0.00    -0.000 C 
BRANCH  14  15
ATOM     15  C   UNL     1      18.370  -0.943  17.022  1.00  0.00    -0.000 C 
BRANCH  15  16
ATOM     16  C   UNL     1      17.884  -0.462  18.400  1.00  0.00    -0.000 C 
BRANCH  16  17
ATOM     17  C   UNL     1      16.368  -0.218  18.437  1.00  0.00    -0.003 C 
ATOM     18  C   UNL     1      15.924   0.901  17.495  1.00  0.00     0.004 C 
ENDBRANCH  16  17
ENDBRANCH  15  16
ENDBRANCH  14  15
ENDBRANCH  13  14
ENDBRANCH  12  13
ENDBRANCH  11  12
ENDBRANCH   1  11
TORSDOF 14
ENDMDL
MODEL 2
REMARK VINA RESULT:    -4.760      3.237      4.826
REMARK INTER + INTRA:         -11.048
REMARK INTER:                  -8.259
REMARK INTRA:                  -2.789
REMARK UNBOUND:                -2.393
REMARK SMILES CCCCCCCCCCCCCCCC(=O)[O-]
REMARK SMILES IDX 9 1 10 2 11 3 12 4 13 5 14 6 15 7 16 8 17 9 18 10 8 11 7 12
REMARK SMILES IDX 6 13 5 14 4 15 3 16 2 17 1 18
REMARK H PARENT
REMARK Flexibility Score: inf
ROOT
ATOM      1  C   UNL     1      19.357  -1.885  17.789  1.00  0.00     0.000 C 
ENDROOT
BRANCH   1   2
ATOM      2  C   UNL     1      19.809  -1.113  19.034  1.00  0.00     0.000 C 
BRANCH   2   3
ATOM      3  C   UNL     1      18.664  -0.260  19.599  1.00  0.00     0.000 C 
BRANCH   3   4
ATOM      4  C   UNL     1      18.990   0.327  20.981  1.00  0.00     0.000 C 
BRANCH   4   5
ATOM      5  C   UNL     1      18.782  -0.687  22.119  1.00  0.00     0.000 C 
BRANCH   5   6
ATOM      6  C   UNL     1      20.046  -0.904  22.971  1.00  0.00     0.006 C 
BRANCH   6   7
ATOM      7  C   UNL     1      20.793  -2.213  22.658  1.00  0.00     0.053 C 
BRANCH   7   8
ATOM      8  C   UNL     1      22.068  -1.986  21.906  1.00  0.00     0.041 C 
ATOM      9  O   UNL     1      22.867  -2.940  21.706  1.00  0.00    -0.550 OA
ATOM     10  O   UNL     1      22.390  -0.715  21.450  1.00  0.00    -0.550 OA
ENDBRANCH   7   8
ENDBRANCH   6   7
ENDBRANCH   5   6
ENDBRANCH   4   5
ENDBRANCH   3   4
ENDBRANCH   2   3
ENDBRANCH   1   2
BRANCH   1  11
ATOM     11  C   UNL     1      19.941  -3.306  17.779  1.00  0.00     0.000 C 
BRANCH  11  12
ATOM     12  C   UNL     1      20.141  -3.866  19.203  1.00  0.00    -0.000 C 
BRANCH  12  13
ATOM     13  C   UNL     1      18.962  -4.719  19.700  1.00  0.00    -0.000 C 
BRANCH  13  14
ATOM     14  C   UNL     1      18.140  -4.022  20.796  1.00  0.00    -0.000 C 
BRANCH  14  15
ATOM     15  C   UNL     1      16.853  -3.379  20.255  1.00  0.00    -0.000 C 
BRANCH  15  16
ATOM     16  C   UNL     1      16.337  -4.074  18.981  1.00  0.00    -0.000 C 
BRANCH  16  17
ATOM     17  C   UNL     1      15.843  -3.073  17.926  1.00  0.00    -0.003 C 
ATOM     18  C   UNL     1      15.401  -1.741  18.531  1.00  0.00     0.004 C 
ENDBRANCH  16  17
ENDBRANCH  15  16
ENDBRANCH  14  15
ENDBRANCH  13  14
ENDBRANCH  12  13
ENDBRANCH  11  12
ENDBRANCH   1  11
TORSDOF 14
ENDMDL
MODEL 3
REMARK VINA RESULT:    -4.700      2.379      4.657
REMARK INTER + INTRA:         -10.940
REMARK INTER:                  -8.708
REMARK INTRA:                  -2.232
REMARK UNBOUND:                -2.393
REMARK SMILES CCCCCCCCCCCCCCCC(=O)[O-]
REMARK SMILES IDX 9 1 10 2 11 3 12 4 13 5 14 6 15 7 16 8 17 9 18 10 8 11 7 12
REMARK SMILES IDX 6 13 5 14 4 15 3 16 2 17 1 18
REMARK H PARENT
REMARK Flexibility Score: inf
ROOT
ATOM      1  C   UNL     1      20.503  -3.440  20.783  1.00  0.00     0.000 C 
ENDROOT
BRANCH   1   2
ATOM      2  C   UNL     1      19.156  -3.787  21.430  1.00  0.00     0.000 C 
BRANCH   2   3
ATOM      3  C   UNL     1      17.992  -3.175  20.638  1.00  0.00     0.000 C 
BRANCH   3   4
ATOM      4  C   UNL     1      17.718  -1.714  21.025  1.00  0.00     0.000 C 
BRANCH   4   5
ATOM      5  C   UNL     1      18.236  -0.716  19.974  1.00  0.00     0.000 C 
BRANCH   5   6
ATOM      6  C   UNL     1      17.497  -0.824  18.627  1.00  0.00     0.006 C 
BRANCH   6   7
ATOM      7  C   UNL     1      18.420  -1.126  17.432  1.00  0.00     0.053 C 
BRANCH   7   8
ATOM      8  C   UNL     1      18.696  -2.589  17.268  1.00  0.00     0.041 C 
ATOM      9  O   UNL     1      19.875  -3.026  17.343  1.00  0.00    -0.550 OA
ATOM     10  O   UNL     1      17.654  -3.467  17.001  1.00  0.00    -0.550 OA
ENDBRANCH   7   8
ENDBRANCH   6   7
ENDBRANCH   5   6
ENDBRANCH   4   5
ENDBRANCH   3   4
ENDBRANCH   2   3
ENDBRANCH   1   2
BRANCH   1  11
ATOM     11  C   UNL     1      21.594  -3.252  21.848  1.00  0.00     0.000 C 
BRANCH  11  12
ATOM     12  C   UNL     1      21.004  -2.986  23.250  1.00  0.00    -0.000 C 
BRANCH  12  13
ATOM     13  C   UNL     1      21.227  -1.549  23.748  1.00  0.00    -0.000 C 
BRANCH  13  14
ATOM     14  C   UNL     1      20.074  -0.602  23.377  1.00  0.00    -0.000 C 
BRANCH  14  15
ATOM     15  C   UNL     1      20.567   0.745  22.824  1.00  0.00    -0.000 C 
BRANCH  15  16
ATOM     16  C   UNL     1      22.091   0.775  22.612  1.00  0.00    -0.000 C 
BRANCH  16  17
ATOM     17  C   UNL     1      22.476   0.972  21.138  1.00  0.00    -0.003 C 
ATOM     18  C   UNL     1      21.749   0.008  20.201  1.00  0.00     0.004 C 
ENDBRANCH  16  17
ENDBRANCH  15  16
ENDBRANCH  14  15
ENDBRANCH  13  14
ENDBRANCH  12  13
ENDBRANCH  11  12
ENDBRANCH   1  11
TORSDOF 14
ENDMDL
MODEL 4
REMARK VINA RESULT:    -4.681      2.523      4.916
REMARK INTER + INTRA:         -10.905
REMARK INTER:                  -8.333
REMARK INTRA:                  -2.572
REMARK UNBOUND:                -2.393
REMARK SMILES CCCCCCCCCCCCCCCC(=O)[O-]
REMARK SMILES IDX 9 1 10 2 11 3 12 4 13 5 14 6 15 7 16 8 17 9 18 10 8 11 7 12
REMARK SMILES IDX 6 13 5 14 4 15 3 16 2 17 1 18
REMARK H PARENT
REMARK Flexibility Score: inf
ROOT
ATOM      1  C   UNL     1      20.459  -2.945  22.236  1.00  0.00     0.000 C 
ENDROOT
BRANCH   1   2
ATOM      2  C   UNL     1      21.698  -3.385  21.446  1.00  0.00     0.000 C 
BRANCH   2   3
ATOM      3  C   UNL     1      21.608  -2.928  19.982  1.00  0.00     0.000 C 
BRANCH   3   4
ATOM      4  C   UNL     1      20.201  -2.441  19.602  1.00  0.00     0.000 C 
BRANCH   4   5
ATOM      5  C   UNL     1      20.221  -1.412  18.459  1.00  0.00     0.000 C 
BRANCH   5   6
ATOM      6  C   UNL     1      18.853  -1.248  17.773  1.00  0.00     0.006 C 
BRANCH   6   7
ATOM      7  C   UNL     1      17.776  -0.611  18.670  1.00  0.00     0.053 C 
BRANCH   7   8
ATOM      8  C   UNL     1      16.606  -1.516  18.903  1.00  0.00     0.041 C 
ATOM      9  O   UNL     1      15.790  -1.753  17.973  1.00  0.00    -0.550 OA
ATOM     10  O   UNL     1      16.398  -2.075  20.157  1.00  0.00    -0.550 OA
ENDBRANCH   7   8
ENDBRANCH   6   7
ENDBRANCH   5   6
ENDBRANCH   4   5
ENDBRANCH   3   4
ENDBRANCH   2   3
ENDBRANCH   1   2
BRANCH   1  11
ATOM     11  C   UNL     1      20.859  -2.193  23.515  1.00  0.00     0.000 C 
BRANCH  11  12
ATOM     12  C   UNL     1      20.217  -0.792  23.595  1.00  0.00    -0.000 C 
BRANCH  12  13
ATOM     13  C   UNL     1      19.218  -0.508  22.460  1.00  0.00    -0.000 C 
BRANCH  13  14
ATOM     14  C   UNL     1      19.688   0.612  21.517  1.00  0.00    -0.000 C 
BRANCH  14  15
ATOM     15  C   UNL     1      21.096   1.125  21.859  1.00  0.00    -0.000 C 
BRANCH  15  16
ATOM     16  C   UNL     1      22.156   0.660  20.844  1.00  0.00    -0.000 C 
BRANCH  16  17
ATOM     17  C   UNL     1      23.581   0.725  21.412  1.00  0.00    -0.003 C 
ATOM     18  C   UNL     1      23.979  -0.543  22.165  1.00  0.00     0.004 C 
ENDBRANCH  16  17
ENDBRANCH  15  16
ENDBRANCH  14  15
ENDBRANCH  13  14
ENDBRANCH  12  13
ENDBRANCH  11  12
ENDBRANCH   1  11
TORSDOF 14
ENDMDL
MODEL 5
REMARK VINA RESULT:    -4.669      2.542      3.993
REMARK INTER + INTRA:         -10.883
REMARK INTER:                  -8.373
REMARK INTRA:                  -2.510
REMARK UNBOUND:                -2.393
REMARK SMILES CCCCCCCCCCCCCCCC(=O)[O-]
REMARK SMILES IDX 9 1 10 2 11 3 12 4 13 5 14 6 15 7 16 8 17 9 18 10 8 11 7 12
REMARK SMILES IDX 6 13 5 14 4 15 3 16 2 17 1 18
REMARK H PARENT
REMARK Flexibility Score: inf
ROOT
ATOM      1  C   UNL     1      20.888  -2.829  23.059  1.00  0.00     0.000 C 
ENDROOT
BRANCH   1   2
ATOM      2  C   UNL     1      21.624  -3.046  21.731  1.00  0.00     0.000 C 
BRANCH   2   3
ATOM      3  C   UNL     1      20.656  -3.522  20.637  1.00  0.00     0.000 C 
BRANCH   3   4
ATOM      4  C   UNL     1      19.219  -3.688  21.153  1.00  0.00     0.000 C 
BRANCH   4   5
ATOM      5  C   UNL     1      18.289  -4.337  20.113  1.00  0.00     0.000 C 
BRANCH   5   6
ATOM      6  C   UNL     1      17.394  -3.316  19.386  1.00  0.00     0.006 C 
BRANCH   6   7
ATOM      7  C   UNL     1      17.551  -3.327  17.855  1.00  0.00     0.053 C 
BRANCH   7   8
ATOM      8  C   UNL     1      18.722  -2.518  17.387  1.00  0.00     0.041 C 
ATOM      9  O   UNL     1      19.849  -3.061  17.232  1.00  0.00    -0.550 OA
ATOM     10  O   UNL     1      18.578  -1.158  17.150  1.00  0.00    -0.550 OA
ENDBRANCH   7   8
ENDBRANCH   6   7
ENDBRANCH   5   6
ENDBRANCH   4   5
ENDBRANCH   3   4
ENDBRANCH   2   3
ENDBRANCH   1   2
BRANCH   1  11
ATOM     11  C   UNL     1      21.354  -1.534  23.742  1.00  0.00     0.000 C 
BRANCH  11  12
ATOM     12  C   UNL     1      22.441  -0.802  22.928  1.00  0.00    -0.000 C 
BRANCH  12  13
ATOM     13  C   UNL     1      22.138   0.688  22.697  1.00  0.00    -0.000 C 
BRANCH  13  14
ATOM     14  C   UNL     1      20.712   0.934  22.175  1.00  0.00    -0.000 C 
BRANCH  14  15
ATOM     15  C   UNL     1      20.471   0.309  20.791  1.00  0.00    -0.000 C 
BRANCH  15  16
ATOM     16  C   UNL     1      18.987  -0.007  20.537  1.00  0.00    -0.000 C 
BRANCH  16  17
ATOM     17  C   UNL     1      18.199  -0.216  21.839  1.00  0.00    -0.003 C 
ATOM     18  C   UNL     1      16.707  -0.444  21.599  1.00  0.00     0.004 C 
ENDBRANCH  16  17
ENDBRANCH  15  16
ENDBRANCH  14  15
ENDBRANCH  13  14
ENDBRANCH  12  13
ENDBRANCH  11  12
ENDBRANCH   1  11
TORSDOF 14
ENDMDL
MODEL 6
REMARK VINA RESULT:    -4.609      1.757      4.479
REMARK INTER + INTRA:         -10.773
REMARK INTER:                  -8.307
REMARK INTRA:                  -2.466
REMARK UNBOUND:                -2.393
REMARK SMILES CCCCCCCCCCCCCCCC(=O)[O-]
REMARK SMILES IDX 9 1 10 2 11 3 12 4 13 5 14 6 15 7 16 8 17 9 18 10 8 11 7 12
REMARK SMILES IDX 6 13 5 14 4 15 3 16 2 17 1 18
REMARK H PARENT
REMARK Flexibility Score: inf
ROOT
ATOM      1  C   UNL     1      20.651   0.197  22.225  1.00  0.00     0.000 C 
ENDROOT
BRANCH   1   2
ATOM      2  C   UNL     1      19.500   0.495  21.256  1.00  0.00     0.000 C 
BRANCH   2   3
ATOM      3  C   UNL     1      18.257  -0.336  21.606  1.00  0.00     0.000 C 
BRANCH   3   4
ATOM      4  C   UNL     1      17.630  -1.009  20.375  1.00  0.00     0.000 C 
BRANCH   4   5
ATOM      5  C   UNL     1      18.081  -0.361  19.054  1.00  0.00     0.000 C 
BRANCH   5   6
ATOM      6  C   UNL     1      17.903  -1.288  17.838  1.00  0.00     0.006 C 
BRANCH   6   7
ATOM      7  C   UNL     1      17.316  -2.668  18.186  1.00  0.00     0.053 C 
BRANCH   7   8
ATOM      8  C   UNL     1      15.877  -2.802  17.791  1.00  0.00     0.041 C 
ATOM      9  O   UNL     1      15.053  -1.892  18.073  1.00  0.00    -0.550 OA
ATOM     10  O   UNL     1      15.439  -3.946  17.136  1.00  0.00    -0.550 OA
ENDBRANCH   7   8
ENDBRANCH   6   7
ENDBRANCH   5   6
ENDBRANCH   4   5
ENDBRANCH   3   4
ENDBRANCH   2   3
ENDBRANCH   1   2
BRANCH   1  11
ATOM     11  C   UNL     1      20.177  -0.683  23.391  1.00  0.00     0.000 C 
BRANCH  11  12
ATOM     12  C   UNL     1      21.183  -1.805  23.726  1.00  0.00    -0.000 C 
BRANCH  12  13
ATOM     13  C   UNL     1      21.366  -2.825  22.590  1.00  0.00    -0.000 C 
BRANCH  13  14
ATOM     14  C   UNL     1      20.064  -3.562  22.234  1.00  0.00    -0.000 C 
BRANCH  14  15
ATOM     15  C   UNL     1      19.878  -3.741  20.719  1.00  0.00    -0.000 C 
BRANCH  15  16
ATOM     16  C   UNL     1      20.931  -2.975  19.900  1.00  0.00    -0.000 C 
BRANCH  16  17
ATOM     17  C   UNL     1      20.971  -3.420  18.430  1.00  0.00    -0.003 C 
ATOM     18  C   UNL     1      21.435  -4.866  18.261  1.00  0.00     0.004 C 
ENDBRANCH  16  17
ENDBRANCH  15  16
ENDBRANCH  14  15
ENDBRANCH  13  14
ENDBRANCH  12  13
ENDBRANCH  11  12
ENDBRANCH   1  11
TORSDOF 14
ENDMDL
MODEL 7
REMARK VINA RESULT:    -4.606      3.860      5.048
REMARK INTER + INTRA:         -10.768
REMARK INTER:                  -8.053
REMARK INTRA:                  -2.714
REMARK UNBOUND:                -2.393
REMARK SMILES CCCCCCCCCCCCCCCC(=O)[O-]
REMARK SMILES IDX 9 1 10 2 11 3 12 4 13 5 14 6 15 7 16 8 17 9 18 10 8 11 7 12
REMARK SMILES IDX 6 13 5 14 4 15 3 16 2 17 1 18
REMARK H PARENT
REMARK Flexibility Score: inf
ROOT
ATOM      1  C   UNL     1      18.976  -4.571  19.510  1.00  0.00     0.000 C 
ENDROOT
BRANCH   1   2
ATOM      2  C   UNL     1      18.671  -3.972  20.889  1.00  0.00     0.000 C 
BRANCH   2   3
ATOM      3  C   UNL     1      19.878  -3.193  21.431  1.00  0.00     0.000 C 
BRANCH   3   4
ATOM      4  C   UNL     1      19.501  -1.788  21.924  1.00  0.00     0.000 C 
BRANCH   4   5
ATOM      5  C   UNL     1      19.907  -0.684  20.932  1.00  0.00     0.000 C 
BRANCH   5   6
ATOM      6  C   UNL     1      21.347  -0.843  20.411  1.00  0.00     0.006 C 
BRANCH   6   7
ATOM      7  C   UNL     1      22.224   0.406  20.610  1.00  0.00     0.053 C 
BRANCH   7   8
ATOM      8  C   UNL     1      23.022   0.358  21.877  1.00  0.00     0.041 C 
ATOM      9  O   UNL     1      22.489   0.663  22.976  1.00  0.00    -0.550 OA
ATOM     10  O   UNL     1      24.365   0.004  21.839  1.00  0.00    -0.550 OA
ENDBRANCH   7   8
ENDBRANCH   6   7
ENDBRANCH   5   6
ENDBRANCH   4   5
ENDBRANCH   3   4
ENDBRANCH   2   3
ENDBRANCH   1   2
BRANCH   1  11
ATOM     11  C   UNL     1      20.419  -4.262  19.083  1.00  0.00     0.000 C 
BRANCH  11  12
ATOM     12  C   UNL     1      20.478  -3.372  17.822  1.00  0.00    -0.000 C 
BRANCH  12  13
ATOM     13  C   UNL     1      19.096  -2.898  17.340  1.00  0.00    -0.000 C 
BRANCH  13  14
ATOM     14  C   UNL     1      18.930  -1.372  17.411  1.00  0.00    -0.000 C 
BRANCH  14  15
ATOM     15  C   UNL     1      17.628  -0.948  18.108  1.00  0.00    -0.000 C 
BRANCH  15  16
ATOM     16  C   UNL     1      16.582  -2.077  18.141  1.00  0.00    -0.000 C 
BRANCH  16  17
ATOM     17  C   UNL     1      15.735  -2.056  19.423  1.00  0.00    -0.003 C 
ATOM     18  C   UNL     1      16.217  -1.018  20.436  1.00  0.00     0.004 C 
ENDBRANCH  16  17
ENDBRANCH  15  16
ENDBRANCH  14  15
ENDBRANCH  13  14
ENDBRANCH  12  13
ENDBRANCH  11  12
ENDBRANCH   1  11
TORSDOF 14
ENDMDL
MODEL 8
REMARK VINA RESULT:    -4.604      1.870      4.021
REMARK INTER + INTRA:         -10.766
REMARK INTER:                  -8.387
REMARK INTRA:                  -2.378
REMARK UNBOUND:                -2.393
REMARK SMILES CCCCCCCCCCCCCCCC(=O)[O-]
REMARK SMILES IDX 9 1 10 2 11 3 12 4 13 5 14 6 15 7 16 8 17 9 18 10 8 11 7 12
REMARK SMILES IDX 6 13 5 14 4 15 3 16 2 17 1 18
REMARK H PARENT
REMARK Flexibility Score: inf
ROOT
ATOM      1  C   UNL     1      20.962  -3.246  20.446  1.00  0.00     0.000 C 
ENDROOT
BRANCH   1   2
ATOM      2  C   UNL     1      20.220  -3.931  19.291  1.00  0.00     0.000 C 
BRANCH   2   3
ATOM      3  C   UNL     1      20.351  -3.119  17.994  1.00  0.00     0.000 C 
BRANCH   3   4
ATOM      4  C   UNL     1      19.807  -1.689  18.135  1.00  0.00     0.000 C 
BRANCH   4   5
ATOM      5  C   UNL     1      18.456  -1.497  17.424  1.00  0.00     0.000 C 
BRANCH   5   6
ATOM      6  C   UNL     1      17.312  -1.140  18.391  1.00  0.00     0.006 C 
BRANCH   6   7
ATOM      7  C   UNL     1      16.787  -2.336  19.206  1.00  0.00     0.053 C 
BRANCH   7   8
ATOM      8  C   UNL     1      16.373  -3.488  18.343  1.00  0.00     0.041 C 
ATOM      9  O   UNL     1      16.907  -4.619  18.493  1.00  0.00    -0.550 OA
ATOM     10  O   UNL     1      15.418  -3.306  17.352  1.00  0.00    -0.550 OA
ENDBRANCH   7   8
ENDBRANCH   6   7
ENDBRANCH   5   6
ENDBRANCH   4   5
ENDBRANCH   3   4
ENDBRANCH   2   3
ENDBRANCH   1   2
BRANCH   1  11
ATOM     11  C   UNL     1      20.187  -3.391  21.764  1.00  0.00     0.000 C 
BRANCH  11  12
ATOM     12  C   UNL     1      21.100  -3.243  22.999  1.00  0.00    -0.000 C 
BRANCH  12  13
ATOM     13  C   UNL     1      20.997  -1.868  23.679  1.00  0.00    -0.000 C 
BRANCH  13  14
ATOM     14  C   UNL     1      21.940  -0.823  23.060  1.00  0.00    -0.000 C 
BRANCH  14  15
ATOM     15  C   UNL     1      21.202   0.442  22.594  1.00  0.00    -0.000 C 
BRANCH  15  16
ATOM     16  C   UNL     1      20.629   0.300  21.173  1.00  0.00    -0.000 C 
BRANCH  16  17
ATOM     17  C   UNL     1      19.141   0.674  21.099  1.00  0.00    -0.003 C 
ATOM     18  C   UNL     1      18.251  -0.269  21.909  1.00  0.00     0.004 C 
ENDBRANCH  16  17
ENDBRANCH  15  16
ENDBRANCH  14  15
ENDBRANCH  13  14
ENDBRANCH  12  13
ENDBRANCH  11  12
ENDBRANCH   1  11
TORSDOF 14
ENDMDL
MODEL 9
REMARK VINA RESULT:    -4.567      1.993      5.038
REMARK INTER + INTRA:         -10.697
REMARK INTER:                  -8.533
REMARK INTRA:                  -2.164
REMARK UNBOUND:                -2.393
REMARK SMILES CCCCCCCCCCCCCCCC(=O)[O-]
REMARK SMILES IDX 9 1 10 2 11 3 12 4 13 5 14 6 15 7 16 8 17 9 18 10 8 11 7 12
REMARK SMILES IDX 6 13 5 14 4 15 3 16 2 17 1 18
REMARK H PARENT
REMARK Flexibility Score: inf
ROOT
ATOM      1  C   UNL     1      19.035   0.409  21.307  1.00  0.00     0.000 C 
ENDROOT
BRANCH   1   2
ATOM      2  C   UNL     1      17.913  -0.594  21.605  1.00  0.00     0.000 C 
BRANCH   2   3
ATOM      3  C   UNL     1      17.394  -1.239  20.312  1.00  0.00     0.000 C 
BRANCH   3   4
ATOM      4  C   UNL     1      16.989  -0.200  19.255  1.00  0.00     0.000 C 
BRANCH   4   5
ATOM      5  C   UNL     1      17.655  -0.453  17.891  1.00  0.00     0.000 C 
BRANCH   5   6
ATOM      6  C   UNL     1      18.817  -1.459  17.967  1.00  0.00     0.006 C 
BRANCH   6   7
ATOM      7  C   UNL     1      18.650  -2.677  17.040  1.00  0.00     0.053 C 
BRANCH   7   8
ATOM      8  C   UNL     1      17.683  -3.687  17.580  1.00  0.00     0.041 C 
ATOM      9  O   UNL     1      16.553  -3.835  17.043  1.00  0.00    -0.550 OA
ATOM     10  O   UNL     1      18.018  -4.444  18.694  1.00  0.00    -0.550 OA
ENDBRANCH   7   8
ENDBRANCH   6   7
ENDBRANCH   5   6
ENDBRANCH   4   5
ENDBRANCH   3   4
ENDBRANCH   2   3
ENDBRANCH   1   2
BRANCH   1  11
ATOM     11  C   UNL     1      19.926   0.622  22.540  1.00  0.00     0.000 C 
BRANCH  11  12
ATOM     12  C   UNL     1      21.416   0.355  22.239  1.00  0.00    -0.000 C 
BRANCH  12  13
ATOM     13  C   UNL     1      22.012  -0.802  23.059  1.00  0.00    -0.000 C 
BRANCH  13  14
ATOM     14  C   UNL     1      20.940  -1.761  23.604  1.00  0.00    -0.000 C 
BRANCH  14  15
ATOM     15  C   UNL     1      21.067  -3.181  23.030  1.00  0.00    -0.000 C 
BRANCH  15  16
ATOM     16  C   UNL     1      20.275  -3.361  21.722  1.00  0.00    -0.000 C 
BRANCH  16  17
ATOM     17  C   UNL     1      21.076  -2.927  20.485  1.00  0.00    -0.003 C 
ATOM     18  C   UNL     1      21.418  -4.095  19.560  1.00  0.00     0.004 C 
ENDBRANCH  16  17
ENDBRANCH  15  16
ENDBRANCH  14  15
ENDBRANCH  13  14
ENDBRANCH  12  13
ENDBRANCH  11  12
ENDBRANCH   1  11
TORSDOF 14
ENDMDL
