MODEL 1
REMARK VINA RESULT:    -4.534      0.000      0.000
REMARK INTER + INTRA:          -9.463
REMARK INTER:                  -7.714
REMARK INTRA:                  -1.749
REMARK UNBOUND:                -1.749
REMARK SMILES CCCCCCCCCCCCCC(=O)[O-]
REMARK SMILES IDX 8 1 9 2 10 3 11 4 12 5 13 6 14 7 15 8 16 9 7 10 6 11 5 12
REMARK SMILES IDX 4 13 3 14 2 15 1 16
REMARK H PARENT
REMARK Flexibility Score: inf
ROOT
ATOM      1  C   UNL     1       9.049  -4.557  48.213  1.00  0.00     0.000 C 
ENDROOT
BRANCH   1   2
ATOM      2  C   UNL     1       9.850  -3.401  48.828  1.00  0.00     0.000 C 
BRANCH   2   3
ATOM      3  C   UNL     1       9.277  -2.043  48.391  1.00  0.00     0.000 C 
BRANCH   3   4
ATOM      4  C   UNL     1       8.160  -2.172  47.340  1.00  0.00     0.000 C 
BRANCH   4   5
ATOM      5  C   UNL     1       7.158  -1.004  47.308  1.00  0.00     0.006 C 
BRANCH   5   6
ATOM      6  C   UNL     1       5.696  -1.466  47.343  1.00  0.00     0.053 C 
BRANCH   6   7
ATOM      7  C   UNL     1       5.324  -2.120  46.051  1.00  0.00     0.041 C 
ATOM      8  O   UNL     1       5.109  -1.421  45.026  1.00  0.00    -0.550 OA
ATOM      9  O   UNL     1       5.168  -3.499  45.988  1.00  0.00    -0.550 OA
ENDBRANCH   6   7
ENDBRANCH   5   6
ENDBRANCH   4   5
ENDBRANCH   3   4
ENDBRANCH   2   3
ENDBRANCH   1   2
BRANCH   1  10
ATOM     10  C   UNL     1       7.996  -5.134  49.177  1.00  0.00     0.000 C 
BRANCH  10  11
ATOM     11  C   UNL     1       6.622  -5.431  48.544  1.00  0.00    -0.000 C 
BRANCH  11  12
ATOM     12  C   UNL     1       5.408  -5.049  49.410  1.00  0.00    -0.000 C 
BRANCH  12  13
ATOM     13  C   UNL     1       5.805  -4.358  50.723  1.00  0.00    -0.000 C 
BRANCH  13  14
ATOM     14  C   UNL     1       5.520  -2.852  50.659  1.00  0.00    -0.000 C 
BRANCH  14  15
ATOM     15  C   UNL     1       6.796  -2.041  50.907  1.00  0.00    -0.003 C 
ATOM     16  C   UNL     1       6.746  -1.337  52.261  1.00  0.00     0.004 C 
ENDBRANCH  14  15
ENDBRANCH  13  14
ENDBRANCH  12  13
ENDBRANCH  11  12
ENDBRANCH  10  11
ENDBRANCH   1  10
TORSDOF 12
ENDMDL
MODEL 2
REMARK VINA RESULT:    -4.469      2.058      3.682
REMARK INTER + INTRA:          -9.353
REMARK INTER:                  -7.779
REMARK INTRA:                  -1.575
REMARK UNBOUND:                -1.749
REMARK SMILES CCCCCCCCCCCCCC(=O)[O-]
REMARK SMILES IDX 8 1 9 2 10 3 11 4 12 5 13 6 14 7 15 8 16 9 7 10 6 11 5 12
REMARK SMILES IDX 4 13 3 14 2 15 1 16
REMARK H PARENT
REMARK Flexibility Score: inf
ROOT
ATOM      1  C   UNL     1       5.218  -1.814  45.859  1.00  0.00     0.000 C 
ENDROOT
BRANCH   1   2
ATOM      2  C   UNL     1       5.877  -1.110  47.053  1.00  0.00     0.000 C 
BRANCH   2   3
ATOM      3  C   UNL     1       7.396  -0.995  46.852  1.00  0.00     0.000 C 
BRANCH   3   4
ATOM      4  C   UNL     1       8.205  -1.615  48.007  1.00  0.00     0.000 C 
BRANCH   4   5
ATOM      5  C   UNL     1       9.241  -2.672  47.583  1.00  0.00     0.006 C 
BRANCH   5   6
ATOM      6  C   UNL     1       9.686  -3.574  48.741  1.00  0.00     0.053 C 
BRANCH   6   7
ATOM      7  C   UNL     1       8.965  -4.883  48.690  1.00  0.00     0.041 C 
ATOM      8  O   UNL     1       8.668  -5.400  47.580  1.00  0.00    -0.550 OA
ATOM      9  O   UNL     1       8.577  -5.511  49.867  1.00  0.00    -0.550 OA
ENDBRANCH   6   7
ENDBRANCH   5   6
ENDBRANCH   4   5
ENDBRANCH   3   4
ENDBRANCH   2   3
ENDBRANCH   1   2
BRANCH   1  10
ATOM     10  C   UNL     1       5.170  -3.345  46.019  1.00  0.00     0.000 C 
BRANCH  10  11
ATOM     11  C   UNL     1       5.560  -3.870  47.415  1.00  0.00    -0.000 C 
BRANCH  11  12
ATOM     12  C   UNL     1       4.393  -4.422  48.255  1.00  0.00    -0.000 C 
BRANCH  12  13
ATOM     13  C   UNL     1       4.460  -3.989  49.727  1.00  0.00    -0.000 C 
BRANCH  13  14
ATOM     14  C   UNL     1       5.831  -3.388  50.061  1.00  0.00    -0.000 C 
BRANCH  14  15
ATOM     15  C   UNL     1       5.688  -1.959  50.597  1.00  0.00    -0.003 C 
ATOM     16  C   UNL     1       6.692  -1.688  51.714  1.00  0.00     0.004 C 
ENDBRANCH  14  15
ENDBRANCH  13  14
ENDBRANCH  12  13
ENDBRANCH  11  12
ENDBRANCH  10  11
ENDBRANCH   1  10
TORSDOF 12
ENDMDL
MODEL 3
REMARK VINA RESULT:    -4.276      1.230      2.992
REMARK INTER + INTRA:          -9.024
REMARK INTER:                  -7.345
REMARK INTRA:                  -1.679
REMARK UNBOUND:                -1.749
REMARK SMILES CCCCCCCCCCCCCC(=O)[O-]
REMARK SMILES IDX 8 1 9 2 10 3 11 4 12 5 13 6 14 7 15 8 16 9 7 10 6 11 5 12
REMARK SMILES IDX 4 13 3 14 2 15 1 16
REMARK H PARENT
REMARK Flexibility Score: inf
ROOT
ATOM      1  C   UNL     1       6.838  -1.986  50.124  1.00  0.00     0.000 C 
ENDROOT
BRANCH   1   2
ATOM      2  C   UNL     1       6.176  -1.530  48.816  1.00  0.00     0.000 C 
BRANCH   2   3
ATOM      3  C   UNL     1       7.217  -0.945  47.849  1.00  0.00     0.000 C 
BRANCH   3   4
ATOM      4  C   UNL     1       7.318  -1.729  46.527  1.00  0.00     0.000 C 
BRANCH   4   5
ATOM      5  C   UNL     1       6.220  -2.786  46.311  1.00  0.00     0.006 C 
BRANCH   5   6
ATOM      6  C   UNL     1       4.848  -2.171  46.008  1.00  0.00     0.053 C 
BRANCH   6   7
ATOM      7  C   UNL     1       4.611  -2.123  44.533  1.00  0.00     0.041 C 
ATOM      8  O   UNL     1       4.548  -1.015  43.937  1.00  0.00    -0.550 OA
ATOM      9  O   UNL     1       4.413  -3.300  43.821  1.00  0.00    -0.550 OA
ENDBRANCH   6   7
ENDBRANCH   5   6
ENDBRANCH   4   5
ENDBRANCH   3   4
ENDBRANCH   2   3
ENDBRANCH   1   2
BRANCH   1  10
ATOM     10  C   UNL     1       6.153  -3.218  50.743  1.00  0.00     0.000 C 
BRANCH  10  11
ATOM     11  C   UNL     1       5.356  -4.092  49.754  1.00  0.00    -0.000 C 
BRANCH  11  12
ATOM     12  C   UNL     1       6.119  -5.306  49.194  1.00  0.00    -0.000 C 
BRANCH  12  13
ATOM     13  C   UNL     1       7.381  -5.642  50.002  1.00  0.00    -0.000 C 
BRANCH  13  14
ATOM     14  C   UNL     1       8.573  -5.909  49.074  1.00  0.00    -0.000 C 
BRANCH  14  15
ATOM     15  C   UNL     1       8.803  -4.730  48.123  1.00  0.00    -0.003 C 
ATOM     16  C   UNL     1       9.676  -3.659  48.774  1.00  0.00     0.004 C 
ENDBRANCH  14  15
ENDBRANCH  13  14
ENDBRANCH  12  13
ENDBRANCH  11  12
ENDBRANCH  10  11
ENDBRANCH   1  10
TORSDOF 12
ENDMDL
MODEL 4
REMARK VINA RESULT:    -4.268      1.467      4.002
REMARK INTER + INTRA:          -9.010
REMARK INTER:                  -7.331
REMARK INTRA:                  -1.679
REMARK UNBOUND:                -1.749
REMARK SMILES CCCCCCCCCCCCCC(=O)[O-]
REMARK SMILES IDX 8 1 9 2 10 3 11 4 12 5 13 6 14 7 15 8 16 9 7 10 6 11 5 12
REMARK SMILES IDX 4 13 3 14 2 15 1 16
REMARK H PARENT
REMARK Flexibility Score: inf
ROOT
ATOM      1  C   UNL     1       5.548  -2.352  50.255  1.00  0.00     0.000 C 
ENDROOT
BRANCH   1   2
ATOM      2  C   UNL     1       5.066  -3.805  50.146  1.00  0.00     0.000 C 
BRANCH   2   3
ATOM      3  C   UNL     1       4.116  -3.980  48.951  1.00  0.00     0.000 C 
BRANCH   3   4
ATOM      4  C   UNL     1       4.771  -4.708  47.763  1.00  0.00     0.000 C 
BRANCH   4   5
ATOM      5  C   UNL     1       5.737  -3.850  46.925  1.00  0.00     0.006 C 
BRANCH   5   6
ATOM      6  C   UNL     1       5.119  -3.366  45.607  1.00  0.00     0.053 C 
BRANCH   6   7
ATOM      7  C   UNL     1       5.139  -1.873  45.539  1.00  0.00     0.041 C 
ATOM      8  O   UNL     1       4.764  -1.281  44.492  1.00  0.00    -0.550 OA
ATOM      9  O   UNL     1       5.616  -1.133  46.614  1.00  0.00    -0.550 OA
ENDBRANCH   6   7
ENDBRANCH   5   6
ENDBRANCH   4   5
ENDBRANCH   3   4
ENDBRANCH   2   3
ENDBRANCH   1   2
BRANCH   1  10
ATOM     10  C   UNL     1       7.072  -2.239  50.438  1.00  0.00     0.000 C 
BRANCH  10  11
ATOM     11  C   UNL     1       7.880  -2.093  49.133  1.00  0.00    -0.000 C 
BRANCH  11  12
ATOM     12  C   UNL     1       9.292  -2.705  49.166  1.00  0.00    -0.000 C 
BRANCH  12  13
ATOM     13  C   UNL     1       9.584  -3.598  47.950  1.00  0.00    -0.000 C 
BRANCH  13  14
ATOM     14  C   UNL     1       8.869  -4.948  48.076  1.00  0.00    -0.000 C 
BRANCH  14  15
ATOM     15  C   UNL     1       8.999  -5.509  49.496  1.00  0.00    -0.003 C 
ATOM     16  C   UNL     1       7.682  -6.116  49.972  1.00  0.00     0.004 C 
ENDBRANCH  14  15
ENDBRANCH  13  14
ENDBRANCH  12  13
ENDBRANCH  11  12
ENDBRANCH  10  11
ENDBRANCH   1  10
TORSDOF 12
ENDMDL
MODEL 5
REMARK VINA RESULT:    -4.267      2.341      4.692
REMARK INTER + INTRA:          -9.009
REMARK INTER:                  -7.571
REMARK INTRA:                  -1.438
REMARK UNBOUND:                -1.749
REMARK SMILES CCCCCCCCCCCCCC(=O)[O-]
REMARK SMILES IDX 8 1 9 2 10 3 11 4 12 5 13 6 14 7 15 8 16 9 7 10 6 11 5 12
REMARK SMILES IDX 4 13 3 14 2 15 1 16
REMARK H PARENT
REMARK Flexibility Score: inf
ROOT
ATOM      1  C   UNL     1       9.332  -2.571  49.097  1.00  0.00     0.000 C 
ENDROOT
BRANCH   1   2
ATOM      2  C   UNL     1       9.664  -3.802  48.242  1.00  0.00     0.000 C 
BRANCH   2   3
ATOM      3  C   UNL     1       8.454  -4.744  48.144  1.00  0.00     0.000 C 
BRANCH   3   4
ATOM      4  C   UNL     1       8.212  -5.549  49.435  1.00  0.00     0.000 C 
BRANCH   4   5
ATOM      5  C   UNL     1       6.759  -6.007  49.653  1.00  0.00     0.006 C 
BRANCH   5   6
ATOM      6  C   UNL     1       6.141  -5.446  50.940  1.00  0.00     0.053 C 
BRANCH   6   7
ATOM      7  C   UNL     1       4.997  -4.539  50.617  1.00  0.00     0.041 C 
ATOM      8  O   UNL     1       3.878  -5.020  50.296  1.00  0.00    -0.550 OA
ATOM      9  O   UNL     1       5.178  -3.162  50.624  1.00  0.00    -0.550 OA
ENDBRANCH   6   7
ENDBRANCH   5   6
ENDBRANCH   4   5
ENDBRANCH   3   4
ENDBRANCH   2   3
ENDBRANCH   1   2
BRANCH   1  10
ATOM     10  C   UNL     1       7.977  -1.938  48.733  1.00  0.00     0.000 C 
BRANCH  10  11
ATOM     11  C   UNL     1       7.889  -1.350  47.311  1.00  0.00    -0.000 C 
BRANCH  11  12
ATOM     12  C   UNL     1       6.668  -0.450  47.049  1.00  0.00    -0.000 C 
BRANCH  12  13
ATOM     13  C   UNL     1       5.351  -1.238  46.980  1.00  0.00    -0.000 C 
BRANCH  13  14
ATOM     14  C   UNL     1       5.551  -2.581  46.268  1.00  0.00    -0.000 C 
BRANCH  14  15
ATOM     15  C   UNL     1       5.090  -3.746  47.151  1.00  0.00    -0.003 C 
ATOM     16  C   UNL     1       5.129  -5.066  46.387  1.00  0.00     0.004 C 
ENDBRANCH  14  15
ENDBRANCH  13  14
ENDBRANCH  12  13
ENDBRANCH  11  12
ENDBRANCH  10  11
ENDBRANCH   1  10
TORSDOF 12
ENDMDL
MODEL 6
REMARK VINA RESULT:    -4.193      2.340      4.713
REMARK INTER + INTRA:          -8.884
REMARK INTER:                  -7.395
REMARK INTRA:                  -1.489
REMARK UNBOUND:                -1.749
REMARK SMILES CCCCCCCCCCCCCC(=O)[O-]
REMARK SMILES IDX 8 1 9 2 10 3 11 4 12 5 13 6 14 7 15 8 16 9 7 10 6 11 5 12
REMARK SMILES IDX 4 13 3 14 2 15 1 16
REMARK H PARENT
REMARK Flexibility Score: inf
ROOT
ATOM      1  C   UNL     1       8.515  -5.179  49.094  1.00  0.00     0.000 C 
ENDROOT
BRANCH   1   2
ATOM      2  C   UNL     1       7.343  -5.645  49.969  1.00  0.00     0.000 C 
BRANCH   2   3
ATOM      3  C   UNL     1       6.051  -5.751  49.145  1.00  0.00     0.000 C 
BRANCH   3   4
ATOM      4  C   UNL     1       4.918  -4.859  49.687  1.00  0.00     0.000 C 
BRANCH   4   5
ATOM      5  C   UNL     1       5.311  -3.950  50.865  1.00  0.00     0.006 C 
BRANCH   5   6
ATOM      6  C   UNL     1       5.528  -2.490  50.449  1.00  0.00     0.053 C 
BRANCH   6   7
ATOM      7  C   UNL     1       6.745  -1.933  51.115  1.00  0.00     0.041 C 
ATOM      8  O   UNL     1       7.877  -2.065  50.579  1.00  0.00    -0.550 OA
ATOM      9  O   UNL     1       6.639  -1.309  52.351  1.00  0.00    -0.550 OA
ENDBRANCH   6   7
ENDBRANCH   5   6
ENDBRANCH   4   5
ENDBRANCH   3   4
ENDBRANCH   2   3
ENDBRANCH   1   2
BRANCH   1  10
ATOM     10  C   UNL     1       8.059  -4.360  47.872  1.00  0.00     0.000 C 
BRANCH  10  11
ATOM     11  C   UNL     1       8.901  -3.102  47.576  1.00  0.00    -0.000 C 
BRANCH  11  12
ATOM     12  C   UNL     1       8.207  -2.042  46.701  1.00  0.00    -0.000 C 
BRANCH  12  13
ATOM     13  C   UNL     1       7.600  -0.895  47.522  1.00  0.00    -0.000 C 
BRANCH  13  14
ATOM     14  C   UNL     1       6.333  -0.351  46.853  1.00  0.00    -0.000 C 
BRANCH  14  15
ATOM     15  C   UNL     1       5.633  -1.440  46.033  1.00  0.00    -0.003 C 
ATOM     16  C   UNL     1       4.767  -2.328  46.922  1.00  0.00     0.004 C 
ENDBRANCH  14  15
ENDBRANCH  13  14
ENDBRANCH  12  13
ENDBRANCH  11  12
ENDBRANCH  10  11
ENDBRANCH   1  10
TORSDOF 12
ENDMDL
MODEL 7
REMARK VINA RESULT:    -4.185      2.253      4.727
REMARK INTER + INTRA:          -8.870
REMARK INTER:                  -7.194
REMARK INTRA:                  -1.675
REMARK UNBOUND:                -1.749
REMARK SMILES CCCCCCCCCCCCCC(=O)[O-]
REMARK SMILES IDX 8 1 9 2 10 3 11 4 12 5 13 6 14 7 15 8 16 9 7 10 6 11 5 12
REMARK SMILES IDX 4 13 3 14 2 15 1 16
REMARK H PARENT
REMARK Flexibility Score: inf
ROOT
ATOM      1  C   UNL     1       4.356  -3.922  48.959  1.00  0.00     0.000 C 
ENDROOT
BRANCH   1   2
ATOM      2  C   UNL     1       4.440  -4.452  50.397  1.00  0.00     0.000 C 
BRANCH   2   3
ATOM      3  C   UNL     1       5.892  -4.445  50.901  1.00  0.00     0.000 C 
BRANCH   3   4
ATOM      4  C   UNL     1       6.775  -5.496  50.203  1.00  0.00     0.000 C 
BRANCH   4   5
ATOM      5  C   UNL     1       8.012  -4.931  49.481  1.00  0.00     0.006 C 
BRANCH   5   6
ATOM      6  C   UNL     1       7.970  -3.406  49.324  1.00  0.00     0.053 C 
BRANCH   6   7
ATOM      7  C   UNL     1       9.186  -2.923  48.600  1.00  0.00     0.041 C 
ATOM      8  O   UNL     1      10.210  -2.575  49.244  1.00  0.00    -0.550 OA
ATOM      9  O   UNL     1       9.172  -2.810  47.215  1.00  0.00    -0.550 OA
ENDBRANCH   6   7
ENDBRANCH   5   6
ENDBRANCH   4   5
ENDBRANCH   3   4
ENDBRANCH   2   3
ENDBRANCH   1   2
BRANCH   1  10
ATOM     10  C   UNL     1       4.147  -5.040  47.921  1.00  0.00     0.000 C 
BRANCH  10  11
ATOM     11  C   UNL     1       5.105  -4.999  46.713  1.00  0.00    -0.000 C 
BRANCH  11  12
ATOM     12  C   UNL     1       5.781  -3.640  46.460  1.00  0.00    -0.000 C 
BRANCH  12  13
ATOM     13  C   UNL     1       5.042  -2.790  45.416  1.00  0.00    -0.000 C 
BRANCH  13  14
ATOM     14  C   UNL     1       5.343  -1.299  45.608  1.00  0.00    -0.000 C 
BRANCH  14  15
ATOM     15  C   UNL     1       5.811  -1.013  47.039  1.00  0.00    -0.003 C 
ATOM     16  C   UNL     1       7.040  -0.107  47.046  1.00  0.00     0.004 C 
ENDBRANCH  14  15
ENDBRANCH  13  14
ENDBRANCH  12  13
ENDBRANCH  11  12
ENDBRANCH  10  11
ENDBRANCH   1  10
TORSDOF 12
ENDMDL
MODEL 8
REMARK VINA RESULT:    -4.182      2.235      4.501
REMARK INTER + INTRA:          -8.864
REMARK INTER:                  -7.115
REMARK INTRA:                  -1.749
REMARK UNBOUND:                -1.749
REMARK SMILES CCCCCCCCCCCCCC(=O)[O-]
REMARK SMILES IDX 8 1 9 2 10 3 11 4 12 5 13 6 14 7 15 8 16 9 7 10 6 11 5 12
REMARK SMILES IDX 4 13 3 14 2 15 1 16
REMARK H PARENT
REMARK Flexibility Score: inf
ROOT
ATOM      1  C   UNL     1       5.744  -2.442  50.642  1.00  0.00     0.000 C 
ENDROOT
BRANCH   1   2
ATOM      2  C   UNL     1       7.144  -1.993  50.201  1.00  0.00     0.000 C 
BRANCH   2   3
ATOM      3  C   UNL     1       7.127  -1.489  48.749  1.00  0.00     0.000 C 
BRANCH   3   4
ATOM      4  C   UNL     1       8.435  -1.787  47.993  1.00  0.00     0.000 C 
BRANCH   4   5
ATOM      5  C   UNL     1       8.598  -3.244  47.524  1.00  0.00     0.006 C 
BRANCH   5   6
ATOM      6  C   UNL     1       9.326  -4.126  48.547  1.00  0.00     0.053 C 
BRANCH   6   7
ATOM      7  C   UNL     1       8.699  -5.482  48.607  1.00  0.00     0.041 C 
ATOM      8  O   UNL     1       8.436  -6.106  47.545  1.00  0.00    -0.550 OA
ATOM      9  O   UNL     1       8.360  -6.038  49.834  1.00  0.00    -0.550 OA
ENDBRANCH   6   7
ENDBRANCH   5   6
ENDBRANCH   4   5
ENDBRANCH   3   4
ENDBRANCH   2   3
ENDBRANCH   1   2
BRANCH   1  10
ATOM     10  C   UNL     1       5.445  -3.908  50.281  1.00  0.00     0.000 C 
BRANCH  10  11
ATOM     11  C   UNL     1       4.539  -4.109  49.050  1.00  0.00    -0.000 C 
BRANCH  11  12
ATOM     12  C   UNL     1       5.077  -5.095  47.997  1.00  0.00    -0.000 C 
BRANCH  12  13
ATOM     13  C   UNL     1       5.265  -4.449  46.616  1.00  0.00    -0.000 C 
BRANCH  13  14
ATOM     14  C   UNL     1       4.920  -2.956  46.656  1.00  0.00    -0.000 C 
BRANCH  14  15
ATOM     15  C   UNL     1       5.317  -2.264  45.348  1.00  0.00    -0.003 C 
ATOM     16  C   UNL     1       4.554  -2.848  44.162  1.00  0.00     0.004 C 
ENDBRANCH  14  15
ENDBRANCH  13  14
ENDBRANCH  12  13
ENDBRANCH  11  12
ENDBRANCH  10  11
ENDBRANCH   1  10
TORSDOF 12
ENDMDL
MODEL 9
REMARK VINA RESULT:    -3.983      1.531      2.517
REMARK INTER + INTRA:          -8.526
REMARK INTER:                  -7.042
REMARK INTRA:                  -1.484
REMARK UNBOUND:                -1.749
REMARK SMILES CCCCCCCCCCCCCC(=O)[O-]
REMARK SMILES IDX 8 1 9 2 10 3 11 4 12 5 13 6 14 7 15 8 16 9 7 10 6 11 5 12
REMARK SMILES IDX 4 13 3 14 2 15 1 16
REMARK H PARENT
REMARK Flexibility Score: inf
ROOT
ATOM      1  C   UNL     1       5.738  -5.447  46.768  1.00  0.00     0.000 C 
ENDROOT
BRANCH   1   2
ATOM      2  C   UNL     1       7.070  -5.888  47.392  1.00  0.00     0.000 C 
BRANCH   2   3
ATOM      3  C   UNL     1       7.582  -4.838  48.391  1.00  0.00     0.000 C 
BRANCH   3   4
ATOM      4  C   UNL     1       8.764  -4.016  47.846  1.00  0.00     0.000 C 
BRANCH   4   5
ATOM      5  C   UNL     1       8.503  -2.504  47.720  1.00  0.00     0.006 C 
BRANCH   5   6
ATOM      6  C   UNL     1       7.389  -2.169  46.721  1.00  0.00     0.053 C 
BRANCH   6   7
ATOM      7  C   UNL     1       6.736  -0.874  47.083  1.00  0.00     0.041 C 
ATOM      8  O   UNL     1       7.342   0.215  46.899  1.00  0.00    -0.550 OA
ATOM      9  O   UNL     1       5.475  -0.869  47.667  1.00  0.00    -0.550 OA
ENDBRANCH   6   7
ENDBRANCH   5   6
ENDBRANCH   4   5
ENDBRANCH   3   4
ENDBRANCH   2   3
ENDBRANCH   1   2
BRANCH   1  10
ATOM     10  C   UNL     1       4.727  -4.940  47.812  1.00  0.00     0.000 C 
BRANCH  10  11
ATOM     11  C   UNL     1       4.352  -5.957  48.909  1.00  0.00    -0.000 C 
BRANCH  11  12
ATOM     12  C   UNL     1       4.324  -5.393  50.341  1.00  0.00    -0.000 C 
BRANCH  12  13
ATOM     13  C   UNL     1       4.585  -3.880  50.392  1.00  0.00    -0.000 C 
BRANCH  13  14
ATOM     14  C   UNL     1       5.849  -3.567  51.202  1.00  0.00    -0.000 C 
BRANCH  14  15
ATOM     15  C   UNL     1       6.408  -2.188  50.837  1.00  0.00    -0.003 C 
ATOM     16  C   UNL     1       6.704  -1.365  52.088  1.00  0.00     0.004 C 
ENDBRANCH  14  15
ENDBRANCH  13  14
ENDBRANCH  12  13
ENDBRANCH  11  12
ENDBRANCH  10  11
ENDBRANCH   1  10
TORSDOF 12
ENDMDL
