MODEL 1
REMARK VINA RESULT:    -4.853      0.000      0.000
REMARK INTER + INTRA:          -8.287
REMARK INTER:                  -7.689
REMARK INTRA:                  -0.598
REMARK UNBOUND:                -0.598
REMARK SMILES CCCCCCCCCCCC(=O)[O-]
REMARK SMILES IDX 7 1 8 2 9 3 10 4 11 5 12 6 13 7 14 8 6 9 5 10 4 11 3 12 2 13
REMARK SMILES IDX 1 14
REMARK H PARENT
REMARK Flexibility Score: inf
ROOT
ATOM      1  C   UNL     1      -6.883  -7.277  -6.388  1.00  0.00     0.000 C 
ENDROOT
BRANCH   1   2
ATOM      2  C   UNL     1      -5.837  -6.519  -7.225  1.00  0.00     0.000 C 
BRANCH   2   3
ATOM      3  C   UNL     1      -6.227  -6.419  -8.708  1.00  0.00     0.000 C 
BRANCH   3   4
ATOM      4  C   UNL     1      -6.701  -5.006  -9.094  1.00  0.00     0.006 C 
BRANCH   4   5
ATOM      5  C   UNL     1      -6.264  -3.949  -8.071  1.00  0.00     0.053 C 
BRANCH   5   6
ATOM      6  C   UNL     1      -6.437  -2.558  -8.601  1.00  0.00     0.041 C 
ATOM      7  O   UNL     1      -6.774  -2.374  -9.801  1.00  0.00    -0.550 OA
ATOM      8  O   UNL     1      -6.196  -1.465  -7.778  1.00  0.00    -0.550 OA
ENDBRANCH   5   6
ENDBRANCH   4   5
ENDBRANCH   3   4
ENDBRANCH   2   3
ENDBRANCH   1   2
BRANCH   1   9
ATOM      9  C   UNL     1      -7.738  -6.322  -5.527  1.00  0.00     0.000 C 
BRANCH   9  10
ATOM     10  C   UNL     1      -7.962  -6.824  -4.091  1.00  0.00    -0.000 C 
BRANCH  10  11
ATOM     11  C   UNL     1      -7.346  -8.207  -3.836  1.00  0.00    -0.000 C 
BRANCH  11  12
ATOM     12  C   UNL     1      -6.239  -8.130  -2.776  1.00  0.00    -0.000 C 
BRANCH  12  13
ATOM     13  C   UNL     1      -6.572  -8.941  -1.515  1.00  0.00    -0.003 C 
ATOM     14  C   UNL     1      -8.049  -9.330  -1.435  1.00  0.00     0.004 C 
ENDBRANCH  12  13
ENDBRANCH  11  12
ENDBRANCH  10  11
ENDBRANCH   9  10
ENDBRANCH   1   9
TORSDOF 10
ENDMDL
MODEL 2
REMARK VINA RESULT:    -4.804      3.620      7.144
REMARK INTER + INTRA:          -8.210
REMARK INTER:                  -7.579
REMARK INTRA:                  -0.631
REMARK UNBOUND:                -0.598
REMARK SMILES CCCCCCCCCCCC(=O)[O-]
REMARK SMILES IDX 7 1 8 2 9 3 10 4 11 5 12 6 13 7 14 8 6 9 5 10 4 11 3 12 2 13
REMARK SMILES IDX 1 14
REMARK H PARENT
REMARK Flexibility Score: inf
ROOT
ATOM      1  C   UNL     1      -6.861  -7.242  -6.324  1.00  0.00     0.000 C 
ENDROOT
BRANCH   1   2
ATOM      2  C   UNL     1      -7.733  -6.226  -5.565  1.00  0.00     0.000 C 
BRANCH   2   3
ATOM      3  C   UNL     1      -8.509  -6.865  -4.403  1.00  0.00     0.000 C 
BRANCH   3   4
ATOM      4  C   UNL     1      -8.066  -8.314  -4.130  1.00  0.00     0.006 C 
BRANCH   4   5
ATOM      5  C   UNL     1      -8.067  -8.648  -2.632  1.00  0.00     0.053 C 
BRANCH   5   6
ATOM      6  C   UNL     1      -6.685  -8.616  -2.055  1.00  0.00     0.041 C 
ATOM      7  O   UNL     1      -5.758  -8.018  -2.662  1.00  0.00    -0.550 OA
ATOM      8  O   UNL     1      -6.414  -9.274  -0.862  1.00  0.00    -0.550 OA
ENDBRANCH   5   6
ENDBRANCH   4   5
ENDBRANCH   3   4
ENDBRANCH   2   3
ENDBRANCH   1   2
BRANCH   1   9
ATOM      9  C   UNL     1      -5.809  -6.551  -7.217  1.00  0.00     0.000 C 
BRANCH   9  10
ATOM     10  C   UNL     1      -6.249  -6.401  -8.683  1.00  0.00    -0.000 C 
BRANCH  10  11
ATOM     11  C   UNL     1      -6.691  -4.972  -9.032  1.00  0.00    -0.000 C 
BRANCH  11  12
ATOM     12  C   UNL     1      -6.177  -3.968  -7.990  1.00  0.00    -0.000 C 
BRANCH  12  13
ATOM     13  C   UNL     1      -6.610  -2.526  -8.297  1.00  0.00    -0.003 C 
ATOM     14  C   UNL     1      -5.442  -1.636  -8.723  1.00  0.00     0.004 C 
ENDBRANCH  12  13
ENDBRANCH  11  12
ENDBRANCH  10  11
ENDBRANCH   9  10
ENDBRANCH   1   9
TORSDOF 10
ENDMDL
MODEL 3
REMARK VINA RESULT:    -4.761     15.567     17.559
REMARK INTER + INTRA:          -8.141
REMARK INTER:                  -7.061
REMARK INTRA:                  -1.080
REMARK UNBOUND:                -0.598
REMARK SMILES CCCCCCCCCCCC(=O)[O-]
REMARK SMILES IDX 7 1 8 2 9 3 10 4 11 5 12 6 13 7 14 8 6 9 5 10 4 11 3 12 2 13
REMARK SMILES IDX 1 14
REMARK H PARENT
REMARK Flexibility Score: inf
ROOT
ATOM      1  C   UNL     1      -2.406  -0.399   6.933  1.00  0.00     0.000 C 
ENDROOT
BRANCH   1   2
ATOM      2  C   UNL     1      -2.161   0.265   8.300  1.00  0.00     0.000 C 
BRANCH   2   3
ATOM      3  C   UNL     1      -1.542  -0.700   9.323  1.00  0.00     0.000 C 
BRANCH   3   4
ATOM      4  C   UNL     1      -0.383  -1.520   8.728  1.00  0.00     0.006 C 
BRANCH   4   5
ATOM      5  C   UNL     1      -0.121  -2.810   9.516  1.00  0.00     0.053 C 
BRANCH   5   6
ATOM      6  C   UNL     1       1.343  -3.040   9.734  1.00  0.00     0.041 C 
ATOM      7  O   UNL     1       1.776  -4.202   9.957  1.00  0.00    -0.550 OA
ATOM      8  O   UNL     1       2.226  -1.968   9.719  1.00  0.00    -0.550 OA
ENDBRANCH   5   6
ENDBRANCH   4   5
ENDBRANCH   3   4
ENDBRANCH   2   3
ENDBRANCH   1   2
BRANCH   1   9
ATOM      9  C   UNL     1      -2.585   0.641   5.807  1.00  0.00     0.000 C 
BRANCH   9  10
ATOM     10  C   UNL     1      -1.398   1.610   5.670  1.00  0.00    -0.000 C 
BRANCH  10  11
ATOM     11  C   UNL     1      -0.095   0.907   5.262  1.00  0.00    -0.000 C 
BRANCH  11  12
ATOM     12  C   UNL     1       0.952   0.996   6.382  1.00  0.00    -0.000 C 
BRANCH  12  13
ATOM     13  C   UNL     1       0.669   2.144   7.363  1.00  0.00    -0.003 C 
ATOM     14  C   UNL     1       1.625   3.324   7.186  1.00  0.00     0.004 C 
ENDBRANCH  12  13
ENDBRANCH  11  12
ENDBRANCH  10  11
ENDBRANCH   9  10
ENDBRANCH   1   9
TORSDOF 10
ENDMDL
MODEL 4
REMARK VINA RESULT:    -4.636     15.399     17.409
REMARK INTER + INTRA:          -7.943
REMARK INTER:                  -6.539
REMARK INTRA:                  -1.404
REMARK UNBOUND:                -0.598
REMARK SMILES CCCCCCCCCCCC(=O)[O-]
REMARK SMILES IDX 7 1 8 2 9 3 10 4 11 5 12 6 13 7 14 8 6 9 5 10 4 11 3 12 2 13
REMARK SMILES IDX 1 14
REMARK H PARENT
REMARK Flexibility Score: inf
ROOT
ATOM      1  C   UNL     1      -2.545   0.893   9.537  1.00  0.00     0.000 C 
ENDROOT
BRANCH   1   2
ATOM      2  C   UNL     1      -2.459  -0.606   9.875  1.00  0.00     0.000 C 
BRANCH   2   3
ATOM      3  C   UNL     1      -2.694  -1.503   8.650  1.00  0.00     0.000 C 
BRANCH   3   4
ATOM      4  C   UNL     1      -1.407  -2.207   8.184  1.00  0.00     0.006 C 
BRANCH   4   5
ATOM      5  C   UNL     1      -0.446  -2.487   9.348  1.00  0.00     0.053 C 
BRANCH   5   6
ATOM      6  C   UNL     1       0.924  -1.944   9.080  1.00  0.00     0.041 C 
ATOM      7  O   UNL     1       1.091  -1.039   8.219  1.00  0.00    -0.550 OA
ATOM      8  O   UNL     1       2.021  -2.459   9.758  1.00  0.00    -0.550 OA
ENDBRANCH   5   6
ENDBRANCH   4   5
ENDBRANCH   3   4
ENDBRANCH   2   3
ENDBRANCH   1   2
BRANCH   1   9
ATOM      9  C   UNL     1      -1.150   1.534   9.385  1.00  0.00     0.000 C 
BRANCH   9  10
ATOM     10  C   UNL     1      -0.813   1.940   7.940  1.00  0.00    -0.000 C 
BRANCH  10  11
ATOM     11  C   UNL     1      -2.009   1.807   6.986  1.00  0.00    -0.000 C 
BRANCH  11  12
ATOM     12  C   UNL     1      -1.734   0.753   5.904  1.00  0.00    -0.000 C 
BRANCH  12  13
ATOM     13  C   UNL     1      -0.250   0.682   5.515  1.00  0.00    -0.003 C 
ATOM     14  C   UNL     1       0.100   1.598   4.342  1.00  0.00     0.004 C 
ENDBRANCH  12  13
ENDBRANCH  11  12
ENDBRANCH  10  11
ENDBRANCH   9  10
ENDBRANCH   1   9
TORSDOF 10
ENDMDL
MODEL 5
REMARK VINA RESULT:    -4.548     15.049     16.807
REMARK INTER + INTRA:          -7.804
REMARK INTER:                  -6.617
REMARK INTRA:                  -1.187
REMARK UNBOUND:                -0.598
REMARK SMILES CCCCCCCCCCCC(=O)[O-]
REMARK SMILES IDX 7 1 8 2 9 3 10 4 11 5 12 6 13 7 14 8 6 9 5 10 4 11 3 12 2 13
REMARK SMILES IDX 1 14
REMARK H PARENT
REMARK Flexibility Score: inf
ROOT
ATOM      1  C   UNL     1      -1.195  -0.444   8.716  1.00  0.00     0.000 C 
ENDROOT
BRANCH   1   2
ATOM      2  C   UNL     1      -0.714  -1.174   7.449  1.00  0.00     0.000 C 
BRANCH   2   3
ATOM      3  C   UNL     1       0.610  -0.611   6.910  1.00  0.00     0.000 C 
BRANCH   3   4
ATOM      4  C   UNL     1       0.571  -0.376   5.389  1.00  0.00     0.006 C 
BRANCH   4   5
ATOM      5  C   UNL     1       1.245   0.944   4.990  1.00  0.00     0.053 C 
BRANCH   5   6
ATOM      6  C   UNL     1       0.275   1.893   4.355  1.00  0.00     0.041 C 
ATOM      7  O   UNL     1       0.636   2.620   3.391  1.00  0.00    -0.550 OA
ATOM      8  O   UNL     1      -1.020   1.997   4.846  1.00  0.00    -0.550 OA
ENDBRANCH   5   6
ENDBRANCH   4   5
ENDBRANCH   3   4
ENDBRANCH   2   3
ENDBRANCH   1   2
BRANCH   1   9
ATOM      9  C   UNL     1      -2.261   0.627   8.398  1.00  0.00     0.000 C 
BRANCH   9  10
ATOM     10  C   UNL     1      -1.681   2.041   8.228  1.00  0.00    -0.000 C 
BRANCH  10  11
ATOM     11  C   UNL     1      -1.107   2.614   9.532  1.00  0.00    -0.000 C 
BRANCH  11  12
ATOM     12  C   UNL     1       0.248   3.293   9.285  1.00  0.00    -0.000 C 
BRANCH  12  13
ATOM     13  C   UNL     1       0.872   2.891   7.940  1.00  0.00    -0.003 C 
ATOM     14  C   UNL     1       1.950   3.868   7.472  1.00  0.00     0.004 C 
ENDBRANCH  12  13
ENDBRANCH  11  12
ENDBRANCH  10  11
ENDBRANCH   9  10
ENDBRANCH   1   9
TORSDOF 10
ENDMDL
MODEL 6
REMARK VINA RESULT:    -4.523     15.050     16.373
REMARK INTER + INTRA:          -7.765
REMARK INTER:                  -6.521
REMARK INTRA:                  -1.245
REMARK UNBOUND:                -0.598
REMARK SMILES CCCCCCCCCCCC(=O)[O-]
REMARK SMILES IDX 7 1 8 2 9 3 10 4 11 5 12 6 13 7 14 8 6 9 5 10 4 11 3 12 2 13
REMARK SMILES IDX 1 14
REMARK H PARENT
REMARK Flexibility Score: inf
ROOT
ATOM      1  C   UNL     1      -0.542  -2.442   8.789  1.00  0.00     0.000 C 
ENDROOT
BRANCH   1   2
ATOM      2  C   UNL     1       0.501  -1.440   8.263  1.00  0.00     0.000 C 
BRANCH   2   3
ATOM      3  C   UNL     1       0.287  -1.087   6.783  1.00  0.00     0.000 C 
BRANCH   3   4
ATOM      4  C   UNL     1       0.736   0.347   6.452  1.00  0.00     0.006 C 
BRANCH   4   5
ATOM      5  C   UNL     1       0.926   0.561   4.944  1.00  0.00     0.053 C 
BRANCH   5   6
ATOM      6  C   UNL     1       0.157   1.748   4.450  1.00  0.00     0.041 C 
ATOM      7  O   UNL     1      -0.960   2.035   4.957  1.00  0.00    -0.550 OA
ATOM      8  O   UNL     1       0.659   2.518   3.409  1.00  0.00    -0.550 OA
ENDBRANCH   5   6
ENDBRANCH   4   5
ENDBRANCH   3   4
ENDBRANCH   2   3
ENDBRANCH   1   2
BRANCH   1   9
ATOM      9  C   UNL     1      -1.960  -1.835   8.831  1.00  0.00     0.000 C 
BRANCH   9  10
ATOM     10  C   UNL     1      -2.260  -1.059  10.125  1.00  0.00    -0.000 C 
BRANCH  10  11
ATOM     11  C   UNL     1      -2.740   0.376   9.865  1.00  0.00    -0.000 C 
BRANCH  11  12
ATOM     12  C   UNL     1      -2.387   0.824   8.440  1.00  0.00    -0.000 C 
BRANCH  12  13
ATOM     13  C   UNL     1      -1.913   2.284   8.381  1.00  0.00    -0.003 C 
ATOM     14  C   UNL     1      -0.608   2.514   9.145  1.00  0.00     0.004 C 
ENDBRANCH  12  13
ENDBRANCH  11  12
ENDBRANCH  10  11
ENDBRANCH   9  10
ENDBRANCH   1   9
TORSDOF 10
ENDMDL
MODEL 7
REMARK VINA RESULT:    -4.514     15.017     15.892
REMARK INTER + INTRA:          -7.750
REMARK INTER:                  -6.899
REMARK INTRA:                  -0.851
REMARK UNBOUND:                -0.598
REMARK SMILES CCCCCCCCCCCC(=O)[O-]
REMARK SMILES IDX 7 1 8 2 9 3 10 4 11 5 12 6 13 7 14 8 6 9 5 10 4 11 3 12 2 13
REMARK SMILES IDX 1 14
REMARK H PARENT
REMARK Flexibility Score: inf
ROOT
ATOM      1  C   UNL     1      -2.305   1.203   7.360  1.00  0.00     0.000 C 
ENDROOT
BRANCH   1   2
ATOM      2  C   UNL     1      -2.299   0.620   5.936  1.00  0.00     0.000 C 
BRANCH   2   3
ATOM      3  C   UNL     1      -1.280   1.313   5.019  1.00  0.00     0.000 C 
BRANCH   3   4
ATOM      4  C   UNL     1       0.085   0.601   5.017  1.00  0.00     0.006 C 
BRANCH   4   5
ATOM      5  C   UNL     1       1.249   1.580   5.216  1.00  0.00     0.053 C 
BRANCH   5   6
ATOM      6  C   UNL     1       1.206   2.228   6.566  1.00  0.00     0.041 C 
ATOM      7  O   UNL     1       1.336   3.476   6.676  1.00  0.00    -0.550 OA
ATOM      8  O   UNL     1       1.052   1.450   7.707  1.00  0.00    -0.550 OA
ENDBRANCH   5   6
ENDBRANCH   4   5
ENDBRANCH   3   4
ENDBRANCH   2   3
ENDBRANCH   1   2
BRANCH   1   9
ATOM      9  C   UNL     1      -2.020   0.126   8.428  1.00  0.00     0.000 C 
BRANCH   9  10
ATOM     10  C   UNL     1      -1.524  -1.207   7.842  1.00  0.00    -0.000 C 
BRANCH  10  11
ATOM     11  C   UNL     1      -0.887  -2.125   8.895  1.00  0.00    -0.000 C 
BRANCH  11  12
ATOM     12  C   UNL     1      -1.666  -3.442   9.020  1.00  0.00    -0.000 C 
BRANCH  12  13
ATOM     13  C   UNL     1      -3.143  -3.220   9.382  1.00  0.00    -0.003 C 
ATOM     14  C   UNL     1      -4.019  -4.430   9.057  1.00  0.00     0.004 C 
ENDBRANCH  12  13
ENDBRANCH  11  12
ENDBRANCH  10  11
ENDBRANCH   9  10
ENDBRANCH   1   9
TORSDOF 10
ENDMDL
MODEL 8
REMARK VINA RESULT:    -4.510     15.027     16.571
REMARK INTER + INTRA:          -7.744
REMARK INTER:                  -6.475
REMARK INTRA:                  -1.268
REMARK UNBOUND:                -0.598
REMARK SMILES CCCCCCCCCCCC(=O)[O-]
REMARK SMILES IDX 7 1 8 2 9 3 10 4 11 5 12 6 13 7 14 8 6 9 5 10 4 11 3 12 2 13
REMARK SMILES IDX 1 14
REMARK H PARENT
REMARK Flexibility Score: inf
ROOT
ATOM      1  C   UNL     1      -2.013   2.261   8.626  1.00  0.00     0.000 C 
ENDROOT
BRANCH   1   2
ATOM      2  C   UNL     1      -0.513   2.334   8.962  1.00  0.00     0.000 C 
BRANCH   2   3
ATOM      3  C   UNL     1       0.377   2.257   7.712  1.00  0.00     0.000 C 
BRANCH   3   4
ATOM      4  C   UNL     1       0.417   0.841   7.108  1.00  0.00     0.006 C 
BRANCH   4   5
ATOM      5  C   UNL     1       0.626   0.866   5.588  1.00  0.00     0.053 C 
BRANCH   5   6
ATOM      6  C   UNL     1      -0.491   1.575   4.885  1.00  0.00     0.041 C 
ATOM      7  O   UNL     1      -0.238   2.435   4.000  1.00  0.00    -0.550 OA
ATOM      8  O   UNL     1      -1.810   1.307   5.228  1.00  0.00    -0.550 OA
ENDBRANCH   5   6
ENDBRANCH   4   5
ENDBRANCH   3   4
ENDBRANCH   2   3
ENDBRANCH   1   2
BRANCH   1   9
ATOM      9  C   UNL     1      -2.801   1.438   9.667  1.00  0.00     0.000 C 
BRANCH   9  10
ATOM     10  C   UNL     1      -2.294  -0.007   9.821  1.00  0.00    -0.000 C 
BRANCH  10  11
ATOM     11  C   UNL     1      -2.424  -0.828   8.530  1.00  0.00    -0.000 C 
BRANCH  11  12
ATOM     12  C   UNL     1      -1.572  -2.103   8.601  1.00  0.00    -0.000 C 
BRANCH  12  13
ATOM     13  C   UNL     1      -0.425  -1.989   9.617  1.00  0.00    -0.003 C 
ATOM     14  C   UNL     1       0.939  -2.313   9.008  1.00  0.00     0.004 C 
ENDBRANCH  12  13
ENDBRANCH  11  12
ENDBRANCH  10  11
ENDBRANCH   9  10
ENDBRANCH   1   9
TORSDOF 10
ENDMDL
MODEL 9
REMARK VINA RESULT:    -4.380      2.237      4.052
REMARK INTER + INTRA:          -7.538
REMARK INTER:                  -7.112
REMARK INTRA:                  -0.426
REMARK UNBOUND:                -0.598
REMARK SMILES CCCCCCCCCCCC(=O)[O-]
REMARK SMILES IDX 7 1 8 2 9 3 10 4 11 5 12 6 13 7 14 8 6 9 5 10 4 11 3 12 2 13
REMARK SMILES IDX 1 14
REMARK H PARENT
REMARK Flexibility Score: inf
ROOT
ATOM      1  C   UNL     1      -6.217  -8.183  -2.691  1.00  0.00     0.000 C 
ENDROOT
BRANCH   1   2
ATOM      2  C   UNL     1      -7.389  -7.643  -3.530  1.00  0.00     0.000 C 
BRANCH   2   3
ATOM      3  C   UNL     1      -7.251  -7.980  -5.023  1.00  0.00     0.000 C 
BRANCH   3   4
ATOM      4  C   UNL     1      -7.253  -6.722  -5.910  1.00  0.00     0.006 C 
BRANCH   4   5
ATOM      5  C   UNL     1      -6.304  -6.857  -7.108  1.00  0.00     0.053 C 
BRANCH   5   6
ATOM      6  C   UNL     1      -6.490  -5.742  -8.092  1.00  0.00     0.041 C 
ATOM      7  O   UNL     1      -6.026  -4.596  -7.847  1.00  0.00    -0.550 OA
ATOM      8  O   UNL     1      -7.201  -5.960  -9.265  1.00  0.00    -0.550 OA
ENDBRANCH   5   6
ENDBRANCH   4   5
ENDBRANCH   3   4
ENDBRANCH   2   3
ENDBRANCH   1   2
BRANCH   1   9
ATOM      9  C   UNL     1      -6.697  -9.109  -1.554  1.00  0.00     0.000 C 
BRANCH   9  10
ATOM     10  C   UNL     1      -8.169  -9.534  -1.686  1.00  0.00    -0.000 C 
BRANCH  10  11
ATOM     11  C   UNL     1      -8.964  -9.351  -0.385  1.00  0.00    -0.000 C 
BRANCH  11  12
ATOM     12  C   UNL     1      -8.179  -9.888   0.820  1.00  0.00    -0.000 C 
BRANCH  12  13
ATOM     13  C   UNL     1      -8.759  -9.414   2.161  1.00  0.00    -0.003 C 
ATOM     14  C   UNL     1      -7.775  -9.571   3.320  1.00  0.00     0.004 C 
ENDBRANCH  12  13
ENDBRANCH  11  12
ENDBRANCH  10  11
ENDBRANCH   9  10
ENDBRANCH   1   9
TORSDOF 10
ENDMDL
