MODEL 1
REMARK VINA RESULT:    -4.013      0.000      0.000
REMARK INTER + INTRA:          -9.492
REMARK INTER:                  -7.298
REMARK INTRA:                  -2.194
REMARK UNBOUND:                -2.194
REMARK SMILES CCCCCCCCCCCCCC[C@@H](C)C(=O)[O-]
REMARK SMILES IDX 9 1 10 2 11 3 12 4 13 5 14 6 15 7 16 8 17 9 18 10 19 11 8 12
REMARK SMILES IDX 7 13 6 14 5 15 4 16 3 17 2 18 1 19
REMARK H PARENT
REMARK Flexibility Score: inf
ROOT
ATOM      1  C   UNL     1      40.096  20.764   3.949  1.00  0.00     0.000 C 
ENDROOT
BRANCH   1   2
ATOM      2  C   UNL     1      40.796  20.554   2.594  1.00  0.00     0.000 C 
BRANCH   2   3
ATOM      3  C   UNL     1      40.401  21.618   1.559  1.00  0.00     0.000 C 
BRANCH   3   4
ATOM      4  C   UNL     1      38.986  21.394   0.996  1.00  0.00     0.000 C 
BRANCH   4   5
ATOM      5  C   UNL     1      38.048  22.587   1.236  1.00  0.00     0.001 C 
BRANCH   5   6
ATOM      6  C   UNL     1      36.975  22.397   2.335  1.00  0.00     0.009 C 
BRANCH   6   7
ATOM      7  C   UNL     1      36.190  21.058   2.343  1.00  0.00     0.032 C 
ATOM      8  C   UNL     1      36.251  20.326   3.693  1.00  0.00     0.014 C 
BRANCH   7   9
ATOM      9  C   UNL     1      34.778  21.202   1.842  1.00  0.00     0.044 C 
ATOM     10  O   UNL     1      34.439  22.240   1.215  1.00  0.00    -0.550 OA
ATOM     11  O   UNL     1      33.825  20.224   2.103  1.00  0.00    -0.550 OA
ENDBRANCH   7   9
ENDBRANCH   6   7
ENDBRANCH   5   6
ENDBRANCH   4   5
ENDBRANCH   3   4
ENDBRANCH   2   3
ENDBRANCH   1   2
BRANCH   1  12
ATOM     12  C   UNL     1      40.990  21.483   4.971  1.00  0.00     0.000 C 
BRANCH  12  13
ATOM     13  C   UNL     1      40.185  22.342   5.958  1.00  0.00    -0.000 C 
BRANCH  13  14
ATOM     14  C   UNL     1      38.688  22.023   5.867  1.00  0.00    -0.000 C 
BRANCH  14  15
ATOM     15  C   UNL     1      38.008  22.178   7.233  1.00  0.00    -0.000 C 
BRANCH  15  16
ATOM     16  C   UNL     1      37.414  20.846   7.708  1.00  0.00    -0.000 C 
BRANCH  16  17
ATOM     17  C   UNL     1      37.843  19.693   6.788  1.00  0.00    -0.000 C 
BRANCH  17  18
ATOM     18  C   UNL     1      38.766  18.687   7.494  1.00  0.00    -0.003 C 
ATOM     19  C   UNL     1      40.121  19.288   7.864  1.00  0.00     0.004 C 
ENDBRANCH  17  18
ENDBRANCH  16  17
ENDBRANCH  15  16
ENDBRANCH  14  15
ENDBRANCH  13  14
ENDBRANCH  12  13
ENDBRANCH   1  12
TORSDOF 14
ENDMDL
MODEL 2
REMARK VINA RESULT:    -3.974      2.387      3.871
REMARK INTER + INTRA:          -9.421
REMARK INTER:                  -7.029
REMARK INTRA:                  -2.392
REMARK UNBOUND:                -2.194
REMARK SMILES CCCCCCCCCCCCCC[C@@H](C)C(=O)[O-]
REMARK SMILES IDX 9 1 10 2 11 3 12 4 13 5 14 6 15 7 16 8 17 9 18 10 19 11 8 12
REMARK SMILES IDX 7 13 6 14 5 15 4 16 3 17 2 18 1 19
REMARK H PARENT
REMARK Flexibility Score: inf
ROOT
ATOM      1  C   UNL     1      37.011  20.528   4.304  1.00  0.00     0.000 C 
ENDROOT
BRANCH   1   2
ATOM      2  C   UNL     1      35.938  20.187   3.254  1.00  0.00     0.000 C 
BRANCH   2   3
ATOM      3  C   UNL     1      35.538  21.405   2.407  1.00  0.00     0.000 C 
BRANCH   3   4
ATOM      4  C   UNL     1      36.305  21.471   1.074  1.00  0.00     0.000 C 
BRANCH   4   5
ATOM      5  C   UNL     1      37.301  22.639   1.011  1.00  0.00     0.001 C 
BRANCH   5   6
ATOM      6  C   UNL     1      37.329  23.576   2.242  1.00  0.00     0.009 C 
BRANCH   6   7
ATOM      7  C   UNL     1      38.609  24.425   2.465  1.00  0.00     0.032 C 
ATOM      8  C   UNL     1      39.815  23.930   1.653  1.00  0.00     0.014 C 
BRANCH   7   9
ATOM      9  C   UNL     1      38.373  25.901   2.286  1.00  0.00     0.044 C 
ATOM     10  O   UNL     1      39.194  26.729   2.763  1.00  0.00    -0.550 OA
ATOM     11  O   UNL     1      37.233  26.368   1.642  1.00  0.00    -0.550 OA
ENDBRANCH   7   9
ENDBRANCH   6   7
ENDBRANCH   5   6
ENDBRANCH   4   5
ENDBRANCH   3   4
ENDBRANCH   2   3
ENDBRANCH   1   2
BRANCH   1  12
ATOM     12  C   UNL     1      38.440  20.332   3.774  1.00  0.00     0.000 C 
BRANCH  12  13
ATOM     13  C   UNL     1      39.438  21.323   4.391  1.00  0.00    -0.000 C 
BRANCH  13  14
ATOM     14  C   UNL     1      38.821  22.046   5.595  1.00  0.00    -0.000 C 
BRANCH  14  15
ATOM     15  C   UNL     1      39.735  21.953   6.822  1.00  0.00    -0.000 C 
BRANCH  15  16
ATOM     16  C   UNL     1      40.519  20.634   6.826  1.00  0.00    -0.000 C 
BRANCH  16  17
ATOM     17  C   UNL     1      39.908  19.634   7.819  1.00  0.00    -0.000 C 
BRANCH  17  18
ATOM     18  C   UNL     1      38.707  18.877   7.232  1.00  0.00    -0.003 C 
ATOM     19  C   UNL     1      37.372  19.358   7.797  1.00  0.00     0.004 C 
ENDBRANCH  17  18
ENDBRANCH  16  17
ENDBRANCH  15  16
ENDBRANCH  14  15
ENDBRANCH  13  14
ENDBRANCH  12  13
ENDBRANCH   1  12
TORSDOF 14
ENDMDL
MODEL 3
REMARK VINA RESULT:    -3.952      3.185      5.669
REMARK INTER + INTRA:          -9.381
REMARK INTER:                  -7.140
REMARK INTRA:                  -2.241
REMARK UNBOUND:                -2.194
REMARK SMILES CCCCCCCCCCCCCC[C@@H](C)C(=O)[O-]
REMARK SMILES IDX 9 1 10 2 11 3 12 4 13 5 14 6 15 7 16 8 17 9 18 10 19 11 8 12
REMARK SMILES IDX 7 13 6 14 5 15 4 16 3 17 2 18 1 19
REMARK H PARENT
REMARK Flexibility Score: inf
ROOT
ATOM      1  C   UNL     1      36.293  22.432   1.066  1.00  0.00     0.000 C 
ENDROOT
BRANCH   1   2
ATOM      2  C   UNL     1      36.563  21.000   1.563  1.00  0.00     0.000 C 
BRANCH   2   3
ATOM      3  C   UNL     1      36.019  20.758   2.979  1.00  0.00     0.000 C 
BRANCH   3   4
ATOM      4  C   UNL     1      37.108  20.893   4.058  1.00  0.00     0.000 C 
BRANCH   4   5
ATOM      5  C   UNL     1      37.007  19.820   5.153  1.00  0.00     0.001 C 
BRANCH   5   6
ATOM      6  C   UNL     1      38.148  19.806   6.198  1.00  0.00     0.009 C 
BRANCH   6   7
ATOM      7  C   UNL     1      38.808  21.166   6.553  1.00  0.00     0.032 C 
ATOM      8  C   UNL     1      37.902  22.082   7.388  1.00  0.00     0.014 C 
BRANCH   7   9
ATOM      9  C   UNL     1      40.176  21.012   7.164  1.00  0.00     0.044 C 
ATOM     10  O   UNL     1      41.024  21.934   7.040  1.00  0.00    -0.550 OA
ATOM     11  O   UNL     1      40.535  19.842   7.824  1.00  0.00    -0.550 OA
ENDBRANCH   7   9
ENDBRANCH   6   7
ENDBRANCH   5   6
ENDBRANCH   4   5
ENDBRANCH   3   4
ENDBRANCH   2   3
ENDBRANCH   1   2
BRANCH   1  12
ATOM     12  C   UNL     1      37.563  23.296   1.035  1.00  0.00     0.000 C 
BRANCH  12  13
ATOM     13  C   UNL     1      37.800  24.045   2.355  1.00  0.00    -0.000 C 
BRANCH  13  14
ATOM     14  C   UNL     1      39.147  24.778   2.336  1.00  0.00    -0.000 C 
BRANCH  14  15
ATOM     15  C   UNL     1      40.314  23.785   2.399  1.00  0.00    -0.000 C 
BRANCH  15  16
ATOM     16  C   UNL     1      40.152  22.818   3.578  1.00  0.00    -0.000 C 
BRANCH  16  17
ATOM     17  C   UNL     1      41.125  21.635   3.458  1.00  0.00    -0.000 C 
BRANCH  17  18
ATOM     18  C   UNL     1      40.442  20.361   2.936  1.00  0.00    -0.003 C 
ATOM     19  C   UNL     1      40.242  20.377   1.421  1.00  0.00     0.004 C 
ENDBRANCH  17  18
ENDBRANCH  16  17
ENDBRANCH  15  16
ENDBRANCH  14  15
ENDBRANCH  13  14
ENDBRANCH  12  13
ENDBRANCH   1  12
TORSDOF 14
ENDMDL
MODEL 4
REMARK VINA RESULT:    -3.902      3.682      6.825
REMARK INTER + INTRA:          -9.289
REMARK INTER:                  -8.008
REMARK INTRA:                  -1.282
REMARK UNBOUND:                -2.194
REMARK SMILES CCCCCCCCCCCCCC[C@@H](C)C(=O)[O-]
REMARK SMILES IDX 9 1 10 2 11 3 12 4 13 5 14 6 15 7 16 8 17 9 18 10 19 11 8 12
REMARK SMILES IDX 7 13 6 14 5 15 4 16 3 17 2 18 1 19
REMARK H PARENT
REMARK Flexibility Score: inf
ROOT
ATOM      1  C   UNL     1      36.533  21.150   1.696  1.00  0.00     0.000 C 
ENDROOT
BRANCH   1   2
ATOM      2  C   UNL     1      35.786  20.652   2.947  1.00  0.00     0.000 C 
BRANCH   2   3
ATOM      3  C   UNL     1      36.739  20.300   4.099  1.00  0.00     0.000 C 
BRANCH   3   4
ATOM      4  C   UNL     1      38.196  20.697   3.799  1.00  0.00     0.000 C 
BRANCH   4   5
ATOM      5  C   UNL     1      38.761  21.714   4.801  1.00  0.00     0.001 C 
BRANCH   5   6
ATOM      6  C   UNL     1      38.581  21.365   6.298  1.00  0.00     0.009 C 
BRANCH   6   7
ATOM      7  C   UNL     1      39.262  20.069   6.817  1.00  0.00     0.032 C 
ATOM      8  C   UNL     1      40.572  20.333   7.574  1.00  0.00     0.014 C 
BRANCH   7   9
ATOM      9  C   UNL     1      38.325  19.186   7.597  1.00  0.00     0.044 C 
ATOM     10  O   UNL     1      38.634  17.985   7.816  1.00  0.00    -0.550 OA
ATOM     11  O   UNL     1      37.096  19.664   8.039  1.00  0.00    -0.550 OA
ENDBRANCH   7   9
ENDBRANCH   6   7
ENDBRANCH   5   6
ENDBRANCH   4   5
ENDBRANCH   3   4
ENDBRANCH   2   3
ENDBRANCH   1   2
BRANCH   1  12
ATOM     12  C   UNL     1      36.163  22.594   1.323  1.00  0.00     0.000 C 
BRANCH  12  13
ATOM     13  C   UNL     1      37.397  23.472   1.067  1.00  0.00    -0.000 C 
BRANCH  13  14
ATOM     14  C   UNL     1      37.834  24.191   2.350  1.00  0.00    -0.000 C 
BRANCH  14  15
ATOM     15  C   UNL     1      38.794  25.344   2.035  1.00  0.00    -0.000 C 
BRANCH  15  16
ATOM     16  C   UNL     1      38.203  26.689   2.477  1.00  0.00    -0.000 C 
BRANCH  16  17
ATOM     17  C   UNL     1      36.896  26.989   1.729  1.00  0.00    -0.000 C 
BRANCH  17  18
ATOM     18  C   UNL     1      36.414  28.433   1.938  1.00  0.00    -0.003 C 
ATOM     19  C   UNL     1      37.543  29.380   2.341  1.00  0.00     0.004 C 
ENDBRANCH  17  18
ENDBRANCH  16  17
ENDBRANCH  15  16
ENDBRANCH  14  15
ENDBRANCH  13  14
ENDBRANCH  12  13
ENDBRANCH   1  12
TORSDOF 14
ENDMDL
MODEL 5
REMARK VINA RESULT:    -3.798      3.862      6.919
REMARK INTER + INTRA:          -9.100
REMARK INTER:                  -7.972
REMARK INTRA:                  -1.128
REMARK UNBOUND:                -2.194
REMARK SMILES CCCCCCCCCCCCCC[C@@H](C)C(=O)[O-]
REMARK SMILES IDX 9 1 10 2 11 3 12 4 13 5 14 6 15 7 16 8 17 9 18 10 19 11 8 12
REMARK SMILES IDX 7 13 6 14 5 15 4 16 3 17 2 18 1 19
REMARK H PARENT
REMARK Flexibility Score: inf
ROOT
ATOM      1  C   UNL     1      36.003  22.815   0.980  1.00  0.00     0.000 C 
ENDROOT
BRANCH   1   2
ATOM      2  C   UNL     1      35.880  21.303   1.241  1.00  0.00     0.000 C 
BRANCH   2   3
ATOM      3  C   UNL     1      35.067  20.991   2.507  1.00  0.00     0.000 C 
BRANCH   3   4
ATOM      4  C   UNL     1      35.874  20.184   3.540  1.00  0.00     0.000 C 
BRANCH   4   5
ATOM      5  C   UNL     1      37.238  20.812   3.863  1.00  0.00     0.001 C 
BRANCH   5   6
ATOM      6  C   UNL     1      38.132  20.024   4.850  1.00  0.00     0.009 C 
BRANCH   6   7
ATOM      7  C   UNL     1      37.951  20.313   6.365  1.00  0.00     0.032 C 
ATOM      8  C   UNL     1      38.428  19.162   7.264  1.00  0.00     0.014 C 
BRANCH   7   9
ATOM      9  C   UNL     1      38.533  21.637   6.784  1.00  0.00     0.044 C 
ATOM     10  O   UNL     1      39.711  21.935   6.455  1.00  0.00    -0.550 OA
ATOM     11  O   UNL     1      37.804  22.518   7.575  1.00  0.00    -0.550 OA
ENDBRANCH   7   9
ENDBRANCH   6   7
ENDBRANCH   5   6
ENDBRANCH   4   5
ENDBRANCH   3   4
ENDBRANCH   2   3
ENDBRANCH   1   2
BRANCH   1  12
ATOM     12  C   UNL     1      37.456  23.310   1.047  1.00  0.00     0.000 C 
BRANCH  12  13
ATOM     13  C   UNL     1      37.757  24.083   2.340  1.00  0.00    -0.000 C 
BRANCH  13  14
ATOM     14  C   UNL     1      38.488  25.396   2.036  1.00  0.00    -0.000 C 
BRANCH  14  15
ATOM     15  C   UNL     1      37.539  26.422   1.405  1.00  0.00    -0.000 C 
BRANCH  15  16
ATOM     16  C   UNL     1      37.122  27.488   2.426  1.00  0.00    -0.000 C 
BRANCH  16  17
ATOM     17  C   UNL     1      35.971  28.348   1.884  1.00  0.00    -0.000 C 
BRANCH  17  18
ATOM     18  C   UNL     1      34.958  27.532   1.066  1.00  0.00    -0.003 C 
ATOM     19  C   UNL     1      33.510  27.831   1.451  1.00  0.00     0.004 C 
ENDBRANCH  17  18
ENDBRANCH  16  17
ENDBRANCH  15  16
ENDBRANCH  14  15
ENDBRANCH  13  14
ENDBRANCH  12  13
ENDBRANCH   1  12
TORSDOF 14
ENDMDL
MODEL 6
REMARK VINA RESULT:    -3.796      2.696      4.937
REMARK INTER + INTRA:          -9.097
REMARK INTER:                  -7.313
REMARK INTRA:                  -1.784
REMARK UNBOUND:                -2.194
REMARK SMILES CCCCCCCCCCCCCC[C@@H](C)C(=O)[O-]
REMARK SMILES IDX 9 1 10 2 11 3 12 4 13 5 14 6 15 7 16 8 17 9 18 10 19 11 8 12
REMARK SMILES IDX 7 13 6 14 5 15 4 16 3 17 2 18 1 19
REMARK H PARENT
REMARK Flexibility Score: inf
ROOT
ATOM      1  C   UNL     1      40.096  21.765   7.239  1.00  0.00     0.000 C 
ENDROOT
BRANCH   1   2
ATOM      2  C   UNL     1      40.961  22.640   6.315  1.00  0.00     0.000 C 
BRANCH   2   3
ATOM      3  C   UNL     1      41.103  22.044   4.906  1.00  0.00     0.000 C 
BRANCH   3   4
ATOM      4  C   UNL     1      41.022  23.114   3.803  1.00  0.00     0.000 C 
BRANCH   4   5
ATOM      5  C   UNL     1      39.978  22.787   2.724  1.00  0.00     0.001 C 
BRANCH   5   6
ATOM      6  C   UNL     1      38.647  23.571   2.808  1.00  0.00     0.009 C 
BRANCH   6   7
ATOM      7  C   UNL     1      38.439  24.736   1.803  1.00  0.00     0.032 C 
ATOM      8  C   UNL     1      37.081  24.685   1.086  1.00  0.00     0.014 C 
BRANCH   7   9
ATOM      9  C   UNL     1      38.709  26.088   2.408  1.00  0.00     0.044 C 
ATOM     10  O   UNL     1      39.847  26.347   2.879  1.00  0.00    -0.550 OA
ATOM     11  O   UNL     1      37.701  27.042   2.501  1.00  0.00    -0.550 OA
ENDBRANCH   7   9
ENDBRANCH   6   7
ENDBRANCH   5   6
ENDBRANCH   4   5
ENDBRANCH   3   4
ENDBRANCH   2   3
ENDBRANCH   1   2
BRANCH   1  12
ATOM     12  C   UNL     1      38.594  22.054   7.094  1.00  0.00     0.000 C 
BRANCH  12  13
ATOM     13  C   UNL     1      37.738  20.782   7.174  1.00  0.00    -0.000 C 
BRANCH  13  14
ATOM     14  C   UNL     1      38.063  19.828   6.017  1.00  0.00    -0.000 C 
BRANCH  14  15
ATOM     15  C   UNL     1      37.792  20.494   4.662  1.00  0.00    -0.000 C 
BRANCH  15  16
ATOM     16  C   UNL     1      36.390  20.144   4.147  1.00  0.00    -0.000 C 
BRANCH  16  17
ATOM     17  C   UNL     1      36.129  20.791   2.779  1.00  0.00    -0.000 C 
BRANCH  17  18
ATOM     18  C   UNL     1      34.662  21.207   2.592  1.00  0.00    -0.003 C 
ATOM     19  C   UNL     1      34.396  21.839   1.226  1.00  0.00     0.004 C 
ENDBRANCH  17  18
ENDBRANCH  16  17
ENDBRANCH  15  16
ENDBRANCH  14  15
ENDBRANCH  13  14
ENDBRANCH  12  13
ENDBRANCH   1  12
TORSDOF 14
ENDMDL
MODEL 7
REMARK VINA RESULT:    -3.665     17.898     20.809
REMARK INTER + INTRA:          -8.858
REMARK INTER:                  -6.271
REMARK INTRA:                  -2.587
REMARK UNBOUND:                -2.194
REMARK SMILES CCCCCCCCCCCCCC[C@@H](C)C(=O)[O-]
REMARK SMILES IDX 9 1 10 2 11 3 12 4 13 5 14 6 15 7 16 8 17 9 18 10 19 11 8 12
REMARK SMILES IDX 7 13 6 14 5 15 4 16 3 17 2 18 1 19
REMARK H PARENT
REMARK Flexibility Score: inf
ROOT
ATOM      1  C   UNL     1      21.387  21.783  16.749  1.00  0.00     0.000 C 
ENDROOT
BRANCH   1   2
ATOM      2  C   UNL     1      22.079  23.098  16.348  1.00  0.00     0.000 C 
BRANCH   2   3
ATOM      3  C   UNL     1      21.520  24.311  17.108  1.00  0.00     0.000 C 
BRANCH   3   4
ATOM      4  C   UNL     1      22.630  25.180  17.726  1.00  0.00     0.000 C 
BRANCH   4   5
ATOM      5  C   UNL     1      22.956  24.796  19.178  1.00  0.00     0.001 C 
BRANCH   5   6
ATOM      6  C   UNL     1      23.049  25.967  20.185  1.00  0.00     0.009 C 
BRANCH   6   7
ATOM      7  C   UNL     1      24.406  26.715  20.287  1.00  0.00     0.032 C 
ATOM      8  C   UNL     1      25.571  25.952  19.637  1.00  0.00     0.014 C 
BRANCH   7   9
ATOM      9  C   UNL     1      24.328  28.141  19.810  1.00  0.00     0.044 C 
ATOM     10  O   UNL     1      25.187  28.977  20.194  1.00  0.00    -0.550 OA
ATOM     11  O   UNL     1      23.288  28.563  18.989  1.00  0.00    -0.550 OA
ENDBRANCH   7   9
ENDBRANCH   6   7
ENDBRANCH   5   6
ENDBRANCH   4   5
ENDBRANCH   3   4
ENDBRANCH   2   3
ENDBRANCH   1   2
BRANCH   1  12
ATOM     12  C   UNL     1      22.205  20.972  17.767  1.00  0.00     0.000 C 
BRANCH  12  13
ATOM     13  C   UNL     1      23.718  21.096  17.540  1.00  0.00    -0.000 C 
BRANCH  13  14
ATOM     14  C   UNL     1      24.439  21.468  18.842  1.00  0.00    -0.000 C 
BRANCH  14  15
ATOM     15  C   UNL     1      25.616  22.412  18.570  1.00  0.00    -0.000 C 
BRANCH  15  16
ATOM     16  C   UNL     1      25.945  22.466  17.073  1.00  0.00    -0.000 C 
BRANCH  16  17
ATOM     17  C   UNL     1      25.828  23.900  16.536  1.00  0.00    -0.000 C 
BRANCH  17  18
ATOM     18  C   UNL     1      25.632  23.945  15.012  1.00  0.00    -0.003 C 
ATOM     19  C   UNL     1      25.212  22.596  14.431  1.00  0.00     0.004 C 
ENDBRANCH  17  18
ENDBRANCH  16  17
ENDBRANCH  15  16
ENDBRANCH  14  15
ENDBRANCH  13  14
ENDBRANCH  12  13
ENDBRANCH   1  12
TORSDOF 14
ENDMDL
MODEL 8
REMARK VINA RESULT:    -3.588      3.170      4.843
REMARK INTER + INTRA:          -8.719
REMARK INTER:                  -6.851
REMARK INTRA:                  -1.868
REMARK UNBOUND:                -2.194
REMARK SMILES CCCCCCCCCCCCCC[C@@H](C)C(=O)[O-]
REMARK SMILES IDX 9 1 10 2 11 3 12 4 13 5 14 6 15 7 16 8 17 9 18 10 19 11 8 12
REMARK SMILES IDX 7 13 6 14 5 15 4 16 3 17 2 18 1 19
REMARK H PARENT
REMARK Flexibility Score: inf
ROOT
ATOM      1  C   UNL     1      40.417  22.624   4.375  1.00  0.00     0.000 C 
ENDROOT
BRANCH   1   2
ATOM      2  C   UNL     1      40.465  22.634   2.836  1.00  0.00     0.000 C 
BRANCH   2   3
ATOM      3  C   UNL     1      39.094  22.349   2.205  1.00  0.00     0.000 C 
BRANCH   3   4
ATOM      4  C   UNL     1      37.985  23.254   2.772  1.00  0.00     0.000 C 
BRANCH   4   5
ATOM      5  C   UNL     1      37.309  24.121   1.699  1.00  0.00     0.001 C 
BRANCH   5   6
ATOM      6  C   UNL     1      38.040  25.433   1.327  1.00  0.00     0.009 C 
BRANCH   6   7
ATOM      7  C   UNL     1      38.399  26.405   2.484  1.00  0.00     0.032 C 
ATOM      8  C   UNL     1      39.908  26.486   2.763  1.00  0.00     0.014 C 
BRANCH   7   9
ATOM      9  C   UNL     1      37.780  27.767   2.319  1.00  0.00     0.044 C 
ATOM     10  O   UNL     1      38.507  28.754   2.028  1.00  0.00    -0.550 OA
ATOM     11  O   UNL     1      36.421  27.964   2.535  1.00  0.00    -0.550 OA
ENDBRANCH   7   9
ENDBRANCH   6   7
ENDBRANCH   5   6
ENDBRANCH   4   5
ENDBRANCH   3   4
ENDBRANCH   2   3
ENDBRANCH   1   2
BRANCH   1  12
ATOM     12  C   UNL     1      40.581  21.214   4.963  1.00  0.00     0.000 C 
BRANCH  12  13
ATOM     13  C   UNL     1      39.765  21.012   6.248  1.00  0.00    -0.000 C 
BRANCH  13  14
ATOM     14  C   UNL     1      38.991  19.688   6.202  1.00  0.00    -0.000 C 
BRANCH  14  15
ATOM     15  C   UNL     1      37.519  19.924   5.844  1.00  0.00    -0.000 C 
BRANCH  15  16
ATOM     16  C   UNL     1      37.327  20.004   4.324  1.00  0.00    -0.000 C 
BRANCH  16  17
ATOM     17  C   UNL     1      35.886  20.400   3.971  1.00  0.00    -0.000 C 
BRANCH  17  18
ATOM     18  C   UNL     1      35.661  20.521   2.456  1.00  0.00    -0.003 C 
ATOM     19  C   UNL     1      34.357  21.237   2.107  1.00  0.00     0.004 C 
ENDBRANCH  17  18
ENDBRANCH  16  17
ENDBRANCH  15  16
ENDBRANCH  14  15
ENDBRANCH  13  14
ENDBRANCH  12  13
ENDBRANCH   1  12
TORSDOF 14
ENDMDL
MODEL 9
REMARK VINA RESULT:    -2.780      2.726      6.081
REMARK INTER + INTRA:          -7.250
REMARK INTER:                  -5.390
REMARK INTRA:                  -1.860
REMARK UNBOUND:                -2.194
REMARK SMILES CCCCCCCCCCCCCC[C@@H](C)C(=O)[O-]
REMARK SMILES IDX 9 1 10 2 11 3 12 4 13 5 14 6 15 7 16 8 17 9 18 10 19 11 8 12
REMARK SMILES IDX 7 13 6 14 5 15 4 16 3 17 2 18 1 19
REMARK H PARENT
REMARK Flexibility Score: inf
ROOT
ATOM      1  C   UNL     1      35.561  20.334   3.631  1.00  0.00     0.000 C 
ENDROOT
BRANCH   1   2
ATOM      2  C   UNL     1      36.973  20.105   4.201  1.00  0.00     0.000 C 
BRANCH   2   3
ATOM      3  C   UNL     1      38.015  21.049   3.584  1.00  0.00     0.000 C 
BRANCH   3   4
ATOM      4  C   UNL     1      39.458  20.628   3.912  1.00  0.00     0.000 C 
BRANCH   4   5
ATOM      5  C   UNL     1      40.093  21.473   5.028  1.00  0.00     0.001 C 
BRANCH   5   6
ATOM      6  C   UNL     1      40.275  20.767   6.393  1.00  0.00     0.009 C 
BRANCH   6   7
ATOM      7  C   UNL     1      39.096  20.843   7.400  1.00  0.00     0.032 C 
ATOM      8  C   UNL     1      38.164  22.039   7.155  1.00  0.00     0.014 C 
BRANCH   7   9
ATOM      9  C   UNL     1      38.337  19.548   7.513  1.00  0.00     0.044 C 
ATOM     10  O   UNL     1      38.925  18.456   7.296  1.00  0.00    -0.550 OA
ATOM     11  O   UNL     1      36.977  19.542   7.806  1.00  0.00    -0.550 OA
ENDBRANCH   7   9
ENDBRANCH   6   7
ENDBRANCH   5   6
ENDBRANCH   4   5
ENDBRANCH   3   4
ENDBRANCH   2   3
ENDBRANCH   1   2
BRANCH   1  12
ATOM     12  C   UNL     1      35.566  20.552   2.110  1.00  0.00     0.000 C 
BRANCH  12  13
ATOM     13  C   UNL     1      34.436  21.482   1.644  1.00  0.00    -0.000 C 
BRANCH  13  14
ATOM     14  C   UNL     1      34.998  22.685   0.875  1.00  0.00    -0.000 C 
BRANCH  14  15
ATOM     15  C   UNL     1      36.526  22.748   0.992  1.00  0.00    -0.000 C 
BRANCH  15  16
ATOM     16  C   UNL     1      37.001  24.186   1.239  1.00  0.00    -0.000 C 
BRANCH  16  17
ATOM     17  C   UNL     1      38.035  24.236   2.373  1.00  0.00    -0.000 C 
BRANCH  17  18
ATOM     18  C   UNL     1      39.477  24.077   1.865  1.00  0.00    -0.003 C 
ATOM     19  C   UNL     1      40.509  24.676   2.819  1.00  0.00     0.004 C 
ENDBRANCH  17  18
ENDBRANCH  16  17
ENDBRANCH  15  16
ENDBRANCH  14  15
ENDBRANCH  13  14
ENDBRANCH  12  13
ENDBRANCH   1  12
TORSDOF 14
ENDMDL
