MODEL 1
REMARK VINA RESULT:    -5.846      0.000      0.000
REMARK INTER + INTRA:         -16.298
REMARK INTER:                 -13.364
REMARK INTRA:                  -2.934
REMARK UNBOUND:                -2.934
REMARK SMILES CCCCCCCCCCCCCCCCCCCCCCCC(=O)[O-]
REMARK SMILES IDX 13 1 14 2 15 3 16 4 17 5 18 6 19 7 20 8 21 9 22 10 23 11
REMARK SMILES IDX 24 12 25 13 26 14 12 15 11 16 10 17 9 18 8 19 7 20 6 21 5 22
REMARK SMILES IDX 4 23 3 24 2 25 1 26
REMARK H PARENT
REMARK Flexibility Score: inf
ROOT
ATOM      1  C   UNL     1      10.294  17.017  36.275  1.00  0.00     0.000 C 
ENDROOT
BRANCH   1   2
ATOM      2  C   UNL     1      11.562  17.259  35.443  1.00  0.00     0.000 C 
BRANCH   2   3
ATOM      3  C   UNL     1      12.793  17.558  36.314  1.00  0.00     0.000 C 
BRANCH   3   4
ATOM      4  C   UNL     1      12.397  17.744  37.784  1.00  0.00     0.000 C 
BRANCH   4   5
ATOM      5  C   UNL     1      13.516  17.264  38.721  1.00  0.00     0.000 C 
BRANCH   5   6
ATOM      6  C   UNL     1      14.138  15.931  38.257  1.00  0.00     0.000 C 
BRANCH   6   7
ATOM      7  C   UNL     1      15.675  15.948  38.210  1.00  0.00     0.000 C 
BRANCH   7   8
ATOM      8  C   UNL     1      16.227  16.185  36.798  1.00  0.00     0.000 C 
BRANCH   8   9
ATOM      9  C   UNL     1      17.102  17.447  36.755  1.00  0.00     0.000 C 
BRANCH   9  10
ATOM     10  C   UNL     1      16.970  18.215  35.431  1.00  0.00     0.006 C 
BRANCH  10  11
ATOM     11  C   UNL     1      17.602  17.470  34.248  1.00  0.00     0.053 C 
BRANCH  11  12
ATOM     12  C   UNL     1      18.978  16.998  34.604  1.00  0.00     0.041 C 
ATOM     13  O   UNL     1      19.859  17.824  34.963  1.00  0.00    -0.550 OA
ATOM     14  O   UNL     1      19.273  15.641  34.585  1.00  0.00    -0.550 OA
ENDBRANCH  11  12
ENDBRANCH  10  11
ENDBRANCH   9  10
ENDBRANCH   8   9
ENDBRANCH   7   8
ENDBRANCH   6   7
ENDBRANCH   5   6
ENDBRANCH   4   5
ENDBRANCH   3   4
ENDBRANCH   2   3
ENDBRANCH   1   2
BRANCH   1  15
ATOM     15  C   UNL     1       9.013  17.041  35.428  1.00  0.00     0.000 C 
BRANCH  15  16
ATOM     16  C   UNL     1       8.093  18.187  35.863  1.00  0.00     0.000 C 
BRANCH  16  17
ATOM     17  C   UNL     1       8.293  18.521  37.348  1.00  0.00     0.000 C 
BRANCH  17  18
ATOM     18  C   UNL     1       8.505  20.026  37.600  1.00  0.00    -0.000 C 
BRANCH  18  19
ATOM     19  C   UNL     1       9.804  20.609  37.008  1.00  0.00    -0.000 C 
BRANCH  19  20
ATOM     20  C   UNL     1       9.608  21.807  36.057  1.00  0.00    -0.000 C 
BRANCH  20  21
ATOM     21  C   UNL     1      10.024  21.551  34.594  1.00  0.00    -0.000 C 
BRANCH  21  22
ATOM     22  C   UNL     1       8.895  21.049  33.676  1.00  0.00    -0.000 C 
BRANCH  22  23
ATOM     23  C   UNL     1       9.416  20.471  32.347  1.00  0.00    -0.000 C 
BRANCH  23  24
ATOM     24  C   UNL     1      10.155  19.131  32.547  1.00  0.00    -0.000 C 
BRANCH  24  25
ATOM     25  C   UNL     1       9.451  17.935  31.887  1.00  0.00    -0.003 C 
ATOM     26  C   UNL     1       9.787  17.782  30.407  1.00  0.00     0.004 C 
ENDBRANCH  24  25
ENDBRANCH  23  24
ENDBRANCH  22  23
ENDBRANCH  21  22
ENDBRANCH  20  21
ENDBRANCH  19  20
ENDBRANCH  18  19
ENDBRANCH  17  18
ENDBRANCH  16  17
ENDBRANCH  15  16
ENDBRANCH   1  15
TORSDOF 22
ENDMDL
MODEL 2
REMARK VINA RESULT:    -5.693      2.559      5.484
REMARK INTER + INTRA:         -15.948
REMARK INTER:                 -12.468
REMARK INTRA:                  -3.480
REMARK UNBOUND:                -2.934
REMARK SMILES CCCCCCCCCCCCCCCCCCCCCCCC(=O)[O-]
REMARK SMILES IDX 13 1 14 2 15 3 16 4 17 5 18 6 19 7 20 8 21 9 22 10 23 11
REMARK SMILES IDX 24 12 25 13 26 14 12 15 11 16 10 17 9 18 8 19 7 20 6 21 5 22
REMARK SMILES IDX 4 23 3 24 2 25 1 26
REMARK H PARENT
REMARK Flexibility Score: inf
ROOT
ATOM      1  C   UNL     1       8.906  23.321  35.255  1.00  0.00     0.000 C 
ENDROOT
BRANCH   1   2
ATOM      2  C   UNL     1       9.070  22.547  36.571  1.00  0.00     0.000 C 
BRANCH   2   3
ATOM      3  C   UNL     1       9.034  21.024  36.369  1.00  0.00     0.000 C 
BRANCH   3   4
ATOM      4  C   UNL     1       8.614  20.305  37.658  1.00  0.00     0.000 C 
BRANCH   4   5
ATOM      5  C   UNL     1       8.147  18.872  37.363  1.00  0.00     0.000 C 
BRANCH   5   6
ATOM      6  C   UNL     1       8.246  18.520  35.865  1.00  0.00     0.000 C 
BRANCH   6   7
ATOM      7  C   UNL     1       9.296  17.440  35.551  1.00  0.00     0.000 C 
BRANCH   7   8
ATOM      8  C   UNL     1       9.809  16.725  36.808  1.00  0.00     0.000 C 
BRANCH   8   9
ATOM      9  C   UNL     1      11.243  17.163  37.142  1.00  0.00     0.000 C 
BRANCH   9  10
ATOM     10  C   UNL     1      11.986  17.736  35.925  1.00  0.00     0.006 C 
BRANCH  10  11
ATOM     11  C   UNL     1      13.013  16.755  35.342  1.00  0.00     0.053 C 
BRANCH  11  12
ATOM     12  C   UNL     1      13.916  16.243  36.421  1.00  0.00     0.041 C 
ATOM     13  O   UNL     1      13.941  15.014  36.698  1.00  0.00    -0.550 OA
ATOM     14  O   UNL     1      14.764  17.117  37.090  1.00  0.00    -0.550 OA
ENDBRANCH  11  12
ENDBRANCH  10  11
ENDBRANCH   9  10
ENDBRANCH   8   9
ENDBRANCH   7   8
ENDBRANCH   6   7
ENDBRANCH   5   6
ENDBRANCH   4   5
ENDBRANCH   3   4
ENDBRANCH   2   3
ENDBRANCH   1   2
BRANCH   1  15
ATOM     15  C   UNL     1       9.726  24.620  35.222  1.00  0.00     0.000 C 
BRANCH  15  16
ATOM     16  C   UNL     1       9.469  25.394  33.924  1.00  0.00     0.000 C 
BRANCH  16  17
ATOM     17  C   UNL     1      10.531  25.064  32.865  1.00  0.00     0.000 C 
BRANCH  17  18
ATOM     18  C   UNL     1      11.969  25.160  33.410  1.00  0.00    -0.000 C 
BRANCH  18  19
ATOM     19  C   UNL     1      12.737  23.823  33.458  1.00  0.00    -0.000 C 
BRANCH  19  20
ATOM     20  C   UNL     1      12.001  22.625  32.825  1.00  0.00    -0.000 C 
BRANCH  20  21
ATOM     21  C   UNL     1      11.559  21.534  33.821  1.00  0.00    -0.000 C 
BRANCH  21  22
ATOM     22  C   UNL     1      10.842  20.328  33.187  1.00  0.00    -0.000 C 
BRANCH  22  23
ATOM     23  C   UNL     1       9.456  20.686  32.620  1.00  0.00    -0.000 C 
BRANCH  23  24
ATOM     24  C   UNL     1       8.634  19.430  32.258  1.00  0.00    -0.000 C 
BRANCH  24  25
ATOM     25  C   UNL     1       9.498  18.193  31.965  1.00  0.00    -0.003 C 
ATOM     26  C   UNL     1       9.685  17.931  30.473  1.00  0.00     0.004 C 
ENDBRANCH  24  25
ENDBRANCH  23  24
ENDBRANCH  22  23
ENDBRANCH  21  22
ENDBRANCH  20  21
ENDBRANCH  19  20
ENDBRANCH  18  19
ENDBRANCH  17  18
ENDBRANCH  16  17
ENDBRANCH  15  16
ENDBRANCH   1  15
TORSDOF 22
ENDMDL
MODEL 3
REMARK VINA RESULT:    -5.684      1.112      1.957
REMARK INTER + INTRA:         -15.927
REMARK INTER:                 -13.044
REMARK INTRA:                  -2.884
REMARK UNBOUND:                -2.934
REMARK SMILES CCCCCCCCCCCCCCCCCCCCCCCC(=O)[O-]
REMARK SMILES IDX 13 1 14 2 15 3 16 4 17 5 18 6 19 7 20 8 21 9 22 10 23 11
REMARK SMILES IDX 24 12 25 13 26 14 12 15 11 16 10 17 9 18 8 19 7 20 6 21 5 22
REMARK SMILES IDX 4 23 3 24 2 25 1 26
REMARK H PARENT
REMARK Flexibility Score: inf
ROOT
ATOM      1  C   UNL     1      12.621  17.675  35.757  1.00  0.00     0.000 C 
ENDROOT
BRANCH   1   2
ATOM      2  C   UNL     1      13.287  16.295  35.650  1.00  0.00     0.000 C 
BRANCH   2   3
ATOM      3  C   UNL     1      13.455  15.611  37.016  1.00  0.00     0.000 C 
BRANCH   3   4
ATOM      4  C   UNL     1      14.827  14.935  37.130  1.00  0.00     0.000 C 
BRANCH   4   5
ATOM      5  C   UNL     1      15.671  15.585  38.237  1.00  0.00     0.000 C 
BRANCH   5   6
ATOM      6  C   UNL     1      15.114  16.957  38.670  1.00  0.00     0.000 C 
BRANCH   6   7
ATOM      7  C   UNL     1      16.046  18.135  38.339  1.00  0.00     0.000 C 
BRANCH   7   8
ATOM      8  C   UNL     1      16.023  18.515  36.852  1.00  0.00     0.000 C 
BRANCH   8   9
ATOM      9  C   UNL     1      17.283  18.006  36.136  1.00  0.00     0.000 C 
BRANCH   9  10
ATOM     10  C   UNL     1      16.972  17.364  34.775  1.00  0.00     0.006 C 
BRANCH  10  11
ATOM     11  C   UNL     1      18.149  17.456  33.794  1.00  0.00     0.053 C 
BRANCH  11  12
ATOM     12  C   UNL     1      19.350  16.761  34.355  1.00  0.00     0.041 C 
ATOM     13  O   UNL     1      19.388  15.503  34.413  1.00  0.00    -0.550 OA
ATOM     14  O   UNL     1      20.449  17.502  34.772  1.00  0.00    -0.550 OA
ENDBRANCH  11  12
ENDBRANCH  10  11
ENDBRANCH   9  10
ENDBRANCH   8   9
ENDBRANCH   7   8
ENDBRANCH   6   7
ENDBRANCH   5   6
ENDBRANCH   4   5
ENDBRANCH   3   4
ENDBRANCH   2   3
ENDBRANCH   1   2
BRANCH   1  15
ATOM     15  C   UNL     1      11.905  17.887  37.099  1.00  0.00     0.000 C 
BRANCH  15  16
ATOM     16  C   UNL     1      10.420  17.521  36.989  1.00  0.00     0.000 C 
BRANCH  16  17
ATOM     17  C   UNL     1       9.577  18.327  37.987  1.00  0.00     0.000 C 
BRANCH  17  18
ATOM     18  C   UNL     1       8.702  19.397  37.306  1.00  0.00    -0.000 C 
BRANCH  18  19
ATOM     19  C   UNL     1       9.281  20.827  37.337  1.00  0.00    -0.000 C 
BRANCH  19  20
ATOM     20  C   UNL     1       9.690  21.394  35.962  1.00  0.00    -0.000 C 
BRANCH  20  21
ATOM     21  C   UNL     1       9.116  20.634  34.749  1.00  0.00    -0.000 C 
BRANCH  21  22
ATOM     22  C   UNL     1      10.075  19.613  34.109  1.00  0.00    -0.000 C 
BRANCH  22  23
ATOM     23  C   UNL     1       9.372  18.681  33.105  1.00  0.00    -0.000 C 
BRANCH  23  24
ATOM     24  C   UNL     1       8.684  19.465  31.967  1.00  0.00    -0.000 C 
BRANCH  24  25
ATOM     25  C   UNL     1       8.951  18.883  30.570  1.00  0.00    -0.003 C 
ATOM     26  C   UNL     1       9.971  17.747  30.577  1.00  0.00     0.004 C 
ENDBRANCH  24  25
ENDBRANCH  23  24
ENDBRANCH  22  23
ENDBRANCH  21  22
ENDBRANCH  20  21
ENDBRANCH  19  20
ENDBRANCH  18  19
ENDBRANCH  17  18
ENDBRANCH  16  17
ENDBRANCH  15  16
ENDBRANCH   1  15
TORSDOF 22
ENDMDL
MODEL 4
REMARK VINA RESULT:    -5.666      1.782      3.840
REMARK INTER + INTRA:         -15.886
REMARK INTER:                 -13.088
REMARK INTRA:                  -2.799
REMARK UNBOUND:                -2.934
REMARK SMILES CCCCCCCCCCCCCCCCCCCCCCCC(=O)[O-]
REMARK SMILES IDX 13 1 14 2 15 3 16 4 17 5 18 6 19 7 20 8 21 9 22 10 23 11
REMARK SMILES IDX 24 12 25 13 26 14 12 15 11 16 10 17 9 18 8 19 7 20 6 21 5 22
REMARK SMILES IDX 4 23 3 24 2 25 1 26
REMARK H PARENT
REMARK Flexibility Score: inf
ROOT
ATOM      1  C   UNL     1       9.168  19.458  36.113  1.00  0.00     0.000 C 
ENDROOT
BRANCH   1   2
ATOM      2  C   UNL     1       8.731  17.998  36.301  1.00  0.00     0.000 C 
BRANCH   2   3
ATOM      3  C   UNL     1       9.838  16.997  35.933  1.00  0.00     0.000 C 
BRANCH   3   4
ATOM      4  C   UNL     1      11.093  17.224  36.785  1.00  0.00     0.000 C 
BRANCH   4   5
ATOM      5  C   UNL     1      12.358  17.224  35.913  1.00  0.00     0.000 C 
BRANCH   5   6
ATOM      6  C   UNL     1      13.416  16.222  36.416  1.00  0.00     0.000 C 
BRANCH   6   7
ATOM      7  C   UNL     1      13.765  16.384  37.905  1.00  0.00     0.000 C 
BRANCH   7   8
ATOM      8  C   UNL     1      15.277  16.424  38.163  1.00  0.00     0.000 C 
BRANCH   8   9
ATOM      9  C   UNL     1      15.869  17.780  37.750  1.00  0.00     0.000 C 
BRANCH   9  10
ATOM     10  C   UNL     1      16.710  17.693  36.467  1.00  0.00     0.006 C 
BRANCH  10  11
ATOM     11  C   UNL     1      17.226  16.274  36.192  1.00  0.00     0.053 C 
BRANCH  11  12
ATOM     12  C   UNL     1      17.972  16.234  34.894  1.00  0.00     0.041 C 
ATOM     13  O   UNL     1      17.844  17.169  34.059  1.00  0.00    -0.550 OA
ATOM     14  O   UNL     1      18.845  15.187  34.626  1.00  0.00    -0.550 OA
ENDBRANCH  11  12
ENDBRANCH  10  11
ENDBRANCH   9  10
ENDBRANCH   8   9
ENDBRANCH   7   8
ENDBRANCH   6   7
ENDBRANCH   5   6
ENDBRANCH   4   5
ENDBRANCH   3   4
ENDBRANCH   2   3
ENDBRANCH   1   2
BRANCH   1  15
ATOM     15  C   UNL     1       9.243  19.871  34.636  1.00  0.00     0.000 C 
BRANCH  15  16
ATOM     16  C   UNL     1      10.696  20.114  34.211  1.00  0.00     0.000 C 
BRANCH  16  17
ATOM     17  C   UNL     1      10.909  19.748  32.735  1.00  0.00     0.000 C 
BRANCH  17  18
ATOM     18  C   UNL     1      10.081  18.525  32.297  1.00  0.00    -0.000 C 
BRANCH  18  19
ATOM     19  C   UNL     1       9.221  18.739  31.035  1.00  0.00    -0.000 C 
BRANCH  19  20
ATOM     20  C   UNL     1       8.158  19.851  31.151  1.00  0.00    -0.000 C 
BRANCH  20  21
ATOM     21  C   UNL     1       8.057  20.785  29.929  1.00  0.00    -0.000 C 
BRANCH  21  22
ATOM     22  C   UNL     1       8.026  22.288  30.260  1.00  0.00    -0.000 C 
BRANCH  22  23
ATOM     23  C   UNL     1       8.324  22.581  31.741  1.00  0.00    -0.000 C 
BRANCH  23  24
ATOM     24  C   UNL     1       9.735  23.173  31.943  1.00  0.00    -0.000 C 
BRANCH  24  25
ATOM     25  C   UNL     1       9.971  23.735  33.354  1.00  0.00    -0.003 C 
ATOM     26  C   UNL     1       9.739  25.241  33.448  1.00  0.00     0.004 C 
ENDBRANCH  24  25
ENDBRANCH  23  24
ENDBRANCH  22  23
ENDBRANCH  21  22
ENDBRANCH  20  21
ENDBRANCH  19  20
ENDBRANCH  18  19
ENDBRANCH  17  18
ENDBRANCH  16  17
ENDBRANCH  15  16
ENDBRANCH   1  15
TORSDOF 22
ENDMDL
MODEL 5
REMARK VINA RESULT:    -5.655      3.809      8.108
REMARK INTER + INTRA:         -15.861
REMARK INTER:                 -12.773
REMARK INTRA:                  -3.088
REMARK UNBOUND:                -2.934
REMARK SMILES CCCCCCCCCCCCCCCCCCCCCCCC(=O)[O-]
REMARK SMILES IDX 13 1 14 2 15 3 16 4 17 5 18 6 19 7 20 8 21 9 22 10 23 11
REMARK SMILES IDX 24 12 25 13 26 14 12 15 11 16 10 17 9 18 8 19 7 20 6 21 5 22
REMARK SMILES IDX 4 23 3 24 2 25 1 26
REMARK H PARENT
REMARK Flexibility Score: inf
ROOT
ATOM      1  C   UNL     1      10.868  20.172  34.958  1.00  0.00     0.000 C 
ENDROOT
BRANCH   1   2
ATOM      2  C   UNL     1      10.821  19.241  33.738  1.00  0.00     0.000 C 
BRANCH   2   3
ATOM      3  C   UNL     1       9.809  18.096  33.905  1.00  0.00     0.000 C 
BRANCH   3   4
ATOM      4  C   UNL     1       8.738  18.141  32.807  1.00  0.00     0.000 C 
BRANCH   4   5
ATOM      5  C   UNL     1       9.380  18.210  31.414  1.00  0.00     0.000 C 
BRANCH   5   6
ATOM      6  C   UNL     1       8.785  19.341  30.550  1.00  0.00     0.000 C 
BRANCH   6   7
ATOM      7  C   UNL     1       8.246  20.526  31.368  1.00  0.00     0.000 C 
BRANCH   7   8
ATOM      8  C   UNL     1       8.053  21.794  30.525  1.00  0.00     0.000 C 
BRANCH   8   9
ATOM      9  C   UNL     1       8.763  22.995  31.169  1.00  0.00     0.000 C 
BRANCH   9  10
ATOM     10  C   UNL     1       9.642  22.593  32.363  1.00  0.00     0.006 C 
BRANCH  10  11
ATOM     11  C   UNL     1      10.942  23.405  32.442  1.00  0.00     0.053 C 
BRANCH  11  12
ATOM     12  C   UNL     1      10.664  24.783  32.957  1.00  0.00     0.041 C 
ATOM     13  O   UNL     1      10.992  25.793  32.277  1.00  0.00    -0.550 OA
ATOM     14  O   UNL     1      10.002  24.954  34.165  1.00  0.00    -0.550 OA
ENDBRANCH  11  12
ENDBRANCH  10  11
ENDBRANCH   9  10
ENDBRANCH   8   9
ENDBRANCH   7   8
ENDBRANCH   6   7
ENDBRANCH   5   6
ENDBRANCH   4   5
ENDBRANCH   3   4
ENDBRANCH   2   3
ENDBRANCH   1   2
BRANCH   1  15
ATOM     15  C   UNL     1       9.479  20.682  35.371  1.00  0.00     0.000 C 
BRANCH  15  16
ATOM     16  C   UNL     1       9.407  20.900  36.887  1.00  0.00     0.000 C 
BRANCH  16  17
ATOM     17  C   UNL     1       8.442  19.902  37.543  1.00  0.00     0.000 C 
BRANCH  17  18
ATOM     18  C   UNL     1       9.165  18.844  38.399  1.00  0.00    -0.000 C 
BRANCH  18  19
ATOM     19  C   UNL     1       9.790  17.680  37.605  1.00  0.00    -0.000 C 
BRANCH  19  20
ATOM     20  C   UNL     1      11.329  17.600  37.668  1.00  0.00    -0.000 C 
BRANCH  20  21
ATOM     21  C   UNL     1      11.981  16.737  36.569  1.00  0.00    -0.000 C 
BRANCH  21  22
ATOM     22  C   UNL     1      13.370  16.174  36.922  1.00  0.00    -0.000 C 
BRANCH  22  23
ATOM     23  C   UNL     1      13.883  16.663  38.289  1.00  0.00    -0.000 C 
BRANCH  23  24
ATOM     24  C   UNL     1      15.425  16.674  38.360  1.00  0.00    -0.000 C 
BRANCH  24  25
ATOM     25  C   UNL     1      16.048  18.036  38.015  1.00  0.00    -0.003 C 
ATOM     26  C   UNL     1      16.848  18.018  36.716  1.00  0.00     0.004 C 
ENDBRANCH  24  25
ENDBRANCH  23  24
ENDBRANCH  22  23
ENDBRANCH  21  22
ENDBRANCH  20  21
ENDBRANCH  19  20
ENDBRANCH  18  19
ENDBRANCH  17  18
ENDBRANCH  16  17
ENDBRANCH  15  16
ENDBRANCH   1  15
TORSDOF 22
ENDMDL
MODEL 6
REMARK VINA RESULT:    -5.640      2.512      5.020
REMARK INTER + INTRA:         -15.827
REMARK INTER:                 -12.298
REMARK INTRA:                  -3.529
REMARK UNBOUND:                -2.934
REMARK SMILES CCCCCCCCCCCCCCCCCCCCCCCC(=O)[O-]
REMARK SMILES IDX 13 1 14 2 15 3 16 4 17 5 18 6 19 7 20 8 21 9 22 10 23 11
REMARK SMILES IDX 24 12 25 13 26 14 12 15 11 16 10 17 9 18 8 19 7 20 6 21 5 22
REMARK SMILES IDX 4 23 3 24 2 25 1 26
REMARK H PARENT
REMARK Flexibility Score: inf
ROOT
ATOM      1  C   UNL     1      10.177  18.718  33.565  1.00  0.00     0.000 C 
ENDROOT
BRANCH   1   2
ATOM      2  C   UNL     1       9.756  17.260  33.802  1.00  0.00     0.000 C 
BRANCH   2   3
ATOM      3  C   UNL     1       8.864  17.096  35.043  1.00  0.00     0.000 C 
BRANCH   3   4
ATOM      4  C   UNL     1       8.404  18.459  35.576  1.00  0.00     0.000 C 
BRANCH   4   5
ATOM      5  C   UNL     1       8.502  18.512  37.108  1.00  0.00     0.000 C 
BRANCH   5   6
ATOM      6  C   UNL     1       9.784  17.839  37.638  1.00  0.00     0.000 C 
BRANCH   6   7
ATOM      7  C   UNL     1      11.019  18.756  37.617  1.00  0.00     0.000 C 
BRANCH   7   8
ATOM      8  C   UNL     1      12.339  17.977  37.549  1.00  0.00     0.000 C 
BRANCH   8   9
ATOM      9  C   UNL     1      12.602  17.463  36.126  1.00  0.00     0.000 C 
BRANCH   9  10
ATOM     10  C   UNL     1      13.898  16.644  36.021  1.00  0.00     0.006 C 
BRANCH  10  11
ATOM     11  C   UNL     1      13.815  15.305  36.767  1.00  0.00     0.053 C 
BRANCH  11  12
ATOM     12  C   UNL     1      14.866  15.236  37.831  1.00  0.00     0.041 C 
ATOM     13  O   UNL     1      15.264  14.119  38.258  1.00  0.00    -0.550 OA
ATOM     14  O   UNL     1      15.439  16.403  38.318  1.00  0.00    -0.550 OA
ENDBRANCH  11  12
ENDBRANCH  10  11
ENDBRANCH   9  10
ENDBRANCH   8   9
ENDBRANCH   7   8
ENDBRANCH   6   7
ENDBRANCH   5   6
ENDBRANCH   4   5
ENDBRANCH   3   4
ENDBRANCH   2   3
ENDBRANCH   1   2
BRANCH   1  15
ATOM     15  C   UNL     1       9.789  19.231  32.170  1.00  0.00     0.000 C 
BRANCH  15  16
ATOM     16  C   UNL     1       8.627  20.227  32.260  1.00  0.00     0.000 C 
BRANCH  16  17
ATOM     17  C   UNL     1       8.226  20.734  30.867  1.00  0.00     0.000 C 
BRANCH  17  18
ATOM     18  C   UNL     1       8.235  22.271  30.764  1.00  0.00    -0.000 C 
BRANCH  18  19
ATOM     19  C   UNL     1       8.639  23.008  32.057  1.00  0.00    -0.000 C 
BRANCH  19  20
ATOM     20  C   UNL     1      10.094  23.518  32.089  1.00  0.00    -0.000 C 
BRANCH  20  21
ATOM     21  C   UNL     1      10.290  24.884  32.776  1.00  0.00    -0.000 C 
BRANCH  21  22
ATOM     22  C   UNL     1       9.449  25.098  34.048  1.00  0.00    -0.000 C 
BRANCH  22  23
ATOM     23  C   UNL     1      10.041  24.392  35.282  1.00  0.00    -0.000 C 
BRANCH  23  24
ATOM     24  C   UNL     1       9.128  23.257  35.794  1.00  0.00    -0.000 C 
BRANCH  24  25
ATOM     25  C   UNL     1       9.656  21.850  35.471  1.00  0.00    -0.003 C 
ATOM     26  C   UNL     1      11.138  21.833  35.107  1.00  0.00     0.004 C 
ENDBRANCH  24  25
ENDBRANCH  23  24
ENDBRANCH  22  23
ENDBRANCH  21  22
ENDBRANCH  20  21
ENDBRANCH  19  20
ENDBRANCH  18  19
ENDBRANCH  17  18
ENDBRANCH  16  17
ENDBRANCH  15  16
ENDBRANCH   1  15
TORSDOF 22
ENDMDL
MODEL 7
REMARK VINA RESULT:    -5.632      1.195      2.833
REMARK INTER + INTRA:         -15.809
REMARK INTER:                 -12.276
REMARK INTRA:                  -3.533
REMARK UNBOUND:                -2.934
REMARK SMILES CCCCCCCCCCCCCCCCCCCCCCCC(=O)[O-]
REMARK SMILES IDX 13 1 14 2 15 3 16 4 17 5 18 6 19 7 20 8 21 9 22 10 23 11
REMARK SMILES IDX 24 12 25 13 26 14 12 15 11 16 10 17 9 18 8 19 7 20 6 21 5 22
REMARK SMILES IDX 4 23 3 24 2 25 1 26
REMARK H PARENT
REMARK Flexibility Score: inf
ROOT
ATOM      1  C   UNL     1      12.241  18.172  36.020  1.00  0.00     0.000 C 
ENDROOT
BRANCH   1   2
ATOM      2  C   UNL     1      12.312  16.638  35.986  1.00  0.00     0.000 C 
BRANCH   2   3
ATOM      3  C   UNL     1      13.744  16.117  35.790  1.00  0.00     0.000 C 
BRANCH   3   4
ATOM      4  C   UNL     1      14.226  15.347  37.027  1.00  0.00     0.000 C 
BRANCH   4   5
ATOM      5  C   UNL     1      13.998  16.164  38.307  1.00  0.00     0.000 C 
BRANCH   5   6
ATOM      6  C   UNL     1      15.258  16.944  38.737  1.00  0.00     0.000 C 
BRANCH   6   7
ATOM      7  C   UNL     1      15.618  18.105  37.795  1.00  0.00     0.000 C 
BRANCH   7   8
ATOM      8  C   UNL     1      16.918  17.862  37.016  1.00  0.00     0.000 C 
BRANCH   8   9
ATOM      9  C   UNL     1      16.768  18.293  35.550  1.00  0.00     0.000 C 
BRANCH   9  10
ATOM     10  C   UNL     1      17.203  17.199  34.563  1.00  0.00     0.006 C 
BRANCH  10  11
ATOM     11  C   UNL     1      18.387  16.370  35.080  1.00  0.00     0.053 C 
BRANCH  11  12
ATOM     12  C   UNL     1      19.682  16.982  34.645  1.00  0.00     0.041 C 
ATOM     13  O   UNL     1      19.996  18.141  35.026  1.00  0.00    -0.550 OA
ATOM     14  O   UNL     1      20.564  16.255  33.856  1.00  0.00    -0.550 OA
ENDBRANCH  11  12
ENDBRANCH  10  11
ENDBRANCH   9  10
ENDBRANCH   8   9
ENDBRANCH   7   8
ENDBRANCH   6   7
ENDBRANCH   5   6
ENDBRANCH   4   5
ENDBRANCH   3   4
ENDBRANCH   2   3
ENDBRANCH   1   2
BRANCH   1  15
ATOM     15  C   UNL     1      11.365  18.702  37.166  1.00  0.00     0.000 C 
BRANCH  15  16
ATOM     16  C   UNL     1      10.150  17.794  37.388  1.00  0.00     0.000 C 
BRANCH  16  17
ATOM     17  C   UNL     1       8.839  18.570  37.191  1.00  0.00     0.000 C 
BRANCH  17  18
ATOM     18  C   UNL     1       8.028  18.077  35.978  1.00  0.00    -0.000 C 
BRANCH  18  19
ATOM     19  C   UNL     1       8.715  16.983  35.136  1.00  0.00    -0.000 C 
BRANCH  19  20
ATOM     20  C   UNL     1       9.419  17.488  33.860  1.00  0.00    -0.000 C 
BRANCH  20  21
ATOM     21  C   UNL     1       8.582  18.451  32.994  1.00  0.00    -0.000 C 
BRANCH  21  22
ATOM     22  C   UNL     1       9.356  19.658  32.432  1.00  0.00    -0.000 C 
BRANCH  22  23
ATOM     23  C   UNL     1      10.629  19.979  33.234  1.00  0.00    -0.000 C 
BRANCH  23  24
ATOM     24  C   UNL     1      10.505  21.304  34.017  1.00  0.00    -0.000 C 
BRANCH  24  25
ATOM     25  C   UNL     1       9.208  21.417  34.833  1.00  0.00    -0.003 C 
ATOM     26  C   UNL     1       9.378  22.211  36.125  1.00  0.00     0.004 C 
ENDBRANCH  24  25
ENDBRANCH  23  24
ENDBRANCH  22  23
ENDBRANCH  21  22
ENDBRANCH  20  21
ENDBRANCH  19  20
ENDBRANCH  18  19
ENDBRANCH  17  18
ENDBRANCH  16  17
ENDBRANCH  15  16
ENDBRANCH   1  15
TORSDOF 22
ENDMDL
MODEL 8
REMARK VINA RESULT:    -5.624      4.032      7.862
REMARK INTER + INTRA:         -15.790
REMARK INTER:                 -12.261
REMARK INTRA:                  -3.529
REMARK UNBOUND:                -2.934
REMARK SMILES CCCCCCCCCCCCCCCCCCCCCCCC(=O)[O-]
REMARK SMILES IDX 13 1 14 2 15 3 16 4 17 5 18 6 19 7 20 8 21 9 22 10 23 11
REMARK SMILES IDX 24 12 25 13 26 14 12 15 11 16 10 17 9 18 8 19 7 20 6 21 5 22
REMARK SMILES IDX 4 23 3 24 2 25 1 26
REMARK H PARENT
REMARK Flexibility Score: inf
ROOT
ATOM      1  C   UNL     1      10.304  19.001  32.046  1.00  0.00     0.000 C 
ENDROOT
BRANCH   1   2
ATOM      2  C   UNL     1       9.216  18.491  31.089  1.00  0.00     0.000 C 
BRANCH   2   3
ATOM      3  C   UNL     1       8.613  19.613  30.229  1.00  0.00     0.000 C 
BRANCH   3   4
ATOM      4  C   UNL     1       7.893  20.651  31.100  1.00  0.00     0.000 C 
BRANCH   4   5
ATOM      5  C   UNL     1       8.212  22.079  30.632  1.00  0.00     0.000 C 
BRANCH   5   6
ATOM      6  C   UNL     1       9.227  22.785  31.554  1.00  0.00     0.000 C 
BRANCH   6   7
ATOM      7  C   UNL     1       9.011  22.496  33.049  1.00  0.00     0.000 C 
BRANCH   7   8
ATOM      8  C   UNL     1      10.318  22.198  33.795  1.00  0.00     0.000 C 
BRANCH   8   9
ATOM      9  C   UNL     1      11.526  22.318  32.854  1.00  0.00     0.000 C 
BRANCH   9  10
ATOM     10  C   UNL     1      12.397  23.547  33.161  1.00  0.00     0.006 C 
BRANCH  10  11
ATOM     11  C   UNL     1      12.510  24.506  31.968  1.00  0.00     0.053 C 
BRANCH  11  12
ATOM     12  C   UNL     1      11.652  25.714  32.188  1.00  0.00     0.041 C 
ATOM     13  O   UNL     1      11.874  26.775  31.546  1.00  0.00    -0.550 OA
ATOM     14  O   UNL     1      10.580  25.653  33.069  1.00  0.00    -0.550 OA
ENDBRANCH  11  12
ENDBRANCH  10  11
ENDBRANCH   9  10
ENDBRANCH   8   9
ENDBRANCH   7   8
ENDBRANCH   6   7
ENDBRANCH   5   6
ENDBRANCH   4   5
ENDBRANCH   3   4
ENDBRANCH   2   3
ENDBRANCH   1   2
BRANCH   1  15
ATOM     15  C   UNL     1      10.129  18.477  33.479  1.00  0.00     0.000 C 
BRANCH  15  16
ATOM     16  C   UNL     1       8.661  18.133  33.758  1.00  0.00     0.000 C 
BRANCH  16  17
ATOM     17  C   UNL     1       7.999  19.208  34.633  1.00  0.00     0.000 C 
BRANCH  17  18
ATOM     18  C   UNL     1       8.789  19.500  35.923  1.00  0.00    -0.000 C 
BRANCH  18  19
ATOM     19  C   UNL     1       8.539  18.510  37.078  1.00  0.00    -0.000 C 
BRANCH  19  20
ATOM     20  C   UNL     1       9.812  17.966  37.757  1.00  0.00    -0.000 C 
BRANCH  20  21
ATOM     21  C   UNL     1      10.677  17.044  36.875  1.00  0.00    -0.000 C 
BRANCH  21  22
ATOM     22  C   UNL     1      12.021  17.647  36.427  1.00  0.00    -0.000 C 
BRANCH  22  23
ATOM     23  C   UNL     1      12.918  16.633  35.695  1.00  0.00    -0.000 C 
BRANCH  23  24
ATOM     24  C   UNL     1      14.404  16.783  36.086  1.00  0.00    -0.000 C 
BRANCH  24  25
ATOM     25  C   UNL     1      14.942  15.609  36.919  1.00  0.00    -0.003 C 
ATOM     26  C   UNL     1      14.431  15.609  38.357  1.00  0.00     0.004 C 
ENDBRANCH  24  25
ENDBRANCH  23  24
ENDBRANCH  22  23
ENDBRANCH  21  22
ENDBRANCH  20  21
ENDBRANCH  19  20
ENDBRANCH  18  19
ENDBRANCH  17  18
ENDBRANCH  16  17
ENDBRANCH  15  16
ENDBRANCH   1  15
TORSDOF 22
ENDMDL
MODEL 9
REMARK VINA RESULT:    -5.585      1.209      3.359
REMARK INTER + INTRA:         -15.703
REMARK INTER:                 -12.509
REMARK INTRA:                  -3.193
REMARK UNBOUND:                -2.934
REMARK SMILES CCCCCCCCCCCCCCCCCCCCCCCC(=O)[O-]
REMARK SMILES IDX 13 1 14 2 15 3 16 4 17 5 18 6 19 7 20 8 21 9 22 10 23 11
REMARK SMILES IDX 24 12 25 13 26 14 12 15 11 16 10 17 9 18 8 19 7 20 6 21 5 22
REMARK SMILES IDX 4 23 3 24 2 25 1 26
REMARK H PARENT
REMARK Flexibility Score: inf
ROOT
ATOM      1  C   UNL     1      10.962  18.317  34.367  1.00  0.00     0.000 C 
ENDROOT
BRANCH   1   2
ATOM      2  C   UNL     1      11.935  18.450  35.547  1.00  0.00     0.000 C 
BRANCH   2   3
ATOM      3  C   UNL     1      12.950  17.298  35.610  1.00  0.00     0.000 C 
BRANCH   3   4
ATOM      4  C   UNL     1      12.768  16.470  36.888  1.00  0.00     0.000 C 
BRANCH   4   5
ATOM      5  C   UNL     1      13.183  17.274  38.130  1.00  0.00     0.000 C 
BRANCH   5   6
ATOM      6  C   UNL     1      14.653  17.738  38.062  1.00  0.00     0.000 C 
BRANCH   6   7
ATOM      7  C   UNL     1      15.670  16.594  38.210  1.00  0.00     0.000 C 
BRANCH   7   8
ATOM      8  C   UNL     1      16.475  16.341  36.928  1.00  0.00     0.000 C 
BRANCH   8   9
ATOM      9  C   UNL     1      17.248  17.600  36.508  1.00  0.00     0.000 C 
BRANCH   9  10
ATOM     10  C   UNL     1      17.652  17.581  35.025  1.00  0.00     0.006 C 
BRANCH  10  11
ATOM     11  C   UNL     1      19.000  18.268  34.769  1.00  0.00     0.053 C 
BRANCH  11  12
ATOM     12  C   UNL     1      20.098  17.253  34.703  1.00  0.00     0.041 C 
ATOM     13  O   UNL     1      21.270  17.561  35.051  1.00  0.00    -0.550 OA
ATOM     14  O   UNL     1      19.819  15.953  34.301  1.00  0.00    -0.550 OA
ENDBRANCH  11  12
ENDBRANCH  10  11
ENDBRANCH   9  10
ENDBRANCH   8   9
ENDBRANCH   7   8
ENDBRANCH   6   7
ENDBRANCH   5   6
ENDBRANCH   4   5
ENDBRANCH   3   4
ENDBRANCH   2   3
ENDBRANCH   1   2
BRANCH   1  15
ATOM     15  C   UNL     1       9.615  17.699  34.773  1.00  0.00     0.000 C 
BRANCH  15  16
ATOM     16  C   UNL     1       8.453  18.427  34.087  1.00  0.00     0.000 C 
BRANCH  16  17
ATOM     17  C   UNL     1       8.946  19.241  32.883  1.00  0.00     0.000 C 
BRANCH  17  18
ATOM     18  C   UNL     1       8.650  20.747  33.017  1.00  0.00    -0.000 C 
BRANCH  18  19
ATOM     19  C   UNL     1       9.895  21.659  33.004  1.00  0.00    -0.000 C 
BRANCH  19  20
ATOM     20  C   UNL     1      10.380  22.119  34.394  1.00  0.00    -0.000 C 
BRANCH  20  21
ATOM     21  C   UNL     1       9.339  21.985  35.523  1.00  0.00    -0.000 C 
BRANCH  21  22
ATOM     22  C   UNL     1       9.693  20.959  36.616  1.00  0.00    -0.000 C 
BRANCH  22  23
ATOM     23  C   UNL     1       8.569  20.774  37.651  1.00  0.00    -0.000 C 
BRANCH  23  24
ATOM     24  C   UNL     1       8.205  19.288  37.854  1.00  0.00    -0.000 C 
BRANCH  24  25
ATOM     25  C   UNL     1       9.373  18.433  38.368  1.00  0.00    -0.003 C 
ATOM     26  C   UNL     1       9.819  18.810  39.778  1.00  0.00     0.004 C 
ENDBRANCH  24  25
ENDBRANCH  23  24
ENDBRANCH  22  23
ENDBRANCH  21  22
ENDBRANCH  20  21
ENDBRANCH  19  20
ENDBRANCH  18  19
ENDBRANCH  17  18
ENDBRANCH  16  17
ENDBRANCH  15  16
ENDBRANCH   1  15
TORSDOF 22
ENDMDL
