MODEL 1
REMARK VINA RESULT:    -4.297      0.000      0.000
REMARK INTER + INTRA:          -6.833
REMARK INTER:                  -5.929
REMARK INTRA:                  -0.904
REMARK UNBOUND:                -0.904
REMARK SMILES CCCCc1cccc(O)c1CCCC
REMARK SMILES IDX 5 1 11 2 9 3 8 4 7 5 6 6 4 7 3 8 2 9 1 10 12 11 13 12 14 13
REMARK SMILES IDX 15 14 10 15
REMARK H PARENT 10 16
REMARK Flexibility Score: inf
ROOT
ATOM      1  C   UNL     1     -20.881  31.999  22.376  1.00  0.00    -0.041 A 
ATOM      2  C   UNL     1     -20.019  30.862  22.424  1.00  0.00    -0.003 A 
ATOM      3  C   UNL     1     -18.872  30.911  23.268  1.00  0.00     0.119 A 
ATOM      4  C   UNL     1     -18.610  32.052  24.030  1.00  0.00     0.046 A 
ATOM      5  C   UNL     1     -19.452  33.156  23.969  1.00  0.00     0.004 A 
ATOM      6  C   UNL     1     -20.572  33.134  23.144  1.00  0.00     0.004 A 
ENDROOT
BRANCH   1   7
ATOM      7  C   UNL     1     -22.093  32.083  21.472  1.00  0.00     0.036 C 
BRANCH   7   8
ATOM      8  C   UNL     1     -22.809  33.429  21.644  1.00  0.00     0.004 C 
BRANCH   8   9
ATOM      9  C   UNL     1     -22.832  34.213  20.329  1.00  0.00    -0.003 C 
ATOM     10  C   UNL     1     -21.689  35.221  20.268  1.00  0.00     0.004 C 
ENDBRANCH   8   9
ENDBRANCH   7   8
ENDBRANCH   1   7
BRANCH   2  11
ATOM     11  C   UNL     1     -20.309  29.604  21.618  1.00  0.00     0.040 C 
BRANCH  11  12
ATOM     12  C   UNL     1     -19.644  29.632  20.229  1.00  0.00     0.005 C 
BRANCH  12  13
ATOM     13  C   UNL     1     -20.422  28.816  19.189  1.00  0.00    -0.003 C 
ATOM     14  C   UNL     1     -21.922  28.858  19.466  1.00  0.00     0.004 C 
ENDBRANCH  12  13
ENDBRANCH  11  12
ENDBRANCH   2  11
BRANCH   3  15
ATOM     15  O   UNL     1     -17.964  29.853  23.373  1.00  0.00    -0.508 OA
ATOM     16  H   UNL     1     -18.206  28.880  23.242  1.00  0.00     0.293 HD
ENDBRANCH   3  15
TORSDOF 7
ENDMDL
MODEL 2
REMARK VINA RESULT:    -4.263      2.090      5.188
REMARK INTER + INTRA:          -6.787
REMARK INTER:                  -6.047
REMARK INTRA:                  -0.740
REMARK UNBOUND:                -0.904
REMARK SMILES CCCCc1cccc(O)c1CCCC
REMARK SMILES IDX 5 1 11 2 9 3 8 4 7 5 6 6 4 7 3 8 2 9 1 10 12 11 13 12 14 13
REMARK SMILES IDX 15 14 10 15
REMARK H PARENT 10 16
REMARK Flexibility Score: inf
ROOT
ATOM      1  C   UNL     1     -20.879  30.355  21.234  1.00  0.00    -0.041 A 
ATOM      2  C   UNL     1     -22.237  30.490  20.812  1.00  0.00    -0.003 A 
ATOM      3  C   UNL     1     -22.697  29.685  19.730  1.00  0.00     0.119 A 
ATOM      4  C   UNL     1     -21.830  28.786  19.106  1.00  0.00     0.046 A 
ATOM      5  C   UNL     1     -20.509  28.670  19.519  1.00  0.00     0.004 A 
ATOM      6  C   UNL     1     -20.034  29.453  20.567  1.00  0.00     0.004 A 
ENDROOT
BRANCH   1   7
ATOM      7  C   UNL     1     -20.264  31.200  22.330  1.00  0.00     0.036 C 
BRANCH   7   8
ATOM      8  C   UNL     1     -19.162  30.423  23.062  1.00  0.00     0.004 C 
BRANCH   8   9
ATOM      9  C   UNL     1     -18.320  31.356  23.938  1.00  0.00    -0.003 C 
ATOM     10  C   UNL     1     -18.698  32.816  23.711  1.00  0.00     0.004 C 
ENDBRANCH   8   9
ENDBRANCH   7   8
ENDBRANCH   1   7
BRANCH   2  11
ATOM     11  C   UNL     1     -23.197  31.448  21.502  1.00  0.00     0.040 C 
BRANCH  11  12
ATOM     12  C   UNL     1     -23.329  32.786  20.752  1.00  0.00     0.005 C 
BRANCH  12  13
ATOM     13  C   UNL     1     -22.338  33.842  21.256  1.00  0.00    -0.003 C 
ATOM     14  C   UNL     1     -22.064  34.895  20.185  1.00  0.00     0.004 C 
ENDBRANCH  12  13
ENDBRANCH  11  12
ENDBRANCH   2  11
BRANCH   3  15
ATOM     15  O   UNL     1     -24.005  29.754  19.240  1.00  0.00    -0.508 OA
ATOM     16  H   UNL     1     -24.635  30.528  19.402  1.00  0.00     0.293 HD
ENDBRANCH   3  15
TORSDOF 7
ENDMDL
MODEL 3
REMARK VINA RESULT:    -3.958      1.607      4.332
REMARK INTER + INTRA:          -6.365
REMARK INTER:                  -5.407
REMARK INTRA:                  -0.958
REMARK UNBOUND:                -0.904
REMARK SMILES CCCCc1cccc(O)c1CCCC
REMARK SMILES IDX 5 1 11 2 9 3 8 4 7 5 6 6 4 7 3 8 2 9 1 10 12 11 13 12 14 13
REMARK SMILES IDX 15 14 10 15
REMARK H PARENT 10 16
REMARK Flexibility Score: inf
ROOT
ATOM      1  C   UNL     1     -20.473  31.122  22.345  1.00  0.00    -0.041 A 
ATOM      2  C   UNL     1     -21.363  32.208  22.609  1.00  0.00    -0.003 A 
ATOM      3  C   UNL     1     -20.917  33.263  23.455  1.00  0.00     0.119 A 
ATOM      4  C   UNL     1     -19.635  33.227  24.007  1.00  0.00     0.046 A 
ATOM      5  C   UNL     1     -18.782  32.161  23.751  1.00  0.00     0.004 A 
ATOM      6  C   UNL     1     -19.198  31.114  22.935  1.00  0.00     0.004 A 
ENDROOT
BRANCH   1   7
ATOM      7  C   UNL     1     -20.859  29.918  21.511  1.00  0.00     0.036 C 
BRANCH   7   8
ATOM      8  C   UNL     1     -19.764  29.590  20.489  1.00  0.00     0.004 C 
BRANCH   8   9
ATOM      9  C   UNL     1     -20.350  28.892  19.258  1.00  0.00    -0.003 C 
ATOM     10  C   UNL     1     -21.870  28.796  19.350  1.00  0.00     0.004 C 
ENDBRANCH   8   9
ENDBRANCH   7   8
ENDBRANCH   1   7
BRANCH   2  11
ATOM     11  C   UNL     1     -22.753  32.271  21.991  1.00  0.00     0.040 C 
BRANCH  11  12
ATOM     12  C   UNL     1     -22.735  32.857  20.568  1.00  0.00     0.005 C 
BRANCH  12  13
ATOM     13  C   UNL     1     -23.037  34.361  20.547  1.00  0.00    -0.003 C 
ATOM     14  C   UNL     1     -21.770  35.173  20.291  1.00  0.00     0.004 C 
ENDBRANCH  12  13
ENDBRANCH  11  12
ENDBRANCH   2  11
BRANCH   3  15
ATOM     15  O   UNL     1     -21.719  34.362  23.780  1.00  0.00    -0.508 OA
ATOM     16  H   UNL     1     -22.446  34.350  24.482  1.00  0.00     0.293 HD
ENDBRANCH   3  15
TORSDOF 7
ENDMDL
MODEL 4
REMARK VINA RESULT:    -3.951      1.919      4.039
REMARK INTER + INTRA:          -6.356
REMARK INTER:                  -5.470
REMARK INTRA:                  -0.886
REMARK UNBOUND:                -0.904
REMARK SMILES CCCCc1cccc(O)c1CCCC
REMARK SMILES IDX 5 1 11 2 9 3 8 4 7 5 6 6 4 7 3 8 2 9 1 10 12 11 13 12 14 13
REMARK SMILES IDX 15 14 10 15
REMARK H PARENT 10 16
REMARK Flexibility Score: inf
ROOT
ATOM      1  C   UNL     1     -21.537  30.579  21.109  1.00  0.00    -0.041 A 
ATOM      2  C   UNL     1     -20.629  29.634  20.542  1.00  0.00    -0.003 A 
ATOM      3  C   UNL     1     -21.129  28.687  19.603  1.00  0.00     0.119 A 
ATOM      4  C   UNL     1     -22.480  28.695  19.250  1.00  0.00     0.046 A 
ATOM      5  C   UNL     1     -23.356  29.614  19.814  1.00  0.00     0.004 A 
ATOM      6  C   UNL     1     -22.893  30.541  20.741  1.00  0.00     0.004 A 
ENDROOT
BRANCH   1   7
ATOM      7  C   UNL     1     -21.133  31.591  22.160  1.00  0.00     0.036 C 
BRANCH   7   8
ATOM      8  C   UNL     1     -22.172  32.714  22.264  1.00  0.00     0.004 C 
BRANCH   8   9
ATOM      9  C   UNL     1     -21.627  34.025  21.687  1.00  0.00    -0.003 C 
ATOM     10  C   UNL     1     -22.413  34.453  20.452  1.00  0.00     0.004 C 
ENDBRANCH   8   9
ENDBRANCH   7   8
ENDBRANCH   1   7
BRANCH   2  11
ATOM     11  C   UNL     1     -19.150  29.633  20.901  1.00  0.00     0.040 C 
BRANCH  11  12
ATOM     12  C   UNL     1     -18.807  28.581  21.972  1.00  0.00     0.005 C 
BRANCH  12  13
ATOM     13  C   UNL     1     -17.650  29.020  22.878  1.00  0.00    -0.003 C 
ATOM     14  C   UNL     1     -18.039  30.233  23.719  1.00  0.00     0.004 C 
ENDBRANCH  12  13
ENDBRANCH  11  12
ENDBRANCH   2  11
BRANCH   3  15
ATOM     15  O   UNL     1     -20.320  27.717  19.003  1.00  0.00    -0.508 OA
ATOM     16  H   UNL     1     -19.995  27.758  18.047  1.00  0.00     0.293 HD
ENDBRANCH   3  15
TORSDOF 7
ENDMDL
MODEL 5
REMARK VINA RESULT:    -3.876      2.134      4.436
REMARK INTER + INTRA:          -6.253
REMARK INTER:                  -4.897
REMARK INTRA:                  -1.356
REMARK UNBOUND:                -0.904
REMARK SMILES CCCCc1cccc(O)c1CCCC
REMARK SMILES IDX 5 1 11 2 9 3 8 4 7 5 6 6 4 7 3 8 2 9 1 10 12 11 13 12 14 13
REMARK SMILES IDX 15 14 10 15
REMARK H PARENT 10 16
REMARK Flexibility Score: inf
ROOT
ATOM      1  C   UNL     1     -19.581  29.519  21.068  1.00  0.00    -0.041 A 
ATOM      2  C   UNL     1     -20.185  30.541  21.862  1.00  0.00    -0.003 A 
ATOM      3  C   UNL     1     -19.583  30.882  23.107  1.00  0.00     0.119 A 
ATOM      4  C   UNL     1     -18.425  30.227  23.530  1.00  0.00     0.046 A 
ATOM      5  C   UNL     1     -17.850  29.228  22.753  1.00  0.00     0.004 A 
ATOM      6  C   UNL     1     -18.426  28.871  21.539  1.00  0.00     0.004 A 
ENDROOT
BRANCH   1   7
ATOM      7  C   UNL     1     -20.165  29.031  19.759  1.00  0.00     0.036 C 
BRANCH   7   8
ATOM      8  C   UNL     1     -20.373  27.512  19.788  1.00  0.00     0.004 C 
BRANCH   8   9
ATOM      9  C   UNL     1     -21.758  27.156  20.338  1.00  0.00    -0.003 C 
ATOM     10  C   UNL     1     -21.677  26.728  21.800  1.00  0.00     0.004 C 
ENDBRANCH   8   9
ENDBRANCH   7   8
ENDBRANCH   1   7
BRANCH   2  11
ATOM     11  C   UNL     1     -21.433  31.280  21.399  1.00  0.00     0.040 C 
BRANCH  11  12
ATOM     12  C   UNL     1     -22.728  30.617  21.905  1.00  0.00     0.005 C 
BRANCH  12  13
ATOM     13  C   UNL     1     -23.910  30.836  20.953  1.00  0.00    -0.003 C 
ATOM     14  C   UNL     1     -23.724  30.056  19.654  1.00  0.00     0.004 C 
ENDBRANCH  12  13
ENDBRANCH  11  12
ENDBRANCH   2  11
BRANCH   3  15
ATOM     15  O   UNL     1     -20.107  31.861  23.957  1.00  0.00    -0.508 OA
ATOM     16  H   UNL     1     -19.564  32.608  24.370  1.00  0.00     0.293 HD
ENDBRANCH   3  15
TORSDOF 7
ENDMDL
MODEL 6
REMARK VINA RESULT:    -3.818      3.471      6.111
REMARK INTER + INTRA:          -6.172
REMARK INTER:                  -5.032
REMARK INTRA:                  -1.140
REMARK UNBOUND:                -0.904
REMARK SMILES CCCCc1cccc(O)c1CCCC
REMARK SMILES IDX 5 1 11 2 9 3 8 4 7 5 6 6 4 7 3 8 2 9 1 10 12 11 13 12 14 13
REMARK SMILES IDX 15 14 10 15
REMARK H PARENT 10 16
REMARK Flexibility Score: inf
ROOT
ATOM      1  C   UNL     1     -19.230  26.256  21.235  1.00  0.00    -0.041 A 
ATOM      2  C   UNL     1     -18.282  26.483  22.278  1.00  0.00    -0.003 A 
ATOM      3  C   UNL     1     -17.183  25.586  22.408  1.00  0.00     0.119 A 
ATOM      4  C   UNL     1     -17.045  24.513  21.525  1.00  0.00     0.046 A 
ATOM      5  C   UNL     1     -17.978  24.297  20.519  1.00  0.00     0.004 A 
ATOM      6  C   UNL     1     -19.065  25.153  20.379  1.00  0.00     0.004 A 
ENDROOT
BRANCH   1   7
ATOM      7  C   UNL     1     -20.468  27.106  21.039  1.00  0.00     0.036 C 
BRANCH   7   8
ATOM      8  C   UNL     1     -20.407  27.856  19.702  1.00  0.00     0.004 C 
BRANCH   8   9
ATOM      9  C   UNL     1     -19.967  29.310  19.907  1.00  0.00    -0.003 C 
ATOM     10  C   UNL     1     -20.770  29.978  21.018  1.00  0.00     0.004 C 
ENDBRANCH   8   9
ENDBRANCH   7   8
ENDBRANCH   1   7
BRANCH   2  11
ATOM     11  C   UNL     1     -18.409  27.664  23.230  1.00  0.00     0.040 C 
BRANCH  11  12
ATOM     12  C   UNL     1     -17.626  28.897  22.741  1.00  0.00     0.005 C 
BRANCH  12  13
ATOM     13  C   UNL     1     -17.433  29.946  23.843  1.00  0.00    -0.003 C 
ATOM     14  C   UNL     1     -18.533  31.003  23.796  1.00  0.00     0.004 C 
ENDBRANCH  12  13
ENDBRANCH  11  12
ENDBRANCH   2  11
BRANCH   3  15
ATOM     15  O   UNL     1     -16.210  25.720  23.404  1.00  0.00    -0.508 OA
ATOM     16  H   UNL     1     -16.412  25.924  24.373  1.00  0.00     0.293 HD
ENDBRANCH   3  15
TORSDOF 7
ENDMDL
MODEL 7
REMARK VINA RESULT:    -3.817      3.623      6.374
REMARK INTER + INTRA:          -6.171
REMARK INTER:                  -5.100
REMARK INTRA:                  -1.071
REMARK UNBOUND:                -0.904
REMARK SMILES CCCCc1cccc(O)c1CCCC
REMARK SMILES IDX 5 1 11 2 9 3 8 4 7 5 6 6 4 7 3 8 2 9 1 10 12 11 13 12 14 13
REMARK SMILES IDX 15 14 10 15
REMARK H PARENT 10 16
REMARK Flexibility Score: inf
ROOT
ATOM      1  C   UNL     1     -18.767  26.333  21.793  1.00  0.00    -0.041 A 
ATOM      2  C   UNL     1     -19.692  26.279  20.706  1.00  0.00    -0.003 A 
ATOM      3  C   UNL     1     -19.628  25.173  19.811  1.00  0.00     0.119 A 
ATOM      4  C   UNL     1     -18.677  24.168  20.004  1.00  0.00     0.046 A 
ATOM      5  C   UNL     1     -17.777  24.235  21.060  1.00  0.00     0.004 A 
ATOM      6  C   UNL     1     -17.814  25.311  21.941  1.00  0.00     0.004 A 
ENDROOT
BRANCH   1   7
ATOM      7  C   UNL     1     -18.702  27.488  22.770  1.00  0.00     0.036 C 
BRANCH   7   8
ATOM      8  C   UNL     1     -17.655  28.518  22.327  1.00  0.00     0.004 C 
BRANCH   8   9
ATOM      9  C   UNL     1     -17.235  29.414  23.496  1.00  0.00    -0.003 C 
ATOM     10  C   UNL     1     -18.257  30.521  23.738  1.00  0.00     0.004 C 
ENDBRANCH   8   9
ENDBRANCH   7   8
ENDBRANCH   1   7
BRANCH   2  11
ATOM     11  C   UNL     1     -20.748  27.356  20.501  1.00  0.00     0.040 C 
BRANCH  11  12
ATOM     12  C   UNL     1     -20.337  28.383  19.431  1.00  0.00     0.005 C 
BRANCH  12  13
ATOM     13  C   UNL     1     -19.937  29.734  20.036  1.00  0.00    -0.003 C 
ATOM     14  C   UNL     1     -20.911  30.156  21.133  1.00  0.00     0.004 C 
ENDBRANCH  12  13
ENDBRANCH  11  12
ENDBRANCH   2  11
BRANCH   3  15
ATOM     15  O   UNL     1     -20.483  25.038  18.713  1.00  0.00    -0.508 OA
ATOM     16  H   UNL     1     -20.174  24.845  17.770  1.00  0.00     0.293 HD
ENDBRANCH   3  15
TORSDOF 7
ENDMDL
MODEL 8
REMARK VINA RESULT:    -3.809      4.493      7.189
REMARK INTER + INTRA:          -6.160
REMARK INTER:                  -5.118
REMARK INTRA:                  -1.042
REMARK UNBOUND:                -0.904
REMARK SMILES CCCCc1cccc(O)c1CCCC
REMARK SMILES IDX 5 1 11 2 9 3 8 4 7 5 6 6 4 7 3 8 2 9 1 10 12 11 13 12 14 13
REMARK SMILES IDX 15 14 10 15
REMARK H PARENT 10 16
REMARK Flexibility Score: inf
ROOT
ATOM      1  C   UNL     1     -18.983  26.948  21.484  1.00  0.00    -0.041 A 
ATOM      2  C   UNL     1     -20.045  26.821  20.537  1.00  0.00    -0.003 A 
ATOM      3  C   UNL     1     -20.561  28.001  19.929  1.00  0.00     0.119 A 
ATOM      4  C   UNL     1     -20.030  29.250  20.258  1.00  0.00     0.046 A 
ATOM      5  C   UNL     1     -19.003  29.363  21.187  1.00  0.00     0.004 A 
ATOM      6  C   UNL     1     -18.490  28.225  21.801  1.00  0.00     0.004 A 
ENDROOT
BRANCH   1   7
ATOM      7  C   UNL     1     -18.397  25.772  22.237  1.00  0.00     0.036 C 
BRANCH   7   8
ATOM      8  C   UNL     1     -17.034  25.377  21.654  1.00  0.00     0.004 C 
BRANCH   8   9
ATOM      9  C   UNL     1     -16.486  24.121  22.339  1.00  0.00    -0.003 C 
ATOM     10  C   UNL     1     -15.117  24.384  22.958  1.00  0.00     0.004 C 
ENDBRANCH   8   9
ENDBRANCH   7   8
ENDBRANCH   1   7
BRANCH   2  11
ATOM     11  C   UNL     1     -20.613  25.462  20.152  1.00  0.00     0.040 C 
BRANCH  11  12
ATOM     12  C   UNL     1     -19.814  24.792  19.020  1.00  0.00     0.005 C 
BRANCH  12  13
ATOM     13  C   UNL     1     -19.284  23.408  19.414  1.00  0.00    -0.003 C 
ATOM     14  C   UNL     1     -17.911  23.148  18.798  1.00  0.00     0.004 C 
ENDBRANCH  12  13
ENDBRANCH  11  12
ENDBRANCH   2  11
BRANCH   3  15
ATOM     15  O   UNL     1     -21.606  27.978  19.000  1.00  0.00    -0.508 OA
ATOM     16  H   UNL     1     -21.494  27.746  18.023  1.00  0.00     0.293 HD
ENDBRANCH   3  15
TORSDOF 7
ENDMDL
MODEL 9
REMARK VINA RESULT:    -3.809      2.229      3.961
REMARK INTER + INTRA:          -6.159
REMARK INTER:                  -4.751
REMARK INTRA:                  -1.408
REMARK UNBOUND:                -0.904
REMARK SMILES CCCCc1cccc(O)c1CCCC
REMARK SMILES IDX 5 1 11 2 9 3 8 4 7 5 6 6 4 7 3 8 2 9 1 10 12 11 13 12 14 13
REMARK SMILES IDX 15 14 10 15
REMARK H PARENT 10 16
REMARK Flexibility Score: inf
ROOT
ATOM      1  C   UNL     1     -20.680  31.050  22.655  1.00  0.00    -0.041 A 
ATOM      2  C   UNL     1     -21.923  31.736  22.499  1.00  0.00    -0.003 A 
ATOM      3  C   UNL     1     -21.975  33.128  22.800  1.00  0.00     0.119 A 
ATOM      4  C   UNL     1     -20.828  33.796  23.235  1.00  0.00     0.046 A 
ATOM      5  C   UNL     1     -19.627  33.115  23.391  1.00  0.00     0.004 A 
ATOM      6  C   UNL     1     -19.554  31.754  23.113  1.00  0.00     0.004 A 
ENDROOT
BRANCH   1   7
ATOM      7  C   UNL     1     -20.520  29.562  22.424  1.00  0.00     0.036 C 
BRANCH   7   8
ATOM      8  C   UNL     1     -19.378  29.284  21.439  1.00  0.00     0.004 C 
BRANCH   8   9
ATOM      9  C   UNL     1     -19.753  29.729  20.021  1.00  0.00    -0.003 C 
ATOM     10  C   UNL     1     -20.397  28.590  19.237  1.00  0.00     0.004 C 
ENDBRANCH   8   9
ENDBRANCH   7   8
ENDBRANCH   1   7
BRANCH   2  11
ATOM     11  C   UNL     1     -23.172  31.024  22.001  1.00  0.00     0.040 C 
BRANCH  11  12
ATOM     12  C   UNL     1     -23.374  31.188  20.483  1.00  0.00     0.005 C 
BRANCH  12  13
ATOM     13  C   UNL     1     -23.763  29.872  19.797  1.00  0.00    -0.003 C 
ATOM     14  C   UNL     1     -23.778  28.715  20.793  1.00  0.00     0.004 C 
ENDBRANCH  12  13
ENDBRANCH  11  12
ENDBRANCH   2  11
BRANCH   3  15
ATOM     15  O   UNL     1     -23.147  33.882  22.688  1.00  0.00    -0.508 OA
ATOM     16  H   UNL     1     -23.540  34.438  23.434  1.00  0.00     0.293 HD
ENDBRANCH   3  15
TORSDOF 7
ENDMDL
