MODEL 1
REMARK VINA RESULT:    -4.794      0.000      0.000
REMARK INTER + INTRA:          -5.231
REMARK INTER:                  -5.075
REMARK INTRA:                  -0.156
REMARK UNBOUND:                -0.156
REMARK SMILES CC(C)[C@H]1CC[C@@H](C)CC1=O
REMARK SMILES IDX 8 1 7 2 6 3 5 4 4 5 10 6 11 7 9 8 2 9 1 10 3 11
REMARK H PARENT
REMARK Flexibility Score: inf
ROOT
ATOM      1  C   UNL     1     -18.110  31.838  -1.979  1.00  0.00     0.008 C 
ATOM      2  C   UNL     1     -18.985  31.652  -3.229  1.00  0.00    -0.007 C 
ATOM      3  C   UNL     1     -19.761  32.941  -3.586  1.00  0.00     0.004 C 
ATOM      4  C   UNL     1     -20.910  33.247  -2.603  1.00  0.00     0.012 C 
ATOM      5  C   UNL     1     -21.892  32.057  -2.473  1.00  0.00     0.058 C 
ATOM      6  C   UNL     1     -21.071  30.821  -2.149  1.00  0.00     0.136 C 
ATOM      7  O   UNL     1     -21.245  30.179  -1.123  1.00  0.00    -0.299 OA
ATOM      8  C   UNL     1     -19.946  30.458  -3.074  1.00  0.00     0.079 C 
ENDROOT
BRANCH   5   9
ATOM      9  C   UNL     1     -23.040  32.314  -1.440  1.00  0.00    -0.007 C 
ATOM     10  C   UNL     1     -23.224  33.807  -1.115  1.00  0.00     0.008 C 
ATOM     11  C   UNL     1     -24.379  31.758  -1.960  1.00  0.00     0.008 C 
ENDBRANCH   5   9
TORSDOF 1
ENDMDL
MODEL 2
REMARK VINA RESULT:    -4.768      1.971      3.119
REMARK INTER + INTRA:          -5.203
REMARK INTER:                  -5.045
REMARK INTRA:                  -0.158
REMARK UNBOUND:                -0.156
REMARK SMILES CC(C)[C@H]1CC[C@@H](C)CC1=O
REMARK SMILES IDX 8 1 7 2 6 3 5 4 4 5 10 6 11 7 9 8 2 9 1 10 3 11
REMARK H PARENT
REMARK Flexibility Score: inf
ROOT
ATOM      1  C   UNL     1     -16.976  29.761  -3.903  1.00  0.00     0.008 C 
ATOM      2  C   UNL     1     -16.846  31.013  -3.021  1.00  0.00    -0.007 C 
ATOM      3  C   UNL     1     -17.496  30.810  -1.634  1.00  0.00     0.004 C 
ATOM      4  C   UNL     1     -19.038  30.783  -1.685  1.00  0.00     0.012 C 
ATOM      5  C   UNL     1     -19.615  32.051  -2.361  1.00  0.00     0.058 C 
ATOM      6  C   UNL     1     -18.923  32.210  -3.702  1.00  0.00     0.136 C 
ATOM      7  O   UNL     1     -19.543  32.209  -4.756  1.00  0.00    -0.299 OA
ATOM      8  C   UNL     1     -17.422  32.259  -3.721  1.00  0.00     0.079 C 
ENDROOT
BRANCH   5   9
ATOM      9  C   UNL     1     -21.176  32.030  -2.480  1.00  0.00    -0.007 C 
ATOM     10  C   UNL     1     -21.828  30.975  -1.567  1.00  0.00     0.008 C 
ATOM     11  C   UNL     1     -21.771  33.408  -2.136  1.00  0.00     0.008 C 
ENDBRANCH   5   9
TORSDOF 1
ENDMDL
MODEL 3
REMARK VINA RESULT:    -4.678      1.569      2.544
REMARK INTER + INTRA:          -5.108
REMARK INTER:                  -4.939
REMARK INTRA:                  -0.169
REMARK UNBOUND:                -0.156
REMARK SMILES CC(C)[C@H]1CC[C@@H](C)CC1=O
REMARK SMILES IDX 8 1 7 2 6 3 5 4 4 5 10 6 11 7 9 8 2 9 1 10 3 11
REMARK H PARENT
REMARK Flexibility Score: inf
ROOT
ATOM      1  C   UNL     1     -19.935  30.121  -3.941  1.00  0.00     0.008 C 
ATOM      2  C   UNL     1     -19.601  30.826  -2.617  1.00  0.00    -0.007 C 
ATOM      3  C   UNL     1     -20.480  30.313  -1.453  1.00  0.00     0.004 C 
ATOM      4  C   UNL     1     -21.946  30.786  -1.547  1.00  0.00     0.012 C 
ATOM      5  C   UNL     1     -22.050  32.327  -1.649  1.00  0.00     0.058 C 
ATOM      6  C   UNL     1     -21.150  32.771  -2.789  1.00  0.00     0.136 C 
ATOM      7  O   UNL     1     -21.583  33.370  -3.762  1.00  0.00    -0.299 OA
ATOM      8  C   UNL     1     -19.707  32.358  -2.751  1.00  0.00     0.079 C 
ENDROOT
BRANCH   5   9
ATOM      9  C   UNL     1     -23.522  32.837  -1.803  1.00  0.00    -0.007 C 
ATOM     10  C   UNL     1     -24.537  31.688  -1.953  1.00  0.00     0.008 C 
ATOM     11  C   UNL     1     -23.933  33.697  -0.593  1.00  0.00     0.008 C 
ENDBRANCH   5   9
TORSDOF 1
ENDMDL
MODEL 4
REMARK VINA RESULT:    -4.543      1.821      4.409
REMARK INTER + INTRA:          -4.965
REMARK INTER:                  -4.787
REMARK INTRA:                  -0.178
REMARK UNBOUND:                -0.156
REMARK SMILES CC(C)[C@H]1CC[C@@H](C)CC1=O
REMARK SMILES IDX 8 1 7 2 6 3 5 4 4 5 10 6 11 7 9 8 2 9 1 10 3 11
REMARK H PARENT
REMARK Flexibility Score: inf
ROOT
ATOM      1  C   UNL     1     -22.201  33.538  -1.681  1.00  0.00     0.008 C 
ATOM      2  C   UNL     1     -22.285  32.239  -2.499  1.00  0.00    -0.007 C 
ATOM      3  C   UNL     1     -21.667  31.042  -1.742  1.00  0.00     0.004 C 
ATOM      4  C   UNL     1     -20.128  31.106  -1.661  1.00  0.00     0.012 C 
ATOM      5  C   UNL     1     -19.480  31.239  -3.061  1.00  0.00     0.058 C 
ATOM      6  C   UNL     1     -20.144  32.412  -3.761  1.00  0.00     0.136 C 
ATOM      7  O   UNL     1     -19.508  33.386  -4.138  1.00  0.00    -0.299 OA
ATOM      8  C   UNL     1     -21.640  32.404  -3.888  1.00  0.00     0.079 C 
ENDROOT
BRANCH   5   9
ATOM      9  C   UNL     1     -17.920  31.364  -3.009  1.00  0.00    -0.007 C 
ATOM     10  C   UNL     1     -17.409  31.870  -1.649  1.00  0.00     0.008 C 
ATOM     11  C   UNL     1     -17.252  30.009  -3.309  1.00  0.00     0.008 C 
ENDBRANCH   5   9
TORSDOF 1
ENDMDL
MODEL 5
REMARK VINA RESULT:    -4.395      1.127      4.013
REMARK INTER + INTRA:          -4.808
REMARK INTER:                  -4.645
REMARK INTRA:                  -0.164
REMARK UNBOUND:                -0.156
REMARK SMILES CC(C)[C@H]1CC[C@@H](C)CC1=O
REMARK SMILES IDX 8 1 7 2 6 3 5 4 4 5 10 6 11 7 9 8 2 9 1 10 3 11
REMARK H PARENT
REMARK Flexibility Score: inf
ROOT
ATOM      1  C   UNL     1     -23.612  31.363  -3.187  1.00  0.00     0.008 C 
ATOM      2  C   UNL     1     -22.975  31.876  -1.885  1.00  0.00    -0.007 C 
ATOM      3  C   UNL     1     -22.199  33.195  -2.105  1.00  0.00     0.004 C 
ATOM      4  C   UNL     1     -20.883  33.000  -2.886  1.00  0.00     0.012 C 
ATOM      5  C   UNL     1     -19.964  31.950  -2.217  1.00  0.00     0.058 C 
ATOM      6  C   UNL     1     -20.787  30.691  -2.006  1.00  0.00     0.136 C 
ATOM      7  O   UNL     1     -20.478  29.622  -2.512  1.00  0.00    -0.299 OA
ATOM      8  C   UNL     1     -22.072  30.808  -1.240  1.00  0.00     0.079 C 
ENDROOT
BRANCH   5   9
ATOM      9  C   UNL     1     -18.644  31.687  -3.017  1.00  0.00    -0.007 C 
ATOM     10  C   UNL     1     -18.484  32.626  -4.226  1.00  0.00     0.008 C 
ATOM     11  C   UNL     1     -17.411  31.849  -2.107  1.00  0.00     0.008 C 
ENDBRANCH   5   9
TORSDOF 1
ENDMDL
MODEL 6
REMARK VINA RESULT:    -4.210      2.773      5.342
REMARK INTER + INTRA:          -4.613
REMARK INTER:                  -4.455
REMARK INTRA:                  -0.157
REMARK UNBOUND:                -0.156
REMARK SMILES CC(C)[C@H]1CC[C@@H](C)CC1=O
REMARK SMILES IDX 8 1 7 2 6 3 5 4 4 5 10 6 11 7 9 8 2 9 1 10 3 11
REMARK H PARENT
REMARK Flexibility Score: inf
ROOT
ATOM      1  C   UNL     1     -20.261  30.586  -2.484  1.00  0.00     0.008 C 
ATOM      2  C   UNL     1     -19.642  31.982  -2.311  1.00  0.00    -0.007 C 
ATOM      3  C   UNL     1     -19.884  32.877  -3.548  1.00  0.00     0.004 C 
ATOM      4  C   UNL     1     -19.047  32.458  -4.773  1.00  0.00     0.012 C 
ATOM      5  C   UNL     1     -17.534  32.403  -4.448  1.00  0.00     0.058 C 
ATOM      6  C   UNL     1     -17.363  31.533  -3.215  1.00  0.00     0.136 C 
ATOM      7  O   UNL     1     -16.690  30.513  -3.230  1.00  0.00    -0.299 OA
ATOM      8  C   UNL     1     -18.139  31.896  -1.982  1.00  0.00     0.079 C 
ENDROOT
BRANCH   5   9
ATOM      9  C   UNL     1     -16.660  31.926  -5.656  1.00  0.00    -0.007 C 
ATOM     10  C   UNL     1     -17.403  32.019  -7.001  1.00  0.00     0.008 C 
ATOM     11  C   UNL     1     -15.364  32.752  -5.755  1.00  0.00     0.008 C 
ENDBRANCH   5   9
TORSDOF 1
ENDMDL
MODEL 7
REMARK VINA RESULT:    -3.904      2.259      3.466
REMARK INTER + INTRA:          -4.288
REMARK INTER:                  -4.115
REMARK INTRA:                  -0.173
REMARK UNBOUND:                -0.156
REMARK SMILES CC(C)[C@H]1CC[C@@H](C)CC1=O
REMARK SMILES IDX 8 1 7 2 6 3 5 4 4 5 10 6 11 7 9 8 2 9 1 10 3 11
REMARK H PARENT
REMARK Flexibility Score: inf
ROOT
ATOM      1  C   UNL     1     -16.334  31.921  -4.983  1.00  0.00     0.008 C 
ATOM      2  C   UNL     1     -16.599  30.495  -4.474  1.00  0.00    -0.007 C 
ATOM      3  C   UNL     1     -17.993  29.981  -4.902  1.00  0.00     0.004 C 
ATOM      4  C   UNL     1     -19.150  30.663  -4.143  1.00  0.00     0.012 C 
ATOM      5  C   UNL     1     -18.988  30.537  -2.609  1.00  0.00     0.058 C 
ATOM      6  C   UNL     1     -17.597  31.032  -2.254  1.00  0.00     0.136 C 
ATOM      7  O   UNL     1     -17.418  31.977  -1.499  1.00  0.00    -0.299 OA
ATOM      8  C   UNL     1     -16.424  30.400  -2.946  1.00  0.00     0.079 C 
ENDROOT
BRANCH   5   9
ATOM      9  C   UNL     1     -20.117  31.268  -1.807  1.00  0.00    -0.007 C 
ATOM     10  C   UNL     1     -20.735  32.442  -2.588  1.00  0.00     0.008 C 
ATOM     11  C   UNL     1     -21.242  30.287  -1.428  1.00  0.00     0.008 C 
ENDBRANCH   5   9
TORSDOF 1
ENDMDL
MODEL 8
REMARK VINA RESULT:    -3.881      2.275      5.055
REMARK INTER + INTRA:          -4.264
REMARK INTER:                  -4.086
REMARK INTRA:                  -0.178
REMARK UNBOUND:                -0.156
REMARK SMILES CC(C)[C@H]1CC[C@@H](C)CC1=O
REMARK SMILES IDX 8 1 7 2 6 3 5 4 4 5 10 6 11 7 9 8 2 9 1 10 3 11
REMARK H PARENT
REMARK Flexibility Score: inf
ROOT
ATOM      1  C   UNL     1     -20.942  30.190  -1.535  1.00  0.00     0.008 C 
ATOM      2  C   UNL     1     -20.953  31.211  -2.684  1.00  0.00    -0.007 C 
ATOM      3  C   UNL     1     -20.573  30.562  -4.035  1.00  0.00     0.004 C 
ATOM      4  C   UNL     1     -19.077  30.196  -4.131  1.00  0.00     0.012 C 
ATOM      5  C   UNL     1     -18.165  31.416  -3.854  1.00  0.00     0.058 C 
ATOM      6  C   UNL     1     -18.602  32.023  -2.532  1.00  0.00     0.136 C 
ATOM      7  O   UNL     1     -17.843  32.114  -1.579  1.00  0.00    -0.299 OA
ATOM      8  C   UNL     1     -20.043  32.415  -2.378  1.00  0.00     0.079 C 
ENDROOT
BRANCH   5   9
ATOM      9  C   UNL     1     -16.640  31.066  -3.888  1.00  0.00    -0.007 C 
ATOM     10  C   UNL     1     -16.365  29.575  -3.619  1.00  0.00     0.008 C 
ATOM     11  C   UNL     1     -16.022  31.438  -5.250  1.00  0.00     0.008 C 
ENDBRANCH   5   9
TORSDOF 1
ENDMDL
MODEL 9
REMARK VINA RESULT:    -3.795      2.768      5.336
REMARK INTER + INTRA:          -4.173
REMARK INTER:                  -4.018
REMARK INTRA:                  -0.154
REMARK UNBOUND:                -0.156
REMARK SMILES CC(C)[C@H]1CC[C@@H](C)CC1=O
REMARK SMILES IDX 8 1 7 2 6 3 5 4 4 5 10 6 11 7 9 8 2 9 1 10 3 11
REMARK H PARENT
REMARK Flexibility Score: inf
ROOT
ATOM      1  C   UNL     1     -20.434  32.822  -2.668  1.00  0.00     0.008 C 
ATOM      2  C   UNL     1     -19.644  31.547  -2.334  1.00  0.00    -0.007 C 
ATOM      3  C   UNL     1     -18.144  31.843  -2.102  1.00  0.00     0.004 C 
ATOM      4  C   UNL     1     -17.387  32.191  -3.401  1.00  0.00     0.012 C 
ATOM      5  C   UNL     1     -17.549  31.089  -4.476  1.00  0.00     0.058 C 
ATOM      6  C   UNL     1     -19.036  30.826  -4.641  1.00  0.00     0.136 C 
ATOM      7  O   UNL     1     -19.608  30.984  -5.710  1.00  0.00    -0.299 OA
ATOM      8  C   UNL     1     -19.829  30.468  -3.418  1.00  0.00     0.079 C 
ENDROOT
BRANCH   5   9
ATOM      9  C   UNL     1     -16.839  31.438  -5.827  1.00  0.00    -0.007 C 
ATOM     10  C   UNL     1     -15.747  32.511  -5.666  1.00  0.00     0.008 C 
ATOM     11  C   UNL     1     -16.202  30.182  -6.451  1.00  0.00     0.008 C 
ENDBRANCH   5   9
TORSDOF 1
ENDMDL
