MODEL 1
REMARK VINA RESULT:    -4.144      0.000      0.000
REMARK INTER + INTRA:          -5.944
REMARK INTER:                  -5.719
REMARK INTRA:                  -0.225
REMARK UNBOUND:                -0.225
REMARK SMILES CCCCCCCCO
REMARK SMILES IDX 5 1 4 2 3 3 2 4 1 5 6 6 7 7 8 8 9 9
REMARK H PARENT 9 10
REMARK Flexibility Score: inf
ROOT
ATOM      1  C   UNL     1       1.349  -1.315  14.118  1.00  0.00     0.000 C 
ENDROOT
BRANCH   1   2
ATOM      2  C   UNL     1       1.166  -0.148  15.095  1.00  0.00    -0.000 C 
BRANCH   2   3
ATOM      3  C   UNL     1      -0.066   0.691  14.725  1.00  0.00    -0.000 C 
BRANCH   3   4
ATOM      4  C   UNL     1      -0.237   0.852  13.206  1.00  0.00    -0.003 C 
ATOM      5  C   UNL     1      -0.618   2.275  12.801  1.00  0.00     0.004 C 
ENDBRANCH   3   4
ENDBRANCH   2   3
ENDBRANCH   1   2
BRANCH   1   6
ATOM      6  C   UNL     1       2.799  -1.819  14.128  1.00  0.00     0.002 C 
BRANCH   6   7
ATOM      7  C   UNL     1       3.157  -2.597  15.405  1.00  0.00     0.028 C 
BRANCH   7   8
ATOM      8  C   UNL     1       2.400  -3.926  15.547  1.00  0.00     0.156 C 
BRANCH   8   9
ATOM      9  O   UNL     1       2.380  -4.631  14.336  1.00  0.00    -0.396 OA
ATOM     10  H   UNL     1       1.450  -4.950  14.206  1.00  0.00     0.210 HD
ENDBRANCH   8   9
ENDBRANCH   7   8
ENDBRANCH   6   7
ENDBRANCH   1   6
TORSDOF 7
ENDMDL
MODEL 2
REMARK VINA RESULT:    -4.130      6.061      8.182
REMARK INTER + INTRA:          -5.924
REMARK INTER:                  -5.610
REMARK INTRA:                  -0.314
REMARK UNBOUND:                -0.225
REMARK SMILES CCCCCCCCO
REMARK SMILES IDX 5 1 4 2 3 3 2 4 1 5 6 6 7 7 8 8 9 9
REMARK H PARENT 9 10
REMARK Flexibility Score: inf
ROOT
ATOM      1  C   UNL     1       2.150   4.317  10.105  1.00  0.00     0.000 C 
ENDROOT
BRANCH   1   2
ATOM      2  C   UNL     1       0.871   3.611  10.571  1.00  0.00    -0.000 C 
BRANCH   2   3
ATOM      3  C   UNL     1       0.243   4.343  11.767  1.00  0.00    -0.000 C 
BRANCH   3   4
ATOM      4  C   UNL     1      -0.763   3.469  12.532  1.00  0.00    -0.003 C 
ATOM      5  C   UNL     1      -0.344   2.002  12.594  1.00  0.00     0.004 C 
ENDBRANCH   3   4
ENDBRANCH   2   3
ENDBRANCH   1   2
BRANCH   1   6
ATOM      6  C   UNL     1       2.779   5.128  11.247  1.00  0.00     0.002 C 
BRANCH   6   7
ATOM      7  C   UNL     1       3.194   6.546  10.819  1.00  0.00     0.028 C 
BRANCH   7   8
ATOM      8  C   UNL     1       2.014   7.523  10.704  1.00  0.00     0.156 C 
BRANCH   8   9
ATOM      9  O   UNL     1       1.881   8.297  11.864  1.00  0.00    -0.396 OA
ATOM     10  H   UNL     1       2.486   9.077  11.759  1.00  0.00     0.210 HD
ENDBRANCH   8   9
ENDBRANCH   7   8
ENDBRANCH   6   7
ENDBRANCH   1   6
TORSDOF 7
ENDMDL
MODEL 3
REMARK VINA RESULT:    -4.116      7.129      8.522
REMARK INTER + INTRA:          -5.906
REMARK INTER:                  -5.410
REMARK INTRA:                  -0.496
REMARK UNBOUND:                -0.225
REMARK SMILES CCCCCCCCO
REMARK SMILES IDX 5 1 4 2 3 3 2 4 1 5 6 6 7 7 8 8 9 9
REMARK H PARENT 9 10
REMARK Flexibility Score: inf
ROOT
ATOM      1  C   UNL     1       1.295   3.877  10.818  1.00  0.00     0.000 C 
ENDROOT
BRANCH   1   2
ATOM      2  C   UNL     1       2.556   4.551  10.266  1.00  0.00    -0.000 C 
BRANCH   2   3
ATOM      3  C   UNL     1       3.266   5.367  11.357  1.00  0.00    -0.000 C 
BRANCH   3   4
ATOM      4  C   UNL     1       2.454   6.595  11.799  1.00  0.00    -0.003 C 
ATOM      5  C   UNL     1       2.246   7.604  10.671  1.00  0.00     0.004 C 
ENDBRANCH   3   4
ENDBRANCH   2   3
ENDBRANCH   1   2
BRANCH   1   6
ATOM      6  C   UNL     1       0.068   4.218   9.961  1.00  0.00     0.002 C 
BRANCH   6   7
ATOM      7  C   UNL     1       0.431   4.933   8.649  1.00  0.00     0.028 C 
BRANCH   7   8
ATOM      8  C   UNL     1       0.150   4.094   7.393  1.00  0.00     0.156 C 
BRANCH   8   9
ATOM      9  O   UNL     1       1.309   3.929   6.623  1.00  0.00    -0.396 OA
ATOM     10  H   UNL     1       1.014   3.811   5.683  1.00  0.00     0.210 HD
ENDBRANCH   8   9
ENDBRANCH   7   8
ENDBRANCH   6   7
ENDBRANCH   1   6
TORSDOF 7
ENDMDL
MODEL 4
REMARK VINA RESULT:    -4.098      6.922      8.102
REMARK INTER + INTRA:          -5.881
REMARK INTER:                  -5.536
REMARK INTRA:                  -0.344
REMARK UNBOUND:                -0.225
REMARK SMILES CCCCCCCCO
REMARK SMILES IDX 5 1 4 2 3 3 2 4 1 5 6 6 7 7 8 8 9 9
REMARK H PARENT 9 10
REMARK Flexibility Score: inf
ROOT
ATOM      1  C   UNL     1       0.942   3.472  10.508  1.00  0.00     0.000 C 
ENDROOT
BRANCH   1   2
ATOM      2  C   UNL     1       1.413   4.750   9.804  1.00  0.00    -0.000 C 
BRANCH   2   3
ATOM      3  C   UNL     1       2.932   4.928   9.944  1.00  0.00    -0.000 C 
BRANCH   3   4
ATOM      4  C   UNL     1       3.339   5.462  11.326  1.00  0.00    -0.003 C 
ATOM      5  C   UNL     1       2.400   6.552  11.839  1.00  0.00     0.004 C 
ENDBRANCH   3   4
ENDBRANCH   2   3
ENDBRANCH   1   2
BRANCH   1   6
ATOM      6  C   UNL     1      -0.209   3.771  11.480  1.00  0.00     0.002 C 
BRANCH   6   7
ATOM      7  C   UNL     1      -1.339   4.593  10.838  1.00  0.00     0.028 C 
BRANCH   7   8
ATOM      8  C   UNL     1      -2.743   4.045  11.136  1.00  0.00     0.156 C 
BRANCH   8   9
ATOM      9  O   UNL     1      -3.604   5.064  11.565  1.00  0.00    -0.396 OA
ATOM     10  H   UNL     1      -3.463   5.166  12.542  1.00  0.00     0.210 HD
ENDBRANCH   8   9
ENDBRANCH   7   8
ENDBRANCH   6   7
ENDBRANCH   1   6
TORSDOF 7
ENDMDL
MODEL 5
REMARK VINA RESULT:    -4.090      6.990      8.193
REMARK INTER + INTRA:          -5.870
REMARK INTER:                  -5.450
REMARK INTRA:                  -0.419
REMARK UNBOUND:                -0.225
REMARK SMILES CCCCCCCCO
REMARK SMILES IDX 5 1 4 2 3 3 2 4 1 5 6 6 7 7 8 8 9 9
REMARK H PARENT 9 10
REMARK Flexibility Score: inf
ROOT
ATOM      1  C   UNL     1       1.598   3.904  10.828  1.00  0.00     0.000 C 
ENDROOT
BRANCH   1   2
ATOM      2  C   UNL     1       2.655   4.775  10.138  1.00  0.00    -0.000 C 
BRANCH   2   3
ATOM      3  C   UNL     1       3.357   5.693  11.150  1.00  0.00    -0.000 C 
BRANCH   3   4
ATOM      4  C   UNL     1       2.409   6.743  11.752  1.00  0.00    -0.003 C 
ATOM      5  C   UNL     1       1.922   7.760  10.722  1.00  0.00     0.004 C 
ENDBRANCH   3   4
ENDBRANCH   2   3
ENDBRANCH   1   2
BRANCH   1   6
ATOM      6  C   UNL     1       0.286   3.896  10.031  1.00  0.00     0.002 C 
BRANCH   6   7
ATOM      7  C   UNL     1      -0.736   4.924  10.545  1.00  0.00     0.028 C 
BRANCH   7   8
ATOM      8  C   UNL     1      -2.183   4.408  10.535  1.00  0.00     0.156 C 
BRANCH   8   9
ATOM      9  O   UNL     1      -2.730   4.407  11.825  1.00  0.00    -0.396 OA
ATOM     10  H   UNL     1      -2.402   3.585  12.274  1.00  0.00     0.210 HD
ENDBRANCH   8   9
ENDBRANCH   7   8
ENDBRANCH   6   7
ENDBRANCH   1   6
TORSDOF 7
ENDMDL
MODEL 6
REMARK VINA RESULT:    -4.052      2.413      4.971
REMARK INTER + INTRA:          -5.817
REMARK INTER:                  -5.601
REMARK INTRA:                  -0.217
REMARK UNBOUND:                -0.225
REMARK SMILES CCCCCCCCO
REMARK SMILES IDX 5 1 4 2 3 3 2 4 1 5 6 6 7 7 8 8 9 9
REMARK H PARENT 9 10
REMARK Flexibility Score: inf
ROOT
ATOM      1  C   UNL     1       0.570  -0.683  14.111  1.00  0.00     0.000 C 
ENDROOT
BRANCH   1   2
ATOM      2  C   UNL     1       1.645  -0.481  15.185  1.00  0.00    -0.000 C 
BRANCH   2   3
ATOM      3  C   UNL     1       2.978  -1.113  14.755  1.00  0.00    -0.000 C 
BRANCH   3   4
ATOM      4  C   UNL     1       2.796  -2.499  14.116  1.00  0.00    -0.003 C 
ATOM      5  C   UNL     1       2.557  -3.599  15.149  1.00  0.00     0.004 C 
ENDBRANCH   3   4
ENDBRANCH   2   3
ENDBRANCH   1   2
BRANCH   1   6
ATOM      6  C   UNL     1       0.076   0.664  13.566  1.00  0.00     0.002 C 
BRANCH   6   7
ATOM      7  C   UNL     1      -1.193   0.536  12.707  1.00  0.00     0.028 C 
BRANCH   7   8
ATOM      8  C   UNL     1      -2.456   0.215  13.521  1.00  0.00     0.156 C 
BRANCH   8   9
ATOM      9  O   UNL     1      -2.949  -1.059  13.211  1.00  0.00    -0.396 OA
ATOM     10  H   UNL     1      -3.842  -1.131  13.637  1.00  0.00     0.210 HD
ENDBRANCH   8   9
ENDBRANCH   7   8
ENDBRANCH   6   7
ENDBRANCH   1   6
TORSDOF 7
ENDMDL
MODEL 7
REMARK VINA RESULT:    -4.013      2.940      4.759
REMARK INTER + INTRA:          -5.764
REMARK INTER:                  -5.306
REMARK INTRA:                  -0.458
REMARK UNBOUND:                -0.225
REMARK SMILES CCCCCCCCO
REMARK SMILES IDX 5 1 4 2 3 3 2 4 1 5 6 6 7 7 8 8 9 9
REMARK H PARENT 9 10
REMARK Flexibility Score: inf
ROOT
ATOM      1  C   UNL     1       0.843  -0.949  14.186  1.00  0.00     0.000 C 
ENDROOT
BRANCH   1   2
ATOM      2  C   UNL     1       2.181  -0.619  14.858  1.00  0.00    -0.000 C 
BRANCH   2   3
ATOM      3  C   UNL     1       3.257  -1.646  14.476  1.00  0.00    -0.000 C 
BRANCH   3   4
ATOM      4  C   UNL     1       2.722  -3.087  14.469  1.00  0.00    -0.003 C 
ATOM      5  C   UNL     1       2.787  -3.748  15.845  1.00  0.00     0.004 C 
ENDBRANCH   3   4
ENDBRANCH   2   3
ENDBRANCH   1   2
BRANCH   1   6
ATOM      6  C   UNL     1      -0.315  -0.858  15.190  1.00  0.00     0.002 C 
BRANCH   6   7
ATOM      7  C   UNL     1       0.125  -1.121  16.640  1.00  0.00     0.028 C 
BRANCH   7   8
ATOM      8  C   UNL     1      -0.883  -0.624  17.687  1.00  0.00     0.156 C 
BRANCH   8   9
ATOM      9  O   UNL     1      -0.913   0.777  17.738  1.00  0.00    -0.396 OA
ATOM     10  H   UNL     1      -0.079   1.064  18.193  1.00  0.00     0.210 HD
ENDBRANCH   8   9
ENDBRANCH   7   8
ENDBRANCH   6   7
ENDBRANCH   1   6
TORSDOF 7
ENDMDL
MODEL 8
REMARK VINA RESULT:    -3.847      4.113      6.028
REMARK INTER + INTRA:          -5.534
REMARK INTER:                  -5.294
REMARK INTRA:                  -0.240
REMARK UNBOUND:                -0.225
REMARK SMILES CCCCCCCCO
REMARK SMILES IDX 5 1 4 2 3 3 2 4 1 5 6 6 7 7 8 8 9 9
REMARK H PARENT 9 10
REMARK Flexibility Score: inf
ROOT
ATOM      1  C   UNL     1      -0.125   4.086  11.973  1.00  0.00     0.000 C 
ENDROOT
BRANCH   1   2
ATOM      2  C   UNL     1       0.567   4.912  10.882  1.00  0.00    -0.000 C 
BRANCH   2   3
ATOM      3  C   UNL     1       1.964   4.353  10.572  1.00  0.00    -0.000 C 
BRANCH   3   4
ATOM      4  C   UNL     1       3.088   5.187  11.208  1.00  0.00    -0.003 C 
ATOM      5  C   UNL     1       2.626   6.582  11.625  1.00  0.00     0.004 C 
ENDBRANCH   3   4
ENDBRANCH   2   3
ENDBRANCH   1   2
BRANCH   1   6
ATOM      6  C   UNL     1       0.062   2.582  11.726  1.00  0.00     0.002 C 
BRANCH   6   7
ATOM      7  C   UNL     1      -0.630   1.709  12.787  1.00  0.00     0.028 C 
BRANCH   7   8
ATOM      8  C   UNL     1      -0.651   0.214  12.433  1.00  0.00     0.156 C 
BRANCH   8   9
ATOM      9  O   UNL     1      -1.922  -0.339  12.644  1.00  0.00    -0.396 OA
ATOM     10  H   UNL     1      -2.215  -0.720  11.776  1.00  0.00     0.210 HD
ENDBRANCH   8   9
ENDBRANCH   7   8
ENDBRANCH   6   7
ENDBRANCH   1   6
TORSDOF 7
ENDMDL
MODEL 9
REMARK VINA RESULT:    -3.776      7.070      8.472
REMARK INTER + INTRA:          -5.436
REMARK INTER:                  -5.041
REMARK INTRA:                  -0.395
REMARK UNBOUND:                -0.225
REMARK SMILES CCCCCCCCO
REMARK SMILES IDX 5 1 4 2 3 3 2 4 1 5 6 6 7 7 8 8 9 9
REMARK H PARENT 9 10
REMARK Flexibility Score: inf
ROOT
ATOM      1  C   UNL     1       1.181   4.945  11.660  1.00  0.00     0.000 C 
ENDROOT
BRANCH   1   2
ATOM      2  C   UNL     1       0.514   3.578  11.467  1.00  0.00    -0.000 C 
BRANCH   2   3
ATOM      3  C   UNL     1       0.496   3.179   9.984  1.00  0.00    -0.000 C 
BRANCH   3   4
ATOM      4  C   UNL     1      -0.347   4.135   9.125  1.00  0.00    -0.003 C 
ATOM      5  C   UNL     1       0.283   4.417   7.762  1.00  0.00     0.004 C 
ENDBRANCH   3   4
ENDBRANCH   2   3
ENDBRANCH   1   2
BRANCH   1   6
ATOM      6  C   UNL     1       2.619   4.938  11.121  1.00  0.00     0.002 C 
BRANCH   6   7
ATOM      7  C   UNL     1       3.145   6.345  10.794  1.00  0.00     0.028 C 
BRANCH   7   8
ATOM      8  C   UNL     1       2.033   7.367  10.512  1.00  0.00     0.156 C 
BRANCH   8   9
ATOM      9  O   UNL     1       1.999   8.364  11.495  1.00  0.00    -0.396 OA
ATOM     10  H   UNL     1       2.907   8.764  11.528  1.00  0.00     0.210 HD
ENDBRANCH   8   9
ENDBRANCH   7   8
ENDBRANCH   6   7
ENDBRANCH   1   6
TORSDOF 7
ENDMDL
