MODEL 1
REMARK VINA RESULT:    -3.167      0.000      0.000
REMARK INTER + INTRA:          -5.631
REMARK INTER:                  -4.833
REMARK INTRA:                  -0.798
REMARK UNBOUND:                -0.798
REMARK SMILES CCCCCCCCCCC(=O)[O-]
REMARK SMILES IDX 7 1 8 2 9 3 10 4 11 5 12 6 13 7 6 8 5 9 4 10 3 11 2 12 1 13
REMARK H PARENT
REMARK Flexibility Score: inf
ROOT
ATOM      1  C   UNL     1      -7.201  20.949  18.617  1.00  0.00     0.000 C 
ENDROOT
BRANCH   1   2
ATOM      2  C   UNL     1      -8.133  20.174  19.561  1.00  0.00     0.000 C 
BRANCH   2   3
ATOM      3  C   UNL     1      -7.941  20.564  21.035  1.00  0.00     0.006 C 
BRANCH   3   4
ATOM      4  C   UNL     1      -8.869  21.705  21.469  1.00  0.00     0.053 C 
BRANCH   4   5
ATOM      5  C   UNL     1      -8.070  22.884  21.928  1.00  0.00     0.041 C 
ATOM      6  O   UNL     1      -7.863  23.069  23.156  1.00  0.00    -0.550 OA
ATOM      7  O   UNL     1      -7.595  23.805  21.003  1.00  0.00    -0.550 OA
ENDBRANCH   4   5
ENDBRANCH   3   4
ENDBRANCH   2   3
ENDBRANCH   1   2
BRANCH   1   8
ATOM      8  C   UNL     1      -8.007  21.766  17.600  1.00  0.00     0.000 C 
BRANCH   8   9
ATOM      9  C   UNL     1      -8.775  20.850  16.640  1.00  0.00    -0.000 C 
BRANCH   9  10
ATOM     10  C   UNL     1      -7.828  20.209  15.615  1.00  0.00    -0.000 C 
BRANCH  10  11
ATOM     11  C   UNL     1      -7.179  21.243  14.681  1.00  0.00    -0.000 C 
BRANCH  11  12
ATOM     12  C   UNL     1      -5.702  20.935  14.394  1.00  0.00    -0.003 C 
ATOM     13  C   UNL     1      -4.973  20.512  15.667  1.00  0.00     0.004 C 
ENDBRANCH  11  12
ENDBRANCH  10  11
ENDBRANCH   9  10
ENDBRANCH   8   9
ENDBRANCH   1   8
TORSDOF 9
ENDMDL
MODEL 2
REMARK VINA RESULT:    -3.001      3.151      5.562
REMARK INTER + INTRA:          -5.378
REMARK INTER:                  -4.496
REMARK INTRA:                  -0.882
REMARK UNBOUND:                -0.798
REMARK SMILES CCCCCCCCCCC(=O)[O-]
REMARK SMILES IDX 7 1 8 2 9 3 10 4 11 5 12 6 13 7 6 8 5 9 4 10 3 11 2 12 1 13
REMARK H PARENT
REMARK Flexibility Score: inf
ROOT
ATOM      1  C   UNL     1      -6.769  21.585  15.142  1.00  0.00     0.000 C 
ENDROOT
BRANCH   1   2
ATOM      2  C   UNL     1      -5.380  20.994  14.858  1.00  0.00     0.000 C 
BRANCH   2   3
ATOM      3  C   UNL     1      -4.779  20.281  16.080  1.00  0.00     0.006 C 
BRANCH   3   4
ATOM      4  C   UNL     1      -3.303  19.913  15.881  1.00  0.00     0.053 C 
BRANCH   4   5
ATOM      5  C   UNL     1      -2.568  19.981  17.182  1.00  0.00     0.041 C 
ATOM      6  O   UNL     1      -3.197  20.178  18.255  1.00  0.00    -0.550 OA
ATOM      7  O   UNL     1      -1.184  19.876  17.205  1.00  0.00    -0.550 OA
ENDBRANCH   4   5
ENDBRANCH   3   4
ENDBRANCH   2   3
ENDBRANCH   1   2
BRANCH   1   8
ATOM      8  C   UNL     1      -7.857  20.510  15.027  1.00  0.00     0.000 C 
BRANCH   8   9
ATOM      9  C   UNL     1      -8.558  20.288  16.374  1.00  0.00    -0.000 C 
BRANCH   9  10
ATOM     10  C   UNL     1      -8.765  21.620  17.111  1.00  0.00    -0.000 C 
BRANCH  10  11
ATOM     11  C   UNL     1      -8.491  21.511  18.620  1.00  0.00    -0.000 C 
BRANCH  11  12
ATOM     12  C   UNL     1      -7.496  20.391  18.959  1.00  0.00    -0.003 C 
ATOM     13  C   UNL     1      -6.232  20.957  19.604  1.00  0.00     0.004 C 
ENDBRANCH  11  12
ENDBRANCH  10  11
ENDBRANCH   9  10
ENDBRANCH   8   9
ENDBRANCH   1   8
TORSDOF 9
ENDMDL
MODEL 3
REMARK VINA RESULT:    -2.904      1.188      2.053
REMARK INTER + INTRA:          -5.230
REMARK INTER:                  -4.641
REMARK INTRA:                  -0.589
REMARK UNBOUND:                -0.798
REMARK SMILES CCCCCCCCCCC(=O)[O-]
REMARK SMILES IDX 7 1 8 2 9 3 10 4 11 5 12 6 13 7 6 8 5 9 4 10 3 11 2 12 1 13
REMARK H PARENT
REMARK Flexibility Score: inf
ROOT
ATOM      1  C   UNL     1      -8.078  22.308  17.529  1.00  0.00     0.000 C 
ENDROOT
BRANCH   1   2
ATOM      2  C   UNL     1      -9.112  21.969  18.614  1.00  0.00     0.000 C 
BRANCH   2   3
ATOM      3  C   UNL     1      -8.572  20.978  19.657  1.00  0.00     0.006 C 
BRANCH   3   4
ATOM      4  C   UNL     1      -7.480  21.591  20.543  1.00  0.00     0.053 C 
BRANCH   4   5
ATOM      5  C   UNL     1      -8.002  22.801  21.253  1.00  0.00     0.041 C 
ATOM      6  O   UNL     1      -7.479  23.928  21.050  1.00  0.00    -0.550 OA
ATOM      7  O   UNL     1      -9.032  22.676  22.176  1.00  0.00    -0.550 OA
ENDBRANCH   4   5
ENDBRANCH   3   4
ENDBRANCH   2   3
ENDBRANCH   1   2
BRANCH   1   8
ATOM      8  C   UNL     1      -8.209  21.360  16.331  1.00  0.00     0.000 C 
BRANCH   8   9
ATOM      9  C   UNL     1      -6.909  20.581  16.099  1.00  0.00    -0.000 C 
BRANCH   9  10
ATOM     10  C   UNL     1      -6.059  21.242  15.003  1.00  0.00    -0.000 C 
BRANCH  10  11
ATOM     11  C   UNL     1      -4.589  20.796  15.043  1.00  0.00    -0.000 C 
BRANCH  11  12
ATOM     12  C   UNL     1      -4.218  20.103  16.362  1.00  0.00    -0.003 C 
ATOM     13  C   UNL     1      -2.720  20.211  16.636  1.00  0.00     0.004 C 
ENDBRANCH  11  12
ENDBRANCH  10  11
ENDBRANCH   9  10
ENDBRANCH   8   9
ENDBRANCH   1   8
TORSDOF 9
ENDMDL
MODEL 4
REMARK VINA RESULT:    -2.823      3.322      5.856
REMARK INTER + INTRA:          -5.105
REMARK INTER:                  -4.203
REMARK INTRA:                  -0.902
REMARK UNBOUND:                -0.798
REMARK SMILES CCCCCCCCCCC(=O)[O-]
REMARK SMILES IDX 7 1 8 2 9 3 10 4 11 5 12 6 13 7 6 8 5 9 4 10 3 11 2 12 1 13
REMARK H PARENT
REMARK Flexibility Score: inf
ROOT
ATOM      1  C   UNL     1      -6.232  20.388  19.773  1.00  0.00     0.000 C 
ENDROOT
BRANCH   1   2
ATOM      2  C   UNL     1      -5.838  19.875  18.379  1.00  0.00     0.000 C 
BRANCH   2   3
ATOM      3  C   UNL     1      -7.007  19.912  17.382  1.00  0.00     0.006 C 
BRANCH   3   4
ATOM      4  C   UNL     1      -7.179  21.288  16.727  1.00  0.00     0.053 C 
BRANCH   4   5
ATOM      5  C   UNL     1      -6.769  21.236  15.288  1.00  0.00     0.041 C 
ATOM      6  O   UNL     1      -7.632  21.363  14.380  1.00  0.00    -0.550 OA
ATOM      7  O   UNL     1      -5.444  20.998  14.951  1.00  0.00    -0.550 OA
ENDBRANCH   4   5
ENDBRANCH   3   4
ENDBRANCH   2   3
ENDBRANCH   1   2
BRANCH   1   8
ATOM      8  C   UNL     1      -7.620  19.876  20.174  1.00  0.00     0.000 C 
BRANCH   8   9
ATOM      9  C   UNL     1      -7.988  20.331  21.592  1.00  0.00    -0.000 C 
BRANCH   9  10
ATOM     10  C   UNL     1      -8.767  21.654  21.559  1.00  0.00    -0.000 C 
BRANCH  10  11
ATOM     11  C   UNL     1      -7.903  22.861  21.956  1.00  0.00    -0.000 C 
BRANCH  11  12
ATOM     12  C   UNL     1      -7.641  23.812  20.779  1.00  0.00    -0.003 C 
ATOM     13  C   UNL     1      -8.465  23.413  19.557  1.00  0.00     0.004 C 
ENDBRANCH  11  12
ENDBRANCH  10  11
ENDBRANCH   9  10
ENDBRANCH   8   9
ENDBRANCH   1   8
TORSDOF 9
ENDMDL
MODEL 5
REMARK VINA RESULT:    -2.671      2.809      6.007
REMARK INTER + INTRA:          -4.873
REMARK INTER:                  -4.446
REMARK INTRA:                  -0.428
REMARK UNBOUND:                -0.798
REMARK SMILES CCCCCCCCCCC(=O)[O-]
REMARK SMILES IDX 7 1 8 2 9 3 10 4 11 5 12 6 13 7 6 8 5 9 4 10 3 11 2 12 1 13
REMARK H PARENT
REMARK Flexibility Score: inf
ROOT
ATOM      1  C   UNL     1      -8.913  20.891  15.908  1.00  0.00     0.000 C 
ENDROOT
BRANCH   1   2
ATOM      2  C   UNL     1      -7.688  20.569  15.038  1.00  0.00     0.000 C 
BRANCH   2   3
ATOM      3  C   UNL     1      -6.536  21.565  15.244  1.00  0.00     0.006 C 
BRANCH   3   4
ATOM      4  C   UNL     1      -5.171  20.972  14.872  1.00  0.00     0.053 C 
BRANCH   4   5
ATOM      5  C   UNL     1      -4.545  20.316  16.061  1.00  0.00     0.041 C 
ATOM      6  O   UNL     1      -3.332  19.978  16.032  1.00  0.00    -0.550 OA
ATOM      7  O   UNL     1      -5.312  20.032  17.184  1.00  0.00    -0.550 OA
ENDBRANCH   4   5
ENDBRANCH   3   4
ENDBRANCH   2   3
ENDBRANCH   1   2
BRANCH   1   8
ATOM      8  C   UNL     1      -8.776  20.267  17.301  1.00  0.00     0.000 C 
BRANCH   8   9
ATOM      9  C   UNL     1      -8.855  21.338  18.396  1.00  0.00    -0.000 C 
BRANCH   9  10
ATOM     10  C   UNL     1      -7.689  21.199  19.387  1.00  0.00    -0.000 C 
BRANCH  10  11
ATOM     11  C   UNL     1      -7.496  22.453  20.254  1.00  0.00    -0.000 C 
BRANCH  11  12
ATOM     12  C   UNL     1      -8.634  22.652  21.266  1.00  0.00    -0.003 C 
ATOM     13  C   UNL     1      -8.186  22.278  22.677  1.00  0.00     0.004 C 
ENDBRANCH  11  12
ENDBRANCH  10  11
ENDBRANCH   9  10
ENDBRANCH   8   9
ENDBRANCH   1   8
TORSDOF 9
ENDMDL
MODEL 6
REMARK VINA RESULT:    -2.630      3.306      6.405
REMARK INTER + INTRA:          -4.812
REMARK INTER:                  -4.326
REMARK INTRA:                  -0.486
REMARK UNBOUND:                -0.798
REMARK SMILES CCCCCCCCCCC(=O)[O-]
REMARK SMILES IDX 7 1 8 2 9 3 10 4 11 5 12 6 13 7 6 8 5 9 4 10 3 11 2 12 1 13
REMARK H PARENT
REMARK Flexibility Score: inf
ROOT
ATOM      1  C   UNL     1      -8.413  22.142  17.652  1.00  0.00     0.000 C 
ENDROOT
BRANCH   1   2
ATOM      2  C   UNL     1      -9.116  21.045  16.838  1.00  0.00     0.000 C 
BRANCH   2   3
ATOM      3  C   UNL     1      -8.330  20.645  15.580  1.00  0.00     0.006 C 
BRANCH   3   4
ATOM      4  C   UNL     1      -6.946  20.071  15.907  1.00  0.00     0.053 C 
BRANCH   4   5
ATOM      5  C   UNL     1      -5.877  20.863  15.222  1.00  0.00     0.041 C 
ATOM      6  O   UNL     1      -6.182  21.695  14.326  1.00  0.00    -0.550 OA
ATOM      7  O   UNL     1      -4.542  20.648  15.537  1.00  0.00    -0.550 OA
ENDBRANCH   4   5
ENDBRANCH   3   4
ENDBRANCH   2   3
ENDBRANCH   1   2
BRANCH   1   8
ATOM      8  C   UNL     1      -9.055  22.296  19.036  1.00  0.00     0.000 C 
BRANCH   8   9
ATOM      9  C   UNL     1      -8.585  23.585  19.721  1.00  0.00    -0.000 C 
BRANCH   9  10
ATOM     10  C   UNL     1      -7.821  23.272  21.016  1.00  0.00    -0.000 C 
BRANCH  10  11
ATOM     11  C   UNL     1      -7.993  21.813  21.468  1.00  0.00    -0.000 C 
BRANCH  11  12
ATOM     12  C   UNL     1      -8.493  21.698  22.915  1.00  0.00    -0.003 C 
ATOM     13  C   UNL     1      -8.039  22.893  23.750  1.00  0.00     0.004 C 
ENDBRANCH  11  12
ENDBRANCH  10  11
ENDBRANCH   9  10
ENDBRANCH   8   9
ENDBRANCH   1   8
TORSDOF 9
ENDMDL
MODEL 7
REMARK VINA RESULT:    -2.513      3.705      6.022
REMARK INTER + INTRA:          -4.632
REMARK INTER:                  -4.194
REMARK INTRA:                  -0.438
REMARK UNBOUND:                -0.798
REMARK SMILES CCCCCCCCCCC(=O)[O-]
REMARK SMILES IDX 7 1 8 2 9 3 10 4 11 5 12 6 13 7 6 8 5 9 4 10 3 11 2 12 1 13
REMARK H PARENT
REMARK Flexibility Score: inf
ROOT
ATOM      1  C   UNL     1      -4.138  21.139  15.535  1.00  0.00     0.000 C 
ENDROOT
BRANCH   1   2
ATOM      2  C   UNL     1      -5.260  20.943  14.506  1.00  0.00     0.000 C 
BRANCH   2   3
ATOM      3  C   UNL     1      -6.574  21.620  14.925  1.00  0.00     0.006 C 
BRANCH   3   4
ATOM      4  C   UNL     1      -7.586  20.630  15.517  1.00  0.00     0.053 C 
BRANCH   4   5
ATOM      5  C   UNL     1      -7.800  20.909  16.972  1.00  0.00     0.041 C 
ATOM      6  O   UNL     1      -8.086  22.074  17.357  1.00  0.00    -0.550 OA
ATOM      7  O   UNL     1      -7.636  19.896  17.906  1.00  0.00    -0.550 OA
ENDBRANCH   4   5
ENDBRANCH   3   4
ENDBRANCH   2   3
ENDBRANCH   1   2
BRANCH   1   8
ATOM      8  C   UNL     1      -4.064  19.950  16.501  1.00  0.00     0.000 C 
BRANCH   8   9
ATOM      9  C   UNL     1      -2.690  19.875  17.179  1.00  0.00    -0.000 C 
BRANCH   9  10
ATOM     10  C   UNL     1      -1.609  20.527  16.304  1.00  0.00    -0.000 C 
BRANCH  10  11
ATOM     11  C   UNL     1      -0.184  20.186  16.770  1.00  0.00    -0.000 C 
BRANCH  11  12
ATOM     12  C   UNL     1       0.891  20.970  16.004  1.00  0.00    -0.003 C 
ATOM     13  C   UNL     1       2.290  20.612  16.501  1.00  0.00     0.004 C 
ENDBRANCH  11  12
ENDBRANCH  10  11
ENDBRANCH   9  10
ENDBRANCH   8   9
ENDBRANCH   1   8
TORSDOF 9
ENDMDL
MODEL 8
REMARK VINA RESULT:    -2.480      6.301      8.470
REMARK INTER + INTRA:          -4.583
REMARK INTER:                  -4.219
REMARK INTRA:                  -0.364
REMARK UNBOUND:                -0.798
REMARK SMILES CCCCCCCCCCC(=O)[O-]
REMARK SMILES IDX 7 1 8 2 9 3 10 4 11 5 12 6 13 7 6 8 5 9 4 10 3 11 2 12 1 13
REMARK H PARENT
REMARK Flexibility Score: inf
ROOT
ATOM      1  C   UNL     1      -1.759  20.511  16.671  1.00  0.00     0.000 C 
ENDROOT
BRANCH   1   2
ATOM      2  C   UNL     1      -0.400  19.974  17.146  1.00  0.00     0.000 C 
BRANCH   2   3
ATOM      3  C   UNL     1       0.784  20.765  16.567  1.00  0.00     0.006 C 
BRANCH   3   4
ATOM      4  C   UNL     1       1.997  19.875  16.269  1.00  0.00     0.053 C 
BRANCH   4   5
ATOM      5  C   UNL     1       3.267  20.644  16.456  1.00  0.00     0.041 C 
ATOM      6  O   UNL     1       4.272  20.390  15.740  1.00  0.00    -0.550 OA
ATOM      7  O   UNL     1       3.357  21.606  17.453  1.00  0.00    -0.550 OA
ENDBRANCH   4   5
ENDBRANCH   3   4
ENDBRANCH   2   3
ENDBRANCH   1   2
BRANCH   1   8
ATOM      8  C   UNL     1      -2.907  19.875  17.464  1.00  0.00     0.000 C 
BRANCH   8   9
ATOM      9  C   UNL     1      -4.234  19.993  16.704  1.00  0.00    -0.000 C 
BRANCH   9  10
ATOM     10  C   UNL     1      -4.096  20.937  15.500  1.00  0.00    -0.000 C 
BRANCH  10  11
ATOM     11  C   UNL     1      -5.371  20.998  14.645  1.00  0.00    -0.000 C 
BRANCH  11  12
ATOM     12  C   UNL     1      -6.614  21.373  15.465  1.00  0.00    -0.003 C 
ATOM     13  C   UNL     1      -7.688  20.293  15.359  1.00  0.00     0.004 C 
ENDBRANCH  11  12
ENDBRANCH  10  11
ENDBRANCH   9  10
ENDBRANCH   8   9
ENDBRANCH   1   8
TORSDOF 9
ENDMDL
MODEL 9
REMARK VINA RESULT:    -2.393      3.718      5.948
REMARK INTER + INTRA:          -4.450
REMARK INTER:                  -4.118
REMARK INTRA:                  -0.331
REMARK UNBOUND:                -0.798
REMARK SMILES CCCCCCCCCCC(=O)[O-]
REMARK SMILES IDX 7 1 8 2 9 3 10 4 11 5 12 6 13 7 6 8 5 9 4 10 3 11 2 12 1 13
REMARK H PARENT
REMARK Flexibility Score: inf
ROOT
ATOM      1  C   UNL     1      -6.310  19.876  17.201  1.00  0.00     0.000 C 
ENDROOT
BRANCH   1   2
ATOM      2  C   UNL     1      -4.829  20.198  17.446  1.00  0.00     0.000 C 
BRANCH   2   3
ATOM      3  C   UNL     1      -3.957  19.960  16.203  1.00  0.00     0.006 C 
BRANCH   3   4
ATOM      4  C   UNL     1      -2.689  20.824  16.199  1.00  0.00     0.053 C 
BRANCH   4   5
ATOM      5  C   UNL     1      -1.656  20.240  17.111  1.00  0.00     0.041 C 
ATOM      6  O   UNL     1      -0.486  20.035  16.693  1.00  0.00    -0.550 OA
ATOM      7  O   UNL     1      -1.999  19.875  18.406  1.00  0.00    -0.550 OA
ENDBRANCH   4   5
ENDBRANCH   3   4
ENDBRANCH   2   3
ENDBRANCH   1   2
BRANCH   1   8
ATOM      8  C   UNL     1      -6.789  20.473  15.872  1.00  0.00     0.000 C 
BRANCH   8   9
ATOM      9  C   UNL     1      -7.538  21.792  16.098  1.00  0.00    -0.000 C 
BRANCH   9  10
ATOM     10  C   UNL     1      -8.295  21.772  17.434  1.00  0.00    -0.000 C 
BRANCH  10  11
ATOM     11  C   UNL     1      -8.748  23.172  17.880  1.00  0.00    -0.000 C 
BRANCH  11  12
ATOM     12  C   UNL     1      -8.815  23.312  19.407  1.00  0.00    -0.003 C 
ATOM     13  C   UNL     1      -8.139  22.130  20.098  1.00  0.00     0.004 C 
ENDBRANCH  11  12
ENDBRANCH  10  11
ENDBRANCH   9  10
ENDBRANCH   8   9
ENDBRANCH   1   8
TORSDOF 9
ENDMDL
