MODEL 1
REMARK VINA RESULT:    -1.617      0.000      0.000
REMARK INTER + INTRA:          -1.775
REMARK INTER:                  -1.759
REMARK INTRA:                  -0.016
REMARK UNBOUND:                -0.016
REMARK SMILES OCc1ccco1
REMARK SMILES IDX 2 1 3 2 5 3 6 4 4 5 7 6 1 7
REMARK H PARENT 1 8
REMARK Flexibility Score: inf
ROOT
ATOM      1  C   UNL     1      29.116 -10.731  17.942  1.00  0.00     0.231 C 
ENDROOT
BRANCH   1   2
ATOM      2  C   UNL     1      29.655 -10.748  16.547  1.00  0.00     0.129 A 
ATOM      3  C   UNL     1      30.985 -10.956  14.813  1.00  0.00     0.042 A 
ATOM      4  C   UNL     1      29.744 -10.483  14.434  1.00  0.00     0.195 A 
ATOM      5  C   UNL     1      30.931 -11.125  16.180  1.00  0.00     0.048 A 
ATOM      6  O   UNL     1      28.974 -10.368  15.492  1.00  0.00    -0.467 OA
ENDBRANCH   1   2
BRANCH   1   7
ATOM      7  O   UNL     1      30.171 -10.702  18.864  1.00  0.00    -0.388 OA
ATOM      8  H   UNL     1      29.940 -11.351  19.580  1.00  0.00     0.211 HD
ENDBRANCH   1   7
TORSDOF 2
ENDMDL
MODEL 2
REMARK VINA RESULT:    -1.591      1.778      2.369
REMARK INTER + INTRA:          -1.746
REMARK INTER:                  -1.733
REMARK INTRA:                  -0.013
REMARK UNBOUND:                -0.016
REMARK SMILES OCc1ccco1
REMARK SMILES IDX 2 1 3 2 5 3 6 4 4 5 7 6 1 7
REMARK H PARENT 1 8
REMARK Flexibility Score: inf
ROOT
ATOM      1  C   UNL     1      29.561  -9.871  20.128  1.00  0.00     0.231 C 
ENDROOT
BRANCH   1   2
ATOM      2  C   UNL     1      30.014 -10.201  18.742  1.00  0.00     0.129 A 
ATOM      3  C   UNL     1      31.124 -10.233  16.848  1.00  0.00     0.042 A 
ATOM      4  C   UNL     1      30.032 -11.076  16.799  1.00  0.00     0.195 A 
ATOM      5  C   UNL     1      31.113  -9.663  18.103  1.00  0.00     0.048 A 
ATOM      6  O   UNL     1      29.388 -11.033  17.943  1.00  0.00    -0.467 OA
ENDBRANCH   1   2
BRANCH   1   7
ATOM      7  O   UNL     1      30.524 -10.283  21.059  1.00  0.00    -0.388 OA
ATOM      8  H   UNL     1      30.111 -11.014  21.590  1.00  0.00     0.211 HD
ENDBRANCH   1   7
TORSDOF 2
ENDMDL
MODEL 3
REMARK VINA RESULT:    -1.576      2.011      2.707
REMARK INTER + INTRA:          -1.730
REMARK INTER:                  -1.716
REMARK INTRA:                  -0.014
REMARK UNBOUND:                -0.016
REMARK SMILES OCc1ccco1
REMARK SMILES IDX 2 1 3 2 5 3 6 4 4 5 7 6 1 7
REMARK H PARENT 1 8
REMARK Flexibility Score: inf
ROOT
ATOM      1  C   UNL     1      29.704  -9.726  20.295  1.00  0.00     0.231 C 
ENDROOT
BRANCH   1   2
ATOM      2  C   UNL     1      30.019 -10.112  18.885  1.00  0.00     0.129 A 
ATOM      3  C   UNL     1      29.935 -11.023  16.889  1.00  0.00     0.042 A 
ATOM      4  C   UNL     1      31.081 -10.269  17.044  1.00  0.00     0.195 A 
ATOM      5  C   UNL     1      29.247 -10.925  18.080  1.00  0.00     0.048 A 
ATOM      6  O   UNL     1      31.103  -9.740  18.247  1.00  0.00    -0.467 OA
ENDBRANCH   1   2
BRANCH   1   7
ATOM      7  O   UNL     1      29.665 -10.868  21.108  1.00  0.00    -0.388 OA
ATOM      8  H   UNL     1      30.173 -10.646  21.932  1.00  0.00     0.211 HD
ENDBRANCH   1   7
TORSDOF 2
ENDMDL
MODEL 4
REMARK VINA RESULT:    -1.541      1.129      1.508
REMARK INTER + INTRA:          -1.692
REMARK INTER:                  -1.671
REMARK INTRA:                  -0.021
REMARK UNBOUND:                -0.016
REMARK SMILES OCc1ccco1
REMARK SMILES IDX 2 1 3 2 5 3 6 4 4 5 7 6 1 7
REMARK H PARENT 1 8
REMARK Flexibility Score: inf
ROOT
ATOM      1  C   UNL     1      29.531 -10.143  18.376  1.00  0.00     0.231 C 
ENDROOT
BRANCH   1   2
ATOM      2  C   UNL     1      29.928 -10.438  16.965  1.00  0.00     0.129 A 
ATOM      3  C   UNL     1      29.904 -10.663  14.781  1.00  0.00     0.042 A 
ATOM      4  C   UNL     1      31.091 -11.125  15.316  1.00  0.00     0.195 A 
ATOM      5  C   UNL     1      29.149 -10.221  15.846  1.00  0.00     0.048 A 
ATOM      6  O   UNL     1      31.073 -10.980  16.622  1.00  0.00    -0.467 OA
ENDBRANCH   1   2
BRANCH   1   7
ATOM      7  O   UNL     1      30.616 -10.363  19.236  1.00  0.00    -0.388 OA
ATOM      8  H   UNL     1      30.637 -11.339  19.423  1.00  0.00     0.211 HD
ENDBRANCH   1   7
TORSDOF 2
ENDMDL
MODEL 5
REMARK VINA RESULT:    -1.380      3.603      5.792
REMARK INTER + INTRA:          -1.516
REMARK INTER:                  -1.502
REMARK INTRA:                  -0.014
REMARK UNBOUND:                -0.016
REMARK SMILES OCc1ccco1
REMARK SMILES IDX 2 1 3 2 5 3 6 4 4 5 7 6 1 7
REMARK H PARENT 1 8
REMARK Flexibility Score: inf
ROOT
ATOM      1  C   UNL     1      29.741  -9.600  19.442  1.00  0.00     0.231 C 
ENDROOT
BRANCH   1   2
ATOM      2  C   UNL     1      30.016 -10.015  20.852  1.00  0.00     0.129 A 
ATOM      3  C   UNL     1      29.809 -10.840  22.876  1.00  0.00     0.042 A 
ATOM      4  C   UNL     1      31.033 -10.222  22.714  1.00  0.00     0.195 A 
ATOM      5  C   UNL     1      29.149 -10.705  21.674  1.00  0.00     0.048 A 
ATOM      6  O   UNL     1      31.125  -9.736  21.497  1.00  0.00    -0.467 OA
ENDBRANCH   1   2
BRANCH   1   7
ATOM      7  O   UNL     1      30.531 -10.347  18.558  1.00  0.00    -0.388 OA
ATOM      8  H   UNL     1      29.924 -10.676  17.844  1.00  0.00     0.211 HD
ENDBRANCH   1   7
TORSDOF 2
ENDMDL
MODEL 6
REMARK VINA RESULT:    -1.346      1.572      3.459
REMARK INTER + INTRA:          -1.479
REMARK INTER:                  -1.458
REMARK INTRA:                  -0.022
REMARK UNBOUND:                -0.016
REMARK SMILES OCc1ccco1
REMARK SMILES IDX 2 1 3 2 5 3 6 4 4 5 7 6 1 7
REMARK H PARENT 1 8
REMARK Flexibility Score: inf
ROOT
ATOM      1  C   UNL     1      29.925 -11.118  15.864  1.00  0.00     0.231 C 
ENDROOT
BRANCH   1   2
ATOM      2  C   UNL     1      30.049 -10.593  17.258  1.00  0.00     0.129 A 
ATOM      3  C   UNL     1      29.614 -10.024  19.335  1.00  0.00     0.042 A 
ATOM      4  C   UNL     1      30.884  -9.625  18.965  1.00  0.00     0.195 A 
ATOM      5  C   UNL     1      29.072 -10.648  18.231  1.00  0.00     0.048 A 
ATOM      6  O   UNL     1      31.112  -9.976  17.719  1.00  0.00    -0.467 OA
ENDBRANCH   1   2
BRANCH   1   7
ATOM      7  O   UNL     1      31.125 -10.919  15.167  1.00  0.00    -0.388 OA
ATOM      8  H   UNL     1      31.659 -10.272  15.700  1.00  0.00     0.211 HD
ENDBRANCH   1   7
TORSDOF 2
ENDMDL
MODEL 7
REMARK VINA RESULT:    -1.319      4.549      6.594
REMARK INTER + INTRA:          -1.451
REMARK INTER:                  -1.437
REMARK INTRA:                  -0.014
REMARK UNBOUND:                -0.016
REMARK SMILES OCc1ccco1
REMARK SMILES IDX 2 1 3 2 5 3 6 4 4 5 7 6 1 7
REMARK H PARENT 1 8
REMARK Flexibility Score: inf
ROOT
ATOM      1  C   UNL     1      29.308 -10.317  20.588  1.00  0.00     0.231 C 
ENDROOT
BRANCH   1   2
ATOM      2  C   UNL     1      29.852  -9.959  21.934  1.00  0.00     0.129 A 
ATOM      3  C   UNL     1      31.125  -9.836  23.720  1.00  0.00     0.042 A 
ATOM      4  C   UNL     1      29.962  -9.110  23.886  1.00  0.00     0.195 A 
ATOM      5  C   UNL     1      31.055 -10.388  22.459  1.00  0.00     0.048 A 
ATOM      6  O   UNL     1      29.222  -9.206  22.805  1.00  0.00    -0.467 OA
ENDBRANCH   1   2
BRANCH   1   7
ATOM      7  O   UNL     1      30.346 -10.365  19.648  1.00  0.00    -0.388 OA
ATOM      8  H   UNL     1      30.216  -9.588  19.042  1.00  0.00     0.211 HD
ENDBRANCH   1   7
TORSDOF 2
ENDMDL
MODEL 8
REMARK VINA RESULT:    -1.281      1.466      3.068
REMARK INTER + INTRA:          -1.409
REMARK INTER:                  -1.391
REMARK INTRA:                  -0.018
REMARK UNBOUND:                -0.016
REMARK SMILES OCc1ccco1
REMARK SMILES IDX 2 1 3 2 5 3 6 4 4 5 7 6 1 7
REMARK H PARENT 1 8
REMARK Flexibility Score: inf
ROOT
ATOM      1  C   UNL     1      31.022 -10.402  14.732  1.00  0.00     0.231 C 
ENDROOT
BRANCH   1   2
ATOM      2  C   UNL     1      30.104 -10.484  15.909  1.00  0.00     0.129 A 
ATOM      3  C   UNL     1      29.243 -10.966  17.871  1.00  0.00     0.042 A 
ATOM      4  C   UNL     1      28.353 -10.243  17.101  1.00  0.00     0.195 A 
ATOM      5  C   UNL     1      30.376 -11.125  17.101  1.00  0.00     0.048 A 
ATOM      6  O   UNL     1      28.895  -9.973  15.935  1.00  0.00    -0.467 OA
ENDBRANCH   1   2
BRANCH   1   7
ATOM      7  O   UNL     1      30.338 -10.759  13.562  1.00  0.00    -0.388 OA
ATOM      8  H   UNL     1      30.969 -10.615  12.809  1.00  0.00     0.211 HD
ENDBRANCH   1   7
TORSDOF 2
ENDMDL
MODEL 9
REMARK VINA RESULT:    -1.267      3.019      5.223
REMARK INTER + INTRA:          -1.394
REMARK INTER:                  -1.374
REMARK INTRA:                  -0.020
REMARK UNBOUND:                -0.016
REMARK SMILES OCc1ccco1
REMARK SMILES IDX 2 1 3 2 5 3 6 4 4 5 7 6 1 7
REMARK H PARENT 1 8
REMARK Flexibility Score: inf
ROOT
ATOM      1  C   UNL     1      28.783 -10.881  18.637  1.00  0.00     0.231 C 
ENDROOT
BRANCH   1   2
ATOM      2  C   UNL     1      28.956 -10.531  20.081  1.00  0.00     0.129 A 
ATOM      3  C   UNL     1      28.603 -10.247  22.229  1.00  0.00     0.042 A 
ATOM      4  C   UNL     1      29.838  -9.754  21.858  1.00  0.00     0.195 A 
ATOM      5  C   UNL     1      28.029 -10.748  21.080  1.00  0.00     0.048 A 
ATOM      6  O   UNL     1      30.018  -9.936  20.570  1.00  0.00    -0.467 OA
ENDBRANCH   1   2
BRANCH   1   7
ATOM      7  O   UNL     1      30.031 -11.125  18.049  1.00  0.00    -0.388 OA
ATOM      8  H   UNL     1      30.244 -12.080  18.220  1.00  0.00     0.211 HD
ENDBRANCH   1   7
TORSDOF 2
ENDMDL
