MODEL 1
REMARK VINA RESULT:    -4.147      0.000      0.000
REMARK INTER + INTRA:          -9.307
REMARK INTER:                  -7.541
REMARK INTRA:                  -1.765
REMARK UNBOUND:                -1.765
REMARK SMILES CCCCCCCCCCCCCCCC(=O)[O-]
REMARK SMILES IDX 9 1 10 2 11 3 12 4 13 5 14 6 15 7 16 8 17 9 18 10 8 11 7 12
REMARK SMILES IDX 6 13 5 14 4 15 3 16 2 17 1 18
REMARK H PARENT
REMARK Flexibility Score: inf
ROOT
ATOM      1  C   UNL     1      -2.090  -4.436  -1.062  1.00  0.00     0.000 C 
ENDROOT
BRANCH   1   2
ATOM      2  C   UNL     1      -0.801  -4.557  -0.234  1.00  0.00     0.000 C 
BRANCH   2   3
ATOM      3  C   UNL     1      -1.020  -5.286   1.101  1.00  0.00     0.000 C 
BRANCH   3   4
ATOM      4  C   UNL     1      -2.389  -4.969   1.728  1.00  0.00     0.000 C 
BRANCH   4   5
ATOM      5  C   UNL     1      -2.837  -6.038   2.738  1.00  0.00     0.000 C 
BRANCH   5   6
ATOM      6  C   UNL     1      -1.872  -6.179   3.924  1.00  0.00     0.006 C 
BRANCH   6   7
ATOM      7  C   UNL     1      -1.467  -7.642   4.128  1.00  0.00     0.053 C 
BRANCH   7   8
ATOM      8  C   UNL     1       0.016  -7.760   4.282  1.00  0.00     0.041 C 
ATOM      9  O   UNL     1       0.776  -6.889   3.784  1.00  0.00    -0.550 OA
ATOM     10  O   UNL     1       0.563  -8.860   4.932  1.00  0.00    -0.550 OA
ENDBRANCH   7   8
ENDBRANCH   6   7
ENDBRANCH   5   6
ENDBRANCH   4   5
ENDBRANCH   3   4
ENDBRANCH   2   3
ENDBRANCH   1   2
BRANCH   1  11
ATOM     11  C   UNL     1      -1.946  -5.151  -2.411  1.00  0.00     0.000 C 
BRANCH  11  12
ATOM     12  C   UNL     1      -2.852  -6.390  -2.474  1.00  0.00    -0.000 C 
BRANCH  12  13
ATOM     13  C   UNL     1      -4.126  -6.238  -1.628  1.00  0.00    -0.000 C 
BRANCH  13  14
ATOM     14  C   UNL     1      -5.400  -6.608  -2.404  1.00  0.00    -0.000 C 
BRANCH  14  15
ATOM     15  C   UNL     1      -5.924  -5.407  -3.200  1.00  0.00    -0.000 C 
BRANCH  15  16
ATOM     16  C   UNL     1      -5.839  -4.117  -2.374  1.00  0.00    -0.000 C 
BRANCH  16  17
ATOM     17  C   UNL     1      -5.054  -3.035  -3.124  1.00  0.00    -0.003 C 
ATOM     18  C   UNL     1      -4.615  -3.525  -4.500  1.00  0.00     0.004 C 
ENDBRANCH  16  17
ENDBRANCH  15  16
ENDBRANCH  14  15
ENDBRANCH  13  14
ENDBRANCH  12  13
ENDBRANCH  11  12
ENDBRANCH   1  11
TORSDOF 14
ENDMDL
MODEL 2
REMARK VINA RESULT:    -4.122      3.556      4.854
REMARK INTER + INTRA:          -9.262
REMARK INTER:                  -8.136
REMARK INTRA:                  -1.126
REMARK UNBOUND:                -1.765
REMARK SMILES CCCCCCCCCCCCCCCC(=O)[O-]
REMARK SMILES IDX 9 1 10 2 11 3 12 4 13 5 14 6 15 7 16 8 17 9 18 10 8 11 7 12
REMARK SMILES IDX 6 13 5 14 4 15 3 16 2 17 1 18
REMARK H PARENT
REMARK Flexibility Score: inf
ROOT
ATOM      1  C   UNL     1      -2.045  -5.601   2.215  1.00  0.00     0.000 C 
ENDROOT
BRANCH   1   2
ATOM      2  C   UNL     1      -2.507  -6.401   3.443  1.00  0.00     0.000 C 
BRANCH   2   3
ATOM      3  C   UNL     1      -1.354  -6.733   4.403  1.00  0.00     0.000 C 
BRANCH   3   4
ATOM      4  C   UNL     1      -1.621  -6.243   5.837  1.00  0.00     0.000 C 
BRANCH   4   5
ATOM      5  C   UNL     1      -2.167  -4.807   5.878  1.00  0.00     0.000 C 
BRANCH   5   6
ATOM      6  C   UNL     1      -3.504  -4.700   6.626  1.00  0.00     0.006 C 
BRANCH   6   7
ATOM      7  C   UNL     1      -4.424  -3.673   5.957  1.00  0.00     0.053 C 
BRANCH   7   8
ATOM      8  C   UNL     1      -5.706  -3.544   6.717  1.00  0.00     0.041 C 
ATOM      9  O   UNL     1      -6.031  -4.416   7.565  1.00  0.00    -0.550 OA
ATOM     10  O   UNL     1      -6.568  -2.486   6.452  1.00  0.00    -0.550 OA
ENDBRANCH   7   8
ENDBRANCH   6   7
ENDBRANCH   5   6
ENDBRANCH   4   5
ENDBRANCH   3   4
ENDBRANCH   2   3
ENDBRANCH   1   2
BRANCH   1  11
ATOM     11  C   UNL     1      -2.767  -4.250   2.136  1.00  0.00     0.000 C 
BRANCH  11  12
ATOM     12  C   UNL     1      -3.196  -3.940   0.694  1.00  0.00    -0.000 C 
BRANCH  12  13
ATOM     13  C   UNL     1      -3.432  -5.209  -0.141  1.00  0.00    -0.000 C 
BRANCH  13  14
ATOM     14  C   UNL     1      -2.596  -5.235  -1.430  1.00  0.00    -0.000 C 
BRANCH  14  15
ATOM     15  C   UNL     1      -3.079  -6.342  -2.374  1.00  0.00    -0.000 C 
BRANCH  15  16
ATOM     16  C   UNL     1      -4.567  -6.644  -2.154  1.00  0.00    -0.000 C 
BRANCH  16  17
ATOM     17  C   UNL     1      -5.435  -5.912  -3.184  1.00  0.00    -0.003 C 
ATOM     18  C   UNL     1      -6.768  -5.485  -2.577  1.00  0.00     0.004 C 
ENDBRANCH  16  17
ENDBRANCH  15  16
ENDBRANCH  14  15
ENDBRANCH  13  14
ENDBRANCH  12  13
ENDBRANCH  11  12
ENDBRANCH   1  11
TORSDOF 14
ENDMDL
MODEL 3
REMARK VINA RESULT:    -4.113      1.666      3.312
REMARK INTER + INTRA:          -9.244
REMARK INTER:                  -8.121
REMARK INTRA:                  -1.124
REMARK UNBOUND:                -1.765
REMARK SMILES CCCCCCCCCCCCCCCC(=O)[O-]
REMARK SMILES IDX 9 1 10 2 11 3 12 4 13 5 14 6 15 7 16 8 17 9 18 10 8 11 7 12
REMARK SMILES IDX 6 13 5 14 4 15 3 16 2 17 1 18
REMARK H PARENT
REMARK Flexibility Score: inf
ROOT
ATOM      1  C   UNL     1      -0.933  -5.317   2.611  1.00  0.00     0.000 C 
ENDROOT
BRANCH   1   2
ATOM      2  C   UNL     1      -0.474  -6.766   2.840  1.00  0.00     0.000 C 
BRANCH   2   3
ATOM      3  C   UNL     1      -1.327  -7.500   3.886  1.00  0.00     0.000 C 
BRANCH   3   4
ATOM      4  C   UNL     1      -1.470  -6.702   5.194  1.00  0.00     0.000 C 
BRANCH   4   5
ATOM      5  C   UNL     1      -0.921  -7.463   6.412  1.00  0.00     0.000 C 
BRANCH   5   6
ATOM      6  C   UNL     1      -0.056  -8.669   6.020  1.00  0.00     0.006 C 
BRANCH   6   7
ATOM      7  C   UNL     1       1.355  -8.543   6.605  1.00  0.00     0.053 C 
BRANCH   7   8
ATOM      8  C   UNL     1       2.319  -8.085   5.556  1.00  0.00     0.041 C 
ATOM      9  O   UNL     1       2.232  -6.923   5.080  1.00  0.00    -0.550 OA
ATOM     10  O   UNL     1       3.283  -8.959   5.068  1.00  0.00    -0.550 OA
ENDBRANCH   7   8
ENDBRANCH   6   7
ENDBRANCH   5   6
ENDBRANCH   4   5
ENDBRANCH   3   4
ENDBRANCH   2   3
ENDBRANCH   1   2
BRANCH   1  11
ATOM     11  C   UNL     1      -1.366  -5.101   1.156  1.00  0.00     0.000 C 
BRANCH  11  12
ATOM     12  C   UNL     1      -2.892  -5.220   1.015  1.00  0.00    -0.000 C 
BRANCH  12  13
ATOM     13  C   UNL     1      -3.384  -4.894  -0.404  1.00  0.00    -0.000 C 
BRANCH  13  14
ATOM     14  C   UNL     1      -2.497  -5.511  -1.496  1.00  0.00    -0.000 C 
BRANCH  14  15
ATOM     15  C   UNL     1      -3.320  -6.408  -2.429  1.00  0.00    -0.000 C 
BRANCH  15  16
ATOM     16  C   UNL     1      -4.709  -6.689  -1.840  1.00  0.00    -0.000 C 
BRANCH  16  17
ATOM     17  C   UNL     1      -5.815  -6.235  -2.799  1.00  0.00    -0.003 C 
ATOM     18  C   UNL     1      -5.249  -5.378  -3.927  1.00  0.00     0.004 C 
ENDBRANCH  16  17
ENDBRANCH  15  16
ENDBRANCH  14  15
ENDBRANCH  13  14
ENDBRANCH  12  13
ENDBRANCH  11  12
ENDBRANCH   1  11
TORSDOF 14
ENDMDL
MODEL 4
REMARK VINA RESULT:    -4.058     12.476     14.682
REMARK INTER + INTRA:          -9.145
REMARK INTER:                  -7.618
REMARK INTRA:                  -1.527
REMARK UNBOUND:                -1.765
REMARK SMILES CCCCCCCCCCCCCCCC(=O)[O-]
REMARK SMILES IDX 9 1 10 2 11 3 12 4 13 5 14 6 15 7 16 8 17 9 18 10 8 11 7 12
REMARK SMILES IDX 6 13 5 14 4 15 3 16 2 17 1 18
REMARK H PARENT
REMARK Flexibility Score: inf
ROOT
ATOM      1  C   UNL     1       3.029   6.748  -2.463  1.00  0.00     0.000 C 
ENDROOT
BRANCH   1   2
ATOM      2  C   UNL     1       4.270   6.641  -1.563  1.00  0.00     0.000 C 
BRANCH   2   3
ATOM      3  C   UNL     1       5.560   6.387  -2.360  1.00  0.00     0.000 C 
BRANCH   3   4
ATOM      4  C   UNL     1       6.011   4.917  -2.297  1.00  0.00     0.000 C 
BRANCH   4   5
ATOM      5  C   UNL     1       5.442   4.075  -3.450  1.00  0.00     0.000 C 
BRANCH   5   6
ATOM      6  C   UNL     1       5.555   4.777  -4.812  1.00  0.00     0.006 C 
BRANCH   6   7
ATOM      7  C   UNL     1       6.647   4.130  -5.671  1.00  0.00     0.053 C 
BRANCH   7   8
ATOM      8  C   UNL     1       7.960   4.811  -5.450  1.00  0.00     0.041 C 
ATOM      9  O   UNL     1       8.356   5.699  -6.249  1.00  0.00    -0.550 OA
ATOM     10  O   UNL     1       8.773   4.427  -4.389  1.00  0.00    -0.550 OA
ENDBRANCH   7   8
ENDBRANCH   6   7
ENDBRANCH   5   6
ENDBRANCH   4   5
ENDBRANCH   3   4
ENDBRANCH   2   3
ENDBRANCH   1   2
BRANCH   1  11
ATOM     11  C   UNL     1       2.181   5.472  -2.381  1.00  0.00     0.000 C 
BRANCH  11  12
ATOM     12  C   UNL     1       2.273   4.841  -0.983  1.00  0.00    -0.000 C 
BRANCH  12  13
ATOM     13  C   UNL     1       0.984   5.018  -0.166  1.00  0.00    -0.000 C 
BRANCH  13  14
ATOM     14  C   UNL     1       1.257   5.262   1.326  1.00  0.00    -0.000 C 
BRANCH  14  15
ATOM     15  C   UNL     1       2.763   5.325   1.604  1.00  0.00    -0.000 C 
BRANCH  15  16
ATOM     16  C   UNL     1       3.045   5.933   2.984  1.00  0.00    -0.000 C 
BRANCH  16  17
ATOM     17  C   UNL     1       1.843   6.739   3.486  1.00  0.00    -0.003 C 
ATOM     18  C   UNL     1       1.539   6.424   4.948  1.00  0.00     0.004 C 
ENDBRANCH  16  17
ENDBRANCH  15  16
ENDBRANCH  14  15
ENDBRANCH  13  14
ENDBRANCH  12  13
ENDBRANCH  11  12
ENDBRANCH   1  11
TORSDOF 14
ENDMDL
MODEL 5
REMARK VINA RESULT:    -4.043      1.323      1.985
REMARK INTER + INTRA:          -9.117
REMARK INTER:                  -8.093
REMARK INTRA:                  -1.024
REMARK UNBOUND:                -1.765
REMARK SMILES CCCCCCCCCCCCCCCC(=O)[O-]
REMARK SMILES IDX 9 1 10 2 11 3 12 4 13 5 14 6 15 7 16 8 17 9 18 10 8 11 7 12
REMARK SMILES IDX 6 13 5 14 4 15 3 16 2 17 1 18
REMARK H PARENT
REMARK Flexibility Score: inf
ROOT
ATOM      1  C   UNL     1      -2.394  -4.255  -0.050  1.00  0.00     0.000 C 
ENDROOT
BRANCH   1   2
ATOM      2  C   UNL     1      -2.913  -5.200   1.044  1.00  0.00     0.000 C 
BRANCH   2   3
ATOM      3  C   UNL     1      -2.436  -4.800   2.449  1.00  0.00     0.000 C 
BRANCH   3   4
ATOM      4  C   UNL     1      -3.022  -5.701   3.550  1.00  0.00     0.000 C 
BRANCH   4   5
ATOM      5  C   UNL     1      -1.954  -6.194   4.540  1.00  0.00     0.000 C 
BRANCH   5   6
ATOM      6  C   UNL     1      -1.313  -7.522   4.111  1.00  0.00     0.006 C 
BRANCH   6   7
ATOM      7  C   UNL     1       0.216  -7.414   4.108  1.00  0.00     0.053 C 
BRANCH   7   8
ATOM      8  C   UNL     1       0.811  -8.384   5.080  1.00  0.00     0.041 C 
ATOM      9  O   UNL     1       0.135  -8.797   6.058  1.00  0.00    -0.550 OA
ATOM     10  O   UNL     1       2.131  -8.793   4.934  1.00  0.00    -0.550 OA
ENDBRANCH   7   8
ENDBRANCH   6   7
ENDBRANCH   5   6
ENDBRANCH   4   5
ENDBRANCH   3   4
ENDBRANCH   2   3
ENDBRANCH   1   2
BRANCH   1  11
ATOM     11  C   UNL     1      -1.594  -5.025  -1.108  1.00  0.00     0.000 C 
BRANCH  11  12
ATOM     12  C   UNL     1      -2.420  -5.214  -2.390  1.00  0.00    -0.000 C 
BRANCH  12  13
ATOM     13  C   UNL     1      -3.048  -6.613  -2.492  1.00  0.00    -0.000 C 
BRANCH  13  14
ATOM     14  C   UNL     1      -4.525  -6.632  -2.071  1.00  0.00    -0.000 C 
BRANCH  14  15
ATOM     15  C   UNL     1      -5.346  -5.645  -2.910  1.00  0.00    -0.000 C 
BRANCH  15  16
ATOM     16  C   UNL     1      -6.150  -4.694  -2.014  1.00  0.00    -0.000 C 
BRANCH  16  17
ATOM     17  C   UNL     1      -7.654  -4.838  -2.269  1.00  0.00    -0.003 C 
ATOM     18  C   UNL     1      -7.936  -5.177  -3.730  1.00  0.00     0.004 C 
ENDBRANCH  16  17
ENDBRANCH  15  16
ENDBRANCH  14  15
ENDBRANCH  13  14
ENDBRANCH  12  13
ENDBRANCH  11  12
ENDBRANCH   1  11
TORSDOF 14
ENDMDL
MODEL 6
REMARK VINA RESULT:    -4.035      3.975      6.517
REMARK INTER + INTRA:          -9.103
REMARK INTER:                  -7.368
REMARK INTRA:                  -1.736
REMARK UNBOUND:                -1.765
REMARK SMILES CCCCCCCCCCCCCCCC(=O)[O-]
REMARK SMILES IDX 9 1 10 2 11 3 12 4 13 5 14 6 15 7 16 8 17 9 18 10 8 11 7 12
REMARK SMILES IDX 6 13 5 14 4 15 3 16 2 17 1 18
REMARK H PARENT
REMARK Flexibility Score: inf
ROOT
ATOM      1  C   UNL     1      -0.617  -6.651   6.074  1.00  0.00     0.000 C 
ENDROOT
BRANCH   1   2
ATOM      2  C   UNL     1      -1.513  -6.772   7.317  1.00  0.00     0.000 C 
BRANCH   2   3
ATOM      3  C   UNL     1      -2.547  -5.639   7.414  1.00  0.00     0.000 C 
BRANCH   3   4
ATOM      4  C   UNL     1      -1.951  -4.265   7.062  1.00  0.00     0.000 C 
BRANCH   4   5
ATOM      5  C   UNL     1      -2.895  -3.416   6.195  1.00  0.00     0.000 C 
BRANCH   5   6
ATOM      6  C   UNL     1      -4.161  -4.177   5.773  1.00  0.00     0.006 C 
BRANCH   6   7
ATOM      7  C   UNL     1      -5.028  -3.322   4.844  1.00  0.00     0.053 C 
BRANCH   7   8
ATOM      8  C   UNL     1      -6.384  -3.110   5.439  1.00  0.00     0.041 C 
ATOM      9  O   UNL     1      -6.521  -3.017   6.688  1.00  0.00    -0.550 OA
ATOM     10  O   UNL     1      -7.505  -3.066   4.619  1.00  0.00    -0.550 OA
ENDBRANCH   7   8
ENDBRANCH   6   7
ENDBRANCH   5   6
ENDBRANCH   4   5
ENDBRANCH   3   4
ENDBRANCH   2   3
ENDBRANCH   1   2
BRANCH   1  11
ATOM     11  C   UNL     1      -0.682  -7.927   5.225  1.00  0.00     0.000 C 
BRANCH  11  12
ATOM     12  C   UNL     1      -1.394  -7.661   3.890  1.00  0.00    -0.000 C 
BRANCH  12  13
ATOM     13  C   UNL     1      -1.682  -6.169   3.656  1.00  0.00    -0.000 C 
BRANCH  13  14
ATOM     14  C   UNL     1      -2.961  -5.933   2.839  1.00  0.00    -0.000 C 
BRANCH  14  15
ATOM     15  C   UNL     1      -2.852  -4.646   2.012  1.00  0.00    -0.000 C 
BRANCH  15  16
ATOM     16  C   UNL     1      -2.208  -4.921   0.647  1.00  0.00    -0.000 C 
BRANCH  16  17
ATOM     17  C   UNL     1      -3.273  -5.231  -0.411  1.00  0.00    -0.003 C 
ATOM     18  C   UNL     1      -4.108  -3.995  -0.732  1.00  0.00     0.004 C 
ENDBRANCH  16  17
ENDBRANCH  15  16
ENDBRANCH  14  15
ENDBRANCH  13  14
ENDBRANCH  12  13
ENDBRANCH  11  12
ENDBRANCH   1  11
TORSDOF 14
ENDMDL
MODEL 7
REMARK VINA RESULT:    -4.006      3.853      7.346
REMARK INTER + INTRA:          -9.051
REMARK INTER:                  -7.183
REMARK INTRA:                  -1.868
REMARK UNBOUND:                -1.765
REMARK SMILES CCCCCCCCCCCCCCCC(=O)[O-]
REMARK SMILES IDX 9 1 10 2 11 3 12 4 13 5 14 6 15 7 16 8 17 9 18 10 8 11 7 12
REMARK SMILES IDX 6 13 5 14 4 15 3 16 2 17 1 18
REMARK H PARENT
REMARK Flexibility Score: inf
ROOT
ATOM      1  C   UNL     1      -0.537  -4.589   0.434  1.00  0.00     0.000 C 
ENDROOT
BRANCH   1   2
ATOM      2  C   UNL     1      -0.342  -4.397  -1.078  1.00  0.00     0.000 C 
BRANCH   2   3
ATOM      3  C   UNL     1      -1.672  -4.373  -1.849  1.00  0.00     0.000 C 
BRANCH   3   4
ATOM      4  C   UNL     1      -2.392  -5.733  -1.822  1.00  0.00     0.000 C 
BRANCH   4   5
ATOM      5  C   UNL     1      -3.860  -5.614  -1.382  1.00  0.00     0.000 C 
BRANCH   5   6
ATOM      6  C   UNL     1      -4.813  -6.445  -2.254  1.00  0.00     0.006 C 
BRANCH   6   7
ATOM      7  C   UNL     1      -5.271  -5.644  -3.477  1.00  0.00     0.053 C 
BRANCH   7   8
ATOM      8  C   UNL     1      -6.738  -5.361  -3.399  1.00  0.00     0.041 C 
ATOM      9  O   UNL     1      -7.192  -4.613  -2.494  1.00  0.00    -0.550 OA
ATOM     10  O   UNL     1      -7.612  -5.965  -4.296  1.00  0.00    -0.550 OA
ENDBRANCH   7   8
ENDBRANCH   6   7
ENDBRANCH   5   6
ENDBRANCH   4   5
ENDBRANCH   3   4
ENDBRANCH   2   3
ENDBRANCH   1   2
BRANCH   1  11
ATOM     11  C   UNL     1      -1.173  -3.346   1.068  1.00  0.00     0.000 C 
BRANCH  11  12
ATOM     12  C   UNL     1      -2.327  -3.737   2.005  1.00  0.00    -0.000 C 
BRANCH  12  13
ATOM     13  C   UNL     1      -2.680  -5.231   1.920  1.00  0.00    -0.000 C 
BRANCH  13  14
ATOM     14  C   UNL     1      -3.147  -5.807   3.266  1.00  0.00    -0.000 C 
BRANCH  14  15
ATOM     15  C   UNL     1      -1.949  -6.158   4.156  1.00  0.00    -0.000 C 
BRANCH  15  16
ATOM     16  C   UNL     1      -1.031  -7.177   3.470  1.00  0.00    -0.000 C 
BRANCH  16  17
ATOM     17  C   UNL     1       0.417  -6.677   3.435  1.00  0.00    -0.003 C 
ATOM     18  C   UNL     1       0.529  -5.271   4.016  1.00  0.00     0.004 C 
ENDBRANCH  16  17
ENDBRANCH  15  16
ENDBRANCH  14  15
ENDBRANCH  13  14
ENDBRANCH  12  13
ENDBRANCH  11  12
ENDBRANCH   1  11
TORSDOF 14
ENDMDL
MODEL 8
REMARK VINA RESULT:    -3.972      3.569      4.301
REMARK INTER + INTRA:          -8.988
REMARK INTER:                  -7.657
REMARK INTRA:                  -1.331
REMARK UNBOUND:                -1.765
REMARK SMILES CCCCCCCCCCCCCCCC(=O)[O-]
REMARK SMILES IDX 9 1 10 2 11 3 12 4 13 5 14 6 15 7 16 8 17 9 18 10 8 11 7 12
REMARK SMILES IDX 6 13 5 14 4 15 3 16 2 17 1 18
REMARK H PARENT
REMARK Flexibility Score: inf
ROOT
ATOM      1  C   UNL     1      -2.594  -4.392   1.270  1.00  0.00     0.000 C 
ENDROOT
BRANCH   1   2
ATOM      2  C   UNL     1      -1.636  -5.485   1.768  1.00  0.00     0.000 C 
BRANCH   2   3
ATOM      3  C   UNL     1      -1.918  -5.904   3.219  1.00  0.00     0.000 C 
BRANCH   3   4
ATOM      4  C   UNL     1      -3.162  -5.210   3.802  1.00  0.00     0.000 C 
BRANCH   4   5
ATOM      5  C   UNL     1      -3.012  -4.888   5.297  1.00  0.00     0.000 C 
BRANCH   5   6
ATOM      6  C   UNL     1      -3.977  -3.791   5.770  1.00  0.00     0.006 C 
BRANCH   6   7
ATOM      7  C   UNL     1      -5.044  -3.507   4.708  1.00  0.00     0.053 C 
BRANCH   7   8
ATOM      8  C   UNL     1      -6.366  -3.235   5.352  1.00  0.00     0.041 C 
ATOM      9  O   UNL     1      -7.407  -3.143   4.650  1.00  0.00    -0.550 OA
ATOM     10  O   UNL     1      -6.442  -3.032   6.725  1.00  0.00    -0.550 OA
ENDBRANCH   7   8
ENDBRANCH   6   7
ENDBRANCH   5   6
ENDBRANCH   4   5
ENDBRANCH   3   4
ENDBRANCH   2   3
ENDBRANCH   1   2
BRANCH   1  11
ATOM     11  C   UNL     1      -3.375  -4.865   0.037  1.00  0.00     0.000 C 
BRANCH  11  12
ATOM     12  C   UNL     1      -2.418  -5.271  -1.095  1.00  0.00    -0.000 C 
BRANCH  12  13
ATOM     13  C   UNL     1      -3.137  -5.978  -2.255  1.00  0.00    -0.000 C 
BRANCH  13  14
ATOM     14  C   UNL     1      -4.367  -6.774  -1.792  1.00  0.00    -0.000 C 
BRANCH  14  15
ATOM     15  C   UNL     1      -5.617  -6.352  -2.573  1.00  0.00    -0.000 C 
BRANCH  15  16
ATOM     16  C   UNL     1      -5.277  -5.291  -3.629  1.00  0.00    -0.000 C 
BRANCH  16  17
ATOM     17  C   UNL     1      -6.198  -4.073  -3.501  1.00  0.00    -0.003 C 
ATOM     18  C   UNL     1      -6.030  -3.395  -2.144  1.00  0.00     0.004 C 
ENDBRANCH  16  17
ENDBRANCH  15  16
ENDBRANCH  14  15
ENDBRANCH  13  14
ENDBRANCH  12  13
ENDBRANCH  11  12
ENDBRANCH   1  11
TORSDOF 14
ENDMDL
MODEL 9
REMARK VINA RESULT:    -3.951      1.281      2.176
REMARK INTER + INTRA:          -8.950
REMARK INTER:                  -6.829
REMARK INTRA:                  -2.121
REMARK UNBOUND:                -1.765
REMARK SMILES CCCCCCCCCCCCCCCC(=O)[O-]
REMARK SMILES IDX 9 1 10 2 11 3 12 4 13 5 14 6 15 7 16 8 17 9 18 10 8 11 7 12
REMARK SMILES IDX 6 13 5 14 4 15 3 16 2 17 1 18
REMARK H PARENT
REMARK Flexibility Score: inf
ROOT
ATOM      1  C   UNL     1      -3.019  -6.140  -2.464  1.00  0.00     0.000 C 
ENDROOT
BRANCH   1   2
ATOM      2  C   UNL     1      -2.282  -5.400  -1.337  1.00  0.00     0.000 C 
BRANCH   2   3
ATOM      3  C   UNL     1      -3.168  -5.168  -0.102  1.00  0.00     0.000 C 
BRANCH   3   4
ATOM      4  C   UNL     1      -2.798  -3.880   0.655  1.00  0.00     0.000 C 
BRANCH   4   5
ATOM      5  C   UNL     1      -2.721  -4.091   2.175  1.00  0.00     0.000 C 
BRANCH   5   6
ATOM      6  C   UNL     1      -3.051  -5.531   2.594  1.00  0.00     0.006 C 
BRANCH   6   7
ATOM      7  C   UNL     1      -2.222  -5.949   3.813  1.00  0.00     0.053 C 
BRANCH   7   8
ATOM      8  C   UNL     1      -1.196  -6.966   3.425  1.00  0.00     0.041 C 
ATOM      9  O   UNL     1      -0.415  -6.744   2.463  1.00  0.00    -0.550 OA
ATOM     10  O   UNL     1      -1.135  -8.183   4.094  1.00  0.00    -0.550 OA
ENDBRANCH   7   8
ENDBRANCH   6   7
ENDBRANCH   5   6
ENDBRANCH   4   5
ENDBRANCH   3   4
ENDBRANCH   2   3
ENDBRANCH   1   2
BRANCH   1  11
ATOM     11  C   UNL     1      -4.461  -6.465  -2.056  1.00  0.00     0.000 C 
BRANCH  11  12
ATOM     12  C   UNL     1      -5.414  -6.330  -3.254  1.00  0.00    -0.000 C 
BRANCH  12  13
ATOM     13  C   UNL     1      -6.383  -5.145  -3.112  1.00  0.00    -0.000 C 
BRANCH  13  14
ATOM     14  C   UNL     1      -6.260  -4.439  -1.754  1.00  0.00    -0.000 C 
BRANCH  14  15
ATOM     15  C   UNL     1      -5.956  -2.947  -1.938  1.00  0.00    -0.000 C 
BRANCH  15  16
ATOM     16  C   UNL     1      -5.281  -2.684  -3.290  1.00  0.00    -0.000 C 
BRANCH  16  17
ATOM     17  C   UNL     1      -3.776  -2.456  -3.119  1.00  0.00    -0.003 C 
ATOM     18  C   UNL     1      -3.004  -2.924  -4.349  1.00  0.00     0.004 C 
ENDBRANCH  16  17
ENDBRANCH  15  16
ENDBRANCH  14  15
ENDBRANCH  13  14
ENDBRANCH  12  13
ENDBRANCH  11  12
ENDBRANCH   1  11
TORSDOF 14
ENDMDL
