MODEL 1
REMARK VINA RESULT:    -4.307      0.000      0.000
REMARK INTER + INTRA:          -4.701
REMARK INTER:                  -4.684
REMARK INTRA:                  -0.017
REMARK UNBOUND:                -0.017
REMARK SMILES OCc1ccccc1
REMARK SMILES IDX 2 1 3 2 6 3 5 4 7 5 4 6 8 7 1 8
REMARK H PARENT 1 9
REMARK Flexibility Score: inf
ROOT
ATOM      1  C   UNL     1     -32.001  20.382 -18.626  1.00  0.00     0.191 C 
ENDROOT
BRANCH   1   2
ATOM      2  C   UNL     1     -32.055  19.145 -17.772  1.00  0.00    -0.023 A 
ATOM      3  C   UNL     1     -32.202  16.876 -16.127  1.00  0.00     0.000 A 
ATOM      4  C   UNL     1     -31.175  17.807 -15.944  1.00  0.00     0.000 A 
ATOM      5  C   UNL     1     -33.161  17.080 -17.123  1.00  0.00     0.000 A 
ATOM      6  C   UNL     1     -31.103  18.941 -16.759  1.00  0.00     0.006 A 
ATOM      7  C   UNL     1     -33.093  18.213 -17.940  1.00  0.00     0.006 A 
ENDBRANCH   1   2
BRANCH   1   8
ATOM      8  O   UNL     1     -33.298  20.805 -18.942  1.00  0.00    -0.392 OA
ATOM      9  H   UNL     1     -33.885  20.008 -18.852  1.00  0.00     0.211 HD
ENDBRANCH   1   8
TORSDOF 2
ENDMDL
MODEL 2
REMARK VINA RESULT:    -4.229     19.996     21.044
REMARK INTER + INTRA:          -4.617
REMARK INTER:                  -4.602
REMARK INTRA:                  -0.015
REMARK UNBOUND:                -0.017
REMARK SMILES OCc1ccccc1
REMARK SMILES IDX 2 1 3 2 6 3 5 4 7 5 4 6 8 7 1 8
REMARK H PARENT 1 9
REMARK Flexibility Score: inf
ROOT
ATOM      1  C   UNL     1     -17.470   2.937 -12.493  1.00  0.00     0.191 C 
ENDROOT
BRANCH   1   2
ATOM      2  C   UNL     1     -18.902   3.212 -12.126  1.00  0.00    -0.023 A 
ATOM      3  C   UNL     1     -21.562   3.692 -11.372  1.00  0.00     0.000 A 
ATOM      4  C   UNL     1     -21.226   2.506 -12.029  1.00  0.00     0.000 A 
ATOM      5  C   UNL     1     -20.573   4.636 -11.082  1.00  0.00     0.000 A 
ATOM      6  C   UNL     1     -19.900   2.262 -12.401  1.00  0.00     0.006 A 
ATOM      7  C   UNL     1     -19.245   4.396 -11.452  1.00  0.00     0.006 A 
ENDBRANCH   1   2
BRANCH   1   8
ATOM      8  O   UNL     1     -17.128   1.624 -12.144  1.00  0.00    -0.392 OA
ATOM      9  H   UNL     1     -17.515   1.036 -12.845  1.00  0.00     0.211 HD
ENDBRANCH   1   8
TORSDOF 2
ENDMDL
MODEL 3
REMARK VINA RESULT:    -4.192     19.929     21.079
REMARK INTER + INTRA:          -4.577
REMARK INTER:                  -4.565
REMARK INTRA:                  -0.012
REMARK UNBOUND:                -0.017
REMARK SMILES OCc1ccccc1
REMARK SMILES IDX 2 1 3 2 6 3 5 4 7 5 4 6 8 7 1 8
REMARK H PARENT 1 9
REMARK Flexibility Score: inf
ROOT
ATOM      1  C   UNL     1     -21.609   3.375 -11.657  1.00  0.00     0.191 C 
ENDROOT
BRANCH   1   2
ATOM      2  C   UNL     1     -20.133   3.213 -11.897  1.00  0.00    -0.023 A 
ATOM      3  C   UNL     1     -17.371   2.884 -12.268  1.00  0.00     0.000 A 
ATOM      4  C   UNL     1     -17.873   4.101 -11.800  1.00  0.00     0.000 A 
ATOM      5  C   UNL     1     -18.244   1.827 -12.543  1.00  0.00     0.000 A 
ATOM      6  C   UNL     1     -19.248   4.265 -11.608  1.00  0.00     0.006 A 
ATOM      7  C   UNL     1     -19.620   1.987 -12.353  1.00  0.00     0.006 A 
ENDBRANCH   1   2
BRANCH   1   8
ATOM      8  O   UNL     1     -22.039   2.475 -10.675  1.00  0.00    -0.392 OA
ATOM      9  H   UNL     1     -21.880   1.564 -11.038  1.00  0.00     0.211 HD
ENDBRANCH   1   8
TORSDOF 2
ENDMDL
MODEL 4
REMARK VINA RESULT:    -4.096      2.785      3.504
REMARK INTER + INTRA:          -4.472
REMARK INTER:                  -4.462
REMARK INTRA:                  -0.010
REMARK UNBOUND:                -0.017
REMARK SMILES OCc1ccccc1
REMARK SMILES IDX 2 1 3 2 6 3 5 4 7 5 4 6 8 7 1 8
REMARK H PARENT 1 9
REMARK Flexibility Score: inf
ROOT
ATOM      1  C   UNL     1     -30.961  17.227 -21.434  1.00  0.00     0.191 C 
ENDROOT
BRANCH   1   2
ATOM      2  C   UNL     1     -31.581  18.005 -20.306  1.00  0.00    -0.023 A 
ATOM      3  C   UNL     1     -32.790  19.485 -18.251  1.00  0.00     0.000 A 
ATOM      4  C   UNL     1     -31.749  20.046 -18.997  1.00  0.00     0.000 A 
ATOM      5  C   UNL     1     -33.235  18.191 -18.535  1.00  0.00     0.000 A 
ATOM      6  C   UNL     1     -31.149  19.312 -20.025  1.00  0.00     0.006 A 
ATOM      7  C   UNL     1     -32.638  17.453 -19.562  1.00  0.00     0.006 A 
ENDBRANCH   1   2
BRANCH   1   8
ATOM      8  O   UNL     1     -31.720  17.386 -22.601  1.00  0.00    -0.392 OA
ATOM      9  H   UNL     1     -32.188  18.258 -22.518  1.00  0.00     0.211 HD
ENDBRANCH   1   8
TORSDOF 2
ENDMDL
MODEL 5
REMARK VINA RESULT:    -4.082      5.720      7.016
REMARK INTER + INTRA:          -4.457
REMARK INTER:                  -4.437
REMARK INTRA:                  -0.020
REMARK UNBOUND:                -0.017
REMARK SMILES OCc1ccccc1
REMARK SMILES IDX 2 1 3 2 6 3 5 4 7 5 4 6 8 7 1 8
REMARK H PARENT 1 9
REMARK Flexibility Score: inf
ROOT
ATOM      1  C   UNL     1     -31.829  11.866 -13.414  1.00  0.00     0.191 C 
ENDROOT
BRANCH   1   2
ATOM      2  C   UNL     1     -31.178  13.221 -13.349  1.00  0.00    -0.023 A 
ATOM      3  C   UNL     1     -29.938  15.738 -13.304  1.00  0.00     0.000 A 
ATOM      4  C   UNL     1     -29.231  14.604 -12.896  1.00  0.00     0.000 A 
ATOM      5  C   UNL     1     -31.259  15.618 -13.745  1.00  0.00     0.000 A 
ATOM      6  C   UNL     1     -29.845  13.348 -12.922  1.00  0.00     0.006 A 
ATOM      7  C   UNL     1     -31.877  14.363 -13.774  1.00  0.00     0.006 A 
ENDBRANCH   1   2
BRANCH   1   8
ATOM      8  O   UNL     1     -33.099  11.971 -13.993  1.00  0.00    -0.392 OA
ATOM      9  H   UNL     1     -33.744  11.615 -13.326  1.00  0.00     0.211 HD
ENDBRANCH   1   8
TORSDOF 2
ENDMDL
MODEL 6
REMARK VINA RESULT:    -4.080      2.564      3.607
REMARK INTER + INTRA:          -4.455
REMARK INTER:                  -4.445
REMARK INTRA:                  -0.010
REMARK UNBOUND:                -0.017
REMARK SMILES OCc1ccccc1
REMARK SMILES IDX 2 1 3 2 6 3 5 4 7 5 4 6 8 7 1 8
REMARK H PARENT 1 9
REMARK Flexibility Score: inf
ROOT
ATOM      1  C   UNL     1     -32.075  20.078 -18.564  1.00  0.00     0.191 C 
ENDROOT
BRANCH   1   2
ATOM      2  C   UNL     1     -31.859  18.969 -19.557  1.00  0.00    -0.023 A 
ATOM      3  C   UNL     1     -31.516  16.928 -21.452  1.00  0.00     0.000 A 
ATOM      4  C   UNL     1     -32.366  16.732 -20.360  1.00  0.00     0.000 A 
ATOM      5  C   UNL     1     -30.843  18.144 -21.605  1.00  0.00     0.000 A 
ATOM      6  C   UNL     1     -32.543  17.749 -19.418  1.00  0.00     0.006 A 
ATOM      7  C   UNL     1     -31.017  19.164 -20.665  1.00  0.00     0.006 A 
ENDBRANCH   1   2
BRANCH   1   8
ATOM      8  O   UNL     1     -33.243  20.783 -18.877  1.00  0.00    -0.392 OA
ATOM      9  H   UNL     1     -33.090  21.723 -18.598  1.00  0.00     0.211 HD
ENDBRANCH   1   8
TORSDOF 2
ENDMDL
MODEL 7
REMARK VINA RESULT:    -4.076      4.240      5.710
REMARK INTER + INTRA:          -4.450
REMARK INTER:                  -4.431
REMARK INTRA:                  -0.020
REMARK UNBOUND:                -0.017
REMARK SMILES OCc1ccccc1
REMARK SMILES IDX 2 1 3 2 6 3 5 4 7 5 4 6 8 7 1 8
REMARK H PARENT 1 9
REMARK Flexibility Score: inf
ROOT
ATOM      1  C   UNL     1     -31.995  14.292 -13.581  1.00  0.00     0.191 C 
ENDROOT
BRANCH   1   2
ATOM      2  C   UNL     1     -31.324  15.564 -14.022  1.00  0.00    -0.023 A 
ATOM      3  C   UNL     1     -30.122  17.978 -14.800  1.00  0.00     0.000 A 
ATOM      4  C   UNL     1     -31.173  17.446 -15.552  1.00  0.00     0.000 A 
ATOM      5  C   UNL     1     -29.675  17.312 -13.655  1.00  0.00     0.000 A 
ATOM      6  C   UNL     1     -31.777  16.247 -15.163  1.00  0.00     0.006 A 
ATOM      7  C   UNL     1     -30.277  16.112 -13.262  1.00  0.00     0.006 A 
ENDBRANCH   1   2
BRANCH   1   8
ATOM      8  O   UNL     1     -31.516  13.907 -12.323  1.00  0.00    -0.392 OA
ATOM      9  H   UNL     1     -30.557  14.161 -12.295  1.00  0.00     0.211 HD
ENDBRANCH   1   8
TORSDOF 2
ENDMDL
MODEL 8
REMARK VINA RESULT:    -4.036     15.160     16.596
REMARK INTER + INTRA:          -4.407
REMARK INTER:                  -4.396
REMARK INTRA:                  -0.011
REMARK UNBOUND:                -0.017
REMARK SMILES OCc1ccccc1
REMARK SMILES IDX 2 1 3 2 6 3 5 4 7 5 4 6 8 7 1 8
REMARK H PARENT 1 9
REMARK Flexibility Score: inf
ROOT
ATOM      1  C   UNL     1     -31.934   4.500 -13.195  1.00  0.00     0.191 C 
ENDROOT
BRANCH   1   2
ATOM      2  C   UNL     1     -31.554   3.222 -13.889  1.00  0.00    -0.023 A 
ATOM      3  C   UNL     1     -30.789   0.876 -15.226  1.00  0.00     0.000 A 
ATOM      4  C   UNL     1     -31.784   1.695 -15.767  1.00  0.00     0.000 A 
ATOM      5  C   UNL     1     -30.168   1.229 -14.024  1.00  0.00     0.000 A 
ATOM      6  C   UNL     1     -32.163   2.867 -15.105  1.00  0.00     0.006 A 
ATOM      7  C   UNL     1     -30.544   2.401 -13.359  1.00  0.00     0.006 A 
ENDBRANCH   1   2
BRANCH   1   8
ATOM      8  O   UNL     1     -32.507   4.219 -11.948  1.00  0.00    -0.392 OA
ATOM      9  H   UNL     1     -31.835   3.691 -11.441  1.00  0.00     0.211 HD
ENDBRANCH   1   8
TORSDOF 2
ENDMDL
MODEL 9
REMARK VINA RESULT:    -4.000     13.549     14.746
REMARK INTER + INTRA:          -4.368
REMARK INTER:                  -4.358
REMARK INTRA:                  -0.010
REMARK UNBOUND:                -0.017
REMARK SMILES OCc1ccccc1
REMARK SMILES IDX 2 1 3 2 6 3 5 4 7 5 4 6 8 7 1 8
REMARK H PARENT 1 9
REMARK Flexibility Score: inf
ROOT
ATOM      1  C   UNL     1     -20.925  13.913 -12.168  1.00  0.00     0.191 C 
ENDROOT
BRANCH   1   2
ATOM      2  C   UNL     1     -20.842  12.493 -11.679  1.00  0.00    -0.023 A 
ATOM      3  C   UNL     1     -20.682   9.819 -10.842  1.00  0.00     0.000 A 
ATOM      4  C   UNL     1     -21.929  10.405 -11.074  1.00  0.00     0.000 A 
ATOM      5  C   UNL     1     -19.514  10.562 -11.036  1.00  0.00     0.000 A 
ATOM      6  C   UNL     1     -22.011  11.736 -11.497  1.00  0.00     0.006 A 
ATOM      7  C   UNL     1     -19.591  11.892 -11.459  1.00  0.00     0.006 A 
ENDBRANCH   1   2
BRANCH   1   8
ATOM      8  O   UNL     1     -20.544  14.795 -11.151  1.00  0.00    -0.392 OA
ATOM      9  H   UNL     1     -19.778  14.371 -10.680  1.00  0.00     0.211 HD
ENDBRANCH   1   8
TORSDOF 2
ENDMDL
