MODEL 1
REMARK VINA RESULT:    -3.805      0.000      0.000
REMARK INTER + INTRA:          -4.660
REMARK INTER:                  -4.361
REMARK INTRA:                  -0.298
REMARK UNBOUND:                -0.298
REMARK SMILES O=C([O-])C=Cc1ccc(O)cc1
REMARK SMILES IDX 6 1 7 2 12 3 8 4 11 5 9 6 5 7 4 8 2 9 1 10 3 11 10 12
REMARK H PARENT 10 13
REMARK Flexibility Score: inf
ROOT
ATOM      1  C   UNL     1       6.990  11.860   7.759  1.00  0.00    -0.025 A 
ATOM      2  C   UNL     1       5.853  11.039   7.759  1.00  0.00     0.012 A 
ATOM      3  C   UNL     1       6.833  13.254   7.682  1.00  0.00     0.012 A 
ATOM      4  C   UNL     1       4.574  11.605   7.737  1.00  0.00     0.047 A 
ATOM      5  C   UNL     1       5.554  13.818   7.659  1.00  0.00     0.047 A 
ATOM      6  C   UNL     1       4.421  12.994   7.691  1.00  0.00     0.115 A 
ENDROOT
BRANCH   1   7
ATOM      7  C   UNL     1       8.331  11.238   7.729  1.00  0.00     0.010 C 
ATOM      8  C   UNL     1       9.131  11.066   8.792  1.00  0.00     0.025 C 
BRANCH   8   9
ATOM      9  C   UNL     1       8.745  11.288  10.198  1.00  0.00     0.064 C 
ATOM     10  O   UNL     1       8.179  10.363  10.835  1.00  0.00    -0.545 OA
ATOM     11  O   UNL     1       8.928  12.521  10.814  1.00  0.00    -0.545 OA
ENDBRANCH   8   9
ENDBRANCH   1   7
BRANCH   6  12
ATOM     12  O   UNL     1       3.141  13.545   7.670  1.00  0.00    -0.508 OA
ATOM     13  H   UNL     1       2.593  13.580   6.819  1.00  0.00     0.293 HD
ENDBRANCH   6  12
TORSDOF 3
ENDMDL
MODEL 2
REMARK VINA RESULT:    -3.679      2.563      3.145
REMARK INTER + INTRA:          -4.515
REMARK INTER:                  -4.228
REMARK INTRA:                  -0.287
REMARK UNBOUND:                -0.298
REMARK SMILES O=C([O-])C=Cc1ccc(O)cc1
REMARK SMILES IDX 6 1 7 2 12 3 8 4 11 5 9 6 5 7 4 8 2 9 1 10 3 11 10 12
REMARK H PARENT 10 13
REMARK Flexibility Score: inf
ROOT
ATOM      1  C   UNL     1       7.557  11.268   8.171  1.00  0.00    -0.025 A 
ATOM      2  C   UNL     1       7.941  12.611   8.041  1.00  0.00     0.012 A 
ATOM      3  C   UNL     1       6.200  10.924   8.047  1.00  0.00     0.012 A 
ATOM      4  C   UNL     1       6.989  13.590   7.737  1.00  0.00     0.047 A 
ATOM      5  C   UNL     1       5.251  11.905   7.744  1.00  0.00     0.047 A 
ATOM      6  C   UNL     1       5.644  13.240   7.584  1.00  0.00     0.115 A 
ENDROOT
BRANCH   1   7
ATOM      7  C   UNL     1       8.571  10.259   8.545  1.00  0.00     0.010 C 
ATOM      8  C   UNL     1       9.274   9.509   7.682  1.00  0.00     0.025 C 
BRANCH   8   9
ATOM      9  C   UNL     1       9.302   9.686   6.219  1.00  0.00     0.064 C 
ATOM     10  O   UNL     1       8.649   8.895   5.491  1.00  0.00    -0.545 OA
ATOM     11  O   UNL     1      10.090  10.662   5.621  1.00  0.00    -0.545 OA
ENDBRANCH   8   9
ENDBRANCH   1   7
BRANCH   6  12
ATOM     12  O   UNL     1       4.706  14.225   7.281  1.00  0.00    -0.508 OA
ATOM     13  H   UNL     1       4.954  15.044   6.738  1.00  0.00     0.293 HD
ENDBRANCH   6  12
TORSDOF 3
ENDMDL
MODEL 3
REMARK VINA RESULT:    -3.556      2.297      3.531
REMARK INTER + INTRA:          -4.374
REMARK INTER:                  -4.083
REMARK INTRA:                  -0.291
REMARK UNBOUND:                -0.298
REMARK SMILES O=C([O-])C=Cc1ccc(O)cc1
REMARK SMILES IDX 6 1 7 2 12 3 8 4 11 5 9 6 5 7 4 8 2 9 1 10 3 11 10 12
REMARK H PARENT 10 13
REMARK Flexibility Score: inf
ROOT
ATOM      1  C   UNL     1       6.761  11.232   7.831  1.00  0.00    -0.025 A 
ATOM      2  C   UNL     1       6.470  12.604   7.774  1.00  0.00     0.012 A 
ATOM      3  C   UNL     1       8.043  10.784   7.468  1.00  0.00     0.012 A 
ATOM      4  C   UNL     1       7.462  13.520   7.411  1.00  0.00     0.047 A 
ATOM      5  C   UNL     1       9.032  11.703   7.105  1.00  0.00     0.047 A 
ATOM      6  C   UNL     1       8.745  13.074   7.079  1.00  0.00     0.115 A 
ENDROOT
BRANCH   1   7
ATOM      7  C   UNL     1       5.683  10.278   8.166  1.00  0.00     0.010 C 
ATOM      8  C   UNL     1       5.474   9.734   9.375  1.00  0.00     0.025 C 
BRANCH   8   9
ATOM      9  C   UNL     1       6.156  10.131  10.621  1.00  0.00     0.064 C 
ATOM     10  O   UNL     1       7.112   9.435  11.048  1.00  0.00    -0.545 OA
ATOM     11  O   UNL     1       5.721  11.217  11.372  1.00  0.00    -0.545 OA
ENDBRANCH   8   9
ENDBRANCH   1   7
BRANCH   6  12
ATOM     12  O   UNL     1       9.724  13.998   6.720  1.00  0.00    -0.508 OA
ATOM     13  H   UNL     1       9.507  14.802   6.144  1.00  0.00     0.293 HD
ENDBRANCH   6  12
TORSDOF 3
ENDMDL
MODEL 4
REMARK VINA RESULT:    -3.528      3.211      3.840
REMARK INTER + INTRA:          -4.342
REMARK INTER:                  -4.158
REMARK INTRA:                  -0.184
REMARK UNBOUND:                -0.298
REMARK SMILES O=C([O-])C=Cc1ccc(O)cc1
REMARK SMILES IDX 6 1 7 2 12 3 8 4 11 5 9 6 5 7 4 8 2 9 1 10 3 11 10 12
REMARK H PARENT 10 13
REMARK Flexibility Score: inf
ROOT
ATOM      1  C   UNL     1       8.540  10.045   7.974  1.00  0.00    -0.025 A 
ATOM      2  C   UNL     1       7.179   9.749   7.801  1.00  0.00     0.012 A 
ATOM      3  C   UNL     1       8.956  11.388   7.986  1.00  0.00     0.012 A 
ATOM      4  C   UNL     1       6.241  10.780   7.696  1.00  0.00     0.047 A 
ATOM      5  C   UNL     1       8.015  12.417   7.880  1.00  0.00     0.047 A 
ATOM      6  C   UNL     1       6.654  12.115   7.739  1.00  0.00     0.115 A 
ENDROOT
BRANCH   1   7
ATOM      7  C   UNL     1       9.519   8.940   8.030  1.00  0.00     0.010 C 
ATOM      8  C   UNL     1      10.193   8.445   6.980  1.00  0.00     0.025 C 
BRANCH   8   9
ATOM      9  C   UNL     1      10.221   9.032   5.628  1.00  0.00     0.064 C 
ATOM     10  O   UNL     1      11.292   9.533   5.196  1.00  0.00    -0.545 OA
ATOM     11  O   UNL     1       9.074   9.111   4.847  1.00  0.00    -0.545 OA
ENDBRANCH   8   9
ENDBRANCH   1   7
BRANCH   6  12
ATOM     12  O   UNL     1       5.708  13.133   7.633  1.00  0.00    -0.508 OA
ATOM     13  H   UNL     1       4.907  13.178   8.251  1.00  0.00     0.293 HD
ENDBRANCH   6  12
TORSDOF 3
ENDMDL
MODEL 5
REMARK VINA RESULT:    -3.507      2.668      5.178
REMARK INTER + INTRA:          -4.318
REMARK INTER:                  -4.026
REMARK INTRA:                  -0.292
REMARK UNBOUND:                -0.298
REMARK SMILES O=C([O-])C=Cc1ccc(O)cc1
REMARK SMILES IDX 6 1 7 2 12 3 8 4 11 5 9 6 5 7 4 8 2 9 1 10 3 11 10 12
REMARK H PARENT 10 13
REMARK Flexibility Score: inf
ROOT
ATOM      1  C   UNL     1       7.920   9.875   7.562  1.00  0.00    -0.025 A 
ATOM      2  C   UNL     1       8.755   9.856   6.434  1.00  0.00     0.012 A 
ATOM      3  C   UNL     1       8.213   9.034   8.650  1.00  0.00     0.012 A 
ATOM      4  C   UNL     1       9.896   9.048   6.415  1.00  0.00     0.047 A 
ATOM      5  C   UNL     1       9.353   8.226   8.628  1.00  0.00     0.047 A 
ATOM      6  C   UNL     1      10.200   8.234   7.511  1.00  0.00     0.115 A 
ENDROOT
BRANCH   1   7
ATOM      7  C   UNL     1       6.692  10.697   7.539  1.00  0.00     0.010 C 
ATOM      8  C   UNL     1       6.597  11.964   7.972  1.00  0.00     0.025 C 
BRANCH   8   9
ATOM      9  C   UNL     1       7.730  12.820   8.368  1.00  0.00     0.064 C 
ATOM     10  O   UNL     1       8.299  13.528   7.499  1.00  0.00    -0.545 OA
ATOM     11  O   UNL     1       8.229  12.808   9.665  1.00  0.00    -0.545 OA
ENDBRANCH   8   9
ENDBRANCH   1   7
BRANCH   6  12
ATOM     12  O   UNL     1      11.341   7.434   7.479  1.00  0.00    -0.508 OA
ATOM     13  H   UNL     1      11.425   6.608   8.059  1.00  0.00     0.293 HD
ENDBRANCH   6  12
TORSDOF 3
ENDMDL
MODEL 6
REMARK VINA RESULT:    -3.465      2.664      5.102
REMARK INTER + INTRA:          -4.269
REMARK INTER:                  -3.981
REMARK INTRA:                  -0.288
REMARK UNBOUND:                -0.298
REMARK SMILES O=C([O-])C=Cc1ccc(O)cc1
REMARK SMILES IDX 6 1 7 2 12 3 8 4 11 5 9 6 5 7 4 8 2 9 1 10 3 11 10 12
REMARK H PARENT 10 13
REMARK Flexibility Score: inf
ROOT
ATOM      1  C   UNL     1       7.875   9.783   7.540  1.00  0.00    -0.025 A 
ATOM      2  C   UNL     1       8.158   9.025   8.686  1.00  0.00     0.012 A 
ATOM      3  C   UNL     1       8.773   9.760   6.459  1.00  0.00     0.012 A 
ATOM      4  C   UNL     1       9.296   8.214   8.731  1.00  0.00     0.047 A 
ATOM      5  C   UNL     1       9.911   8.949   6.507  1.00  0.00     0.047 A 
ATOM      6  C   UNL     1      10.173   8.170   7.642  1.00  0.00     0.115 A 
ENDROOT
BRANCH   1   7
ATOM      7  C   UNL     1       6.695  10.674   7.536  1.00  0.00     0.010 C 
ATOM      8  C   UNL     1       6.680  11.945   7.963  1.00  0.00     0.025 C 
BRANCH   8   9
ATOM      9  C   UNL     1       7.867  12.738   8.333  1.00  0.00     0.064 C 
ATOM     10  O   UNL     1       8.454  13.415   7.451  1.00  0.00    -0.545 OA
ATOM     11  O   UNL     1       8.395  12.696   9.619  1.00  0.00    -0.545 OA
ENDBRANCH   8   9
ENDBRANCH   1   7
BRANCH   6  12
ATOM     12  O   UNL     1      11.303   7.357   7.700  1.00  0.00    -0.508 OA
ATOM     13  H   UNL     1      12.059   7.452   7.032  1.00  0.00     0.293 HD
ENDBRANCH   6  12
TORSDOF 3
ENDMDL
MODEL 7
REMARK VINA RESULT:    -3.371      3.942      5.392
REMARK INTER + INTRA:          -4.162
REMARK INTER:                  -3.871
REMARK INTRA:                  -0.291
REMARK UNBOUND:                -0.298
REMARK SMILES O=C([O-])C=Cc1ccc(O)cc1
REMARK SMILES IDX 6 1 7 2 12 3 8 4 11 5 9 6 5 7 4 8 2 9 1 10 3 11 10 12
REMARK H PARENT 10 13
REMARK Flexibility Score: inf
ROOT
ATOM      1  C   UNL     1       9.118   9.447   6.473  1.00  0.00    -0.025 A 
ATOM      2  C   UNL     1       9.037   8.814   7.723  1.00  0.00     0.012 A 
ATOM      3  C   UNL     1       9.156  10.850   6.412  1.00  0.00     0.012 A 
ATOM      4  C   UNL     1       9.048   9.572   8.898  1.00  0.00     0.047 A 
ATOM      5  C   UNL     1       9.166  11.606   7.589  1.00  0.00     0.047 A 
ATOM      6  C   UNL     1       9.115  10.967   8.835  1.00  0.00     0.115 A 
ENDROOT
BRANCH   1   7
ATOM      7  C   UNL     1       9.051   8.629   5.243  1.00  0.00     0.010 C 
ATOM      8  C   UNL     1      10.109   8.144   4.575  1.00  0.00     0.025 C 
BRANCH   8   9
ATOM      9  C   UNL     1      11.507   8.176   5.045  1.00  0.00     0.064 C 
ATOM     10  O   UNL     1      11.906   7.294   5.847  1.00  0.00    -0.545 OA
ATOM     11  O   UNL     1      12.372   9.201   4.679  1.00  0.00    -0.545 OA
ENDBRANCH   8   9
ENDBRANCH   1   7
BRANCH   6  12
ATOM     12  O   UNL     1       9.126  11.710  10.015  1.00  0.00    -0.508 OA
ATOM     13  H   UNL     1       9.247  12.716  10.006  1.00  0.00     0.293 HD
ENDBRANCH   6  12
TORSDOF 3
ENDMDL
MODEL 8
REMARK VINA RESULT:    -3.347      2.150      3.911
REMARK INTER + INTRA:          -4.135
REMARK INTER:                  -3.859
REMARK INTRA:                  -0.276
REMARK UNBOUND:                -0.298
REMARK SMILES O=C([O-])C=Cc1ccc(O)cc1
REMARK SMILES IDX 6 1 7 2 12 3 8 4 11 5 9 6 5 7 4 8 2 9 1 10 3 11 10 12
REMARK H PARENT 10 13
REMARK Flexibility Score: inf
ROOT
ATOM      1  C   UNL     1       7.373  11.793   7.806  1.00  0.00    -0.025 A 
ATOM      2  C   UNL     1       8.715  11.573   7.461  1.00  0.00     0.012 A 
ATOM      3  C   UNL     1       6.460  10.727   7.730  1.00  0.00     0.012 A 
ATOM      4  C   UNL     1       9.150  10.295   7.098  1.00  0.00     0.047 A 
ATOM      5  C   UNL     1       6.897   9.450   7.365  1.00  0.00     0.047 A 
ATOM      6  C   UNL     1       8.245   9.231   7.051  1.00  0.00     0.115 A 
ENDROOT
BRANCH   1   7
ATOM      7  C   UNL     1       6.926  13.162   8.136  1.00  0.00     0.010 C 
ATOM      8  C   UNL     1       6.828  13.670   9.374  1.00  0.00     0.025 C 
BRANCH   8   9
ATOM      9  C   UNL     1       7.325  13.027  10.605  1.00  0.00     0.064 C 
ATOM     10  O   UNL     1       6.501  12.640  11.473  1.00  0.00    -0.545 OA
ATOM     11  O   UNL     1       8.686  12.904  10.861  1.00  0.00    -0.545 OA
ENDBRANCH   8   9
ENDBRANCH   1   7
BRANCH   6  12
ATOM     12  O   UNL     1       8.691   7.961   6.688  1.00  0.00    -0.508 OA
ATOM     13  H   UNL     1       8.473   7.563   5.783  1.00  0.00     0.293 HD
ENDBRANCH   6  12
TORSDOF 3
ENDMDL
MODEL 9
REMARK VINA RESULT:    -3.343      2.152      3.656
REMARK INTER + INTRA:          -4.130
REMARK INTER:                  -3.852
REMARK INTRA:                  -0.278
REMARK UNBOUND:                -0.298
REMARK SMILES O=C([O-])C=Cc1ccc(O)cc1
REMARK SMILES IDX 6 1 7 2 12 3 8 4 11 5 9 6 5 7 4 8 2 9 1 10 3 11 10 12
REMARK H PARENT 10 13
REMARK Flexibility Score: inf
ROOT
ATOM      1  C   UNL     1       7.363  11.959   7.793  1.00  0.00    -0.025 A 
ATOM      2  C   UNL     1       6.445  10.898   7.752  1.00  0.00     0.012 A 
ATOM      3  C   UNL     1       8.715  11.710   7.502  1.00  0.00     0.012 A 
ATOM      4  C   UNL     1       6.863   9.618   7.374  1.00  0.00     0.047 A 
ATOM      5  C   UNL     1       9.131  10.429   7.126  1.00  0.00     0.047 A 
ATOM      6  C   UNL     1       8.204   9.381   7.057  1.00  0.00     0.115 A 
ENDROOT
BRANCH   1   7
ATOM      7  C   UNL     1       6.910  13.290   8.246  1.00  0.00     0.010 C 
ATOM      8  C   UNL     1       6.820  13.687   9.525  1.00  0.00     0.025 C 
BRANCH   8   9
ATOM      9  C   UNL     1       7.333  12.942  10.690  1.00  0.00     0.064 C 
ATOM     10  O   UNL     1       6.518  12.413  11.489  1.00  0.00    -0.545 OA
ATOM     11  O   UNL     1       8.694  12.872  10.965  1.00  0.00    -0.545 OA
ENDBRANCH   8   9
ENDBRANCH   1   7
BRANCH   6  12
ATOM     12  O   UNL     1       8.606   8.100   6.681  1.00  0.00    -0.508 OA
ATOM     13  H   UNL     1       9.573   7.806   6.754  1.00  0.00     0.293 HD
ENDBRANCH   6  12
TORSDOF 3
ENDMDL
