MODEL 1
REMARK VINA RESULT:     0.979      0.000      0.000
REMARK INTER + INTRA:           0.780
REMARK INTER:                   1.379
REMARK INTRA:                  -0.599
REMARK UNBOUND:                -0.599
REMARK SMILES C=CC(=C)CCC=C(C)CCC=C(C)C
REMARK SMILES IDX 8 1 7 2 9 3 10 4 11 5 12 6 14 7 13 8 15 9 6 10 5 11 3 12
REMARK SMILES IDX 4 13 2 14 1 15
REMARK H PARENT
REMARK Flexibility Score: inf
ROOT
ATOM      1  C   UNL     1     135.588 140.355 163.147  1.00  0.00    -0.077 C 
ATOM      2  C   UNL     1     135.001 139.364 162.437  1.00  0.00    -0.028 C 
ATOM      3  C   UNL     1     136.137 140.126 164.535  1.00  0.00     0.039 C 
ENDROOT
BRANCH   1   4
ATOM      4  C   UNL     1     135.690 141.737 162.534  1.00  0.00     0.034 C 
BRANCH   4   5
ATOM      5  C   UNL     1     136.887 141.850 161.577  1.00  0.00     0.032 C 
BRANCH   5   6
ATOM      6  C   UNL     1     136.585 142.754 160.405  1.00  0.00    -0.028 C 
ATOM      7  C   UNL     1     137.064 144.237 158.506  1.00  0.00     0.039 C 
ATOM      8  C   UNL     1     137.518 143.411 159.682  1.00  0.00    -0.080 C 
ATOM      9  C   UNL     1     138.987 143.355 160.030  1.00  0.00     0.039 C 
ENDBRANCH   5   6
ENDBRANCH   4   5
ENDBRANCH   1   4
BRANCH   2  10
ATOM     10  C   UNL     1     134.876 137.935 162.903  1.00  0.00     0.032 C 
BRANCH  10  11
ATOM     11  C   UNL     1     134.875 136.970 161.712  1.00  0.00     0.039 C 
BRANCH  11  12
ATOM     12  C   UNL     1     136.270 136.452 161.436  1.00  0.00    -0.055 C 
ATOM     13  C   UNL     1     137.123 137.217 160.746  1.00  0.00     0.012 C 
BRANCH  12  14
ATOM     14  C   UNL     1     136.714 135.101 161.867  1.00  0.00    -0.005 C 
ATOM     15  C   UNL     1     137.500 134.875 162.920  1.00  0.00     0.009 C 
ENDBRANCH  12  14
ENDBRANCH  11  12
ENDBRANCH  10  11
ENDBRANCH   2  10
TORSDOF 7
ENDMDL
MODEL 2
REMARK VINA RESULT:     2.743      2.849      5.720
REMARK INTER + INTRA:           3.266
REMARK INTER:                   3.129
REMARK INTRA:                   0.137
REMARK UNBOUND:                -0.599
REMARK SMILES C=CC(=C)CCC=C(C)CCC=C(C)C
REMARK SMILES IDX 8 1 7 2 9 3 10 4 11 5 12 6 14 7 13 8 15 9 6 10 5 11 3 12
REMARK SMILES IDX 4 13 2 14 1 15
REMARK H PARENT
REMARK Flexibility Score: inf
ROOT
ATOM      1  C   UNL     1     135.389 139.893 163.038  1.00  0.00    -0.077 C 
ATOM      2  C   UNL     1     136.113 139.104 163.866  1.00  0.00    -0.028 C 
ATOM      3  C   UNL     1     135.063 141.327 163.384  1.00  0.00     0.039 C 
ENDROOT
BRANCH   1   4
ATOM      4  C   UNL     1     134.885 139.318 161.730  1.00  0.00     0.034 C 
BRANCH   4   5
ATOM      5  C   UNL     1     134.948 137.783 161.718  1.00  0.00     0.032 C 
BRANCH   5   6
ATOM      6  C   UNL     1     136.362 137.278 161.883  1.00  0.00    -0.028 C 
ATOM      7  C   UNL     1     138.193 135.641 161.917  1.00  0.00     0.039 C 
ATOM      8  C   UNL     1     136.732 135.983 161.778  1.00  0.00    -0.080 C 
ATOM      9  C   UNL     1     135.727 134.879 161.546  1.00  0.00     0.039 C 
ENDBRANCH   5   6
ENDBRANCH   4   5
ENDBRANCH   1   4
BRANCH   2  10
ATOM     10  C   UNL     1     136.717 139.558 165.171  1.00  0.00     0.032 C 
BRANCH  10  11
ATOM     11  C   UNL     1     135.957 138.961 166.361  1.00  0.00     0.039 C 
BRANCH  11  12
ATOM     12  C   UNL     1     136.823 137.973 167.113  1.00  0.00    -0.055 C 
ATOM     13  C   UNL     1     138.121 137.879 166.803  1.00  0.00     0.012 C 
BRANCH  12  14
ATOM     14  C   UNL     1     136.273 137.068 168.155  1.00  0.00    -0.005 C 
ATOM     15  C   UNL     1     137.010 136.214 168.865  1.00  0.00     0.009 C 
ENDBRANCH  12  14
ENDBRANCH  11  12
ENDBRANCH  10  11
ENDBRANCH   2  10
TORSDOF 7
ENDMDL
