MODEL 1
REMARK VINA RESULT:    -5.434      0.000      0.000
REMARK INTER + INTRA:          -5.951
REMARK INTER:                  -5.910
REMARK INTRA:                  -0.041
REMARK UNBOUND:                -0.041
REMARK SMILES CC1(C)[C@H]2CC=C(CO)[C@@H]1C2
REMARK SMILES IDX 8 1 7 2 1 3 2 4 4 5 3 6 10 7 5 8 11 9 6 10 9 11
REMARK H PARENT 9 12
REMARK Flexibility Score: inf
ROOT
ATOM      1  C   UNL     1     -60.189  17.423  18.496  1.00  0.00     0.187 C 
ENDROOT
BRANCH   1   2
ATOM      2  C   UNL     1     -61.322  17.299  19.473  1.00  0.00    -0.045 C 
ATOM      3  C   UNL     1     -65.179  17.149  18.912  1.00  0.00     0.012 C 
ATOM      4  C   UNL     1     -63.788  16.787  19.491  1.00  0.00    -0.026 C 
ATOM      5  C   UNL     1     -63.630  17.241  20.968  1.00  0.00    -0.000 C 
ATOM      6  C   UNL     1     -63.481  15.306  19.130  1.00  0.00     0.012 C 
ATOM      7  C   UNL     1     -62.717  17.862  19.166  1.00  0.00     0.023 C 
ATOM      8  C   UNL     1     -62.379  16.557  21.619  1.00  0.00     0.031 C 
ATOM      9  C   UNL     1     -63.137  18.606  20.448  1.00  0.00     0.013 C 
ATOM     10  C   UNL     1     -61.160  16.682  20.681  1.00  0.00    -0.025 C 
ENDBRANCH   1   2
BRANCH   1  11
ATOM     11  O   UNL     1     -59.721  16.147  18.157  1.00  0.00    -0.392 OA
ATOM     12  H   UNL     1     -60.145  15.520  18.800  1.00  0.00     0.211 HD
ENDBRANCH   1  11
TORSDOF 2
ENDMDL
MODEL 2
REMARK VINA RESULT:    -5.169      2.154      3.670
REMARK INTER + INTRA:          -5.663
REMARK INTER:                  -5.638
REMARK INTRA:                  -0.025
REMARK UNBOUND:                -0.041
REMARK SMILES CC1(C)[C@H]2CC=C(CO)[C@@H]1C2
REMARK SMILES IDX 8 1 7 2 1 3 2 4 4 5 3 6 10 7 5 8 11 9 6 10 9 11
REMARK H PARENT 9 12
REMARK Flexibility Score: inf
ROOT
ATOM      1  C   UNL     1     -65.633  17.617  19.384  1.00  0.00     0.187 C 
ENDROOT
BRANCH   1   2
ATOM      2  C   UNL     1     -64.231  17.100  19.528  1.00  0.00    -0.045 C 
ATOM      3  C   UNL     1     -61.427  17.989  22.090  1.00  0.00     0.012 C 
ATOM      4  C   UNL     1     -62.346  17.116  21.199  1.00  0.00    -0.026 C 
ATOM      5  C   UNL     1     -61.584  16.507  19.989  1.00  0.00    -0.000 C 
ATOM      6  C   UNL     1     -63.159  16.165  22.122  1.00  0.00     0.012 C 
ATOM      7  C   UNL     1     -63.115  17.957  20.145  1.00  0.00     0.023 C 
ATOM      8  C   UNL     1     -62.433  15.368  19.327  1.00  0.00     0.031 C 
ATOM      9  C   UNL     1     -61.913  17.788  19.196  1.00  0.00     0.013 C 
ATOM     10  C   UNL     1     -63.884  15.847  19.112  1.00  0.00    -0.025 C 
ENDBRANCH   1   2
BRANCH   1  11
ATOM     11  O   UNL     1     -66.007  17.584  18.035  1.00  0.00    -0.392 OA
ATOM     12  H   UNL     1     -65.587  16.770  17.653  1.00  0.00     0.211 HD
ENDBRANCH   1  11
TORSDOF 2
ENDMDL
MODEL 3
REMARK VINA RESULT:    -5.161      2.288      3.647
REMARK INTER + INTRA:          -5.654
REMARK INTER:                  -5.629
REMARK INTRA:                  -0.024
REMARK UNBOUND:                -0.041
REMARK SMILES CC1(C)[C@H]2CC=C(CO)[C@@H]1C2
REMARK SMILES IDX 8 1 7 2 1 3 2 4 4 5 3 6 10 7 5 8 11 9 6 10 9 11
REMARK H PARENT 9 12
REMARK Flexibility Score: inf
ROOT
ATOM      1  C   UNL     1     -65.186  17.231  18.762  1.00  0.00     0.187 C 
ENDROOT
BRANCH   1   2
ATOM      2  C   UNL     1     -64.036  17.377  19.716  1.00  0.00    -0.045 C 
ATOM      3  C   UNL     1     -60.968  15.066  20.397  1.00  0.00     0.012 C 
ATOM      4  C   UNL     1     -61.768  16.370  20.150  1.00  0.00    -0.026 C 
ATOM      5  C   UNL     1     -61.893  17.235  21.435  1.00  0.00    -0.000 C 
ATOM      6  C   UNL     1     -61.227  17.036  18.853  1.00  0.00     0.012 C 
ATOM      7  C   UNL     1     -63.299  16.155  20.284  1.00  0.00     0.023 C 
ATOM      8  C   UNL     1     -62.384  18.680  21.075  1.00  0.00     0.031 C 
ATOM      9  C   UNL     1     -63.164  16.439  21.793  1.00  0.00     0.013 C 
ATOM     10  C   UNL     1     -63.596  18.604  20.124  1.00  0.00    -0.025 C 
ENDBRANCH   1   2
BRANCH   1  11
ATOM     11  O   UNL     1     -66.306  17.899  19.274  1.00  0.00    -0.392 OA
ATOM     12  H   UNL     1     -65.983  18.415  20.059  1.00  0.00     0.211 HD
ENDBRANCH   1  11
TORSDOF 2
ENDMDL
MODEL 4
REMARK VINA RESULT:    -5.080      1.874      3.196
REMARK INTER + INTRA:          -5.566
REMARK INTER:                  -5.543
REMARK INTRA:                  -0.023
REMARK UNBOUND:                -0.041
REMARK SMILES CC1(C)[C@H]2CC=C(CO)[C@@H]1C2
REMARK SMILES IDX 8 1 7 2 1 3 2 4 4 5 3 6 10 7 5 8 11 9 6 10 9 11
REMARK H PARENT 9 12
REMARK Flexibility Score: inf
ROOT
ATOM      1  C   UNL     1     -61.619  13.794  20.410  1.00  0.00     0.187 C 
ENDROOT
BRANCH   1   2
ATOM      2  C   UNL     1     -62.419  15.051  20.229  1.00  0.00    -0.045 C 
ATOM      3  C   UNL     1     -61.545  18.774  20.998  1.00  0.00     0.012 C 
ATOM      4  C   UNL     1     -62.088  17.548  20.222  1.00  0.00    -0.026 C 
ATOM      5  C   UNL     1     -63.641  17.516  20.187  1.00  0.00    -0.000 C 
ATOM      6  C   UNL     1     -61.311  17.439  18.879  1.00  0.00     0.012 C 
ATOM      7  C   UNL     1     -62.195  16.285  21.116  1.00  0.00     0.023 C 
ATOM      8  C   UNL     1     -64.142  16.488  19.115  1.00  0.00     0.031 C 
ATOM      9  C   UNL     1     -63.609  16.745  21.522  1.00  0.00     0.013 C 
ATOM     10  C   UNL     1     -63.386  15.152  19.269  1.00  0.00    -0.025 C 
ENDBRANCH   1   2
BRANCH   1  11
ATOM     11  O   UNL     1     -62.378  12.693  19.996  1.00  0.00    -0.392 OA
ATOM     12  H   UNL     1     -63.194  12.693  20.563  1.00  0.00     0.211 HD
ENDBRANCH   1  11
TORSDOF 2
ENDMDL
MODEL 5
REMARK VINA RESULT:    -5.076      1.566      3.392
REMARK INTER + INTRA:          -5.561
REMARK INTER:                  -5.514
REMARK INTRA:                  -0.048
REMARK UNBOUND:                -0.041
REMARK SMILES CC1(C)[C@H]2CC=C(CO)[C@@H]1C2
REMARK SMILES IDX 8 1 7 2 1 3 2 4 4 5 3 6 10 7 5 8 11 9 6 10 9 11
REMARK H PARENT 9 12
REMARK Flexibility Score: inf
ROOT
ATOM      1  C   UNL     1     -63.816  14.946  18.936  1.00  0.00     0.187 C 
ENDROOT
BRANCH   1   2
ATOM      2  C   UNL     1     -63.368  16.201  19.628  1.00  0.00    -0.045 C 
ATOM      3  C   UNL     1     -59.908  17.201  21.124  1.00  0.00     0.012 C 
ATOM      4  C   UNL     1     -61.237  17.339  20.340  1.00  0.00    -0.026 C 
ATOM      5  C   UNL     1     -62.253  18.265  21.065  1.00  0.00    -0.000 C 
ATOM      6  C   UNL     1     -60.896  17.628  18.851  1.00  0.00     0.012 C 
ATOM      7  C   UNL     1     -62.230  16.190  20.660  1.00  0.00     0.023 C 
ATOM      8  C   UNL     1     -63.418  18.661  20.094  1.00  0.00     0.031 C 
ATOM      9  C   UNL     1     -62.756  17.030  21.840  1.00  0.00     0.013 C 
ATOM     10  C   UNL     1     -63.956  17.407  19.374  1.00  0.00    -0.025 C 
ENDBRANCH   1   2
BRANCH   1  11
ATOM     11  O   UNL     1     -63.128  13.848  19.467  1.00  0.00    -0.392 OA
ATOM     12  H   UNL     1     -63.108  13.163  18.749  1.00  0.00     0.211 HD
ENDBRANCH   1  11
TORSDOF 2
ENDMDL
MODEL 6
REMARK VINA RESULT:    -5.050     18.531     19.656
REMARK INTER + INTRA:          -5.533
REMARK INTER:                  -5.510
REMARK INTRA:                  -0.023
REMARK UNBOUND:                -0.041
REMARK SMILES CC1(C)[C@H]2CC=C(CO)[C@@H]1C2
REMARK SMILES IDX 8 1 7 2 1 3 2 4 4 5 3 6 10 7 5 8 11 9 6 10 9 11
REMARK H PARENT 9 12
REMARK Flexibility Score: inf
ROOT
ATOM      1  C   UNL     1     -70.955   5.586   8.086  1.00  0.00     0.187 C 
ENDROOT
BRANCH   1   2
ATOM      2  C   UNL     1     -71.059   5.965   6.638  1.00  0.00    -0.045 C 
ATOM      3  C   UNL     1     -69.514   8.950   4.658  1.00  0.00     0.012 C 
ATOM      4  C   UNL     1     -69.948   7.497   4.975  1.00  0.00    -0.026 C 
ATOM      5  C   UNL     1     -71.155   7.042   4.108  1.00  0.00    -0.000 C 
ATOM      6  C   UNL     1     -68.676   6.603   5.006  1.00  0.00     0.012 C 
ATOM      7  C   UNL     1     -70.929   7.424   6.175  1.00  0.00     0.023 C 
ATOM      8  C   UNL     1     -71.335   5.487   4.195  1.00  0.00     0.031 C 
ATOM      9  C   UNL     1     -72.091   7.632   5.184  1.00  0.00     0.013 C 
ATOM     10  C   UNL     1     -71.278   5.030   5.667  1.00  0.00    -0.025 C 
ENDBRANCH   1   2
BRANCH   1  11
ATOM     11  O   UNL     1     -71.768   4.473   8.338  1.00  0.00    -0.392 OA
ATOM     12  H   UNL     1     -71.999   4.095   7.450  1.00  0.00     0.211 HD
ENDBRANCH   1  11
TORSDOF 2
ENDMDL
MODEL 7
REMARK VINA RESULT:    -5.017      0.903      2.645
REMARK INTER + INTRA:          -5.498
REMARK INTER:                  -5.452
REMARK INTRA:                  -0.046
REMARK UNBOUND:                -0.041
REMARK SMILES CC1(C)[C@H]2CC=C(CO)[C@@H]1C2
REMARK SMILES IDX 8 1 7 2 1 3 2 4 4 5 3 6 10 7 5 8 11 9 6 10 9 11
REMARK H PARENT 9 12
REMARK Flexibility Score: inf
ROOT
ATOM      1  C   UNL     1     -60.377  17.410  18.500  1.00  0.00     0.187 C 
ENDROOT
BRANCH   1   2
ATOM      2  C   UNL     1     -61.665  17.376  19.270  1.00  0.00    -0.045 C 
ATOM      3  C   UNL     1     -62.547  15.767  22.712  1.00  0.00     0.012 C 
ATOM      4  C   UNL     1     -62.501  16.825  21.581  1.00  0.00    -0.026 C 
ATOM      5  C   UNL     1     -63.871  16.979  20.865  1.00  0.00    -0.000 C 
ATOM      6  C   UNL     1     -61.803  18.100  22.135  1.00  0.00     0.012 C 
ATOM      7  C   UNL     1     -61.995  16.232  20.240  1.00  0.00     0.023 C 
ATOM      8  C   UNL     1     -63.887  18.280  19.990  1.00  0.00     0.031 C 
ATOM      9  C   UNL     1     -63.450  15.841  19.913  1.00  0.00     0.013 C 
ATOM     10  C   UNL     1     -62.603  18.360  19.139  1.00  0.00    -0.025 C 
ENDBRANCH   1   2
BRANCH   1  11
ATOM     11  O   UNL     1     -59.821  16.125  18.461  1.00  0.00    -0.392 OA
ATOM     12  H   UNL     1     -60.280  15.650  17.720  1.00  0.00     0.211 HD
ENDBRANCH   1  11
TORSDOF 2
ENDMDL
MODEL 8
REMARK VINA RESULT:    -4.915      3.188      4.593
REMARK INTER + INTRA:          -5.386
REMARK INTER:                  -5.332
REMARK INTRA:                  -0.055
REMARK UNBOUND:                -0.041
REMARK SMILES CC1(C)[C@H]2CC=C(CO)[C@@H]1C2
REMARK SMILES IDX 8 1 7 2 1 3 2 4 4 5 3 6 10 7 5 8 11 9 6 10 9 11
REMARK H PARENT 9 12
REMARK Flexibility Score: inf
ROOT
ATOM      1  C   UNL     1     -63.199  15.229  19.686  1.00  0.00     0.187 C 
ENDROOT
BRANCH   1   2
ATOM      2  C   UNL     1     -61.910  14.881  20.372  1.00  0.00    -0.045 C 
ATOM      3  C   UNL     1     -61.026  11.993  22.841  1.00  0.00     0.012 C 
ATOM      4  C   UNL     1     -60.876  12.971  21.649  1.00  0.00    -0.026 C 
ATOM      5  C   UNL     1     -59.784  14.046  21.906  1.00  0.00    -0.000 C 
ATOM      6  C   UNL     1     -60.805  12.136  20.339  1.00  0.00     0.012 C 
ATOM      7  C   UNL     1     -61.887  14.146  21.721  1.00  0.00     0.023 C 
ATOM      8  C   UNL     1     -59.415  14.780  20.570  1.00  0.00     0.031 C 
ATOM      9  C   UNL     1     -60.864  14.918  22.577  1.00  0.00     0.013 C 
ATOM     10  C   UNL     1     -60.699  15.205  19.828  1.00  0.00    -0.025 C 
ENDBRANCH   1   2
BRANCH   1  11
ATOM     11  O   UNL     1     -63.469  14.283  18.689  1.00  0.00    -0.392 OA
ATOM     12  H   UNL     1     -62.802  13.557  18.812  1.00  0.00     0.211 HD
ENDBRANCH   1  11
TORSDOF 2
ENDMDL
MODEL 9
REMARK VINA RESULT:    -4.860     17.223     18.901
REMARK INTER + INTRA:          -5.327
REMARK INTER:                  -5.285
REMARK INTRA:                  -0.042
REMARK UNBOUND:                -0.041
REMARK SMILES CC1(C)[C@H]2CC=C(CO)[C@@H]1C2
REMARK SMILES IDX 8 1 7 2 1 3 2 4 4 5 3 6 10 7 5 8 11 9 6 10 9 11
REMARK H PARENT 9 12
REMARK Flexibility Score: inf
ROOT
ATOM      1  C   UNL     1     -67.965   6.910   4.381  1.00  0.00     0.187 C 
ENDROOT
BRANCH   1   2
ATOM      2  C   UNL     1     -69.395   7.062   4.812  1.00  0.00    -0.045 C 
ATOM      3  C   UNL     1     -70.997   7.168   8.367  1.00  0.00     0.012 C 
ATOM      4  C   UNL     1     -70.725   7.559   6.893  1.00  0.00    -0.026 C 
ATOM      5  C   UNL     1     -71.896   7.158   5.953  1.00  0.00    -0.000 C 
ATOM      6  C   UNL     1     -70.216   9.028   6.864  1.00  0.00     0.012 C 
ATOM      7  C   UNL     1     -69.903   6.479   6.139  1.00  0.00     0.023 C 
ATOM      8  C   UNL     1     -71.752   7.872   4.565  1.00  0.00     0.031 C 
ATOM      9  C   UNL     1     -71.228   5.778   5.785  1.00  0.00     0.013 C 
ATOM     10  C   UNL     1     -70.309   7.721   4.041  1.00  0.00    -0.025 C 
ENDBRANCH   1   2
BRANCH   1  11
ATOM     11  O   UNL     1     -67.386   8.176   4.228  1.00  0.00    -0.392 OA
ATOM     12  H   UNL     1     -66.512   8.026   3.780  1.00  0.00     0.211 HD
ENDBRANCH   1  11
TORSDOF 2
ENDMDL
