MODEL 1
REMARK VINA RESULT:     5.627      0.000      0.000
REMARK INTER + INTRA:           6.075
REMARK INTER:                   6.285
REMARK INTRA:                  -0.210
REMARK UNBOUND:                -0.210
REMARK SMILES CC(C)c1ccc(C(=O)[O-])cc1
REMARK SMILES IDX 7 1 6 2 11 3 5 4 12 5 4 6 8 7 9 8 10 9 2 10 1 11 3 12
REMARK H PARENT
REMARK Flexibility Score: inf
ROOT
ATOM      1  C   UNL     1     -20.291  -5.576  17.237  1.00  0.00    -0.003 A 
ATOM      2  C   UNL     1     -20.888  -6.074  18.406  1.00  0.00     0.010 A 
ATOM      3  C   UNL     1     -20.542  -6.223  16.015  1.00  0.00     0.010 A 
ATOM      4  C   UNL     1     -21.719  -7.197  18.356  1.00  0.00     0.004 A 
ATOM      5  C   UNL     1     -21.373  -7.345  15.964  1.00  0.00     0.004 A 
ATOM      6  C   UNL     1     -21.972  -7.846  17.133  1.00  0.00    -0.045 A 
ENDROOT
BRANCH   1   7
ATOM      7  C   UNL     1     -19.412  -4.387  17.295  1.00  0.00     0.071 C 
ATOM      8  O   UNL     1     -19.882  -3.233  17.113  1.00  0.00    -0.545 OA
ATOM      9  O   UNL     1     -18.052  -4.529  17.550  1.00  0.00    -0.545 OA
ENDBRANCH   1   7
BRANCH   6  10
ATOM     10  C   UNL     1     -22.872  -9.064  17.063  1.00  0.00     0.013 C 
ATOM     11  C   UNL     1     -22.447 -10.125  18.086  1.00  0.00     0.012 C 
ATOM     12  C   UNL     1     -22.904  -9.648  15.645  1.00  0.00     0.012 C 
ENDBRANCH   6  10
TORSDOF 2
ENDMDL
MODEL 2
REMARK VINA RESULT:     5.718      3.057      5.081
REMARK INTER + INTRA:           6.176
REMARK INTER:                   6.386
REMARK INTRA:                  -0.210
REMARK UNBOUND:                -0.210
REMARK SMILES CC(C)c1ccc(C(=O)[O-])cc1
REMARK SMILES IDX 7 1 6 2 11 3 5 4 12 5 4 6 8 7 9 8 10 9 2 10 1 11 3 12
REMARK H PARENT
REMARK Flexibility Score: inf
ROOT
ATOM      1  C   UNL     1     -21.909  -8.047  17.119  1.00  0.00    -0.003 A 
ATOM      2  C   UNL     1     -21.689  -7.512  18.399  1.00  0.00     0.010 A 
ATOM      3  C   UNL     1     -21.381  -7.380  16.001  1.00  0.00     0.010 A 
ATOM      4  C   UNL     1     -20.957  -6.332  18.558  1.00  0.00     0.004 A 
ATOM      5  C   UNL     1     -20.649  -6.200  16.161  1.00  0.00     0.004 A 
ATOM      6  C   UNL     1     -20.428  -5.662  17.440  1.00  0.00    -0.045 A 
ENDROOT
BRANCH   1   7
ATOM      7  C   UNL     1     -22.684  -9.297  16.956  1.00  0.00     0.071 C 
ATOM      8  O   UNL     1     -22.774 -10.124  17.901  1.00  0.00    -0.545 OA
ATOM      9  O   UNL     1     -23.325  -9.576  15.753  1.00  0.00    -0.545 OA
ENDBRANCH   1   7
BRANCH   6  10
ATOM     10  C   UNL     1     -19.632  -4.381  17.597  1.00  0.00     0.013 C 
ATOM     11  C   UNL     1     -20.127  -3.299  16.630  1.00  0.00     0.012 C 
ATOM     12  C   UNL     1     -18.131  -4.636  17.416  1.00  0.00     0.012 C 
ENDBRANCH   6  10
TORSDOF 2
ENDMDL
MODEL 3
REMARK VINA RESULT:     5.759      3.061      5.271
REMARK INTER + INTRA:           6.222
REMARK INTER:                   6.429
REMARK INTRA:                  -0.207
REMARK UNBOUND:                -0.210
REMARK SMILES CC(C)c1ccc(C(=O)[O-])cc1
REMARK SMILES IDX 7 1 6 2 11 3 5 4 12 5 4 6 8 7 9 8 10 9 2 10 1 11 3 12
REMARK H PARENT
REMARK Flexibility Score: inf
ROOT
ATOM      1  C   UNL     1     -21.933  -8.043  17.109  1.00  0.00    -0.003 A 
ATOM      2  C   UNL     1     -21.405  -7.380  15.990  1.00  0.00     0.010 A 
ATOM      3  C   UNL     1     -21.711  -7.506  18.388  1.00  0.00     0.010 A 
ATOM      4  C   UNL     1     -20.667  -6.203  16.146  1.00  0.00     0.004 A 
ATOM      5  C   UNL     1     -20.974  -6.328  18.544  1.00  0.00     0.004 A 
ATOM      6  C   UNL     1     -20.444  -5.663  17.426  1.00  0.00    -0.045 A 
ENDROOT
BRANCH   1   7
ATOM      7  C   UNL     1     -22.713  -9.289  16.939  1.00  0.00     0.071 C 
ATOM      8  O   UNL     1     -22.800 -10.124  17.878  1.00  0.00    -0.545 OA
ATOM      9  O   UNL     1     -23.362  -9.556  15.738  1.00  0.00    -0.545 OA
ENDBRANCH   1   7
BRANCH   6  10
ATOM     10  C   UNL     1     -19.646  -4.386  17.610  1.00  0.00     0.013 C 
ATOM     11  C   UNL     1     -20.127  -3.290  16.652  1.00  0.00     0.012 C 
ATOM     12  C   UNL     1     -18.144  -4.644  17.443  1.00  0.00     0.012 C 
ENDBRANCH   6  10
TORSDOF 2
ENDMDL
MODEL 4
REMARK VINA RESULT:     7.323      0.854      1.407
REMARK INTER + INTRA:           7.969
REMARK INTER:                   8.184
REMARK INTRA:                  -0.216
REMARK UNBOUND:                -0.210
REMARK SMILES CC(C)c1ccc(C(=O)[O-])cc1
REMARK SMILES IDX 7 1 6 2 11 3 5 4 12 5 4 6 8 7 9 8 10 9 2 10 1 11 3 12
REMARK H PARENT
REMARK Flexibility Score: inf
ROOT
ATOM      1  C   UNL     1     -20.863  -5.420  16.998  1.00  0.00    -0.003 A 
ATOM      2  C   UNL     1     -21.049  -5.900  18.304  1.00  0.00     0.010 A 
ATOM      3  C   UNL     1     -21.088  -6.285  15.915  1.00  0.00     0.010 A 
ATOM      4  C   UNL     1     -21.452  -7.220  18.524  1.00  0.00     0.004 A 
ATOM      5  C   UNL     1     -21.491  -7.606  16.134  1.00  0.00     0.004 A 
ATOM      6  C   UNL     1     -21.678  -8.089  17.441  1.00  0.00    -0.045 A 
ENDROOT
BRANCH   1   7
ATOM      7  C   UNL     1     -20.436  -4.021  16.770  1.00  0.00     0.071 C 
ATOM      8  O   UNL     1     -21.036  -3.297  15.932  1.00  0.00    -0.545 OA
ATOM      9  O   UNL     1     -19.366  -3.486  17.479  1.00  0.00    -0.545 OA
ENDBRANCH   1   7
BRANCH   6  10
ATOM     10  C   UNL     1     -22.116  -9.524  17.664  1.00  0.00     0.013 C 
ATOM     11  C   UNL     1     -23.080  -9.985  16.565  1.00  0.00     0.012 C 
ATOM     12  C   UNL     1     -22.738  -9.703  19.053  1.00  0.00     0.012 C 
ENDBRANCH   6  10
TORSDOF 2
ENDMDL
MODEL 5
REMARK VINA RESULT:     8.279      3.059      4.986
REMARK INTER + INTRA:           9.037
REMARK INTER:                   9.244
REMARK INTRA:                  -0.207
REMARK UNBOUND:                -0.210
REMARK SMILES CC(C)c1ccc(C(=O)[O-])cc1
REMARK SMILES IDX 7 1 6 2 11 3 5 4 12 5 4 6 8 7 9 8 10 9 2 10 1 11 3 12
REMARK H PARENT
REMARK Flexibility Score: inf
ROOT
ATOM      1  C   UNL     1     -21.841  -8.066  17.267  1.00  0.00    -0.003 A 
ATOM      2  C   UNL     1     -21.462  -7.334  18.405  1.00  0.00     0.010 A 
ATOM      3  C   UNL     1     -21.427  -7.621  16.001  1.00  0.00     0.010 A 
ATOM      4  C   UNL     1     -20.684  -6.180  18.278  1.00  0.00     0.004 A 
ATOM      5  C   UNL     1     -20.649  -6.466  15.874  1.00  0.00     0.004 A 
ATOM      6  C   UNL     1     -20.268  -5.732  17.010  1.00  0.00    -0.045 A 
ENDROOT
BRANCH   1   7
ATOM      7  C   UNL     1     -22.664  -9.288  17.406  1.00  0.00     0.071 C 
ATOM      8  O   UNL     1     -23.355  -9.708  16.440  1.00  0.00    -0.545 OA
ATOM      9  O   UNL     1     -22.687  -9.990  18.607  1.00  0.00    -0.545 OA
ENDBRANCH   1   7
BRANCH   6  10
ATOM     10  C   UNL     1     -19.424  -4.481  16.858  1.00  0.00     0.013 C 
ATOM     11  C   UNL     1     -18.222  -4.506  17.809  1.00  0.00     0.012 C 
ATOM     12  C   UNL     1     -20.266  -3.217  17.066  1.00  0.00     0.012 C 
ENDBRANCH   6  10
TORSDOF 2
ENDMDL
