MODEL 1
REMARK VINA RESULT:    -3.979      0.000      0.000
REMARK INTER + INTRA:          -5.599
REMARK INTER:                  -5.375
REMARK INTRA:                  -0.224
REMARK UNBOUND:                -0.224
REMARK SMILES C[C@H](O)[C@H](O)[C@@H](O)[C@H](O)C=O
REMARK SMILES IDX 4 1 2 2 1 3 3 4 6 6 8 7 10 8 11 9 9 10 7 12 5 14
REMARK H PARENT 3 5 9 11 7 13 5 15
REMARK Flexibility Score: inf
ROOT
ATOM      1  C   UNL     1      69.484  35.214  59.073  1.00  0.00     0.174 C 
ENDROOT
BRANCH   1   2
ATOM      2  C   UNL     1      70.285  36.231  58.202  1.00  0.00     0.142 C 
ATOM      3  C   UNL     1      71.057  35.547  57.063  1.00  0.00     0.041 C 
BRANCH   2   4
ATOM      4  O   UNL     1      71.185  36.969  58.989  1.00  0.00    -0.391 OA
ATOM      5  H   UNL     1      70.775  37.855  59.171  1.00  0.00     0.211 HD
ENDBRANCH   2   4
ENDBRANCH   1   2
BRANCH   1   6
ATOM      6  C   UNL     1      70.179  34.840  60.417  1.00  0.00     0.181 C 
BRANCH   6   7
ATOM      7  C   UNL     1      70.600  33.345  60.512  1.00  0.00     0.209 C 
BRANCH   7   8
ATOM      8  C   UNL     1      70.455  32.636  59.191  1.00  0.00     0.258 C 
ATOM      9  O   UNL     1      69.779  31.623  59.098  1.00  0.00    -0.300 OA
ENDBRANCH   7   8
BRANCH   7  10
ATOM     10  O   UNL     1      71.946  33.239  60.903  1.00  0.00    -0.383 OA
ATOM     11  H   UNL     1      72.020  33.634  61.812  1.00  0.00     0.211 HD
ENDBRANCH   7  10
ENDBRANCH   6   7
BRANCH   6  12
ATOM     12  O   UNL     1      69.283  35.123  61.466  1.00  0.00    -0.387 OA
ATOM     13  H   UNL     1      69.091  34.267  61.933  1.00  0.00     0.211 HD
ENDBRANCH   6  12
ENDBRANCH   1   6
BRANCH   1  14
ATOM     14  O   UNL     1      68.193  35.712  59.342  1.00  0.00    -0.388 OA
ATOM     15  H   UNL     1      67.624  34.938  59.595  1.00  0.00     0.211 HD
ENDBRANCH   1  14
TORSDOF 8
ENDMDL
MODEL 2
REMARK VINA RESULT:    -3.807      3.301      4.951
REMARK INTER + INTRA:          -5.366
REMARK INTER:                  -4.905
REMARK INTRA:                  -0.461
REMARK UNBOUND:                -0.224
REMARK SMILES C[C@H](O)[C@H](O)[C@@H](O)[C@H](O)C=O
REMARK SMILES IDX 4 1 2 2 1 3 3 4 6 6 8 7 10 8 11 9 9 10 7 12 5 14
REMARK H PARENT 3 5 9 11 7 13 5 15
REMARK Flexibility Score: inf
ROOT
ATOM      1  C   UNL     1      72.312  30.884  60.955  1.00  0.00     0.174 C 
ENDROOT
BRANCH   1   2
ATOM      2  C   UNL     1      71.425  32.105  60.561  1.00  0.00     0.142 C 
ATOM      3  C   UNL     1      71.179  32.188  59.046  1.00  0.00     0.041 C 
BRANCH   2   4
ATOM      4  O   UNL     1      72.002  33.309  60.999  1.00  0.00    -0.391 OA
ATOM      5  H   UNL     1      71.418  33.685  61.709  1.00  0.00     0.211 HD
ENDBRANCH   2   4
ENDBRANCH   1   2
BRANCH   1   6
ATOM      6  C   UNL     1      71.617  29.878  61.923  1.00  0.00     0.181 C 
BRANCH   6   7
ATOM      7  C   UNL     1      70.086  29.734  61.686  1.00  0.00     0.209 C 
BRANCH   7   8
ATOM      8  C   UNL     1      69.759  28.531  60.841  1.00  0.00     0.258 C 
ATOM      9  O   UNL     1      70.181  28.437  59.699  1.00  0.00    -0.300 OA
ENDBRANCH   7   8
BRANCH   7  10
ATOM     10  O   UNL     1      69.412  29.586  62.911  1.00  0.00    -0.383 OA
ATOM     11  H   UNL     1      69.751  28.753  63.334  1.00  0.00     0.211 HD
ENDBRANCH   7  10
ENDBRANCH   6   7
BRANCH   6  12
ATOM     12  O   UNL     1      71.828  30.324  63.242  1.00  0.00    -0.387 OA
ATOM     13  H   UNL     1      71.049  30.030  63.784  1.00  0.00     0.211 HD
ENDBRANCH   6  12
ENDBRANCH   1   6
BRANCH   1  14
ATOM     14  O   UNL     1      72.739  30.197  59.802  1.00  0.00    -0.388 OA
ATOM     15  H   UNL     1      73.317  29.447  60.100  1.00  0.00     0.211 HD
ENDBRANCH   1  14
TORSDOF 8
ENDMDL
MODEL 3
REMARK VINA RESULT:    -3.799     20.084     22.172
REMARK INTER + INTRA:          -5.356
REMARK INTER:                  -4.894
REMARK INTRA:                  -0.462
REMARK UNBOUND:                -0.224
REMARK SMILES C[C@H](O)[C@H](O)[C@@H](O)[C@H](O)C=O
REMARK SMILES IDX 4 1 2 2 1 3 3 4 6 6 8 7 10 8 11 9 9 10 7 12 5 14
REMARK H PARENT 3 5 9 11 7 13 5 15
REMARK Flexibility Score: inf
ROOT
ATOM      1  C   UNL     1      57.693  17.633  50.693  1.00  0.00     0.174 C 
ENDROOT
BRANCH   1   2
ATOM      2  C   UNL     1      56.442  18.554  50.836  1.00  0.00     0.142 C 
ATOM      3  C   UNL     1      56.178  18.965  52.294  1.00  0.00     0.041 C 
BRANCH   2   4
ATOM      4  O   UNL     1      55.294  17.929  50.321  1.00  0.00    -0.391 OA
ATOM      5  H   UNL     1      54.548  18.090  50.958  1.00  0.00     0.211 HD
ENDBRANCH   2   4
ENDBRANCH   1   2
BRANCH   1   6
ATOM      6  C   UNL     1      58.813  18.218  49.781  1.00  0.00     0.181 C 
BRANCH   6   7
ATOM      7  C   UNL     1      58.952  19.765  49.870  1.00  0.00     0.209 C 
BRANCH   7   8
ATOM      8  C   UNL     1      60.038  20.177  50.828  1.00  0.00     0.258 C 
ATOM      9  O   UNL     1      59.931  19.961  52.025  1.00  0.00    -0.300 OA
ENDBRANCH   7   8
BRANCH   7  10
ATOM     10  O   UNL     1      59.274  20.301  48.611  1.00  0.00    -0.383 OA
ATOM     11  H   UNL     1      60.124  19.877  48.319  1.00  0.00     0.211 HD
ENDBRANCH   7  10
ENDBRANCH   6   7
BRANCH   6  12
ATOM     12  O   UNL     1      58.519  17.869  48.449  1.00  0.00    -0.387 OA
ATOM     13  H   UNL     1      57.577  18.132  48.273  1.00  0.00     0.211 HD
ENDBRANCH   6  12
ENDBRANCH   1   6
BRANCH   1  14
ATOM     14  O   UNL     1      58.233  17.342  51.961  1.00  0.00    -0.388 OA
ATOM     15  H   UNL     1      57.980  18.085  52.569  1.00  0.00     0.211 HD
ENDBRANCH   1  14
TORSDOF 8
ENDMDL
MODEL 4
REMARK VINA RESULT:    -3.691      2.576      5.300
REMARK INTER + INTRA:          -5.210
REMARK INTER:                  -4.570
REMARK INTRA:                  -0.640
REMARK UNBOUND:                -0.224
REMARK SMILES C[C@H](O)[C@H](O)[C@@H](O)[C@H](O)C=O
REMARK SMILES IDX 4 1 2 2 1 3 3 4 6 6 8 7 10 8 11 9 9 10 7 12 5 14
REMARK H PARENT 3 5 9 11 7 13 5 15
REMARK Flexibility Score: inf
ROOT
ATOM      1  C   UNL     1      71.540  30.512  60.672  1.00  0.00     0.174 C 
ENDROOT
BRANCH   1   2
ATOM      2  C   UNL     1      71.270  29.720  61.987  1.00  0.00     0.142 C 
ATOM      3  C   UNL     1      69.769  29.529  62.260  1.00  0.00     0.041 C 
BRANCH   2   4
ATOM      4  O   UNL     1      71.859  30.358  63.092  1.00  0.00    -0.391 OA
ATOM      5  H   UNL     1      72.304  31.184  62.764  1.00  0.00     0.211 HD
ENDBRANCH   2   4
ENDBRANCH   1   2
BRANCH   1   6
ATOM      6  C   UNL     1      71.017  31.980  60.694  1.00  0.00     0.181 C 
BRANCH   6   7
ATOM      7  C   UNL     1      70.400  32.447  59.344  1.00  0.00     0.209 C 
BRANCH   7   8
ATOM      8  C   UNL     1      70.410  33.947  59.210  1.00  0.00     0.258 C 
ATOM      9  O   UNL     1      70.109  34.660  60.155  1.00  0.00    -0.300 OA
ENDBRANCH   7   8
BRANCH   7  10
ATOM     10  O   UNL     1      71.130  31.922  58.264  1.00  0.00    -0.383 OA
ATOM     11  H   UNL     1      71.957  32.466  58.175  1.00  0.00     0.211 HD
ENDBRANCH   7  10
ENDBRANCH   6   7
BRANCH   6  12
ATOM     12  O   UNL     1      72.098  32.826  61.010  1.00  0.00    -0.387 OA
ATOM     13  H   UNL     1      72.872  32.540  60.458  1.00  0.00     0.211 HD
ENDBRANCH   6  12
ENDBRANCH   1   6
BRANCH   1  14
ATOM     14  O   UNL     1      72.918  30.517  60.378  1.00  0.00    -0.388 OA
ATOM     15  H   UNL     1      73.067  31.192  59.665  1.00  0.00     0.211 HD
ENDBRANCH   1  14
TORSDOF 8
ENDMDL
MODEL 5
REMARK VINA RESULT:    -3.623      2.778      4.462
REMARK INTER + INTRA:          -5.118
REMARK INTER:                  -4.167
REMARK INTRA:                  -0.951
REMARK UNBOUND:                -0.224
REMARK SMILES C[C@H](O)[C@H](O)[C@@H](O)[C@H](O)C=O
REMARK SMILES IDX 4 1 2 2 1 3 3 4 6 6 8 7 10 8 11 9 9 10 7 12 5 14
REMARK H PARENT 3 5 9 11 7 13 5 15
REMARK Flexibility Score: inf
ROOT
ATOM      1  C   UNL     1      70.976  32.054  60.879  1.00  0.00     0.174 C 
ENDROOT
BRANCH   1   2
ATOM      2  C   UNL     1      70.646  33.239  59.921  1.00  0.00     0.142 C 
ATOM      3  C   UNL     1      70.261  34.519  60.680  1.00  0.00     0.041 C 
BRANCH   2   4
ATOM      4  O   UNL     1      69.607  32.900  59.038  1.00  0.00    -0.391 OA
ATOM      5  H   UNL     1      69.871  32.069  58.562  1.00  0.00     0.211 HD
ENDBRANCH   2   4
ENDBRANCH   1   2
BRANCH   1   6
ATOM      6  C   UNL     1      70.544  30.657  60.337  1.00  0.00     0.181 C 
BRANCH   6   7
ATOM      7  C   UNL     1      70.652  29.515  61.388  1.00  0.00     0.209 C 
BRANCH   7   8
ATOM      8  C   UNL     1      71.857  28.644  61.150  1.00  0.00     0.258 C 
ATOM      9  O   UNL     1      72.985  29.079  61.321  1.00  0.00    -0.300 OA
ENDBRANCH   7   8
BRANCH   7  10
ATOM     10  O   UNL     1      70.766  30.050  62.683  1.00  0.00    -0.383 OA
ATOM     11  H   UNL     1      71.290  29.402  63.224  1.00  0.00     0.211 HD
ENDBRANCH   7  10
ENDBRANCH   6   7
BRANCH   6  12
ATOM     12  O   UNL     1      71.369  30.339  59.241  1.00  0.00    -0.387 OA
ATOM     13  H   UNL     1      72.155  30.946  59.273  1.00  0.00     0.211 HD
ENDBRANCH   6  12
ENDBRANCH   1   6
BRANCH   1  14
ATOM     14  O   UNL     1      72.354  32.031  61.171  1.00  0.00    -0.388 OA
ATOM     15  H   UNL     1      72.806  32.627  60.518  1.00  0.00     0.211 HD
ENDBRANCH   1  14
TORSDOF 8
ENDMDL
MODEL 6
REMARK VINA RESULT:    -3.608      4.461      5.818
REMARK INTER + INTRA:          -5.098
REMARK INTER:                  -4.400
REMARK INTRA:                  -0.699
REMARK UNBOUND:                -0.224
REMARK SMILES C[C@H](O)[C@H](O)[C@@H](O)[C@H](O)C=O
REMARK SMILES IDX 4 1 2 2 1 3 3 4 6 6 8 7 10 8 11 9 9 10 7 12 5 14
REMARK H PARENT 3 5 9 11 7 13 5 15
REMARK Flexibility Score: inf
ROOT
ATOM      1  C   UNL     1      70.924  30.504  60.823  1.00  0.00     0.174 C 
ENDROOT
BRANCH   1   2
ATOM      2  C   UNL     1      72.444  30.594  61.157  1.00  0.00     0.142 C 
ATOM      3  C   UNL     1      73.124  29.215  61.180  1.00  0.00     0.041 C 
BRANCH   2   4
ATOM      4  O   UNL     1      72.653  31.228  62.394  1.00  0.00    -0.391 OA
ATOM      5  H   UNL     1      73.450  31.813  62.305  1.00  0.00     0.211 HD
ENDBRANCH   2   4
ENDBRANCH   1   2
BRANCH   1   6
ATOM      6  C   UNL     1      70.158  29.412  61.630  1.00  0.00     0.181 C 
BRANCH   6   7
ATOM      7  C   UNL     1      68.945  28.803  60.868  1.00  0.00     0.209 C 
BRANCH   7   8
ATOM      8  C   UNL     1      67.722  28.713  61.741  1.00  0.00     0.258 C 
ATOM      9  O   UNL     1      67.630  27.851  62.602  1.00  0.00    -0.300 OA
ENDBRANCH   7   8
BRANCH   7  10
ATOM     10  O   UNL     1      68.615  29.599  59.758  1.00  0.00    -0.383 OA
ATOM     11  H   UNL     1      69.468  29.926  59.366  1.00  0.00     0.211 HD
ENDBRANCH   7  10
ENDBRANCH   6   7
BRANCH   6  12
ATOM     12  O   UNL     1      69.692  29.996  62.824  1.00  0.00    -0.387 OA
ATOM     13  H   UNL     1      70.203  29.590  63.573  1.00  0.00     0.211 HD
ENDBRANCH   6  12
ENDBRANCH   1   6
BRANCH   1  14
ATOM     14  O   UNL     1      70.303  31.752  61.028  1.00  0.00    -0.388 OA
ATOM     15  H   UNL     1      70.929  32.451  60.702  1.00  0.00     0.211 HD
ENDBRANCH   1  14
TORSDOF 8
ENDMDL
MODEL 7
REMARK VINA RESULT:    -3.595     21.567     22.529
REMARK INTER + INTRA:          -5.080
REMARK INTER:                  -4.180
REMARK INTRA:                  -0.899
REMARK UNBOUND:                -0.224
REMARK SMILES C[C@H](O)[C@H](O)[C@@H](O)[C@H](O)C=O
REMARK SMILES IDX 4 1 2 2 1 3 3 4 6 6 8 7 10 8 11 9 9 10 7 12 5 14
REMARK H PARENT 3 5 9 11 7 13 5 15
REMARK Flexibility Score: inf
ROOT
ATOM      1  C   UNL     1      55.307  19.334  51.455  1.00  0.00     0.174 C 
ENDROOT
BRANCH   1   2
ATOM      2  C   UNL     1      56.756  19.147  50.910  1.00  0.00     0.142 C 
ATOM      3  C   UNL     1      57.003  17.729  50.372  1.00  0.00     0.041 C 
BRANCH   2   4
ATOM      4  O   UNL     1      57.709  19.433  51.902  1.00  0.00    -0.391 OA
ATOM      5  H   UNL     1      57.985  18.574  52.316  1.00  0.00     0.211 HD
ENDBRANCH   2   4
ENDBRANCH   1   2
BRANCH   1   6
ATOM      6  C   UNL     1      55.241  19.818  52.936  1.00  0.00     0.181 C 
BRANCH   6   7
ATOM      7  C   UNL     1      53.793  19.948  53.490  1.00  0.00     0.209 C 
BRANCH   7   8
ATOM      8  C   UNL     1      53.386  21.387  53.667  1.00  0.00     0.258 C 
ATOM      9  O   UNL     1      53.209  22.109  52.699  1.00  0.00    -0.300 OA
ENDBRANCH   7   8
BRANCH   7  10
ATOM     10  O   UNL     1      52.875  19.354  52.606  1.00  0.00    -0.383 OA
ATOM     11  H   UNL     1      51.997  19.326  53.070  1.00  0.00     0.211 HD
ENDBRANCH   7  10
ENDBRANCH   6   7
BRANCH   6  12
ATOM     12  O   UNL     1      55.866  21.078  53.012  1.00  0.00    -0.387 OA
ATOM     13  H   UNL     1      56.572  21.019  53.709  1.00  0.00     0.211 HD
ENDBRANCH   6  12
ENDBRANCH   1   6
BRANCH   1  14
ATOM     14  O   UNL     1      54.591  20.234  50.641  1.00  0.00    -0.388 OA
ATOM     15  H   UNL     1      55.249  20.689  50.052  1.00  0.00     0.211 HD
ENDBRANCH   1  14
TORSDOF 8
ENDMDL
MODEL 8
REMARK VINA RESULT:    -3.551      1.292      3.955
REMARK INTER + INTRA:          -5.021
REMARK INTER:                  -4.153
REMARK INTRA:                  -0.868
REMARK UNBOUND:                -0.224
REMARK SMILES C[C@H](O)[C@H](O)[C@@H](O)[C@H](O)C=O
REMARK SMILES IDX 4 1 2 2 1 3 3 4 6 6 8 7 10 8 11 9 9 10 7 12 5 14
REMARK H PARENT 3 5 9 11 7 13 5 15
REMARK Flexibility Score: inf
ROOT
ATOM      1  C   UNL     1      70.478  33.954  59.937  1.00  0.00     0.174 C 
ENDROOT
BRANCH   1   2
ATOM      2  C   UNL     1      70.514  32.482  60.450  1.00  0.00     0.142 C 
ATOM      3  C   UNL     1      71.910  32.064  60.939  1.00  0.00     0.041 C 
BRANCH   2   4
ATOM      4  O   UNL     1      70.092  31.589  59.451  1.00  0.00    -0.391 OA
ATOM      5  H   UNL     1      69.120  31.733  59.304  1.00  0.00     0.211 HD
ENDBRANCH   2   4
ENDBRANCH   1   2
BRANCH   1   6
ATOM      6  C   UNL     1      70.063  34.098  58.441  1.00  0.00     0.181 C 
BRANCH   6   7
ATOM      7  C   UNL     1      70.131  35.558  57.908  1.00  0.00     0.209 C 
BRANCH   7   8
ATOM      8  C   UNL     1      68.761  36.128  57.654  1.00  0.00     0.258 C 
ATOM      9  O   UNL     1      67.938  36.199  58.553  1.00  0.00    -0.300 OA
ENDBRANCH   7   8
BRANCH   7  10
ATOM     10  O   UNL     1      70.770  36.391  58.842  1.00  0.00    -0.383 OA
ATOM     11  H   UNL     1      70.197  37.195  58.959  1.00  0.00     0.211 HD
ENDBRANCH   7  10
ENDBRANCH   6   7
BRANCH   6  12
ATOM     12  O   UNL     1      68.740  33.632  58.308  1.00  0.00    -0.387 OA
ATOM     13  H   UNL     1      68.758  32.646  58.427  1.00  0.00     0.211 HD
ENDBRANCH   6  12
ENDBRANCH   1   6
BRANCH   1  14
ATOM     14  O   UNL     1      69.613  34.729  60.734  1.00  0.00    -0.388 OA
ATOM     15  H   UNL     1      70.068  35.594  60.912  1.00  0.00     0.211 HD
ENDBRANCH   1  14
TORSDOF 8
ENDMDL
MODEL 9
REMARK VINA RESULT:    -3.503     13.677     15.018
REMARK INTER + INTRA:          -4.956
REMARK INTER:                  -4.238
REMARK INTRA:                  -0.718
REMARK UNBOUND:                -0.224
REMARK SMILES C[C@H](O)[C@H](O)[C@@H](O)[C@H](O)C=O
REMARK SMILES IDX 4 1 2 2 1 3 3 4 6 6 8 7 10 8 11 9 9 10 7 12 5 14
REMARK H PARENT 3 5 9 11 7 13 5 15
REMARK Flexibility Score: inf
ROOT
ATOM      1  C   UNL     1      59.526  28.815  50.103  1.00  0.00     0.174 C 
ENDROOT
BRANCH   1   2
ATOM      2  C   UNL     1      58.926  27.402  50.379  1.00  0.00     0.142 C 
ATOM      3  C   UNL     1      59.371  26.830  51.735  1.00  0.00     0.041 C 
BRANCH   2   4
ATOM      4  O   UNL     1      59.277  26.497  49.363  1.00  0.00    -0.391 OA
ATOM      5  H   UNL     1      59.498  27.023  48.550  1.00  0.00     0.211 HD
ENDBRANCH   2   4
ENDBRANCH   1   2
BRANCH   1   6
ATOM      6  C   UNL     1      61.050  28.930  50.409  1.00  0.00     0.181 C 
BRANCH   6   7
ATOM      7  C   UNL     1      61.518  30.378  50.733  1.00  0.00     0.209 C 
BRANCH   7   8
ATOM      8  C   UNL     1      62.992  30.562  50.484  1.00  0.00     0.258 C 
ATOM      9  O   UNL     1      63.401  30.920  49.391  1.00  0.00    -0.300 OA
ENDBRANCH   7   8
BRANCH   7  10
ATOM     10  O   UNL     1      60.835  31.306  49.927  1.00  0.00    -0.383 OA
ATOM     11  H   UNL     1      60.377  31.943  50.537  1.00  0.00     0.211 HD
ENDBRANCH   7  10
ENDBRANCH   6   7
BRANCH   6  12
ATOM     12  O   UNL     1      61.758  28.471  49.281  1.00  0.00    -0.387 OA
ATOM     13  H   UNL     1      61.091  28.148  48.621  1.00  0.00     0.211 HD
ENDBRANCH   6  12
ENDBRANCH   1   6
BRANCH   1  14
ATOM     14  O   UNL     1      59.292  29.193  48.766  1.00  0.00    -0.388 OA
ATOM     15  H   UNL     1      58.312  29.145  48.612  1.00  0.00     0.211 HD
ENDBRANCH   1  14
TORSDOF 8
ENDMDL
