MODEL 1
REMARK VINA RESULT:    -5.261      0.000      0.000
REMARK INTER + INTRA:          -5.415
REMARK INTER:                  -5.415
REMARK INTRA:                   0.000
REMARK UNBOUND:                 0.000
REMARK SMILES Cc1ccccc1O
REMARK SMILES IDX 1 1 2 2 3 3 4 4 5 5 6 6 7 7 8 8
REMARK H PARENT 8 9
REMARK Flexibility Score: inf
ROOT
ATOM      1  C   UNL     1       2.922  34.877  78.868  1.00  0.00     0.048 C 
ATOM      2  C   UNL     1       1.872  34.087  78.138  1.00  0.00    -0.009 A 
ATOM      3  C   UNL     1       0.885  34.745  77.385  1.00  0.00     0.007 A 
ATOM      4  C   UNL     1      -0.091  34.010  76.706  1.00  0.00     0.001 A 
ATOM      5  C   UNL     1      -0.091  32.616  76.772  1.00  0.00     0.004 A 
ATOM      6  C   UNL     1       0.886  31.952  77.519  1.00  0.00     0.046 A 
ATOM      7  C   UNL     1       1.870  32.680  78.203  1.00  0.00     0.118 A 
ENDROOT
BRANCH   7   8
ATOM      8  O   UNL     1       2.843  32.014  78.947  1.00  0.00    -0.508 OA
ATOM      9  H   UNL     1       3.079  32.301  79.890  1.00  0.00     0.293 HD
ENDBRANCH   7   8
TORSDOF 1
ENDMDL
MODEL 2
REMARK VINA RESULT:    -5.138      1.027      2.256
REMARK INTER + INTRA:          -5.288
REMARK INTER:                  -5.288
REMARK INTRA:                   0.000
REMARK UNBOUND:                 0.000
REMARK SMILES Cc1ccccc1O
REMARK SMILES IDX 1 1 2 2 3 3 4 4 5 5 6 6 7 7 8 8
REMARK H PARENT 8 9
REMARK Flexibility Score: inf
ROOT
ATOM      1  C   UNL     1       2.509  31.380  78.895  1.00  0.00     0.048 C 
ATOM      2  C   UNL     1       1.677  32.432  78.217  1.00  0.00    -0.009 A 
ATOM      3  C   UNL     1       0.495  32.079  77.546  1.00  0.00     0.007 A 
ATOM      4  C   UNL     1      -0.278  33.058  76.915  1.00  0.00     0.001 A 
ATOM      5  C   UNL     1       0.121  34.395  76.949  1.00  0.00     0.004 A 
ATOM      6  C   UNL     1       1.296  34.757  77.613  1.00  0.00     0.046 A 
ATOM      7  C   UNL     1       2.078  33.782  78.249  1.00  0.00     0.118 A 
ENDROOT
BRANCH   7   8
ATOM      8  O   UNL     1       3.250  34.148  78.911  1.00  0.00    -0.508 OA
ATOM      9  H   UNL     1       3.227  34.631  79.801  1.00  0.00     0.293 HD
ENDBRANCH   7   8
TORSDOF 1
ENDMDL
MODEL 3
REMARK VINA RESULT:    -4.952      2.099      2.881
REMARK INTER + INTRA:          -5.097
REMARK INTER:                  -5.097
REMARK INTRA:                   0.000
REMARK UNBOUND:                 0.000
REMARK SMILES Cc1ccccc1O
REMARK SMILES IDX 1 1 2 2 3 3 4 4 5 5 6 6 7 7 8 8
REMARK H PARENT 8 9
REMARK Flexibility Score: inf
ROOT
ATOM      1  C   UNL     1       1.034  34.788  77.572  1.00  0.00     0.048 C 
ATOM      2  C   UNL     1       1.207  33.302  77.421  1.00  0.00    -0.009 A 
ATOM      3  C   UNL     1       1.960  32.577  78.358  1.00  0.00     0.007 A 
ATOM      4  C   UNL     1       2.120  31.195  78.218  1.00  0.00     0.001 A 
ATOM      5  C   UNL     1       1.531  30.528  77.142  1.00  0.00     0.004 A 
ATOM      6  C   UNL     1       0.780  31.241  76.204  1.00  0.00     0.046 A 
ATOM      7  C   UNL     1       0.614  32.626  76.336  1.00  0.00     0.118 A 
ENDROOT
BRANCH   7   8
ATOM      8  O   UNL     1      -0.136  33.334  75.398  1.00  0.00    -0.508 OA
ATOM      9  H   UNL     1      -0.975  33.838  75.661  1.00  0.00     0.293 HD
ENDBRANCH   7   8
TORSDOF 1
ENDMDL
MODEL 4
REMARK VINA RESULT:    -4.646      1.654      2.799
REMARK INTER + INTRA:          -4.782
REMARK INTER:                  -4.782
REMARK INTRA:                   0.000
REMARK UNBOUND:                 0.000
REMARK SMILES Cc1ccccc1O
REMARK SMILES IDX 1 1 2 2 3 3 4 4 5 5 6 6 7 7 8 8
REMARK H PARENT 8 9
REMARK Flexibility Score: inf
ROOT
ATOM      1  C   UNL     1       2.267  30.882  77.794  1.00  0.00     0.048 C 
ATOM      2  C   UNL     1       1.703  32.266  77.625  1.00  0.00    -0.009 A 
ATOM      3  C   UNL     1       2.224  33.339  78.366  1.00  0.00     0.007 A 
ATOM      4  C   UNL     1       1.700  34.626  78.208  1.00  0.00     0.001 A 
ATOM      5  C   UNL     1       0.655  34.851  77.310  1.00  0.00     0.004 A 
ATOM      6  C   UNL     1       0.130  33.790  76.568  1.00  0.00     0.046 A 
ATOM      7  C   UNL     1       0.648  32.496  76.720  1.00  0.00     0.118 A 
ENDROOT
BRANCH   7   8
ATOM      8  O   UNL     1       0.121  31.439  75.978  1.00  0.00    -0.508 OA
ATOM      9  H   UNL     1      -0.672  30.902  76.309  1.00  0.00     0.293 HD
ENDBRANCH   7   8
TORSDOF 1
ENDMDL
MODEL 5
REMARK VINA RESULT:    -4.490     15.033     16.259
REMARK INTER + INTRA:          -4.622
REMARK INTER:                  -4.622
REMARK INTRA:                   0.000
REMARK UNBOUND:                 0.000
REMARK SMILES Cc1ccccc1O
REMARK SMILES IDX 1 1 2 2 3 3 4 4 5 5 6 6 7 7 8 8
REMARK H PARENT 8 9
REMARK Flexibility Score: inf
ROOT
ATOM      1  C   UNL     1      13.729  37.020  90.680  1.00  0.00     0.048 C 
ATOM      2  C   UNL     1      13.395  37.185  89.224  1.00  0.00    -0.009 A 
ATOM      3  C   UNL     1      13.633  38.408  88.575  1.00  0.00     0.007 A 
ATOM      4  C   UNL     1      13.323  38.560  87.221  1.00  0.00     0.001 A 
ATOM      5  C   UNL     1      12.774  37.496  86.504  1.00  0.00     0.004 A 
ATOM      6  C   UNL     1      12.533  36.275  87.140  1.00  0.00     0.046 A 
ATOM      7  C   UNL     1      12.841  36.112  88.498  1.00  0.00     0.118 A 
ENDROOT
BRANCH   7   8
ATOM      8  O   UNL     1      12.599  34.893  89.129  1.00  0.00    -0.508 OA
ATOM      9  H   UNL     1      13.273  34.482  89.765  1.00  0.00     0.293 HD
ENDBRANCH   7   8
TORSDOF 1
ENDMDL
MODEL 6
REMARK VINA RESULT:    -4.466     13.621     14.713
REMARK INTER + INTRA:          -4.597
REMARK INTER:                  -4.597
REMARK INTRA:                   0.000
REMARK UNBOUND:                 0.000
REMARK SMILES Cc1ccccc1O
REMARK SMILES IDX 1 1 2 2 3 3 4 4 5 5 6 6 7 7 8 8
REMARK H PARENT 8 9
REMARK Flexibility Score: inf
ROOT
ATOM      1  C   UNL     1      12.997  35.878  84.147  1.00  0.00     0.048 C 
ATOM      2  C   UNL     1      12.858  35.834  85.643  1.00  0.00    -0.009 A 
ATOM      3  C   UNL     1      12.588  37.008  86.365  1.00  0.00     0.007 A 
ATOM      4  C   UNL     1      12.458  36.967  87.756  1.00  0.00     0.001 A 
ATOM      5  C   UNL     1      12.595  35.756  88.437  1.00  0.00     0.004 A 
ATOM      6  C   UNL     1      12.864  34.582  87.728  1.00  0.00     0.046 A 
ATOM      7  C   UNL     1      12.996  34.613  86.332  1.00  0.00     0.118 A 
ENDROOT
BRANCH   7   8
ATOM      8  O   UNL     1      13.264  33.440  85.628  1.00  0.00    -0.508 OA
ATOM      9  H   UNL     1      13.725  32.651  86.068  1.00  0.00     0.293 HD
ENDBRANCH   7   8
TORSDOF 1
ENDMDL
MODEL 7
REMARK VINA RESULT:    -4.445      3.771      5.165
REMARK INTER + INTRA:          -4.575
REMARK INTER:                  -4.575
REMARK INTRA:                   0.000
REMARK UNBOUND:                 0.000
REMARK SMILES Cc1ccccc1O
REMARK SMILES IDX 1 1 2 2 3 3 4 4 5 5 6 6 7 7 8 8
REMARK H PARENT 8 9
REMARK Flexibility Score: inf
ROOT
ATOM      1  C   UNL     1       4.003  28.795  77.195  1.00  0.00     0.048 C 
ATOM      2  C   UNL     1       3.097  29.041  78.369  1.00  0.00    -0.009 A 
ATOM      3  C   UNL     1       2.794  28.000  79.262  1.00  0.00     0.007 A 
ATOM      4  C   UNL     1       1.952  28.229  80.354  1.00  0.00     0.001 A 
ATOM      5  C   UNL     1       1.407  29.497  80.564  1.00  0.00     0.004 A 
ATOM      6  C   UNL     1       1.703  30.540  79.682  1.00  0.00     0.046 A 
ATOM      7  C   UNL     1       2.546  30.320  78.584  1.00  0.00     0.118 A 
ENDROOT
BRANCH   7   8
ATOM      8  O   UNL     1       2.838  31.363  77.705  1.00  0.00    -0.508 OA
ATOM      9  H   UNL     1       3.652  31.953  77.835  1.00  0.00     0.293 HD
ENDBRANCH   7   8
TORSDOF 1
ENDMDL
MODEL 8
REMARK VINA RESULT:    -4.426     14.803     16.090
REMARK INTER + INTRA:          -4.556
REMARK INTER:                  -4.556
REMARK INTRA:                   0.000
REMARK UNBOUND:                 0.000
REMARK SMILES Cc1ccccc1O
REMARK SMILES IDX 1 1 2 2 3 3 4 4 5 5 6 6 7 7 8 8
REMARK H PARENT 8 9
REMARK Flexibility Score: inf
ROOT
ATOM      1  C   UNL     1      14.125  38.288  89.571  1.00  0.00     0.048 C 
ATOM      2  C   UNL     1      13.653  37.358  88.489  1.00  0.00    -0.009 A 
ATOM      3  C   UNL     1      13.759  35.967  88.652  1.00  0.00     0.007 A 
ATOM      4  C   UNL     1      13.320  35.103  87.646  1.00  0.00     0.001 A 
ATOM      5  C   UNL     1      12.771  35.618  86.470  1.00  0.00     0.004 A 
ATOM      6  C   UNL     1      12.661  37.000  86.298  1.00  0.00     0.046 A 
ATOM      7  C   UNL     1      13.099  37.875  87.301  1.00  0.00     0.118 A 
ENDROOT
BRANCH   7   8
ATOM      8  O   UNL     1      12.988  39.254  87.125  1.00  0.00    -0.508 OA
ATOM      9  H   UNL     1      13.753  39.805  86.753  1.00  0.00     0.293 HD
ENDBRANCH   7   8
TORSDOF 1
ENDMDL
MODEL 9
REMARK VINA RESULT:    -4.347      4.125      5.341
REMARK INTER + INTRA:          -4.474
REMARK INTER:                  -4.474
REMARK INTRA:                   0.000
REMARK UNBOUND:                 0.000
REMARK SMILES Cc1ccccc1O
REMARK SMILES IDX 1 1 2 2 3 3 4 4 5 5 6 6 7 7 8 8
REMARK H PARENT 8 9
REMARK Flexibility Score: inf
ROOT
ATOM      1  C   UNL     1       1.286  29.862  80.696  1.00  0.00     0.048 C 
ATOM      2  C   UNL     1       2.124  29.224  79.623  1.00  0.00    -0.009 A 
ATOM      3  C   UNL     1       2.152  27.827  79.482  1.00  0.00     0.007 A 
ATOM      4  C   UNL     1       2.931  27.234  78.485  1.00  0.00     0.001 A 
ATOM      5  C   UNL     1       3.687  28.029  77.621  1.00  0.00     0.004 A 
ATOM      6  C   UNL     1       3.665  29.419  77.752  1.00  0.00     0.046 A 
ATOM      7  C   UNL     1       2.887  30.024  78.750  1.00  0.00     0.118 A 
ENDROOT
BRANCH   7   8
ATOM      8  O   UNL     1       2.869  31.412  78.878  1.00  0.00    -0.508 OA
ATOM      9  H   UNL     1       2.122  31.889  79.370  1.00  0.00     0.293 HD
ENDBRANCH   7   8
TORSDOF 1
ENDMDL
