MODEL 1
REMARK VINA RESULT:    -4.999      0.000      0.000
REMARK INTER + INTRA:          -6.154
REMARK INTER:                  -5.876
REMARK INTRA:                  -0.278
REMARK UNBOUND:                -0.278
REMARK SMILES O=c1cc(-c2ccc(O)c(O)c2)oc2cc(O)cc(O)c12
REMARK SMILES IDX 4 1 3 2 2 3 1 4 21 5 19 6 18 7 16 8 15 9 14 10 13 11 5 12
REMARK SMILES IDX 6 13 7 14 8 15 12 16 10 17 9 18 11 20 20 22 17 24
REMARK H PARENT 9 19 11 21 20 23 17 25
REMARK Flexibility Score: inf
ROOT
ATOM      1  C   UNL     1       9.670  -1.014  16.941  1.00  0.00     0.138 A 
ATOM      2  C   UNL     1      10.997  -0.808  17.349  1.00  0.00     0.100 A 
ATOM      3  C   UNL     1      11.289   0.216  18.251  1.00  0.00     0.197 A 
ATOM      4  O   UNL     1      12.484   0.393  18.610  1.00  0.00    -0.289 OA
ATOM      5  C   UNL     1      10.247   1.028  18.742  1.00  0.00     0.107 A 
ATOM      6  C   UNL     1      10.455   2.087  19.656  1.00  0.00     0.134 A 
ATOM      7  C   UNL     1       9.362   2.845  20.103  1.00  0.00     0.093 A 
ATOM      8  C   UNL     1       8.070   2.564  19.654  1.00  0.00     0.123 A 
ATOM      9  C   UNL     1       7.857   1.518  18.750  1.00  0.00     0.094 A 
ATOM     10  C   UNL     1       8.933   0.751  18.292  1.00  0.00     0.146 A 
ATOM     11  O   UNL     1       8.707  -0.237  17.432  1.00  0.00    -0.456 OA
ENDROOT
BRANCH   1  12
ATOM     12  C   UNL     1       9.301  -2.089  15.986  1.00  0.00     0.021 A 
ATOM     13  C   UNL     1       8.185  -2.900  16.256  1.00  0.00     0.016 A 
ATOM     14  C   UNL     1       7.812  -3.914  15.370  1.00  0.00     0.051 A 
ATOM     15  C   UNL     1       8.541  -4.128  14.193  1.00  0.00     0.157 A 
ATOM     16  C   UNL     1      10.022  -2.301  14.795  1.00  0.00     0.062 A 
ATOM     17  C   UNL     1       9.649  -3.315  13.904  1.00  0.00     0.158 A 
BRANCH  15  18
ATOM     18  O   UNL     1       8.168  -5.142  13.312  1.00  0.00    -0.504 OA
ATOM     19  H   UNL     1       7.937  -4.946  12.346  1.00  0.00     0.293 HD
ENDBRANCH  15  18
BRANCH  17  20
ATOM     20  O   UNL     1      10.389  -3.495  12.736  1.00  0.00    -0.504 OA
ATOM     21  H   UNL     1      10.123  -4.170  12.030  1.00  0.00     0.293 HD
ENDBRANCH  17  20
ENDBRANCH   1  12
BRANCH   6  22
ATOM     22  O   UNL     1      11.735   2.392  20.122  1.00  0.00    -0.507 OA
ATOM     23  H   UNL     1      12.567   2.055  19.651  1.00  0.00     0.293 HD
ENDBRANCH   6  22
BRANCH   8  24
ATOM     24  O   UNL     1       7.002   3.332  20.113  1.00  0.00    -0.508 OA
ATOM     25  H   UNL     1       6.789   3.407  21.102  1.00  0.00     0.293 HD
ENDBRANCH   8  24
TORSDOF 5
ENDMDL
MODEL 2
REMARK VINA RESULT:    -4.796      3.084      5.446
REMARK INTER + INTRA:          -5.915
REMARK INTER:                  -5.620
REMARK INTRA:                  -0.295
REMARK UNBOUND:                -0.278
REMARK SMILES O=c1cc(-c2ccc(O)c(O)c2)oc2cc(O)cc(O)c12
REMARK SMILES IDX 4 1 3 2 2 3 1 4 21 5 19 6 18 7 16 8 15 9 14 10 13 11 5 12
REMARK SMILES IDX 6 13 7 14 8 15 12 16 10 17 9 18 11 20 20 22 17 24
REMARK H PARENT 9 19 11 21 20 23 17 25
REMARK Flexibility Score: inf
ROOT
ATOM      1  C   UNL     1      10.965  -0.627  18.855  1.00  0.00     0.138 A 
ATOM      2  C   UNL     1       9.932  -1.522  18.533  1.00  0.00     0.100 A 
ATOM      3  C   UNL     1       8.662  -1.027  18.233  1.00  0.00     0.197 A 
ATOM      4  O   UNL     1       7.741  -1.838  17.945  1.00  0.00    -0.289 OA
ATOM      5  C   UNL     1       8.435   0.364  18.255  1.00  0.00     0.107 A 
ATOM      6  C   UNL     1       7.179   0.949  17.966  1.00  0.00     0.134 A 
ATOM      7  C   UNL     1       7.037   2.344  18.004  1.00  0.00     0.093 A 
ATOM      8  C   UNL     1       8.122   3.162  18.324  1.00  0.00     0.123 A 
ATOM      9  C   UNL     1       9.367   2.590  18.611  1.00  0.00     0.094 A 
ATOM     10  C   UNL     1       9.529   1.202  18.579  1.00  0.00     0.146 A 
ATOM     11  O   UNL     1      10.720   0.681  18.857  1.00  0.00    -0.456 OA
ENDROOT
BRANCH   1  12
ATOM     12  C   UNL     1      12.335  -1.097  19.181  1.00  0.00     0.021 A 
ATOM     13  C   UNL     1      13.395  -0.174  19.202  1.00  0.00     0.016 A 
ATOM     14  C   UNL     1      14.692  -0.589  19.512  1.00  0.00     0.051 A 
ATOM     15  C   UNL     1      14.952  -1.931  19.817  1.00  0.00     0.157 A 
ATOM     16  C   UNL     1      12.600  -2.443  19.501  1.00  0.00     0.062 A 
ATOM     17  C   UNL     1      13.899  -2.861  19.814  1.00  0.00     0.158 A 
BRANCH  15  18
ATOM     18  O   UNL     1      16.248  -2.342  20.125  1.00  0.00    -0.504 OA
ATOM     19  H   UNL     1      16.655  -2.176  21.037  1.00  0.00     0.293 HD
ENDBRANCH  15  18
BRANCH  17  20
ATOM     20  O   UNL     1      14.122  -4.202  20.125  1.00  0.00    -0.504 OA
ATOM     21  H   UNL     1      13.394  -4.795  20.504  1.00  0.00     0.293 HD
ENDBRANCH  17  20
ENDBRANCH   1  12
BRANCH   6  22
ATOM     22  O   UNL     1       6.076   0.157  17.643  1.00  0.00    -0.507 OA
ATOM     23  H   UNL     1       5.210   0.562  17.307  1.00  0.00     0.293 HD
ENDBRANCH   6  22
BRANCH   8  24
ATOM     24  O   UNL     1       7.954   4.545  18.354  1.00  0.00    -0.508 OA
ATOM     25  H   UNL     1       8.439   5.123  19.031  1.00  0.00     0.293 HD
ENDBRANCH   8  24
TORSDOF 5
ENDMDL
MODEL 3
REMARK VINA RESULT:    -4.691      3.723      6.259
REMARK INTER + INTRA:          -5.792
REMARK INTER:                  -5.476
REMARK INTRA:                  -0.316
REMARK UNBOUND:                -0.278
REMARK SMILES O=c1cc(-c2ccc(O)c(O)c2)oc2cc(O)cc(O)c12
REMARK SMILES IDX 4 1 3 2 2 3 1 4 21 5 19 6 18 7 16 8 15 9 14 10 13 11 5 12
REMARK SMILES IDX 6 13 7 14 8 15 12 16 10 17 9 18 11 20 20 22 17 24
REMARK H PARENT 9 19 11 21 20 23 17 25
REMARK Flexibility Score: inf
ROOT
ATOM      1  C   UNL     1      10.749  -1.487  18.964  1.00  0.00     0.138 A 
ATOM      2  C   UNL     1      10.133  -0.354  18.407  1.00  0.00     0.100 A 
ATOM      3  C   UNL     1       8.753  -0.354  18.197  1.00  0.00     0.197 A 
ATOM      4  O   UNL     1       8.211   0.667  17.696  1.00  0.00    -0.289 OA
ATOM      5  C   UNL     1       7.997  -1.489  18.551  1.00  0.00     0.107 A 
ATOM      6  C   UNL     1       6.596  -1.573  18.371  1.00  0.00     0.134 A 
ATOM      7  C   UNL     1       5.914  -2.738  18.755  1.00  0.00     0.093 A 
ATOM      8  C   UNL     1       6.604  -3.815  19.314  1.00  0.00     0.123 A 
ATOM      9  C   UNL     1       7.990  -3.739  19.495  1.00  0.00     0.094 A 
ATOM     10  C   UNL     1       8.688  -2.587  19.118  1.00  0.00     0.146 A 
ATOM     11  O   UNL     1      10.004  -2.538  19.297  1.00  0.00    -0.456 OA
ENDROOT
BRANCH   1  12
ATOM     12  C   UNL     1      12.211  -1.542  19.211  1.00  0.00     0.021 A 
ATOM     13  C   UNL     1      12.971  -0.361  19.137  1.00  0.00     0.016 A 
ATOM     14  C   UNL     1      14.347  -0.385  19.372  1.00  0.00     0.051 A 
ATOM     15  C   UNL     1      14.989  -1.587  19.697  1.00  0.00     0.157 A 
ATOM     16  C   UNL     1      12.860  -2.746  19.550  1.00  0.00     0.062 A 
ATOM     17  C   UNL     1      14.239  -2.772  19.789  1.00  0.00     0.158 A 
BRANCH  15  18
ATOM     18  O   UNL     1      16.363  -1.608  19.929  1.00  0.00    -0.504 OA
ATOM     19  H   UNL     1      16.742  -1.781  20.852  1.00  0.00     0.293 HD
ENDBRANCH  15  18
BRANCH  17  20
ATOM     20  O   UNL     1      14.846  -3.983  20.121  1.00  0.00    -0.504 OA
ATOM     21  H   UNL     1      15.096  -4.215  21.075  1.00  0.00     0.293 HD
ENDBRANCH  17  20
ENDBRANCH   1  12
BRANCH   6  22
ATOM     22  O   UNL     1       5.879  -0.512  17.815  1.00  0.00    -0.507 OA
ATOM     23  H   UNL     1       5.778  -0.406  16.813  1.00  0.00     0.293 HD
ENDBRANCH   6  22
BRANCH   8  24
ATOM     24  O   UNL     1       5.903  -4.960  19.688  1.00  0.00    -0.508 OA
ATOM     25  H   UNL     1       4.951  -4.909  20.034  1.00  0.00     0.293 HD
ENDBRANCH   8  24
TORSDOF 5
ENDMDL
MODEL 4
REMARK VINA RESULT:    -4.500      3.394      3.983
REMARK INTER + INTRA:          -5.567
REMARK INTER:                  -5.275
REMARK INTRA:                  -0.291
REMARK UNBOUND:                -0.278
REMARK SMILES O=c1cc(-c2ccc(O)c(O)c2)oc2cc(O)cc(O)c12
REMARK SMILES IDX 4 1 3 2 2 3 1 4 21 5 19 6 18 7 16 8 15 9 14 10 13 11 5 12
REMARK SMILES IDX 6 13 7 14 8 15 12 16 10 17 9 18 11 20 20 22 17 24
REMARK H PARENT 9 19 11 21 20 23 17 25
REMARK Flexibility Score: inf
ROOT
ATOM      1  C   UNL     1       8.928  -2.427  19.039  1.00  0.00     0.138 A 
ATOM      2  C   UNL     1      10.254  -2.477  18.580  1.00  0.00     0.100 A 
ATOM      3  C   UNL     1      10.938  -1.288  18.321  1.00  0.00     0.197 A 
ATOM      4  O   UNL     1      12.128  -1.344  17.909  1.00  0.00    -0.289 OA
ATOM      5  C   UNL     1      10.290  -0.054  18.528  1.00  0.00     0.107 A 
ATOM      6  C   UNL     1      10.909   1.196  18.290  1.00  0.00     0.134 A 
ATOM      7  C   UNL     1      10.197   2.381  18.526  1.00  0.00     0.093 A 
ATOM      8  C   UNL     1       8.882   2.340  18.996  1.00  0.00     0.123 A 
ATOM      9  C   UNL     1       8.264   1.107  19.233  1.00  0.00     0.094 A 
ATOM     10  C   UNL     1       8.957  -0.085  19.003  1.00  0.00     0.146 A 
ATOM     11  O   UNL     1       8.349  -1.244  19.234  1.00  0.00    -0.456 OA
ENDROOT
BRANCH   1  12
ATOM     12  C   UNL     1       8.153  -3.658  19.332  1.00  0.00     0.021 A 
ATOM     13  C   UNL     1       6.748  -3.611  19.314  1.00  0.00     0.016 A 
ATOM     14  C   UNL     1       5.996  -4.758  19.579  1.00  0.00     0.051 A 
ATOM     15  C   UNL     1       6.633  -5.974  19.857  1.00  0.00     0.157 A 
ATOM     16  C   UNL     1       8.788  -4.887  19.600  1.00  0.00     0.062 A 
ATOM     17  C   UNL     1       8.036  -6.038  19.863  1.00  0.00     0.158 A 
BRANCH  15  18
ATOM     18  O   UNL     1       5.878  -7.115  20.123  1.00  0.00    -0.504 OA
ATOM     19  H   UNL     1       5.441  -7.264  21.024  1.00  0.00     0.293 HD
ENDBRANCH  15  18
BRANCH  17  20
ATOM     20  O   UNL     1       8.700  -7.236  20.125  1.00  0.00    -0.504 OA
ATOM     21  H   UNL     1       8.235  -8.026  20.554  1.00  0.00     0.293 HD
ENDBRANCH  17  20
ENDBRANCH   1  12
BRANCH   6  22
ATOM     22  O   UNL     1      12.222   1.268  17.820  1.00  0.00    -0.507 OA
ATOM     23  H   UNL     1      12.684   0.467  17.407  1.00  0.00     0.293 HD
ENDBRANCH   6  22
BRANCH   8  24
ATOM     24  O   UNL     1       8.198   3.532  19.223  1.00  0.00    -0.508 OA
ATOM     25  H   UNL     1       8.688   4.413  19.329  1.00  0.00     0.293 HD
ENDBRANCH   8  24
TORSDOF 5
ENDMDL
MODEL 5
REMARK VINA RESULT:    -4.118      2.691      6.884
REMARK INTER + INTRA:          -5.118
REMARK INTER:                  -4.850
REMARK INTRA:                  -0.269
REMARK UNBOUND:                -0.278
REMARK SMILES O=c1cc(-c2ccc(O)c(O)c2)oc2cc(O)cc(O)c12
REMARK SMILES IDX 4 1 3 2 2 3 1 4 21 5 19 6 18 7 16 8 15 9 14 10 13 11 5 12
REMARK SMILES IDX 6 13 7 14 8 15 12 16 10 17 9 18 11 20 20 22 17 24
REMARK H PARENT 9 19 11 21 20 23 17 25
REMARK Flexibility Score: inf
ROOT
ATOM      1  C   UNL     1       9.165   1.340  18.518  1.00  0.00     0.138 A 
ATOM      2  C   UNL     1       8.698   0.300  17.698  1.00  0.00     0.100 A 
ATOM      3  C   UNL     1       9.538  -0.775  17.404  1.00  0.00     0.197 A 
ATOM      4  O   UNL     1       9.109  -1.703  16.668  1.00  0.00    -0.289 OA
ATOM      5  C   UNL     1      10.842  -0.803  17.937  1.00  0.00     0.107 A 
ATOM      6  C   UNL     1      11.758  -1.852  17.688  1.00  0.00     0.134 A 
ATOM      7  C   UNL     1      13.038  -1.809  18.261  1.00  0.00     0.093 A 
ATOM      8  C   UNL     1      13.418  -0.740  19.075  1.00  0.00     0.123 A 
ATOM      9  C   UNL     1      12.517   0.301  19.325  1.00  0.00     0.094 A 
ATOM     10  C   UNL     1      11.237   0.277  18.763  1.00  0.00     0.146 A 
ATOM     11  O   UNL     1      10.399   1.278  19.013  1.00  0.00    -0.456 OA
ENDROOT
BRANCH   1  12
ATOM     12  C   UNL     1       8.315   2.507  18.865  1.00  0.00     0.021 A 
ATOM     13  C   UNL     1       7.256   2.344  19.775  1.00  0.00     0.016 A 
ATOM     14  C   UNL     1       6.446   3.427  20.124  1.00  0.00     0.051 A 
ATOM     15  C   UNL     1       6.686   4.695  19.579  1.00  0.00     0.157 A 
ATOM     16  C   UNL     1       8.559   3.787  18.330  1.00  0.00     0.062 A 
ATOM     17  C   UNL     1       7.751   4.874  18.680  1.00  0.00     0.158 A 
BRANCH  15  18
ATOM     18  O   UNL     1       5.875   5.773  19.928  1.00  0.00    -0.504 OA
ATOM     19  H   UNL     1       5.460   6.374  19.227  1.00  0.00     0.293 HD
ENDBRANCH  15  18
BRANCH  17  20
ATOM     20  O   UNL     1       8.023   6.126  18.128  1.00  0.00    -0.504 OA
ATOM     21  H   UNL     1       8.586   6.235  17.294  1.00  0.00     0.293 HD
ENDBRANCH  17  20
ENDBRANCH   1  12
BRANCH   6  22
ATOM     22  O   UNL     1      11.407  -2.934  16.878  1.00  0.00    -0.507 OA
ATOM     23  H   UNL     1      10.443  -3.123  16.632  1.00  0.00     0.293 HD
ENDBRANCH   6  22
BRANCH   8  24
ATOM     24  O   UNL     1      14.694  -0.721  19.632  1.00  0.00    -0.508 OA
ATOM     25  H   UNL     1      15.451  -0.198  19.206  1.00  0.00     0.293 HD
ENDBRANCH   8  24
TORSDOF 5
ENDMDL
MODEL 6
REMARK VINA RESULT:    -3.955     11.151     14.085
REMARK INTER + INTRA:          -4.927
REMARK INTER:                  -4.663
REMARK INTRA:                  -0.264
REMARK UNBOUND:                -0.278
REMARK SMILES O=c1cc(-c2ccc(O)c(O)c2)oc2cc(O)cc(O)c12
REMARK SMILES IDX 4 1 3 2 2 3 1 4 21 5 19 6 18 7 16 8 15 9 14 10 13 11 5 12
REMARK SMILES IDX 6 13 7 14 8 15 12 16 10 17 9 18 11 20 20 22 17 24
REMARK H PARENT 9 19 11 21 20 23 17 25
REMARK Flexibility Score: inf
ROOT
ATOM      1  C   UNL     1      19.830  -6.328  18.795  1.00  0.00     0.138 A 
ATOM      2  C   UNL     1      18.833  -6.930  19.580  1.00  0.00     0.100 A 
ATOM      3  C   UNL     1      18.554  -8.288  19.415  1.00  0.00     0.197 A 
ATOM      4  O   UNL     1      17.658  -8.819  20.125  1.00  0.00    -0.289 OA
ATOM      5  C   UNL     1      19.279  -9.036  18.466  1.00  0.00     0.107 A 
ATOM      6  C   UNL     1      19.060 -10.414  18.235  1.00  0.00     0.134 A 
ATOM      7  C   UNL     1      19.829 -11.089  17.275  1.00  0.00     0.093 A 
ATOM      8  C   UNL     1      20.810 -10.414  16.545  1.00  0.00     0.123 A 
ATOM      9  C   UNL     1      21.032  -9.051  16.769  1.00  0.00     0.094 A 
ATOM     10  C   UNL     1      20.275  -8.360  17.721  1.00  0.00     0.146 A 
ATOM     11  O   UNL     1      20.503  -7.065  17.915  1.00  0.00    -0.456 OA
ENDROOT
BRANCH   1  12
ATOM     12  C   UNL     1      20.169  -4.889  18.928  1.00  0.00     0.021 A 
ATOM     13  C   UNL     1      21.275  -4.509  19.709  1.00  0.00     0.016 A 
ATOM     14  C   UNL     1      21.620  -3.162  19.845  1.00  0.00     0.051 A 
ATOM     15  C   UNL     1      20.874  -2.172  19.194  1.00  0.00     0.157 A 
ATOM     16  C   UNL     1      19.430  -3.889  18.266  1.00  0.00     0.062 A 
ATOM     17  C   UNL     1      19.776  -2.539  18.398  1.00  0.00     0.158 A 
BRANCH  15  18
ATOM     18  O   UNL     1      21.220  -0.829  19.333  1.00  0.00    -0.504 OA
ATOM     19  H   UNL     1      21.784  -0.352  18.640  1.00  0.00     0.293 HD
ENDBRANCH  15  18
BRANCH  17  20
ATOM     20  O   UNL     1      19.020  -1.577  17.728  1.00  0.00    -0.504 OA
ATOM     21  H   UNL     1      18.681  -1.721  16.785  1.00  0.00     0.293 HD
ENDBRANCH  17  20
ENDBRANCH   1  12
BRANCH   6  22
ATOM     22  O   UNL     1      18.087 -11.116  18.949  1.00  0.00    -0.507 OA
ATOM     23  H   UNL     1      17.978 -12.119  18.857  1.00  0.00     0.293 HD
ENDBRANCH   6  22
BRANCH   8  24
ATOM     24  O   UNL     1      21.560 -11.108  15.598  1.00  0.00    -0.508 OA
ATOM     25  H   UNL     1      21.498 -12.117  15.509  1.00  0.00     0.293 HD
ENDBRANCH   8  24
TORSDOF 5
ENDMDL
MODEL 7
REMARK VINA RESULT:    -3.625      1.077      2.638
REMARK INTER + INTRA:          -4.538
REMARK INTER:                  -4.252
REMARK INTRA:                  -0.287
REMARK UNBOUND:                -0.278
REMARK SMILES O=c1cc(-c2ccc(O)c(O)c2)oc2cc(O)cc(O)c12
REMARK SMILES IDX 4 1 3 2 2 3 1 4 21 5 19 6 18 7 16 8 15 9 14 10 13 11 5 12
REMARK SMILES IDX 6 13 7 14 8 15 12 16 10 17 9 18 11 20 20 22 17 24
REMARK H PARENT 9 19 11 21 20 23 17 25
REMARK Flexibility Score: inf
ROOT
ATOM      1  C   UNL     1       9.076  -0.929  16.904  1.00  0.00     0.138 A 
ATOM      2  C   UNL     1       7.974  -0.154  17.302  1.00  0.00     0.100 A 
ATOM      3  C   UNL     1       8.158   0.885  18.215  1.00  0.00     0.197 A 
ATOM      4  O   UNL     1       7.163   1.575  18.565  1.00  0.00    -0.289 OA
ATOM      5  C   UNL     1       9.447   1.146  18.722  1.00  0.00     0.107 A 
ATOM      6  C   UNL     1       9.721   2.178  19.650  1.00  0.00     0.134 A 
ATOM      7  C   UNL     1      11.034   2.376  20.102  1.00  0.00     0.093 A 
ATOM      8  C   UNL     1      12.075   1.565  19.645  1.00  0.00     0.123 A 
ATOM      9  C   UNL     1      11.811   0.542  18.727  1.00  0.00     0.094 A 
ATOM     10  C   UNL     1      10.509   0.328  18.264  1.00  0.00     0.146 A 
ATOM     11  O   UNL     1      10.282  -0.650  17.393  1.00  0.00    -0.456 OA
ENDROOT
BRANCH   1  12
ATOM     12  C   UNL     1       8.940  -2.045  15.935  1.00  0.00     0.021 A 
ATOM     13  C   UNL     1       7.956  -3.027  16.145  1.00  0.00     0.016 A 
ATOM     14  C   UNL     1       7.803  -4.084  15.245  1.00  0.00     0.051 A 
ATOM     15  C   UNL     1       8.623  -4.173  14.112  1.00  0.00     0.157 A 
ATOM     16  C   UNL     1       9.753  -2.133  14.788  1.00  0.00     0.062 A 
ATOM     17  C   UNL     1       9.600  -3.190  13.883  1.00  0.00     0.158 A 
BRANCH  15  18
ATOM     18  O   UNL     1       8.468  -5.230  13.217  1.00  0.00    -0.504 OA
ATOM     19  H   UNL     1       7.814  -5.983  13.393  1.00  0.00     0.293 HD
ENDBRANCH  15  18
BRANCH  17  20
ATOM     20  O   UNL     1      10.424  -3.245  12.759  1.00  0.00    -0.504 OA
ATOM     21  H   UNL     1      10.955  -2.443  12.442  1.00  0.00     0.293 HD
ENDBRANCH  17  20
ENDBRANCH   1  12
BRANCH   6  22
ATOM     22  O   UNL     1       8.701   3.004  20.125  1.00  0.00    -0.507 OA
ATOM     23  H   UNL     1       8.636   3.260  21.103  1.00  0.00     0.293 HD
ENDBRANCH   6  22
BRANCH   8  24
ATOM     24  O   UNL     1      13.370   1.783  20.109  1.00  0.00    -0.508 OA
ATOM     25  H   UNL     1      13.565   2.465  20.834  1.00  0.00     0.293 HD
ENDBRANCH   8  24
TORSDOF 5
ENDMDL
MODEL 8
REMARK VINA RESULT:    -3.579     11.244     14.130
REMARK INTER + INTRA:          -4.485
REMARK INTER:                  -4.206
REMARK INTRA:                  -0.278
REMARK UNBOUND:                -0.278
REMARK SMILES O=c1cc(-c2ccc(O)c(O)c2)oc2cc(O)cc(O)c12
REMARK SMILES IDX 4 1 3 2 2 3 1 4 21 5 19 6 18 7 16 8 15 9 14 10 13 11 5 12
REMARK SMILES IDX 6 13 7 14 8 15 12 16 10 17 9 18 11 20 20 22 17 24
REMARK H PARENT 9 19 11 21 20 23 17 25
REMARK Flexibility Score: inf
ROOT
ATOM      1  C   UNL     1      19.676  -6.182  18.733  1.00  0.00     0.138 A 
ATOM      2  C   UNL     1      18.758  -6.742  17.830  1.00  0.00     0.100 A 
ATOM      3  C   UNL     1      18.822  -8.105  17.540  1.00  0.00     0.197 A 
ATOM      4  O   UNL     1      17.994  -8.598  16.727  1.00  0.00    -0.289 OA
ATOM      5  C   UNL     1      19.805  -8.902  18.160  1.00  0.00     0.107 A 
ATOM      6  C   UNL     1      19.941 -10.291  17.922  1.00  0.00     0.134 A 
ATOM      7  C   UNL     1      20.942 -11.015  18.585  1.00  0.00     0.093 A 
ATOM      8  C   UNL     1      21.807 -10.380  19.479  1.00  0.00     0.123 A 
ATOM      9  C   UNL     1      21.678  -9.008  19.719  1.00  0.00     0.094 A 
ATOM     10  C   UNL     1      20.687  -8.268  19.068  1.00  0.00     0.146 A 
ATOM     11  O   UNL     1      20.585  -6.965  19.310  1.00  0.00    -0.456 OA
ENDROOT
BRANCH   1  12
ATOM     12  C   UNL     1      19.654  -4.739  19.081  1.00  0.00     0.021 A 
ATOM     13  C   UNL     1      18.502  -4.187  19.668  1.00  0.00     0.016 A 
ATOM     14  C   UNL     1      18.458  -2.834  20.011  1.00  0.00     0.051 A 
ATOM     15  C   UNL     1      19.568  -2.010  19.783  1.00  0.00     0.157 A 
ATOM     16  C   UNL     1      20.771  -3.908  18.865  1.00  0.00     0.062 A 
ATOM     17  C   UNL     1      20.730  -2.552  19.210  1.00  0.00     0.158 A 
BRANCH  15  18
ATOM     18  O   UNL     1      19.520  -0.659  20.125  1.00  0.00    -0.504 OA
ATOM     19  H   UNL     1      20.280  -0.028  19.902  1.00  0.00     0.293 HD
ENDBRANCH  15  18
BRANCH  17  20
ATOM     20  O   UNL     1      21.855  -1.761  18.981  1.00  0.00    -0.504 OA
ATOM     21  H   UNL     1      21.800  -0.874  18.495  1.00  0.00     0.293 HD
ENDBRANCH  17  20
ENDBRANCH   1  12
BRANCH   6  22
ATOM     22  O   UNL     1      19.090 -10.953  17.034  1.00  0.00    -0.507 OA
ATOM     23  H   UNL     1      18.732 -10.498  16.202  1.00  0.00     0.293 HD
ENDBRANCH   6  22
BRANCH   8  24
ATOM     24  O   UNL     1      22.793 -11.123  20.125  1.00  0.00    -0.508 OA
ATOM     25  H   UNL     1      23.750 -10.794  20.187  1.00  0.00     0.293 HD
ENDBRANCH   8  24
TORSDOF 5
ENDMDL
MODEL 9
REMARK VINA RESULT:    -3.527      3.261      5.848
REMARK INTER + INTRA:          -4.424
REMARK INTER:                  -4.120
REMARK INTRA:                  -0.304
REMARK UNBOUND:                -0.278
REMARK SMILES O=c1cc(-c2ccc(O)c(O)c2)oc2cc(O)cc(O)c12
REMARK SMILES IDX 4 1 3 2 2 3 1 4 21 5 19 6 18 7 16 8 15 9 14 10 13 11 5 12
REMARK SMILES IDX 6 13 7 14 8 15 12 16 10 17 9 18 11 20 20 22 17 24
REMARK H PARENT 9 19 11 21 20 23 17 25
REMARK Flexibility Score: inf
ROOT
ATOM      1  C   UNL     1      12.053  -1.546  18.833  1.00  0.00     0.138 A 
ATOM      2  C   UNL     1      11.132  -2.552  18.498  1.00  0.00     0.100 A 
ATOM      3  C   UNL     1       9.815  -2.205  18.191  1.00  0.00     0.197 A 
ATOM      4  O   UNL     1       8.997  -3.116  17.892  1.00  0.00    -0.289 OA
ATOM      5  C   UNL     1       9.429  -0.850  18.217  1.00  0.00     0.107 A 
ATOM      6  C   UNL     1       8.117  -0.412  17.920  1.00  0.00     0.134 A 
ATOM      7  C   UNL     1       7.814   0.957  17.962  1.00  0.00     0.093 A 
ATOM      8  C   UNL     1       8.796   1.893  18.294  1.00  0.00     0.123 A 
ATOM      9  C   UNL     1      10.095   1.467  18.588  1.00  0.00     0.094 A 
ATOM     10  C   UNL     1      10.417   0.107  18.552  1.00  0.00     0.146 A 
ATOM     11  O   UNL     1      11.658  -0.274  18.837  1.00  0.00    -0.456 OA
ENDROOT
BRANCH   1  12
ATOM     12  C   UNL     1      13.465  -1.855  19.167  1.00  0.00     0.021 A 
ATOM     13  C   UNL     1      13.775  -3.068  19.806  1.00  0.00     0.016 A 
ATOM     14  C   UNL     1      15.097  -3.387  20.125  1.00  0.00     0.051 A 
ATOM     15  C   UNL     1      16.135  -2.504  19.800  1.00  0.00     0.157 A 
ATOM     16  C   UNL     1      14.515  -0.977  18.832  1.00  0.00     0.062 A 
ATOM     17  C   UNL     1      15.841  -1.296  19.148  1.00  0.00     0.158 A 
BRANCH  15  18
ATOM     18  O   UNL     1      17.453  -2.825  20.121  1.00  0.00    -0.504 OA
ATOM     19  H   UNL     1      17.851  -2.593  21.023  1.00  0.00     0.293 HD
ENDBRANCH  15  18
BRANCH  17  20
ATOM     20  O   UNL     1      16.853  -0.401  18.802  1.00  0.00    -0.504 OA
ATOM     21  H   UNL     1      17.710  -0.325  19.336  1.00  0.00     0.293 HD
ENDBRANCH  17  20
ENDBRANCH   1  12
BRANCH   6  22
ATOM     22  O   UNL     1       7.115  -1.325  17.585  1.00  0.00    -0.507 OA
ATOM     23  H   UNL     1       7.137  -1.844  16.715  1.00  0.00     0.293 HD
ENDBRANCH   6  22
BRANCH   8  24
ATOM     24  O   UNL     1       8.469   3.247  18.328  1.00  0.00    -0.508 OA
ATOM     25  H   UNL     1       8.301   3.774  17.477  1.00  0.00     0.293 HD
ENDBRANCH   8  24
TORSDOF 5
ENDMDL
