MODEL 1
REMARK VINA RESULT:    -5.112      0.000      0.000
REMARK INTER + INTRA:          -6.595
REMARK INTER:                  -6.307
REMARK INTRA:                  -0.288
REMARK UNBOUND:                -0.288
REMARK SMILES C=CCc1ccc(OC)c(OC)c1
REMARK SMILES IDX 7 1 10 2 13 3 4 4 5 5 6 6 8 7 9 8 11 9 12 10 3 11 2 12 1 13
REMARK H PARENT
REMARK Flexibility Score: inf
ROOT
ATOM      1  C   UNL     1       0.258  -1.017   0.443  1.00  0.00     0.160 A 
ATOM      2  C   UNL     1      -0.935  -1.124   1.175  1.00  0.00     0.160 A 
ATOM      3  C   UNL     1      -0.977  -1.936   2.326  1.00  0.00     0.054 A 
ATOM      4  C   UNL     1       0.165  -2.632   2.748  1.00  0.00    -0.040 A 
ATOM      5  C   UNL     1       1.349  -2.529   2.006  1.00  0.00     0.008 A 
ATOM      6  C   UNL     1       1.397  -1.726   0.865  1.00  0.00     0.051 A 
ENDROOT
BRANCH   1   7
ATOM      7  O   UNL     1       0.269  -0.200  -0.699  1.00  0.00    -0.493 OA
ATOM      8  C   UNL     1       1.082   0.959  -0.853  1.00  0.00     0.278 C 
ENDBRANCH   1   7
BRANCH   2   9
ATOM      9  O   UNL     1      -2.059  -0.411   0.726  1.00  0.00    -0.493 OA
ATOM     10  C   UNL     1      -3.158  -0.034   1.549  1.00  0.00     0.278 C 
ENDBRANCH   2   9
BRANCH   4  11
ATOM     11  C   UNL     1       0.103  -3.521   3.963  1.00  0.00     0.062 C 
BRANCH  11  12
ATOM     12  C   UNL     1      -0.315  -4.914   3.582  1.00  0.00    -0.030 C 
ATOM     13  C   UNL     1       0.575  -5.900   3.439  1.00  0.00     0.004 C 
ENDBRANCH  11  12
ENDBRANCH   4  11
TORSDOF 4
ENDMDL
MODEL 2
REMARK VINA RESULT:    -5.049      1.967      4.134
REMARK INTER + INTRA:          -6.518
REMARK INTER:                  -6.232
REMARK INTRA:                  -0.285
REMARK UNBOUND:                -0.288
REMARK SMILES C=CCc1ccc(OC)c(OC)c1
REMARK SMILES IDX 7 1 10 2 13 3 4 4 5 5 6 6 8 7 9 8 11 9 12 10 3 11 2 12 1 13
REMARK H PARENT
REMARK Flexibility Score: inf
ROOT
ATOM      1  C   UNL     1       1.165  -1.073   1.262  1.00  0.00     0.160 A 
ATOM      2  C   UNL     1       0.234  -1.885   1.929  1.00  0.00     0.160 A 
ATOM      3  C   UNL     1      -1.121  -1.502   1.971  1.00  0.00     0.054 A 
ATOM      4  C   UNL     1      -1.547  -0.320   1.347  1.00  0.00    -0.040 A 
ATOM      5  C   UNL     1      -0.611   0.490   0.693  1.00  0.00     0.008 A 
ATOM      6  C   UNL     1       0.734   0.116   0.646  1.00  0.00     0.051 A 
ENDROOT
BRANCH   1   7
ATOM      7  O   UNL     1       2.508  -1.482   1.235  1.00  0.00    -0.493 OA
ATOM      8  C   UNL     1       3.613  -0.608   1.033  1.00  0.00     0.278 C 
ENDBRANCH   1   7
BRANCH   2   9
ATOM      9  O   UNL     1       0.694  -3.064   2.540  1.00  0.00    -0.493 OA
ATOM     10  C   UNL     1      -0.019  -3.787   3.538  1.00  0.00     0.278 C 
ENDBRANCH   2   9
BRANCH   4  11
ATOM     11  C   UNL     1      -2.993   0.096   1.423  1.00  0.00     0.062 C 
BRANCH  11  12
ATOM     12  C   UNL     1      -3.895  -1.038   1.025  1.00  0.00    -0.030 C 
ATOM     13  C   UNL     1      -4.140  -1.323  -0.258  1.00  0.00     0.004 C 
ENDBRANCH  11  12
ENDBRANCH   4  11
TORSDOF 4
ENDMDL
MODEL 3
REMARK VINA RESULT:    -4.959      2.376      4.313
REMARK INTER + INTRA:          -6.407
REMARK INTER:                  -6.110
REMARK INTRA:                  -0.296
REMARK UNBOUND:                -0.288
REMARK SMILES C=CCc1ccc(OC)c(OC)c1
REMARK SMILES IDX 7 1 10 2 13 3 4 4 5 5 6 6 8 7 9 8 11 9 12 10 3 11 2 12 1 13
REMARK H PARENT
REMARK Flexibility Score: inf
ROOT
ATOM      1  C   UNL     1       1.035   0.567   0.509  1.00  0.00     0.160 A 
ATOM      2  C   UNL     1       0.471  -0.716   0.592  1.00  0.00     0.160 A 
ATOM      3  C   UNL     1      -0.880  -0.861   0.965  1.00  0.00     0.054 A 
ATOM      4  C   UNL     1      -1.666   0.265   1.247  1.00  0.00    -0.040 A 
ATOM      5  C   UNL     1      -1.094   1.541   1.172  1.00  0.00     0.008 A 
ATOM      6  C   UNL     1       0.244   1.693   0.803  1.00  0.00     0.051 A 
ENDROOT
BRANCH   1   7
ATOM      7  O   UNL     1       2.384   0.680   0.134  1.00  0.00    -0.493 OA
ATOM      8  C   UNL     1       3.470   0.780   1.050  1.00  0.00     0.278 C 
ENDBRANCH   1   7
BRANCH   2   9
ATOM      9  O   UNL     1       1.286  -1.822   0.300  1.00  0.00    -0.493 OA
ATOM     10  C   UNL     1       1.868  -2.678   1.278  1.00  0.00     0.278 C 
ENDBRANCH   2   9
BRANCH   4  11
ATOM     11  C   UNL     1      -3.101   0.099   1.673  1.00  0.00     0.062 C 
BRANCH  11  12
ATOM     12  C   UNL     1      -3.711  -1.113   1.025  1.00  0.00    -0.030 C 
ATOM     13  C   UNL     1      -4.352  -1.035  -0.145  1.00  0.00     0.004 C 
ENDBRANCH  11  12
ENDBRANCH   4  11
TORSDOF 4
ENDMDL
MODEL 4
REMARK VINA RESULT:    -4.859      1.579      3.054
REMARK INTER + INTRA:          -6.283
REMARK INTER:                  -5.972
REMARK INTRA:                  -0.311
REMARK UNBOUND:                -0.288
REMARK SMILES C=CCc1ccc(OC)c(OC)c1
REMARK SMILES IDX 7 1 10 2 13 3 4 4 5 5 6 6 8 7 9 8 11 9 12 10 3 11 2 12 1 13
REMARK H PARENT
REMARK Flexibility Score: inf
ROOT
ATOM      1  C   UNL     1       0.398  -1.081  -0.309  1.00  0.00     0.160 A 
ATOM      2  C   UNL     1       1.481  -1.810   0.209  1.00  0.00     0.160 A 
ATOM      3  C   UNL     1       1.398  -2.355   1.505  1.00  0.00     0.054 A 
ATOM      4  C   UNL     1       0.241  -2.181   2.279  1.00  0.00    -0.040 A 
ATOM      5  C   UNL     1      -0.831  -1.443   1.760  1.00  0.00     0.008 A 
ATOM      6  C   UNL     1      -0.756  -0.901   0.476  1.00  0.00     0.051 A 
ENDROOT
BRANCH   1   7
ATOM      7  O   UNL     1       0.509  -0.551  -1.604  1.00  0.00    -0.493 OA
ATOM      8  C   UNL     1      -0.062  -1.140  -2.768  1.00  0.00     0.278 C 
ENDBRANCH   1   7
BRANCH   2   9
ATOM      9  O   UNL     1       2.622  -1.968  -0.594  1.00  0.00    -0.493 OA
ATOM     10  C   UNL     1       3.767  -1.122  -0.547  1.00  0.00     0.278 C 
ENDBRANCH   2   9
BRANCH   4  11
ATOM     11  C   UNL     1       0.173  -2.742   3.675  1.00  0.00     0.062 C 
BRANCH  11  12
ATOM     12  C   UNL     1       0.107  -4.244   3.642  1.00  0.00    -0.030 C 
ATOM     13  C   UNL     1      -1.060  -4.894   3.614  1.00  0.00     0.004 C 
ENDBRANCH  11  12
ENDBRANCH   4  11
TORSDOF 4
ENDMDL
MODEL 5
REMARK VINA RESULT:    -4.796      2.246      4.245
REMARK INTER + INTRA:          -6.206
REMARK INTER:                  -5.874
REMARK INTRA:                  -0.332
REMARK UNBOUND:                -0.288
REMARK SMILES C=CCc1ccc(OC)c(OC)c1
REMARK SMILES IDX 7 1 10 2 13 3 4 4 5 5 6 6 8 7 9 8 11 9 12 10 3 11 2 12 1 13
REMARK H PARENT
REMARK Flexibility Score: inf
ROOT
ATOM      1  C   UNL     1       1.235  -1.160   1.232  1.00  0.00     0.160 A 
ATOM      2  C   UNL     1       0.838  -0.001   0.547  1.00  0.00     0.160 A 
ATOM      3  C   UNL     1      -0.512   0.403   0.585  1.00  0.00     0.054 A 
ATOM      4  C   UNL     1      -1.458  -0.340   1.306  1.00  0.00    -0.040 A 
ATOM      5  C   UNL     1      -1.055  -1.501   1.978  1.00  0.00     0.008 A 
ATOM      6  C   UNL     1       0.280  -1.906   1.946  1.00  0.00     0.051 A 
ENDROOT
BRANCH   1   7
ATOM      7  O   UNL     1       2.587  -1.536   1.177  1.00  0.00    -0.493 OA
ATOM      8  C   UNL     1       3.067  -2.731   0.569  1.00  0.00     0.278 C 
ENDBRANCH   1   7
BRANCH   2   9
ATOM      9  O   UNL     1       1.811   0.722  -0.162  1.00  0.00    -0.493 OA
ATOM     10  C   UNL     1       1.795   2.134  -0.346  1.00  0.00     0.278 C 
ENDBRANCH   2   9
BRANCH   4  11
ATOM     11  C   UNL     1      -2.904   0.083   1.316  1.00  0.00     0.062 C 
BRANCH  11  12
ATOM     12  C   UNL     1      -3.799  -1.073   0.969  1.00  0.00    -0.030 C 
ATOM     13  C   UNL     1      -4.144  -1.339  -0.295  1.00  0.00     0.004 C 
ENDBRANCH  11  12
ENDBRANCH   4  11
TORSDOF 4
ENDMDL
MODEL 6
REMARK VINA RESULT:    -4.596      2.026      3.557
REMARK INTER + INTRA:          -5.959
REMARK INTER:                  -5.692
REMARK INTRA:                  -0.267
REMARK UNBOUND:                -0.288
REMARK SMILES C=CCc1ccc(OC)c(OC)c1
REMARK SMILES IDX 7 1 10 2 13 3 4 4 5 5 6 6 8 7 9 8 11 9 12 10 3 11 2 12 1 13
REMARK H PARENT
REMARK Flexibility Score: inf
ROOT
ATOM      1  C   UNL     1       1.853   0.176  -0.086  1.00  0.00     0.160 A 
ATOM      2  C   UNL     1       2.460  -0.681   0.847  1.00  0.00     0.160 A 
ATOM      3  C   UNL     1       1.658  -1.493   1.673  1.00  0.00     0.054 A 
ATOM      4  C   UNL     1       0.260  -1.457   1.566  1.00  0.00    -0.040 A 
ATOM      5  C   UNL     1      -0.338  -0.592   0.640  1.00  0.00     0.008 A 
ATOM      6  C   UNL     1       0.450   0.215  -0.182  1.00  0.00     0.051 A 
ENDROOT
BRANCH   1   7
ATOM      7  O   UNL     1       2.679   0.972  -0.896  1.00  0.00    -0.493 OA
ATOM      8  C   UNL     1       2.687   2.396  -0.886  1.00  0.00     0.278 C 
ENDBRANCH   1   7
BRANCH   2   9
ATOM      9  O   UNL     1       3.863  -0.695   0.925  1.00  0.00    -0.493 OA
ATOM     10  C   UNL     1       4.693  -1.702   0.357  1.00  0.00     0.278 C 
ENDBRANCH   2   9
BRANCH   4  11
ATOM     11  C   UNL     1      -0.590  -2.307   2.473  1.00  0.00     0.062 C 
BRANCH  11  12
ATOM     12  C   UNL     1       0.270  -3.137   3.385  1.00  0.00    -0.030 C 
ATOM     13  C   UNL     1      -0.140  -4.320   3.852  1.00  0.00     0.004 C 
ENDBRANCH  11  12
ENDBRANCH   4  11
TORSDOF 4
ENDMDL
MODEL 7
REMARK VINA RESULT:    -4.592      1.897      2.702
REMARK INTER + INTRA:          -5.954
REMARK INTER:                  -5.668
REMARK INTRA:                  -0.287
REMARK UNBOUND:                -0.288
REMARK SMILES C=CCc1ccc(OC)c(OC)c1
REMARK SMILES IDX 7 1 10 2 13 3 4 4 5 5 6 6 8 7 9 8 11 9 12 10 3 11 2 12 1 13
REMARK H PARENT
REMARK Flexibility Score: inf
ROOT
ATOM      1  C   UNL     1       2.498  -1.085  -0.393  1.00  0.00     0.160 A 
ATOM      2  C   UNL     1       1.463  -0.272   0.096  1.00  0.00     0.160 A 
ATOM      3  C   UNL     1       0.682  -0.717   1.181  1.00  0.00     0.054 A 
ATOM      4  C   UNL     1       0.934  -1.960   1.779  1.00  0.00    -0.040 A 
ATOM      5  C   UNL     1       1.962  -2.769   1.278  1.00  0.00     0.008 A 
ATOM      6  C   UNL     1       2.741  -2.335   0.204  1.00  0.00     0.051 A 
ENDROOT
BRANCH   1   7
ATOM      7  O   UNL     1       3.261  -0.614  -1.475  1.00  0.00    -0.493 OA
ATOM      8  C   UNL     1       4.510   0.059  -1.348  1.00  0.00     0.278 C 
ENDBRANCH   1   7
BRANCH   2   9
ATOM      9  O   UNL     1       1.240   0.969  -0.524  1.00  0.00    -0.493 OA
ATOM     10  C   UNL     1       1.210   2.218   0.158  1.00  0.00     0.278 C 
ENDBRANCH   2   9
BRANCH   4  11
ATOM     11  C   UNL     1       0.075  -2.440   2.919  1.00  0.00     0.062 C 
BRANCH  11  12
ATOM     12  C   UNL     1       0.400  -3.865   3.268  1.00  0.00    -0.030 C 
ATOM     13  C   UNL     1      -0.026  -4.425   4.404  1.00  0.00     0.004 C 
ENDBRANCH  11  12
ENDBRANCH   4  11
TORSDOF 4
ENDMDL
MODEL 8
REMARK VINA RESULT:    -4.543      3.131      4.683
REMARK INTER + INTRA:          -5.893
REMARK INTER:                  -5.581
REMARK INTRA:                  -0.312
REMARK UNBOUND:                -0.288
REMARK SMILES C=CCc1ccc(OC)c(OC)c1
REMARK SMILES IDX 7 1 10 2 13 3 4 4 5 5 6 6 8 7 9 8 11 9 12 10 3 11 2 12 1 13
REMARK H PARENT
REMARK Flexibility Score: inf
ROOT
ATOM      1  C   UNL     1       2.370   0.882   0.666  1.00  0.00     0.160 A 
ATOM      2  C   UNL     1       2.254  -0.450   1.093  1.00  0.00     0.160 A 
ATOM      3  C   UNL     1       0.976  -1.019   1.262  1.00  0.00     0.054 A 
ATOM      4  C   UNL     1      -0.179  -0.268   1.000  1.00  0.00    -0.040 A 
ATOM      5  C   UNL     1      -0.055   1.064   0.584  1.00  0.00     0.008 A 
ATOM      6  C   UNL     1       1.208   1.634   0.414  1.00  0.00     0.051 A 
ENDROOT
BRANCH   1   7
ATOM      7  O   UNL     1       3.656   1.422   0.505  1.00  0.00    -0.493 OA
ATOM      8  C   UNL     1       4.274   1.673  -0.753  1.00  0.00     0.278 C 
ENDBRANCH   1   7
BRANCH   2   9
ATOM      9  O   UNL     1       3.431  -1.174   1.343  1.00  0.00    -0.493 OA
ATOM     10  C   UNL     1       3.980  -2.151   0.465  1.00  0.00     0.278 C 
ENDBRANCH   2   9
BRANCH   4  11
ATOM     11  C   UNL     1      -1.541  -0.876   1.211  1.00  0.00     0.062 C 
BRANCH  11  12
ATOM     12  C   UNL     1      -2.508   0.152   1.730  1.00  0.00    -0.030 C 
ATOM     13  C   UNL     1      -3.825   0.036   1.536  1.00  0.00     0.004 C 
ENDBRANCH  11  12
ENDBRANCH   4  11
TORSDOF 4
ENDMDL
MODEL 9
REMARK VINA RESULT:    -4.475      7.089      8.269
REMARK INTER + INTRA:          -5.810
REMARK INTER:                  -5.476
REMARK INTRA:                  -0.334
REMARK UNBOUND:                -0.288
REMARK SMILES C=CCc1ccc(OC)c(OC)c1
REMARK SMILES IDX 7 1 10 2 13 3 4 4 5 5 6 6 8 7 9 8 11 9 12 10 3 11 2 12 1 13
REMARK H PARENT
REMARK Flexibility Score: inf
ROOT
ATOM      1  C   UNL     1      -0.751  -3.331  -4.188  1.00  0.00     0.160 A 
ATOM      2  C   UNL     1      -0.486  -4.701  -4.036  1.00  0.00     0.160 A 
ATOM      3  C   UNL     1      -1.305  -5.646  -4.686  1.00  0.00     0.054 A 
ATOM      4  C   UNL     1      -2.378  -5.228  -5.487  1.00  0.00    -0.040 A 
ATOM      5  C   UNL     1      -2.642  -3.859  -5.625  1.00  0.00     0.008 A 
ATOM      6  C   UNL     1      -1.833  -2.917  -4.985  1.00  0.00     0.051 A 
ENDROOT
BRANCH   1   7
ATOM      7  O   UNL     1       0.084  -2.414  -3.529  1.00  0.00    -0.493 OA
ATOM      8  C   UNL     1      -0.352  -1.507  -2.521  1.00  0.00     0.278 C 
ENDBRANCH   1   7
BRANCH   2   9
ATOM      9  O   UNL     1       0.598  -5.086  -3.229  1.00  0.00    -0.493 OA
ATOM     10  C   UNL     1       1.180  -6.385  -3.223  1.00  0.00     0.278 C 
ENDBRANCH   2   9
BRANCH   4  11
ATOM     11  C   UNL     1      -3.265  -6.245  -6.154  1.00  0.00     0.062 C 
BRANCH  11  12
ATOM     12  C   UNL     1      -3.238  -6.077  -7.648  1.00  0.00    -0.030 C 
ATOM     13  C   UNL     1      -2.169  -6.420  -8.373  1.00  0.00     0.004 C 
ENDBRANCH  11  12
ENDBRANCH   4  11
TORSDOF 4
ENDMDL
