MODEL 1
REMARK VINA RESULT:    -3.527      0.000      0.000
REMARK INTER + INTRA:         -14.962
REMARK INTER:                  -9.301
REMARK INTRA:                  -5.661
REMARK UNBOUND:                -5.661
REMARK SMILES CCCCCCCCCCCCCCCCCCCCCCCCCCCCCC(=O)[O-]
REMARK SMILES IDX 16 1 17 2 18 3 19 4 20 5 21 6 22 7 23 8 24 9 25 10 26 11
REMARK SMILES IDX 27 12 28 13 29 14 30 15 31 16 32 17 15 18 14 19 13 20 12 21
REMARK SMILES IDX 11 22 10 23 9 24 8 25 7 26 6 27 5 28 4 29 3 30 2 31 1 32
REMARK H PARENT
REMARK Flexibility Score: inf
ROOT
ATOM      1  C   UNL     1      -4.626 -67.477  -6.764  1.00  0.00     0.000 C 
ENDROOT
BRANCH   1   2
ATOM      2  C   UNL     1      -4.358 -67.710  -5.270  1.00  0.00     0.000 C 
BRANCH   2   3
ATOM      3  C   UNL     1      -4.036 -66.387  -4.565  1.00  0.00     0.000 C 
BRANCH   3   4
ATOM      4  C   UNL     1      -4.683 -66.322  -3.174  1.00  0.00     0.000 C 
BRANCH   4   5
ATOM      5  C   UNL     1      -4.267 -65.064  -2.395  1.00  0.00     0.000 C 
BRANCH   5   6
ATOM      6  C   UNL     1      -4.640 -63.769  -3.130  1.00  0.00     0.000 C 
BRANCH   6   7
ATOM      7  C   UNL     1      -6.161 -63.610  -3.226  1.00  0.00     0.000 C 
BRANCH   7   8
ATOM      8  C   UNL     1      -6.599 -63.391  -4.682  1.00  0.00     0.000 C 
BRANCH   8   9
ATOM      9  C   UNL     1      -5.441 -62.926  -5.581  1.00  0.00     0.000 C 
BRANCH   9  10
ATOM     10  C   UNL     1      -5.292 -63.797  -6.838  1.00  0.00     0.000 C 
BRANCH  10  11
ATOM     11  C   UNL     1      -3.862 -63.723  -7.394  1.00  0.00     0.000 C 
BRANCH  11  12
ATOM     12  C   UNL     1      -2.804 -63.619  -6.283  1.00  0.00     0.000 C 
BRANCH  12  13
ATOM     13  C   UNL     1      -1.468 -63.047  -6.789  1.00  0.00     0.006 C 
BRANCH  13  14
ATOM     14  C   UNL     1      -0.429 -64.149  -7.042  1.00  0.00     0.053 C 
BRANCH  14  15
ATOM     15  C   UNL     1       0.901 -63.811  -6.440  1.00  0.00     0.041 C 
ATOM     16  O   UNL     1       1.297 -64.406  -5.403  1.00  0.00    -0.550 OA
ATOM     17  O   UNL     1       1.714 -62.857  -7.040  1.00  0.00    -0.550 OA
ENDBRANCH  14  15
ENDBRANCH  13  14
ENDBRANCH  12  13
ENDBRANCH  11  12
ENDBRANCH  10  11
ENDBRANCH   9  10
ENDBRANCH   8   9
ENDBRANCH   7   8
ENDBRANCH   6   7
ENDBRANCH   5   6
ENDBRANCH   4   5
ENDBRANCH   3   4
ENDBRANCH   2   3
ENDBRANCH   1   2
BRANCH   1  18
ATOM     18  C   UNL     1      -4.519 -68.763  -7.604  1.00  0.00     0.000 C 
BRANCH  18  19
ATOM     19  C   UNL     1      -5.679 -68.995  -8.590  1.00  0.00     0.000 C 
BRANCH  19  20
ATOM     20  C   UNL     1      -5.200 -69.216 -10.037  1.00  0.00     0.000 C 
BRANCH  20  21
ATOM     21  C   UNL     1      -3.801 -68.623 -10.307  1.00  0.00     0.000 C 
BRANCH  21  22
ATOM     22  C   UNL     1      -3.821 -67.260 -11.026  1.00  0.00     0.000 C 
BRANCH  22  23
ATOM     23  C   UNL     1      -4.032 -66.039 -10.115  1.00  0.00     0.000 C 
BRANCH  23  24
ATOM     24  C   UNL     1      -5.088 -65.063 -10.665  1.00  0.00    -0.000 C 
BRANCH  24  25
ATOM     25  C   UNL     1      -6.513 -65.636 -10.617  1.00  0.00    -0.000 C 
BRANCH  25  26
ATOM     26  C   UNL     1      -7.052 -65.751  -9.178  1.00  0.00    -0.000 C 
BRANCH  26  27
ATOM     27  C   UNL     1      -8.450 -65.131  -9.020  1.00  0.00    -0.000 C 
BRANCH  27  28
ATOM     28  C   UNL     1      -8.791 -64.810  -7.556  1.00  0.00    -0.000 C 
BRANCH  28  29
ATOM     29  C   UNL     1      -9.081 -63.315  -7.365  1.00  0.00    -0.000 C 
BRANCH  29  30
ATOM     30  C   UNL     1      -8.964 -62.564  -8.700  1.00  0.00    -0.000 C 
BRANCH  30  31
ATOM     31  C   UNL     1      -7.846 -61.511  -8.694  1.00  0.00    -0.003 C 
ATOM     32  C   UNL     1      -6.683 -61.877  -9.614  1.00  0.00     0.004 C 
ENDBRANCH  30  31
ENDBRANCH  29  30
ENDBRANCH  28  29
ENDBRANCH  27  28
ENDBRANCH  26  27
ENDBRANCH  25  26
ENDBRANCH  24  25
ENDBRANCH  23  24
ENDBRANCH  22  23
ENDBRANCH  21  22
ENDBRANCH  20  21
ENDBRANCH  19  20
ENDBRANCH  18  19
ENDBRANCH   1  18
TORSDOF 28
ENDMDL
MODEL 2
REMARK VINA RESULT:    -3.408      1.488      4.805
REMARK INTER + INTRA:         -14.648
REMARK INTER:                  -9.246
REMARK INTRA:                  -5.402
REMARK UNBOUND:                -5.661
REMARK SMILES CCCCCCCCCCCCCCCCCCCCCCCCCCCCCC(=O)[O-]
REMARK SMILES IDX 16 1 17 2 18 3 19 4 20 5 21 6 22 7 23 8 24 9 25 10 26 11
REMARK SMILES IDX 27 12 28 13 29 14 30 15 31 16 32 17 15 18 14 19 13 20 12 21
REMARK SMILES IDX 11 22 10 23 9 24 8 25 7 26 6 27 5 28 4 29 3 30 2 31 1 32
REMARK H PARENT
REMARK Flexibility Score: inf
ROOT
ATOM      1  C   UNL     1      -4.276 -66.873  -3.750  1.00  0.00     0.000 C 
ENDROOT
BRANCH   1   2
ATOM      2  C   UNL     1      -3.582 -67.355  -5.032  1.00  0.00     0.000 C 
BRANCH   2   3
ATOM      3  C   UNL     1      -4.600 -67.961  -6.005  1.00  0.00     0.000 C 
BRANCH   3   4
ATOM      4  C   UNL     1      -4.683 -67.149  -7.306  1.00  0.00     0.000 C 
BRANCH   4   5
ATOM      5  C   UNL     1      -5.389 -65.798  -7.107  1.00  0.00     0.000 C 
BRANCH   5   6
ATOM      6  C   UNL     1      -4.612 -64.632  -7.735  1.00  0.00     0.000 C 
BRANCH   6   7
ATOM      7  C   UNL     1      -3.447 -64.201  -6.836  1.00  0.00     0.000 C 
BRANCH   7   8
ATOM      8  C   UNL     1      -2.877 -62.848  -7.288  1.00  0.00     0.000 C 
BRANCH   8   9
ATOM      9  C   UNL     1      -3.221 -61.709  -6.312  1.00  0.00     0.000 C 
BRANCH   9  10
ATOM     10  C   UNL     1      -2.353 -61.746  -5.045  1.00  0.00     0.000 C 
BRANCH  10  11
ATOM     11  C   UNL     1      -0.932 -61.241  -5.335  1.00  0.00     0.000 C 
BRANCH  11  12
ATOM     12  C   UNL     1       0.134 -61.966  -4.497  1.00  0.00     0.000 C 
BRANCH  12  13
ATOM     13  C   UNL     1       1.440 -62.203  -5.274  1.00  0.00     0.006 C 
BRANCH  13  14
ATOM     14  C   UNL     1       1.216 -63.056  -6.531  1.00  0.00     0.053 C 
BRANCH  14  15
ATOM     15  C   UNL     1       0.880 -64.475  -6.191  1.00  0.00     0.041 C 
ATOM     16  O   UNL     1      -0.090 -65.049  -6.752  1.00  0.00    -0.550 OA
ATOM     17  O   UNL     1       1.656 -65.173  -5.274  1.00  0.00    -0.550 OA
ENDBRANCH  14  15
ENDBRANCH  13  14
ENDBRANCH  12  13
ENDBRANCH  11  12
ENDBRANCH  10  11
ENDBRANCH   9  10
ENDBRANCH   8   9
ENDBRANCH   7   8
ENDBRANCH   6   7
ENDBRANCH   5   6
ENDBRANCH   4   5
ENDBRANCH   3   4
ENDBRANCH   2   3
ENDBRANCH   1   2
BRANCH   1  18
ATOM     18  C   UNL     1      -4.055 -65.375  -3.472  1.00  0.00     0.000 C 
BRANCH  18  19
ATOM     19  C   UNL     1      -5.311 -64.606  -3.022  1.00  0.00     0.000 C 
BRANCH  19  20
ATOM     20  C   UNL     1      -5.455 -63.236  -3.713  1.00  0.00     0.000 C 
BRANCH  20  21
ATOM     21  C   UNL     1      -6.826 -63.047  -4.397  1.00  0.00     0.000 C 
BRANCH  21  22
ATOM     22  C   UNL     1      -6.772 -62.232  -5.703  1.00  0.00     0.000 C 
BRANCH  22  23
ATOM     23  C   UNL     1      -7.657 -62.759  -6.844  1.00  0.00     0.000 C 
BRANCH  23  24
ATOM     24  C   UNL     1      -8.534 -63.949  -6.415  1.00  0.00    -0.000 C 
BRANCH  24  25
ATOM     25  C   UNL     1      -8.988 -64.815  -7.601  1.00  0.00    -0.000 C 
BRANCH  25  26
ATOM     26  C   UNL     1      -8.336 -64.383  -8.928  1.00  0.00    -0.000 C 
BRANCH  26  27
ATOM     27  C   UNL     1      -8.812 -65.227 -10.122  1.00  0.00    -0.000 C 
BRANCH  27  28
ATOM     28  C   UNL     1      -7.648 -65.880 -10.883  1.00  0.00    -0.000 C 
BRANCH  28  29
ATOM     29  C   UNL     1      -7.378 -67.303 -10.376  1.00  0.00    -0.000 C 
BRANCH  29  30
ATOM     30  C   UNL     1      -5.904 -67.682 -10.579  1.00  0.00    -0.000 C 
BRANCH  30  31
ATOM     31  C   UNL     1      -5.026 -66.479 -10.957  1.00  0.00    -0.003 C 
ATOM     32  C   UNL     1      -3.533 -66.786 -10.868  1.00  0.00     0.004 C 
ENDBRANCH  30  31
ENDBRANCH  29  30
ENDBRANCH  28  29
ENDBRANCH  27  28
ENDBRANCH  26  27
ENDBRANCH  25  26
ENDBRANCH  24  25
ENDBRANCH  23  24
ENDBRANCH  22  23
ENDBRANCH  21  22
ENDBRANCH  20  21
ENDBRANCH  19  20
ENDBRANCH  18  19
ENDBRANCH   1  18
TORSDOF 28
ENDMDL
MODEL 3
REMARK VINA RESULT:    -3.311      1.897      5.448
REMARK INTER + INTRA:         -14.392
REMARK INTER:                  -9.731
REMARK INTRA:                  -4.661
REMARK UNBOUND:                -5.661
REMARK SMILES CCCCCCCCCCCCCCCCCCCCCCCCCCCCCC(=O)[O-]
REMARK SMILES IDX 16 1 17 2 18 3 19 4 20 5 21 6 22 7 23 8 24 9 25 10 26 11
REMARK SMILES IDX 27 12 28 13 29 14 30 15 31 16 32 17 15 18 14 19 13 20 12 21
REMARK SMILES IDX 11 22 10 23 9 24 8 25 7 26 6 27 5 28 4 29 3 30 2 31 1 32
REMARK H PARENT
REMARK Flexibility Score: inf
ROOT
ATOM      1  C   UNL     1      -8.694 -64.462  -8.528  1.00  0.00     0.000 C 
ENDROOT
BRANCH   1   2
ATOM      2  C   UNL     1      -8.963 -64.519  -7.017  1.00  0.00     0.000 C 
BRANCH   2   3
ATOM      3  C   UNL     1      -8.115 -63.479  -6.276  1.00  0.00     0.000 C 
BRANCH   3   4
ATOM      4  C   UNL     1      -7.852 -62.245  -7.153  1.00  0.00     0.000 C 
BRANCH   4   5
ATOM      5  C   UNL     1      -6.391 -61.774  -7.074  1.00  0.00     0.000 C 
BRANCH   5   6
ATOM      6  C   UNL     1      -5.562 -62.596  -6.077  1.00  0.00     0.000 C 
BRANCH   6   7
ATOM      7  C   UNL     1      -4.223 -61.913  -5.780  1.00  0.00     0.000 C 
BRANCH   7   8
ATOM      8  C   UNL     1      -3.107 -62.952  -5.591  1.00  0.00     0.000 C 
BRANCH   8   9
ATOM      9  C   UNL     1      -2.116 -62.971  -6.768  1.00  0.00     0.000 C 
BRANCH   9  10
ATOM     10  C   UNL     1      -1.685 -64.397  -7.144  1.00  0.00     0.000 C 
BRANCH  10  11
ATOM     11  C   UNL     1      -0.159 -64.551  -7.062  1.00  0.00     0.000 C 
BRANCH  11  12
ATOM     12  C   UNL     1       0.551 -63.220  -6.760  1.00  0.00     0.000 C 
BRANCH  12  13
ATOM     13  C   UNL     1       1.588 -63.344  -5.631  1.00  0.00     0.006 C 
BRANCH  13  14
ATOM     14  C   UNL     1       1.520 -62.163  -4.653  1.00  0.00     0.053 C 
BRANCH  14  15
ATOM     15  C   UNL     1       0.802 -62.525  -3.389  1.00  0.00     0.041 C 
ATOM     16  O   UNL     1      -0.441 -62.725  -3.400  1.00  0.00    -0.550 OA
ATOM     17  O   UNL     1       1.512 -62.665  -2.202  1.00  0.00    -0.550 OA
ENDBRANCH  14  15
ENDBRANCH  13  14
ENDBRANCH  12  13
ENDBRANCH  11  12
ENDBRANCH  10  11
ENDBRANCH   9  10
ENDBRANCH   8   9
ENDBRANCH   7   8
ENDBRANCH   6   7
ENDBRANCH   5   6
ENDBRANCH   4   5
ENDBRANCH   3   4
ENDBRANCH   2   3
ENDBRANCH   1   2
BRANCH   1  18
ATOM     18  C   UNL     1      -7.544 -65.385  -8.971  1.00  0.00     0.000 C 
BRANCH  18  19
ATOM     19  C   UNL     1      -6.257 -64.658  -9.402  1.00  0.00     0.000 C 
BRANCH  19  20
ATOM     20  C   UNL     1      -5.007 -65.157  -8.652  1.00  0.00     0.000 C 
BRANCH  20  21
ATOM     21  C   UNL     1      -5.348 -66.014  -7.414  1.00  0.00     0.000 C 
BRANCH  21  22
ATOM     22  C   UNL     1      -4.683 -67.403  -7.406  1.00  0.00     0.000 C 
BRANCH  22  23
ATOM     23  C   UNL     1      -4.491 -68.033  -6.016  1.00  0.00     0.000 C 
BRANCH  23  24
ATOM     24  C   UNL     1      -3.606 -67.177  -5.093  1.00  0.00    -0.000 C 
BRANCH  24  25
ATOM     25  C   UNL     1      -4.308 -66.794  -3.780  1.00  0.00    -0.000 C 
BRANCH  25  26
ATOM     26  C   UNL     1      -4.627 -65.289  -3.702  1.00  0.00    -0.000 C 
BRANCH  26  27
ATOM     27  C   UNL     1      -4.396 -64.709  -2.296  1.00  0.00    -0.000 C 
BRANCH  27  28
ATOM     28  C   UNL     1      -5.241 -63.453  -2.031  1.00  0.00    -0.000 C 
BRANCH  28  29
ATOM     29  C   UNL     1      -6.703 -63.665  -2.446  1.00  0.00    -0.000 C 
BRANCH  29  30
ATOM     30  C   UNL     1      -7.406 -64.634  -1.484  1.00  0.00    -0.000 C 
BRANCH  30  31
ATOM     31  C   UNL     1      -8.631 -64.009  -0.799  1.00  0.00    -0.003 C 
ATOM     32  C   UNL     1      -8.692 -64.313   0.696  1.00  0.00     0.004 C 
ENDBRANCH  30  31
ENDBRANCH  29  30
ENDBRANCH  28  29
ENDBRANCH  27  28
ENDBRANCH  26  27
ENDBRANCH  25  26
ENDBRANCH  24  25
ENDBRANCH  23  24
ENDBRANCH  22  23
ENDBRANCH  21  22
ENDBRANCH  20  21
ENDBRANCH  19  20
ENDBRANCH  18  19
ENDBRANCH   1  18
TORSDOF 28
ENDMDL
MODEL 4
REMARK VINA RESULT:    -3.303      2.944      7.081
REMARK INTER + INTRA:         -14.370
REMARK INTER:                  -8.920
REMARK INTRA:                  -5.450
REMARK UNBOUND:                -5.661
REMARK SMILES CCCCCCCCCCCCCCCCCCCCCCCCCCCCCC(=O)[O-]
REMARK SMILES IDX 16 1 17 2 18 3 19 4 20 5 21 6 22 7 23 8 24 9 25 10 26 11
REMARK SMILES IDX 27 12 28 13 29 14 30 15 31 16 32 17 15 18 14 19 13 20 12 21
REMARK SMILES IDX 11 22 10 23 9 24 8 25 7 26 6 27 5 28 4 29 3 30 2 31 1 32
REMARK H PARENT
REMARK Flexibility Score: inf
ROOT
ATOM      1  C   UNL     1      -1.406 -64.312  -6.775  1.00  0.00     0.000 C 
ENDROOT
BRANCH   1   2
ATOM      2  C   UNL     1      -2.225 -63.457  -7.752  1.00  0.00     0.000 C 
BRANCH   2   3
ATOM      3  C   UNL     1      -2.140 -61.973  -7.375  1.00  0.00     0.000 C 
BRANCH   3   4
ATOM      4  C   UNL     1      -3.536 -61.336  -7.293  1.00  0.00     0.000 C 
BRANCH   4   5
ATOM      5  C   UNL     1      -4.660 -62.372  -7.453  1.00  0.00     0.000 C 
BRANCH   5   6
ATOM      6  C   UNL     1      -5.870 -62.068  -6.558  1.00  0.00     0.000 C 
BRANCH   6   7
ATOM      7  C   UNL     1      -6.765 -63.303  -6.407  1.00  0.00     0.000 C 
BRANCH   7   8
ATOM      8  C   UNL     1      -7.507 -63.281  -5.062  1.00  0.00     0.000 C 
BRANCH   8   9
ATOM      9  C   UNL     1      -7.154 -62.046  -4.215  1.00  0.00     0.000 C 
BRANCH   9  10
ATOM     10  C   UNL     1      -7.039 -62.379  -2.719  1.00  0.00     0.000 C 
BRANCH  10  11
ATOM     11  C   UNL     1      -7.251 -63.879  -2.471  1.00  0.00     0.000 C 
BRANCH  11  12
ATOM     12  C   UNL     1      -7.994 -64.158  -1.154  1.00  0.00     0.000 C 
BRANCH  12  13
ATOM     13  C   UNL     1      -7.264 -63.584   0.073  1.00  0.00     0.006 C 
BRANCH  13  14
ATOM     14  C   UNL     1      -6.032 -64.418   0.452  1.00  0.00     0.053 C 
BRANCH  14  15
ATOM     15  C   UNL     1      -4.758 -63.654   0.256  1.00  0.00     0.041 C 
ATOM     16  O   UNL     1      -4.791 -62.428  -0.029  1.00  0.00    -0.550 OA
ATOM     17  O   UNL     1      -3.534 -64.291   0.414  1.00  0.00    -0.550 OA
ENDBRANCH  14  15
ENDBRANCH  13  14
ENDBRANCH  12  13
ENDBRANCH  11  12
ENDBRANCH  10  11
ENDBRANCH   9  10
ENDBRANCH   8   9
ENDBRANCH   7   8
ENDBRANCH   6   7
ENDBRANCH   5   6
ENDBRANCH   4   5
ENDBRANCH   3   4
ENDBRANCH   2   3
ENDBRANCH   1   2
BRANCH   1  18
ATOM     18  C   UNL     1       0.103 -64.303  -7.083  1.00  0.00     0.000 C 
BRANCH  18  19
ATOM     19  C   UNL     1       1.009 -63.981  -5.880  1.00  0.00     0.000 C 
BRANCH  19  20
ATOM     20  C   UNL     1       1.441 -62.503  -5.833  1.00  0.00     0.000 C 
BRANCH  20  21
ATOM     21  C   UNL     1       0.628 -61.670  -4.819  1.00  0.00     0.000 C 
BRANCH  21  22
ATOM     22  C   UNL     1       0.381 -62.379  -3.474  1.00  0.00     0.000 C 
BRANCH  22  23
ATOM     23  C   UNL     1      -1.028 -62.199  -2.885  1.00  0.00     0.000 C 
BRANCH  23  24
ATOM     24  C   UNL     1      -2.138 -62.644  -3.853  1.00  0.00    -0.000 C 
BRANCH  24  25
ATOM     25  C   UNL     1      -3.217 -63.501  -3.171  1.00  0.00    -0.000 C 
BRANCH  25  26
ATOM     26  C   UNL     1      -4.066 -64.292  -4.184  1.00  0.00    -0.000 C 
BRANCH  26  27
ATOM     27  C   UNL     1      -4.256 -65.762  -3.774  1.00  0.00    -0.000 C 
BRANCH  27  28
ATOM     28  C   UNL     1      -3.572 -66.738  -4.743  1.00  0.00    -0.000 C 
BRANCH  28  29
ATOM     29  C   UNL     1      -4.564 -67.778  -5.282  1.00  0.00    -0.000 C 
BRANCH  29  30
ATOM     30  C   UNL     1      -4.544 -67.802  -6.818  1.00  0.00    -0.000 C 
BRANCH  30  31
ATOM     31  C   UNL     1      -4.465 -66.397  -7.435  1.00  0.00    -0.003 C 
ATOM     32  C   UNL     1      -5.564 -66.140  -8.464  1.00  0.00     0.004 C 
ENDBRANCH  30  31
ENDBRANCH  29  30
ENDBRANCH  28  29
ENDBRANCH  27  28
ENDBRANCH  26  27
ENDBRANCH  25  26
ENDBRANCH  24  25
ENDBRANCH  23  24
ENDBRANCH  22  23
ENDBRANCH  21  22
ENDBRANCH  20  21
ENDBRANCH  19  20
ENDBRANCH  18  19
ENDBRANCH   1  18
TORSDOF 28
ENDMDL
MODEL 5
REMARK VINA RESULT:    -3.300      1.963      5.116
REMARK INTER + INTRA:         -14.363
REMARK INTER:                  -9.476
REMARK INTRA:                  -4.887
REMARK UNBOUND:                -5.661
REMARK SMILES CCCCCCCCCCCCCCCCCCCCCCCCCCCCCC(=O)[O-]
REMARK SMILES IDX 16 1 17 2 18 3 19 4 20 5 21 6 22 7 23 8 24 9 25 10 26 11
REMARK SMILES IDX 27 12 28 13 29 14 30 15 31 16 32 17 15 18 14 19 13 20 12 21
REMARK SMILES IDX 11 22 10 23 9 24 8 25 7 26 6 27 5 28 4 29 3 30 2 31 1 32
REMARK H PARENT
REMARK Flexibility Score: inf
ROOT
ATOM      1  C   UNL     1      -4.255 -66.688  -3.741  1.00  0.00     0.000 C 
ENDROOT
BRANCH   1   2
ATOM      2  C   UNL     1      -3.594 -67.198  -5.030  1.00  0.00     0.000 C 
BRANCH   2   3
ATOM      3  C   UNL     1      -4.631 -67.861  -5.944  1.00  0.00     0.000 C 
BRANCH   3   4
ATOM      4  C   UNL     1      -4.706 -67.159  -7.308  1.00  0.00     0.000 C 
BRANCH   4   5
ATOM      5  C   UNL     1      -5.249 -65.725  -7.197  1.00  0.00     0.000 C 
BRANCH   5   6
ATOM      6  C   UNL     1      -4.360 -64.703  -7.919  1.00  0.00     0.000 C 
BRANCH   6   7
ATOM      7  C   UNL     1      -3.933 -63.579  -6.969  1.00  0.00     0.000 C 
BRANCH   7   8
ATOM      8  C   UNL     1      -2.522 -63.834  -6.416  1.00  0.00     0.000 C 
BRANCH   8   9
ATOM      9  C   UNL     1      -1.512 -64.185  -7.521  1.00  0.00     0.000 C 
BRANCH   9  10
ATOM     10  C   UNL     1      -0.145 -64.595  -6.952  1.00  0.00     0.000 C 
BRANCH  10  11
ATOM     11  C   UNL     1       0.672 -63.362  -6.538  1.00  0.00     0.000 C 
BRANCH  11  12
ATOM     12  C   UNL     1       1.459 -63.588  -5.236  1.00  0.00     0.000 C 
BRANCH  12  13
ATOM     13  C   UNL     1       1.264 -62.450  -4.220  1.00  0.00     0.006 C 
BRANCH  13  14
ATOM     14  C   UNL     1      -0.215 -62.074  -4.052  1.00  0.00     0.053 C 
BRANCH  14  15
ATOM     15  C   UNL     1      -0.708 -62.350  -2.665  1.00  0.00     0.041 C 
ATOM     16  O   UNL     1      -1.936 -62.529  -2.452  1.00  0.00    -0.550 OA
ATOM     17  O   UNL     1       0.193 -62.435  -1.610  1.00  0.00    -0.550 OA
ENDBRANCH  14  15
ENDBRANCH  13  14
ENDBRANCH  12  13
ENDBRANCH  11  12
ENDBRANCH  10  11
ENDBRANCH   9  10
ENDBRANCH   8   9
ENDBRANCH   7   8
ENDBRANCH   6   7
ENDBRANCH   5   6
ENDBRANCH   4   5
ENDBRANCH   3   4
ENDBRANCH   2   3
ENDBRANCH   1   2
BRANCH   1  18
ATOM     18  C   UNL     1      -4.077 -65.173  -3.531  1.00  0.00     0.000 C 
BRANCH  18  19
ATOM     19  C   UNL     1      -5.282 -64.460  -2.892  1.00  0.00     0.000 C 
BRANCH  19  20
ATOM     20  C   UNL     1      -5.753 -63.236  -3.702  1.00  0.00     0.000 C 
BRANCH  20  21
ATOM     21  C   UNL     1      -6.911 -63.562  -4.669  1.00  0.00     0.000 C 
BRANCH  21  22
ATOM     22  C   UNL     1      -7.443 -62.344  -5.448  1.00  0.00     0.000 C 
BRANCH  22  23
ATOM     23  C   UNL     1      -8.268 -62.676  -6.703  1.00  0.00     0.000 C 
BRANCH  23  24
ATOM     24  C   UNL     1      -8.846 -64.102  -6.674  1.00  0.00    -0.000 C 
BRANCH  24  25
ATOM     25  C   UNL     1      -8.763 -64.808  -8.037  1.00  0.00    -0.000 C 
BRANCH  25  26
ATOM     26  C   UNL     1      -8.700 -63.813  -9.211  1.00  0.00    -0.000 C 
BRANCH  26  27
ATOM     27  C   UNL     1      -7.258 -63.481  -9.628  1.00  0.00    -0.000 C 
BRANCH  27  28
ATOM     28  C   UNL     1      -6.996 -63.754 -11.117  1.00  0.00    -0.000 C 
BRANCH  28  29
ATOM     29  C   UNL     1      -7.717 -65.025 -11.586  1.00  0.00    -0.000 C 
BRANCH  29  30
ATOM     30  C   UNL     1      -6.703 -66.112 -11.973  1.00  0.00    -0.000 C 
BRANCH  30  31
ATOM     31  C   UNL     1      -6.161 -66.881 -10.759  1.00  0.00    -0.003 C 
ATOM     32  C   UNL     1      -7.255 -67.623  -9.993  1.00  0.00     0.004 C 
ENDBRANCH  30  31
ENDBRANCH  29  30
ENDBRANCH  28  29
ENDBRANCH  27  28
ENDBRANCH  26  27
ENDBRANCH  25  26
ENDBRANCH  24  25
ENDBRANCH  23  24
ENDBRANCH  22  23
ENDBRANCH  21  22
ENDBRANCH  20  21
ENDBRANCH  19  20
ENDBRANCH  18  19
ENDBRANCH   1  18
TORSDOF 28
ENDMDL
MODEL 6
REMARK VINA RESULT:    -3.291      2.365      6.864
REMARK INTER + INTRA:         -14.339
REMARK INTER:                  -7.788
REMARK INTRA:                  -6.551
REMARK UNBOUND:                -5.661
REMARK SMILES CCCCCCCCCCCCCCCCCCCCCCCCCCCCCC(=O)[O-]
REMARK SMILES IDX 16 1 17 2 18 3 19 4 20 5 21 6 22 7 23 8 24 9 25 10 26 11
REMARK SMILES IDX 27 12 28 13 29 14 30 15 31 16 32 17 15 18 14 19 13 20 12 21
REMARK SMILES IDX 11 22 10 23 9 24 8 25 7 26 6 27 5 28 4 29 3 30 2 31 1 32
REMARK H PARENT
REMARK Flexibility Score: inf
ROOT
ATOM      1  C   UNL     1      -4.362 -62.272  -9.094  1.00  0.00     0.000 C 
ENDROOT
BRANCH   1   2
ATOM      2  C   UNL     1      -3.784 -63.417  -9.938  1.00  0.00     0.000 C 
BRANCH   2   3
ATOM      3  C   UNL     1      -4.709 -64.640  -9.898  1.00  0.00     0.000 C 
BRANCH   3   4
ATOM      4  C   UNL     1      -6.142 -64.245  -9.509  1.00  0.00     0.000 C 
BRANCH   4   5
ATOM      5  C   UNL     1      -6.988 -65.458  -9.093  1.00  0.00     0.000 C 
BRANCH   5   6
ATOM      6  C   UNL     1      -8.389 -65.058  -8.607  1.00  0.00     0.000 C 
BRANCH   6   7
ATOM      7  C   UNL     1      -8.710 -63.610  -8.992  1.00  0.00     0.000 C 
BRANCH   7   8
ATOM      8  C   UNL     1      -9.081 -62.781  -7.753  1.00  0.00     0.000 C 
BRANCH   8   9
ATOM      9  C   UNL     1      -8.314 -63.228  -6.496  1.00  0.00     0.000 C 
BRANCH   9  10
ATOM     10  C   UNL     1      -6.985 -62.476  -6.326  1.00  0.00     0.000 C 
BRANCH  10  11
ATOM     11  C   UNL     1      -6.035 -63.242  -5.394  1.00  0.00     0.000 C 
BRANCH  11  12
ATOM     12  C   UNL     1      -5.899 -64.724  -5.781  1.00  0.00     0.000 C 
BRANCH  12  13
ATOM     13  C   UNL     1      -4.477 -65.089  -6.241  1.00  0.00     0.006 C 
BRANCH  13  14
ATOM     14  C   UNL     1      -4.333 -66.590  -6.533  1.00  0.00     0.053 C 
BRANCH  14  15
ATOM     15  C   UNL     1      -4.064 -67.378  -5.288  1.00  0.00     0.041 C 
ATOM     16  O   UNL     1      -3.049 -67.129  -4.586  1.00  0.00    -0.550 OA
ATOM     17  O   UNL     1      -4.950 -68.372  -4.889  1.00  0.00    -0.550 OA
ENDBRANCH  14  15
ENDBRANCH  13  14
ENDBRANCH  12  13
ENDBRANCH  11  12
ENDBRANCH  10  11
ENDBRANCH   9  10
ENDBRANCH   8   9
ENDBRANCH   7   8
ENDBRANCH   6   7
ENDBRANCH   5   6
ENDBRANCH   4   5
ENDBRANCH   3   4
ENDBRANCH   2   3
ENDBRANCH   1   2
BRANCH   1  18
ATOM     18  C   UNL     1      -3.583 -62.032  -7.788  1.00  0.00     0.000 C 
BRANCH  18  19
ATOM     19  C   UNL     1      -2.291 -61.209  -7.945  1.00  0.00     0.000 C 
BRANCH  19  20
ATOM     20  C   UNL     1      -1.018 -62.034  -7.677  1.00  0.00     0.000 C 
BRANCH  20  21
ATOM     21  C   UNL     1      -1.319 -63.454  -7.153  1.00  0.00     0.000 C 
BRANCH  21  22
ATOM     22  C   UNL     1      -0.070 -64.248  -6.727  1.00  0.00     0.000 C 
BRANCH  22  23
ATOM     23  C   UNL     1       1.173 -63.399  -6.411  1.00  0.00     0.000 C 
BRANCH  23  24
ATOM     24  C   UNL     1       1.374 -63.180  -4.901  1.00  0.00    -0.000 C 
BRANCH  24  25
ATOM     25  C   UNL     1       0.827 -61.828  -4.416  1.00  0.00    -0.000 C 
BRANCH  25  26
ATOM     26  C   UNL     1      -0.433 -61.983  -3.543  1.00  0.00    -0.000 C 
BRANCH  26  27
ATOM     27  C   UNL     1      -1.632 -61.189  -4.090  1.00  0.00    -0.000 C 
BRANCH  27  28
ATOM     28  C   UNL     1      -2.963 -61.935  -3.910  1.00  0.00    -0.000 C 
BRANCH  28  29
ATOM     29  C   UNL     1      -2.740 -63.443  -3.738  1.00  0.00    -0.000 C 
BRANCH  29  30
ATOM     30  C   UNL     1      -3.638 -64.002  -2.624  1.00  0.00    -0.000 C 
BRANCH  30  31
ATOM     31  C   UNL     1      -4.360 -62.901  -1.833  1.00  0.00    -0.003 C 
ATOM     32  C   UNL     1      -5.873 -63.104  -1.781  1.00  0.00     0.004 C 
ENDBRANCH  30  31
ENDBRANCH  29  30
ENDBRANCH  28  29
ENDBRANCH  27  28
ENDBRANCH  26  27
ENDBRANCH  25  26
ENDBRANCH  24  25
ENDBRANCH  23  24
ENDBRANCH  22  23
ENDBRANCH  21  22
ENDBRANCH  20  21
ENDBRANCH  19  20
ENDBRANCH  18  19
ENDBRANCH   1  18
TORSDOF 28
ENDMDL
MODEL 7
REMARK VINA RESULT:    -3.274      1.418      2.462
REMARK INTER + INTRA:         -14.293
REMARK INTER:                  -7.934
REMARK INTRA:                  -6.359
REMARK UNBOUND:                -5.661
REMARK SMILES CCCCCCCCCCCCCCCCCCCCCCCCCCCCCC(=O)[O-]
REMARK SMILES IDX 16 1 17 2 18 3 19 4 20 5 21 6 22 7 23 8 24 9 25 10 26 11
REMARK SMILES IDX 27 12 28 13 29 14 30 15 31 16 32 17 15 18 14 19 13 20 12 21
REMARK SMILES IDX 11 22 10 23 9 24 8 25 7 26 6 27 5 28 4 29 3 30 2 31 1 32
REMARK H PARENT
REMARK Flexibility Score: inf
ROOT
ATOM      1  C   UNL     1      -4.950 -66.346  -6.756  1.00  0.00     0.000 C 
ENDROOT
BRANCH   1   2
ATOM      2  C   UNL     1      -3.824 -65.792  -5.872  1.00  0.00     0.000 C 
BRANCH   2   3
ATOM      3  C   UNL     1      -3.924 -66.357  -4.450  1.00  0.00     0.000 C 
BRANCH   3   4
ATOM      4  C   UNL     1      -3.920 -65.236  -3.401  1.00  0.00     0.000 C 
BRANCH   4   5
ATOM      5  C   UNL     1      -5.214 -65.209  -2.571  1.00  0.00     0.000 C 
BRANCH   5   6
ATOM      6  C   UNL     1      -6.196 -64.131  -3.051  1.00  0.00     0.000 C 
BRANCH   6   7
ATOM      7  C   UNL     1      -5.801 -62.750  -2.517  1.00  0.00     0.000 C 
BRANCH   7   8
ATOM      8  C   UNL     1      -5.354 -61.827  -3.661  1.00  0.00     0.000 C 
BRANCH   8   9
ATOM      9  C   UNL     1      -5.798 -62.342  -5.041  1.00  0.00     0.000 C 
BRANCH   9  10
ATOM     10  C   UNL     1      -4.892 -61.833  -6.172  1.00  0.00     0.000 C 
BRANCH  10  11
ATOM     11  C   UNL     1      -3.420 -62.174  -5.896  1.00  0.00     0.000 C 
BRANCH  11  12
ATOM     12  C   UNL     1      -2.453 -61.153  -6.519  1.00  0.00     0.000 C 
BRANCH  12  13
ATOM     13  C   UNL     1      -1.095 -61.773  -6.889  1.00  0.00     0.006 C 
BRANCH  13  14
ATOM     14  C   UNL     1      -0.941 -63.198  -6.337  1.00  0.00     0.053 C 
BRANCH  14  15
ATOM     15  C   UNL     1       0.260 -63.890  -6.903  1.00  0.00     0.041 C 
ATOM     16  O   UNL     1       0.128 -64.961  -7.552  1.00  0.00    -0.550 OA
ATOM     17  O   UNL     1       1.524 -63.338  -6.736  1.00  0.00    -0.550 OA
ENDBRANCH  14  15
ENDBRANCH  13  14
ENDBRANCH  12  13
ENDBRANCH  11  12
ENDBRANCH  10  11
ENDBRANCH   9  10
ENDBRANCH   8   9
ENDBRANCH   7   8
ENDBRANCH   6   7
ENDBRANCH   5   6
ENDBRANCH   4   5
ENDBRANCH   3   4
ENDBRANCH   2   3
ENDBRANCH   1   2
BRANCH   1  18
ATOM     18  C   UNL     1      -5.899 -65.252  -7.281  1.00  0.00     0.000 C 
BRANCH  18  19
ATOM     19  C   UNL     1      -6.612 -65.589  -8.603  1.00  0.00     0.000 C 
BRANCH  19  20
ATOM     20  C   UNL     1      -6.179 -66.947  -9.188  1.00  0.00     0.000 C 
BRANCH  20  21
ATOM     21  C   UNL     1      -5.447 -66.815 -10.540  1.00  0.00     0.000 C 
BRANCH  21  22
ATOM     22  C   UNL     1      -3.911 -66.878 -10.435  1.00  0.00     0.000 C 
BRANCH  22  23
ATOM     23  C   UNL     1      -3.177 -65.559 -10.727  1.00  0.00     0.000 C 
BRANCH  23  24
ATOM     24  C   UNL     1      -2.724 -64.836  -9.446  1.00  0.00    -0.000 C 
BRANCH  24  25
ATOM     25  C   UNL     1      -3.222 -63.384  -9.372  1.00  0.00    -0.000 C 
BRANCH  25  26
ATOM     26  C   UNL     1      -4.355 -63.100 -10.377  1.00  0.00    -0.000 C 
BRANCH  26  27
ATOM     27  C   UNL     1      -5.559 -62.398  -9.727  1.00  0.00    -0.000 C 
BRANCH  27  28
ATOM     28  C   UNL     1      -6.812 -62.432 -10.616  1.00  0.00    -0.000 C 
BRANCH  28  29
ATOM     29  C   UNL     1      -7.885 -61.460 -10.106  1.00  0.00    -0.000 C 
BRANCH  29  30
ATOM     30  C   UNL     1      -8.113 -61.645  -8.599  1.00  0.00    -0.000 C 
BRANCH  30  31
ATOM     31  C   UNL     1      -9.002 -62.855  -8.274  1.00  0.00    -0.003 C 
ATOM     32  C   UNL     1      -8.975 -63.229  -6.794  1.00  0.00     0.004 C 
ENDBRANCH  30  31
ENDBRANCH  29  30
ENDBRANCH  28  29
ENDBRANCH  27  28
ENDBRANCH  26  27
ENDBRANCH  25  26
ENDBRANCH  24  25
ENDBRANCH  23  24
ENDBRANCH  22  23
ENDBRANCH  21  22
ENDBRANCH  20  21
ENDBRANCH  19  20
ENDBRANCH  18  19
ENDBRANCH   1  18
TORSDOF 28
ENDMDL
MODEL 8
REMARK VINA RESULT:    -3.272      3.303      7.431
REMARK INTER + INTRA:         -14.289
REMARK INTER:                  -7.878
REMARK INTRA:                  -6.411
REMARK UNBOUND:                -5.661
REMARK SMILES CCCCCCCCCCCCCCCCCCCCCCCCCCCCCC(=O)[O-]
REMARK SMILES IDX 16 1 17 2 18 3 19 4 20 5 21 6 22 7 23 8 24 9 25 10 26 11
REMARK SMILES IDX 27 12 28 13 29 14 30 15 31 16 32 17 15 18 14 19 13 20 12 21
REMARK SMILES IDX 11 22 10 23 9 24 8 25 7 26 6 27 5 28 4 29 3 30 2 31 1 32
REMARK H PARENT
REMARK Flexibility Score: inf
ROOT
ATOM      1  C   UNL     1      -4.255 -66.719  -3.784  1.00  0.00     0.000 C 
ENDROOT
BRANCH   1   2
ATOM      2  C   UNL     1      -3.885 -65.898  -5.027  1.00  0.00     0.000 C 
BRANCH   2   3
ATOM      3  C   UNL     1      -4.341 -66.614  -6.304  1.00  0.00     0.000 C 
BRANCH   3   4
ATOM      4  C   UNL     1      -5.401 -65.795  -7.057  1.00  0.00     0.000 C 
BRANCH   4   5
ATOM      5  C   UNL     1      -5.703 -64.456  -6.365  1.00  0.00     0.000 C 
BRANCH   5   6
ATOM      6  C   UNL     1      -6.291 -63.417  -7.330  1.00  0.00     0.000 C 
BRANCH   6   7
ATOM      7  C   UNL     1      -5.701 -62.027  -7.066  1.00  0.00     0.000 C 
BRANCH   7   8
ATOM      8  C   UNL     1      -4.953 -61.995  -5.724  1.00  0.00     0.000 C 
BRANCH   8   9
ATOM      9  C   UNL     1      -3.529 -61.427  -5.858  1.00  0.00     0.000 C 
BRANCH   9  10
ATOM     10  C   UNL     1      -2.548 -62.075  -4.870  1.00  0.00     0.000 C 
BRANCH  10  11
ATOM     11  C   UNL     1      -1.638 -63.087  -5.581  1.00  0.00     0.000 C 
BRANCH  11  12
ATOM     12  C   UNL     1      -1.604 -62.879  -7.104  1.00  0.00     0.000 C 
BRANCH  12  13
ATOM     13  C   UNL     1      -1.995 -64.145  -7.885  1.00  0.00     0.006 C 
BRANCH  13  14
ATOM     14  C   UNL     1      -2.962 -63.836  -9.037  1.00  0.00     0.053 C 
BRANCH  14  15
ATOM     15  C   UNL     1      -3.038 -64.963 -10.020  1.00  0.00     0.041 C 
ATOM     16  O   UNL     1      -4.085 -65.145 -10.696  1.00  0.00    -0.550 OA
ATOM     17  O   UNL     1      -1.944 -65.798 -10.208  1.00  0.00    -0.550 OA
ENDBRANCH  14  15
ENDBRANCH  13  14
ENDBRANCH  12  13
ENDBRANCH  11  12
ENDBRANCH  10  11
ENDBRANCH   9  10
ENDBRANCH   8   9
ENDBRANCH   7   8
ENDBRANCH   6   7
ENDBRANCH   5   6
ENDBRANCH   4   5
ENDBRANCH   3   4
ENDBRANCH   2   3
ENDBRANCH   1   2
BRANCH   1  18
ATOM     18  C   UNL     1      -4.778 -65.853  -2.623  1.00  0.00     0.000 C 
BRANCH  18  19
ATOM     19  C   UNL     1      -3.999 -64.547  -2.385  1.00  0.00     0.000 C 
BRANCH  19  20
ATOM     20  C   UNL     1      -4.910 -63.306  -2.331  1.00  0.00     0.000 C 
BRANCH  20  21
ATOM     21  C   UNL     1      -6.379 -63.621  -2.684  1.00  0.00     0.000 C 
BRANCH  21  22
ATOM     22  C   UNL     1      -7.401 -62.664  -2.042  1.00  0.00     0.000 C 
BRANCH  22  23
ATOM     23  C   UNL     1      -8.392 -63.320  -1.065  1.00  0.00     0.000 C 
BRANCH  23  24
ATOM     24  C   UNL     1      -7.964 -64.738  -0.648  1.00  0.00    -0.000 C 
BRANCH  24  25
ATOM     25  C   UNL     1      -8.342 -65.073   0.804  1.00  0.00    -0.000 C 
BRANCH  25  26
ATOM     26  C   UNL     1      -7.261 -64.634   1.809  1.00  0.00    -0.000 C 
BRANCH  26  27
ATOM     27  C   UNL     1      -5.846 -64.672   1.209  1.00  0.00    -0.000 C 
BRANCH  27  28
ATOM     28  C   UNL     1      -5.135 -63.312   1.289  1.00  0.00    -0.000 C 
BRANCH  28  29
ATOM     29  C   UNL     1      -6.033 -62.250   1.938  1.00  0.00    -0.000 C 
BRANCH  29  30
ATOM     30  C   UNL     1      -6.188 -61.032   1.014  1.00  0.00    -0.000 C 
BRANCH  30  31
ATOM     31  C   UNL     1      -7.587 -60.401   1.090  1.00  0.00    -0.003 C 
ATOM     32  C   UNL     1      -8.544 -61.192   1.980  1.00  0.00     0.004 C 
ENDBRANCH  30  31
ENDBRANCH  29  30
ENDBRANCH  28  29
ENDBRANCH  27  28
ENDBRANCH  26  27
ENDBRANCH  25  26
ENDBRANCH  24  25
ENDBRANCH  23  24
ENDBRANCH  22  23
ENDBRANCH  21  22
ENDBRANCH  20  21
ENDBRANCH  19  20
ENDBRANCH  18  19
ENDBRANCH   1  18
TORSDOF 28
ENDMDL
MODEL 9
REMARK VINA RESULT:    -3.214      2.479      4.947
REMARK INTER + INTRA:         -14.135
REMARK INTER:                  -8.012
REMARK INTRA:                  -6.123
REMARK UNBOUND:                -5.661
REMARK SMILES CCCCCCCCCCCCCCCCCCCCCCCCCCCCCC(=O)[O-]
REMARK SMILES IDX 16 1 17 2 18 3 19 4 20 5 21 6 22 7 23 8 24 9 25 10 26 11
REMARK SMILES IDX 27 12 28 13 29 14 30 15 31 16 32 17 15 18 14 19 13 20 12 21
REMARK SMILES IDX 11 22 10 23 9 24 8 25 7 26 6 27 5 28 4 29 3 30 2 31 1 32
REMARK H PARENT
REMARK Flexibility Score: inf
ROOT
ATOM      1  C   UNL     1       0.664 -62.737  -4.295  1.00  0.00     0.000 C 
ENDROOT
BRANCH   1   2
ATOM      2  C   UNL     1      -0.060 -61.652  -3.485  1.00  0.00     0.000 C 
BRANCH   2   3
ATOM      3  C   UNL     1      -1.470 -61.411  -4.040  1.00  0.00     0.000 C 
BRANCH   3   4
ATOM      4  C   UNL     1      -2.547 -61.937  -3.079  1.00  0.00     0.000 C 
BRANCH   4   5
ATOM      5  C   UNL     1      -2.725 -63.460  -3.180  1.00  0.00     0.000 C 
BRANCH   5   6
ATOM      6  C   UNL     1      -3.618 -64.022  -2.064  1.00  0.00     0.000 C 
BRANCH   6   7
ATOM      7  C   UNL     1      -4.840 -63.126  -1.836  1.00  0.00     0.000 C 
BRANCH   7   8
ATOM      8  C   UNL     1      -6.137 -63.864  -2.199  1.00  0.00     0.000 C 
BRANCH   8   9
ATOM      9  C   UNL     1      -7.054 -63.029  -3.110  1.00  0.00     0.000 C 
BRANCH   9  10
ATOM     10  C   UNL     1      -6.270 -62.014  -3.954  1.00  0.00     0.000 C 
BRANCH  10  11
ATOM     11  C   UNL     1      -6.283 -62.404  -5.439  1.00  0.00     0.000 C 
BRANCH  11  12
ATOM     12  C   UNL     1      -5.033 -63.199  -5.850  1.00  0.00     0.000 C 
BRANCH  12  13
ATOM     13  C   UNL     1      -5.355 -64.654  -6.231  1.00  0.00     0.006 C 
BRANCH  13  14
ATOM     14  C   UNL     1      -4.667 -65.661  -5.297  1.00  0.00     0.053 C 
BRANCH  14  15
ATOM     15  C   UNL     1      -3.698 -66.534  -6.033  1.00  0.00     0.041 C 
ATOM     16  O   UNL     1      -2.679 -66.986  -5.446  1.00  0.00    -0.550 OA
ATOM     17  O   UNL     1      -3.933 -66.870  -7.360  1.00  0.00    -0.550 OA
ENDBRANCH  14  15
ENDBRANCH  13  14
ENDBRANCH  12  13
ENDBRANCH  11  12
ENDBRANCH  10  11
ENDBRANCH   9  10
ENDBRANCH   8   9
ENDBRANCH   7   8
ENDBRANCH   6   7
ENDBRANCH   5   6
ENDBRANCH   4   5
ENDBRANCH   3   4
ENDBRANCH   2   3
ENDBRANCH   1   2
BRANCH   1  18
ATOM     18  C   UNL     1       1.373 -62.184  -5.545  1.00  0.00     0.000 C 
BRANCH  18  19
ATOM     19  C   UNL     1       0.908 -62.795  -6.879  1.00  0.00     0.000 C 
BRANCH  19  20
ATOM     20  C   UNL     1       0.078 -64.080  -6.693  1.00  0.00     0.000 C 
BRANCH  20  21
ATOM     21  C   UNL     1      -1.412 -63.891  -7.050  1.00  0.00     0.000 C 
BRANCH  21  22
ATOM     22  C   UNL     1      -1.766 -62.479  -7.554  1.00  0.00     0.000 C 
BRANCH  22  23
ATOM     23  C   UNL     1      -2.778 -62.429  -8.712  1.00  0.00     0.000 C 
BRANCH  23  24
ATOM     24  C   UNL     1      -3.013 -63.808  -9.355  1.00  0.00    -0.000 C 
BRANCH  24  25
ATOM     25  C   UNL     1      -4.501 -64.110  -9.592  1.00  0.00    -0.000 C 
BRANCH  25  26
ATOM     26  C   UNL     1      -5.075 -63.331 -10.791  1.00  0.00    -0.000 C 
BRANCH  26  27
ATOM     27  C   UNL     1      -6.466 -62.742 -10.502  1.00  0.00    -0.000 C 
BRANCH  27  28
ATOM     28  C   UNL     1      -6.543 -62.057  -9.129  1.00  0.00    -0.000 C 
BRANCH  28  29
ATOM     29  C   UNL     1      -7.989 -61.978  -8.624  1.00  0.00    -0.000 C 
BRANCH  29  30
ATOM     30  C   UNL     1      -8.764 -63.252  -8.993  1.00  0.00    -0.000 C 
BRANCH  30  31
ATOM     31  C   UNL     1      -8.510 -64.408  -8.012  1.00  0.00    -0.003 C 
ATOM     32  C   UNL     1      -9.204 -64.205  -6.667  1.00  0.00     0.004 C 
ENDBRANCH  30  31
ENDBRANCH  29  30
ENDBRANCH  28  29
ENDBRANCH  27  28
ENDBRANCH  26  27
ENDBRANCH  25  26
ENDBRANCH  24  25
ENDBRANCH  23  24
ENDBRANCH  22  23
ENDBRANCH  21  22
ENDBRANCH  20  21
ENDBRANCH  19  20
ENDBRANCH  18  19
ENDBRANCH   1  18
TORSDOF 28
ENDMDL
