MODEL 1
REMARK VINA RESULT:    -4.421      0.000      0.000
REMARK INTER + INTRA:          -4.421
REMARK INTER:                  -4.421
REMARK INTRA:                   0.000
REMARK UNBOUND:                 0.000
REMARK SMILES CC1=CC[C@H]2C[C@@H]1C2(C)C
REMARK SMILES IDX 1 1 2 2 3 3 4 4 5 5 6 6 7 7 8 8 9 9 10 10
REMARK H PARENT
REMARK Flexibility Score: inf
ROOT
ATOM      1  C   UNL     1      -3.236   4.781  12.647  1.00  0.00     0.039 C 
ATOM      2  C   UNL     1      -2.099   4.061  13.307  1.00  0.00    -0.074 C 
ATOM      3  C   UNL     1      -0.802   4.472  13.181  1.00  0.00    -0.027 C 
ATOM      4  C   UNL     1       0.302   3.671  13.900  1.00  0.00     0.031 C 
ATOM      5  C   UNL     1      -0.334   2.500  14.726  1.00  0.00    -0.000 C 
ATOM      6  C   UNL     1      -1.523   3.123  15.487  1.00  0.00     0.013 C 
ATOM      7  C   UNL     1      -2.355   2.853  14.217  1.00  0.00     0.021 C 
ATOM      8  C   UNL     1      -1.358   1.719  13.856  1.00  0.00    -0.026 C 
ATOM      9  C   UNL     1      -1.753   0.363  14.494  1.00  0.00     0.012 C 
ATOM     10  C   UNL     1      -1.028   1.475  12.357  1.00  0.00     0.012 C 
ENDROOT
TORSDOF 0
ENDMDL
MODEL 2
REMARK VINA RESULT:    -4.336      0.876      3.265
REMARK INTER + INTRA:          -4.336
REMARK INTER:                  -4.336
REMARK INTRA:                   0.000
REMARK UNBOUND:                 0.000
REMARK SMILES CC1=CC[C@H]2C[C@@H]1C2(C)C
REMARK SMILES IDX 1 1 2 2 3 3 4 4 5 5 6 6 7 7 8 8 9 9 10 10
REMARK H PARENT
REMARK Flexibility Score: inf
ROOT
ATOM      1  C   UNL     1      -1.015   0.636  11.947  1.00  0.00     0.039 C 
ATOM      2  C   UNL     1      -1.138   1.613  13.077  1.00  0.00    -0.074 C 
ATOM      3  C   UNL     1      -1.962   1.395  14.145  1.00  0.00    -0.027 C 
ATOM      4  C   UNL     1      -2.021   2.454  15.263  1.00  0.00     0.031 C 
ATOM      5  C   UNL     1      -1.020   3.621  14.954  1.00  0.00    -0.000 C 
ATOM      6  C   UNL     1       0.300   2.938  14.539  1.00  0.00     0.013 C 
ATOM      7  C   UNL     1      -0.284   2.887  13.113  1.00  0.00     0.021 C 
ATOM      8  C   UNL     1      -1.183   4.097  13.483  1.00  0.00    -0.026 C 
ATOM      9  C   UNL     1      -0.480   5.454  13.226  1.00  0.00     0.012 C 
ATOM     10  C   UNL     1      -2.613   4.166  12.878  1.00  0.00     0.012 C 
ENDROOT
TORSDOF 0
ENDMDL
MODEL 3
REMARK VINA RESULT:    -4.277      1.080      3.102
REMARK INTER + INTRA:          -4.277
REMARK INTER:                  -4.277
REMARK INTRA:                   0.000
REMARK UNBOUND:                 0.000
REMARK SMILES CC1=CC[C@H]2C[C@@H]1C2(C)C
REMARK SMILES IDX 1 1 2 2 3 3 4 4 5 5 6 6 7 7 8 8 9 9 10 10
REMARK H PARENT
REMARK Flexibility Score: inf
ROOT
ATOM      1  C   UNL     1      -2.657   0.704  14.505  1.00  0.00     0.039 C 
ATOM      2  C   UNL     1      -1.887   1.977  14.320  1.00  0.00    -0.074 C 
ATOM      3  C   UNL     1      -1.652   2.845  15.349  1.00  0.00    -0.027 C 
ATOM      4  C   UNL     1      -0.847   4.129  15.066  1.00  0.00     0.031 C 
ATOM      5  C   UNL     1      -0.386   4.156  13.567  1.00  0.00    -0.000 C 
ATOM      6  C   UNL     1       0.183   2.750  13.280  1.00  0.00     0.013 C 
ATOM      7  C   UNL     1      -1.267   2.332  12.962  1.00  0.00     0.021 C 
ATOM      8  C   UNL     1      -1.577   3.816  12.629  1.00  0.00    -0.026 C 
ATOM      9  C   UNL     1      -1.275   4.163  11.149  1.00  0.00     0.012 C 
ATOM     10  C   UNL     1      -2.985   4.373  12.983  1.00  0.00     0.012 C 
ENDROOT
TORSDOF 0
ENDMDL
MODEL 4
REMARK VINA RESULT:    -4.205      1.762      3.694
REMARK INTER + INTRA:          -4.205
REMARK INTER:                  -4.205
REMARK INTRA:                   0.000
REMARK UNBOUND:                 0.000
REMARK SMILES CC1=CC[C@H]2C[C@@H]1C2(C)C
REMARK SMILES IDX 1 1 2 2 3 3 4 4 5 5 6 6 7 7 8 8 9 9 10 10
REMARK H PARENT
REMARK Flexibility Score: inf
ROOT
ATOM      1  C   UNL     1      -1.047   0.860  11.399  1.00  0.00     0.039 C 
ATOM      2  C   UNL     1      -0.861   2.302  11.763  1.00  0.00    -0.074 C 
ATOM      3  C   UNL     1       0.144   2.724  12.586  1.00  0.00    -0.027 C 
ATOM      4  C   UNL     1       0.261   4.228  12.902  1.00  0.00     0.031 C 
ATOM      5  C   UNL     1      -0.838   5.029  12.122  1.00  0.00    -0.000 C 
ATOM      6  C   UNL     1      -0.803   4.489  10.677  1.00  0.00     0.013 C 
ATOM      7  C   UNL     1      -1.765   3.389  11.165  1.00  0.00     0.021 C 
ATOM      8  C   UNL     1      -2.225   4.350  12.294  1.00  0.00    -0.026 C 
ATOM      9  C   UNL     1      -3.388   5.271  11.844  1.00  0.00     0.012 C 
ATOM     10  C   UNL     1      -2.591   3.743  13.677  1.00  0.00     0.012 C 
ENDROOT
TORSDOF 0
ENDMDL
MODEL 5
REMARK VINA RESULT:    -4.192      1.033      3.149
REMARK INTER + INTRA:          -4.192
REMARK INTER:                  -4.192
REMARK INTRA:                   0.000
REMARK UNBOUND:                 0.000
REMARK SMILES CC1=CC[C@H]2C[C@@H]1C2(C)C
REMARK SMILES IDX 1 1 2 2 3 3 4 4 5 5 6 6 7 7 8 8 9 9 10 10
REMARK H PARENT
REMARK Flexibility Score: inf
ROOT
ATOM      1  C   UNL     1      -1.834   0.291  14.447  1.00  0.00     0.039 C 
ATOM      2  C   UNL     1      -1.574   1.618  13.800  1.00  0.00    -0.074 C 
ATOM      3  C   UNL     1      -1.086   1.728  12.529  1.00  0.00    -0.027 C 
ATOM      4  C   UNL     1      -0.853   3.135  11.944  1.00  0.00     0.031 C 
ATOM      5  C   UNL     1      -1.303   4.228  12.975  1.00  0.00    -0.000 C 
ATOM      6  C   UNL     1      -2.683   3.772  13.492  1.00  0.00     0.013 C 
ATOM      7  C   UNL     1      -1.912   2.928  14.526  1.00  0.00     0.021 C 
ATOM      8  C   UNL     1      -0.723   3.914  14.382  1.00  0.00    -0.026 C 
ATOM      9  C   UNL     1      -0.840   5.122  15.347  1.00  0.00     0.012 C 
ATOM     10  C   UNL     1       0.722   3.349  14.482  1.00  0.00     0.012 C 
ENDROOT
TORSDOF 0
ENDMDL
MODEL 6
REMARK VINA RESULT:    -4.181      1.426      2.663
REMARK INTER + INTRA:          -4.181
REMARK INTER:                  -4.181
REMARK INTRA:                   0.000
REMARK UNBOUND:                 0.000
REMARK SMILES CC1=CC[C@H]2C[C@@H]1C2(C)C
REMARK SMILES IDX 1 1 2 2 3 3 4 4 5 5 6 6 7 7 8 8 9 9 10 10
REMARK H PARENT
REMARK Flexibility Score: inf
ROOT
ATOM      1  C   UNL     1      -2.552   4.323  10.744  1.00  0.00     0.039 C 
ATOM      2  C   UNL     1      -1.617   3.713  11.744  1.00  0.00    -0.074 C 
ATOM      3  C   UNL     1      -1.187   2.420  11.648  1.00  0.00    -0.027 C 
ATOM      4  C   UNL     1      -0.221   1.879  12.721  1.00  0.00     0.031 C 
ATOM      5  C   UNL     1       0.136   3.012  13.744  1.00  0.00    -0.000 C 
ATOM      6  C   UNL     1       0.469   4.255  12.891  1.00  0.00     0.013 C 
ATOM      7  C   UNL     1      -1.044   4.547  12.897  1.00  0.00     0.021 C 
ATOM      8  C   UNL     1      -1.153   3.739  14.217  1.00  0.00    -0.026 C 
ATOM      9  C   UNL     1      -0.903   4.619  15.468  1.00  0.00     0.012 C 
ATOM     10  C   UNL     1      -2.435   2.895  14.463  1.00  0.00     0.012 C 
ENDROOT
TORSDOF 0
ENDMDL
MODEL 7
REMARK VINA RESULT:    -4.050      1.169      3.101
REMARK INTER + INTRA:          -4.050
REMARK INTER:                  -4.050
REMARK INTRA:                   0.000
REMARK UNBOUND:                 0.000
REMARK SMILES CC1=CC[C@H]2C[C@@H]1C2(C)C
REMARK SMILES IDX 1 1 2 2 3 3 4 4 5 5 6 6 7 7 8 8 9 9 10 10
REMARK H PARENT
REMARK Flexibility Score: inf
ROOT
ATOM      1  C   UNL     1      -3.390   4.658  12.639  1.00  0.00     0.039 C 
ATOM      2  C   UNL     1      -2.219   4.002  13.306  1.00  0.00    -0.074 C 
ATOM      3  C   UNL     1      -2.370   3.018  14.243  1.00  0.00    -0.027 C 
ATOM      4  C   UNL     1      -1.108   2.397  14.874  1.00  0.00     0.031 C 
ATOM      5  C   UNL     1       0.178   3.024  14.234  1.00  0.00    -0.000 C 
ATOM      6  C   UNL     1      -0.066   3.016  12.710  1.00  0.00     0.013 C 
ATOM      7  C   UNL     1      -0.782   4.366  12.914  1.00  0.00     0.021 C 
ATOM      8  C   UNL     1       0.063   4.573  14.199  1.00  0.00    -0.026 C 
ATOM      9  C   UNL     1       1.424   5.255  13.904  1.00  0.00     0.012 C 
ATOM     10  C   UNL     1      -0.594   5.298  15.406  1.00  0.00     0.012 C 
ENDROOT
TORSDOF 0
ENDMDL
MODEL 8
REMARK VINA RESULT:    -4.022      1.161      2.361
REMARK INTER + INTRA:          -4.022
REMARK INTER:                  -4.022
REMARK INTRA:                   0.000
REMARK UNBOUND:                 0.000
REMARK SMILES CC1=CC[C@H]2C[C@@H]1C2(C)C
REMARK SMILES IDX 1 1 2 2 3 3 4 4 5 5 6 6 7 7 8 8 9 9 10 10
REMARK H PARENT
REMARK Flexibility Score: inf
ROOT
ATOM      1  C   UNL     1      -0.419   5.447  15.288  1.00  0.00     0.039 C 
ATOM      2  C   UNL     1      -0.846   4.402  14.301  1.00  0.00    -0.074 C 
ATOM      3  C   UNL     1      -1.557   4.709  13.175  1.00  0.00    -0.027 C 
ATOM      4  C   UNL     1      -1.950   3.569  12.215  1.00  0.00     0.031 C 
ATOM      5  C   UNL     1      -1.372   2.206  12.731  1.00  0.00    -0.000 C 
ATOM      6  C   UNL     1       0.097   2.491  13.109  1.00  0.00     0.013 C 
ATOM      7  C   UNL     1      -0.442   2.934  14.484  1.00  0.00     0.021 C 
ATOM      8  C   UNL     1      -1.679   2.028  14.245  1.00  0.00    -0.026 C 
ATOM      9  C   UNL     1      -1.444   0.573  14.723  1.00  0.00     0.012 C 
ATOM     10  C   UNL     1      -3.057   2.502  14.785  1.00  0.00     0.012 C 
ENDROOT
TORSDOF 0
ENDMDL
MODEL 9
REMARK VINA RESULT:    -3.923      1.301      3.460
REMARK INTER + INTRA:          -3.923
REMARK INTER:                  -3.923
REMARK INTRA:                   0.000
REMARK UNBOUND:                 0.000
REMARK SMILES CC1=CC[C@H]2C[C@@H]1C2(C)C
REMARK SMILES IDX 1 1 2 2 3 3 4 4 5 5 6 6 7 7 8 8 9 9 10 10
REMARK H PARENT
REMARK Flexibility Score: inf
ROOT
ATOM      1  C   UNL     1      -2.854   1.936  14.885  1.00  0.00     0.039 C 
ATOM      2  C   UNL     1      -1.944   2.755  14.020  1.00  0.00    -0.074 C 
ATOM      3  C   UNL     1      -0.710   2.314  13.635  1.00  0.00    -0.027 C 
ATOM      4  C   UNL     1       0.156   3.224  12.741  1.00  0.00     0.031 C 
ATOM      5  C   UNL     1      -0.627   4.536  12.389  1.00  0.00    -0.000 C 
ATOM      6  C   UNL     1      -2.041   4.079  11.971  1.00  0.00     0.013 C 
ATOM      7  C   UNL     1      -2.394   4.115  13.471  1.00  0.00     0.021 C 
ATOM      8  C   UNL     1      -1.255   5.151  13.671  1.00  0.00    -0.026 C 
ATOM      9  C   UNL     1      -1.737   6.606  13.447  1.00  0.00     0.012 C 
ATOM     10  C   UNL     1      -0.440   5.105  14.994  1.00  0.00     0.012 C 
ENDROOT
TORSDOF 0
ENDMDL
