MODEL 1
REMARK VINA RESULT:    -3.987      0.000      0.000
REMARK INTER + INTRA:         -16.274
REMARK INTER:                 -10.513
REMARK INTRA:                  -5.760
REMARK UNBOUND:                -5.760
REMARK SMILES CCCCCCCCCCCCCCCCCCCCCCCCCCCCCC(=O)[O-]
REMARK SMILES IDX 16 1 17 2 18 3 19 4 20 5 21 6 22 7 23 8 24 9 25 10 26 11
REMARK SMILES IDX 27 12 28 13 29 14 30 15 31 16 32 17 15 18 14 19 13 20 12 21
REMARK SMILES IDX 11 22 10 23 9 24 8 25 7 26 6 27 5 28 4 29 3 30 2 31 1 32
REMARK H PARENT
REMARK Flexibility Score: inf
ROOT
ATOM      1  C   UNL     1     104.539  97.004  97.371  1.00  0.00     0.000 C 
ENDROOT
BRANCH   1   2
ATOM      2  C   UNL     1     104.295  95.594  97.938  1.00  0.00     0.000 C 
BRANCH   2   3
ATOM      3  C   UNL     1     103.050  95.531  98.848  1.00  0.00     0.000 C 
BRANCH   3   4
ATOM      4  C   UNL     1     102.523  96.913  99.270  1.00  0.00     0.000 C 
BRANCH   4   5
ATOM      5  C   UNL     1     101.077  97.165  98.823  1.00  0.00     0.000 C 
BRANCH   5   6
ATOM      6  C   UNL     1     100.908  97.148  97.294  1.00  0.00     0.000 C 
BRANCH   6   7
ATOM      7  C   UNL     1      99.760  96.241  96.803  1.00  0.00     0.000 C 
BRANCH   7   8
ATOM      8  C   UNL     1      99.446  95.106  97.796  1.00  0.00     0.000 C 
BRANCH   8   9
ATOM      9  C   UNL     1      97.935  94.854  97.946  1.00  0.00     0.000 C 
BRANCH   9  10
ATOM     10  C   UNL     1      97.105  96.134  97.739  1.00  0.00     0.000 C 
BRANCH  10  11
ATOM     11  C   UNL     1      96.787  96.861  99.056  1.00  0.00     0.000 C 
BRANCH  11  12
ATOM     12  C   UNL     1      97.560  98.175  99.284  1.00  0.00     0.000 C 
BRANCH  12  13
ATOM     13  C   UNL     1      97.485  99.161  98.098  1.00  0.00     0.006 C 
BRANCH  13  14
ATOM     14  C   UNL     1      98.807  99.907  97.878  1.00  0.00     0.053 C 
BRANCH  14  15
ATOM     15  C   UNL     1      98.614 101.078  96.966  1.00  0.00     0.041 C 
ATOM     16  O   UNL     1      98.387 100.897  95.742  1.00  0.00    -0.550 OA
ATOM     17  O   UNL     1      98.687 102.375  97.468  1.00  0.00    -0.550 OA
ENDBRANCH  14  15
ENDBRANCH  13  14
ENDBRANCH  12  13
ENDBRANCH  11  12
ENDBRANCH  10  11
ENDBRANCH   9  10
ENDBRANCH   8   9
ENDBRANCH   7   8
ENDBRANCH   6   7
ENDBRANCH   5   6
ENDBRANCH   4   5
ENDBRANCH   3   4
ENDBRANCH   2   3
ENDBRANCH   1   2
BRANCH   1  18
ATOM     18  C   UNL     1     105.548  96.994  96.210  1.00  0.00     0.000 C 
BRANCH  18  19
ATOM     19  C   UNL     1     105.031  97.760  94.980  1.00  0.00     0.000 C 
BRANCH  19  20
ATOM     20  C   UNL     1     103.571  98.223  95.123  1.00  0.00     0.000 C 
BRANCH  20  21
ATOM     21  C   UNL     1     103.314  99.672  94.656  1.00  0.00     0.000 C 
BRANCH  21  22
ATOM     22  C   UNL     1     102.088 100.363  95.290  1.00  0.00     0.000 C 
BRANCH  22  23
ATOM     23  C   UNL     1     102.385 101.317  96.463  1.00  0.00     0.000 C 
BRANCH  23  24
ATOM     24  C   UNL     1     102.346 100.628  97.836  1.00  0.00    -0.000 C 
BRANCH  24  25
ATOM     25  C   UNL     1     103.765 100.260  98.301  1.00  0.00    -0.000 C 
BRANCH  25  26
ATOM     26  C   UNL     1     104.489 101.430  98.986  1.00  0.00    -0.000 C 
BRANCH  26  27
ATOM     27  C   UNL     1     105.947 101.577  98.526  1.00  0.00    -0.000 C 
BRANCH  27  28
ATOM     28  C   UNL     1     106.013 102.114  97.088  1.00  0.00    -0.000 C 
BRANCH  28  29
ATOM     29  C   UNL     1     106.367 101.023  96.064  1.00  0.00    -0.000 C 
BRANCH  29  30
ATOM     30  C   UNL     1     107.881 100.864  95.872  1.00  0.00    -0.000 C 
BRANCH  30  31
ATOM     31  C   UNL     1     108.300  99.398  96.018  1.00  0.00    -0.003 C 
ATOM     32  C   UNL     1     108.345  98.977  97.485  1.00  0.00     0.004 C 
ENDBRANCH  30  31
ENDBRANCH  29  30
ENDBRANCH  28  29
ENDBRANCH  27  28
ENDBRANCH  26  27
ENDBRANCH  25  26
ENDBRANCH  24  25
ENDBRANCH  23  24
ENDBRANCH  22  23
ENDBRANCH  21  22
ENDBRANCH  20  21
ENDBRANCH  19  20
ENDBRANCH  18  19
ENDBRANCH   1  18
TORSDOF 28
ENDMDL
MODEL 2
REMARK VINA RESULT:    -3.936      2.882      7.215
REMARK INTER + INTRA:         -16.138
REMARK INTER:                  -9.917
REMARK INTRA:                  -6.221
REMARK UNBOUND:                -5.760
REMARK SMILES CCCCCCCCCCCCCCCCCCCCCCCCCCCCCC(=O)[O-]
REMARK SMILES IDX 16 1 17 2 18 3 19 4 20 5 21 6 22 7 23 8 24 9 25 10 26 11
REMARK SMILES IDX 27 12 28 13 29 14 30 15 31 16 32 17 15 18 14 19 13 20 12 21
REMARK SMILES IDX 11 22 10 23 9 24 8 25 7 26 6 27 5 28 4 29 3 30 2 31 1 32
REMARK H PARENT
REMARK Flexibility Score: inf
ROOT
ATOM      1  C   UNL     1     104.528  97.828  95.735  1.00  0.00     0.000 C 
ENDROOT
BRANCH   1   2
ATOM      2  C   UNL     1     103.242  98.397  95.108  1.00  0.00     0.000 C 
BRANCH   2   3
ATOM      3  C   UNL     1     103.419  99.849  94.614  1.00  0.00     0.000 C 
BRANCH   3   4
ATOM      4  C   UNL     1     102.290 100.794  95.057  1.00  0.00     0.000 C 
BRANCH   4   5
ATOM      5  C   UNL     1     100.987 100.056  95.393  1.00  0.00     0.000 C 
BRANCH   5   6
ATOM      6  C   UNL     1     100.589 100.183  96.874  1.00  0.00     0.000 C 
BRANCH   6   7
ATOM      7  C   UNL     1      99.808 101.473  97.203  1.00  0.00     0.000 C 
BRANCH   7   8
ATOM      8  C   UNL     1     100.375 102.201  98.436  1.00  0.00     0.000 C 
BRANCH   8   9
ATOM      9  C   UNL     1     101.820 102.686  98.223  1.00  0.00     0.000 C 
BRANCH   9  10
ATOM     10  C   UNL     1     102.797 102.081  99.248  1.00  0.00     0.000 C 
BRANCH  10  11
ATOM     11  C   UNL     1     103.771 101.069  98.621  1.00  0.00     0.000 C 
BRANCH  11  12
ATOM     12  C   UNL     1     104.766 101.660  97.603  1.00  0.00     0.000 C 
BRANCH  12  13
ATOM     13  C   UNL     1     105.914 100.701  97.220  1.00  0.00     0.006 C 
BRANCH  13  14
ATOM     14  C   UNL     1     106.836 101.298  96.149  1.00  0.00     0.053 C 
BRANCH  14  15
ATOM     15  C   UNL     1     107.508 100.217  95.361  1.00  0.00     0.041 C 
ATOM     16  O   UNL     1     107.015  99.826  94.272  1.00  0.00    -0.550 OA
ATOM     17  O   UNL     1     108.683  99.636  95.834  1.00  0.00    -0.550 OA
ENDBRANCH  14  15
ENDBRANCH  13  14
ENDBRANCH  12  13
ENDBRANCH  11  12
ENDBRANCH  10  11
ENDBRANCH   9  10
ENDBRANCH   8   9
ENDBRANCH   7   8
ENDBRANCH   6   7
ENDBRANCH   5   6
ENDBRANCH   4   5
ENDBRANCH   3   4
ENDBRANCH   2   3
ENDBRANCH   1   2
BRANCH   1  18
ATOM     18  C   UNL     1     104.312  97.383  97.192  1.00  0.00     0.000 C 
BRANCH  18  19
ATOM     19  C   UNL     1     102.821  97.254  97.548  1.00  0.00     0.000 C 
BRANCH  19  20
ATOM     20  C   UNL     1     102.556  96.264  98.695  1.00  0.00     0.000 C 
BRANCH  20  21
ATOM     21  C   UNL     1     102.610  96.893 100.104  1.00  0.00     0.000 C 
BRANCH  21  22
ATOM     22  C   UNL     1     102.204  98.380 100.181  1.00  0.00     0.000 C 
BRANCH  22  23
ATOM     23  C   UNL     1     101.715  98.874 101.556  1.00  0.00     0.000 C 
BRANCH  23  24
ATOM     24  C   UNL     1     100.234  99.288 101.566  1.00  0.00    -0.000 C 
BRANCH  24  25
ATOM     25  C   UNL     1      99.626  99.166 100.160  1.00  0.00    -0.000 C 
BRANCH  25  26
ATOM     26  C   UNL     1      98.172  98.667 100.181  1.00  0.00    -0.000 C 
BRANCH  26  27
ATOM     27  C   UNL     1      97.820  97.812  98.954  1.00  0.00    -0.000 C 
BRANCH  27  28
ATOM     28  C   UNL     1      99.077  97.139  98.381  1.00  0.00    -0.000 C 
BRANCH  28  29
ATOM     29  C   UNL     1      98.849  95.661  98.026  1.00  0.00    -0.000 C 
BRANCH  29  30
ATOM     30  C   UNL     1      98.959  95.393  96.519  1.00  0.00    -0.000 C 
BRANCH  30  31
ATOM     31  C   UNL     1      99.399  96.655  95.770  1.00  0.00    -0.003 C 
ATOM     32  C   UNL     1      98.235  97.280  95.004  1.00  0.00     0.004 C 
ENDBRANCH  30  31
ENDBRANCH  29  30
ENDBRANCH  28  29
ENDBRANCH  27  28
ENDBRANCH  26  27
ENDBRANCH  25  26
ENDBRANCH  24  25
ENDBRANCH  23  24
ENDBRANCH  22  23
ENDBRANCH  21  22
ENDBRANCH  20  21
ENDBRANCH  19  20
ENDBRANCH  18  19
ENDBRANCH   1  18
TORSDOF 28
ENDMDL
MODEL 3
REMARK VINA RESULT:    -3.923      2.634      6.636
REMARK INTER + INTRA:         -16.105
REMARK INTER:                 -10.082
REMARK INTRA:                  -6.022
REMARK UNBOUND:                -5.760
REMARK SMILES CCCCCCCCCCCCCCCCCCCCCCCCCCCCCC(=O)[O-]
REMARK SMILES IDX 16 1 17 2 18 3 19 4 20 5 21 6 22 7 23 8 24 9 25 10 26 11
REMARK SMILES IDX 27 12 28 13 29 14 30 15 31 16 32 17 15 18 14 19 13 20 12 21
REMARK SMILES IDX 11 22 10 23 9 24 8 25 7 26 6 27 5 28 4 29 3 30 2 31 1 32
REMARK H PARENT
REMARK Flexibility Score: inf
ROOT
ATOM      1  C   UNL     1      99.499  96.103  96.744  1.00  0.00     0.000 C 
ENDROOT
BRANCH   1   2
ATOM      2  C   UNL     1     100.002  97.519  96.412  1.00  0.00     0.000 C 
BRANCH   2   3
ATOM      3  C   UNL     1      98.980  98.612  96.789  1.00  0.00     0.000 C 
BRANCH   3   4
ATOM      4  C   UNL     1      99.358  99.402  98.053  1.00  0.00     0.000 C 
BRANCH   4   5
ATOM      5  C   UNL     1      98.681  98.866  99.321  1.00  0.00     0.000 C 
BRANCH   5   6
ATOM      6  C   UNL     1      99.470  99.181 100.603  1.00  0.00     0.000 C 
BRANCH   6   7
ATOM      7  C   UNL     1     100.882  99.748 100.344  1.00  0.00     0.000 C 
BRANCH   7   8
ATOM      8  C   UNL     1     101.991  98.822 100.877  1.00  0.00     0.000 C 
BRANCH   8   9
ATOM      9  C   UNL     1     103.387  99.215 100.361  1.00  0.00     0.000 C 
BRANCH   9  10
ATOM     10  C   UNL     1     103.324 100.302  99.273  1.00  0.00     0.000 C 
BRANCH  10  11
ATOM     11  C   UNL     1     104.679 100.541  98.586  1.00  0.00     0.000 C 
BRANCH  11  12
ATOM     12  C   UNL     1     104.775 101.835  97.754  1.00  0.00     0.000 C 
BRANCH  12  13
ATOM     13  C   UNL     1     106.173 102.091  97.151  1.00  0.00     0.006 C 
BRANCH  13  14
ATOM     14  C   UNL     1     106.733 100.853  96.437  1.00  0.00     0.053 C 
BRANCH  14  15
ATOM     15  C   UNL     1     107.099 101.175  95.022  1.00  0.00     0.041 C 
ATOM     16  O   UNL     1     108.123 101.861  94.773  1.00  0.00    -0.550 OA
ATOM     17  O   UNL     1     106.305 100.717  93.974  1.00  0.00    -0.550 OA
ENDBRANCH  14  15
ENDBRANCH  13  14
ENDBRANCH  12  13
ENDBRANCH  11  12
ENDBRANCH  10  11
ENDBRANCH   9  10
ENDBRANCH   8   9
ENDBRANCH   7   8
ENDBRANCH   6   7
ENDBRANCH   5   6
ENDBRANCH   4   5
ENDBRANCH   3   4
ENDBRANCH   2   3
ENDBRANCH   1   2
BRANCH   1  18
ATOM     18  C   UNL     1     100.208  95.511  97.974  1.00  0.00     0.000 C 
BRANCH  18  19
ATOM     19  C   UNL     1     101.431  96.342  98.399  1.00  0.00     0.000 C 
BRANCH  19  20
ATOM     20  C   UNL     1     102.550  95.495  99.030  1.00  0.00     0.000 C 
BRANCH  20  21
ATOM     21  C   UNL     1     103.897  95.558  98.278  1.00  0.00     0.000 C 
BRANCH  21  22
ATOM     22  C   UNL     1     104.221  96.913  97.614  1.00  0.00     0.000 C 
BRANCH  22  23
ATOM     23  C   UNL     1     105.233  96.868  96.452  1.00  0.00     0.000 C 
BRANCH  23  24
ATOM     24  C   UNL     1     104.869  97.805  95.288  1.00  0.00    -0.000 C 
BRANCH  24  25
ATOM     25  C   UNL     1     103.762  98.786  95.706  1.00  0.00    -0.000 C 
BRANCH  25  26
ATOM     26  C   UNL     1     103.027  99.402  94.503  1.00  0.00    -0.000 C 
BRANCH  26  27
ATOM     27  C   UNL     1     102.634 100.868  94.736  1.00  0.00    -0.000 C 
BRANCH  27  28
ATOM     28  C   UNL     1     101.694 100.995  95.945  1.00  0.00    -0.000 C 
BRANCH  28  29
ATOM     29  C   UNL     1     101.524 102.449  96.414  1.00  0.00    -0.000 C 
BRANCH  29  30
ATOM     30  C   UNL     1     100.053 102.832  96.624  1.00  0.00    -0.000 C 
BRANCH  30  31
ATOM     31  C   UNL     1      99.183 102.312  95.476  1.00  0.00    -0.003 C 
ATOM     32  C   UNL     1      97.747 102.069  95.934  1.00  0.00     0.004 C 
ENDBRANCH  30  31
ENDBRANCH  29  30
ENDBRANCH  28  29
ENDBRANCH  27  28
ENDBRANCH  26  27
ENDBRANCH  25  26
ENDBRANCH  24  25
ENDBRANCH  23  24
ENDBRANCH  22  23
ENDBRANCH  21  22
ENDBRANCH  20  21
ENDBRANCH  19  20
ENDBRANCH  18  19
ENDBRANCH   1  18
TORSDOF 28
ENDMDL
MODEL 4
REMARK VINA RESULT:    -3.883      3.010      7.870
REMARK INTER + INTRA:         -16.000
REMARK INTER:                 -10.407
REMARK INTRA:                  -5.593
REMARK UNBOUND:                -5.760
REMARK SMILES CCCCCCCCCCCCCCCCCCCCCCCCCCCCCC(=O)[O-]
REMARK SMILES IDX 16 1 17 2 18 3 19 4 20 5 21 6 22 7 23 8 24 9 25 10 26 11
REMARK SMILES IDX 27 12 28 13 29 14 30 15 31 16 32 17 15 18 14 19 13 20 12 21
REMARK SMILES IDX 11 22 10 23 9 24 8 25 7 26 6 27 5 28 4 29 3 30 2 31 1 32
REMARK H PARENT
REMARK Flexibility Score: inf
ROOT
ATOM      1  C   UNL     1     105.233  96.815  96.510  1.00  0.00     0.000 C 
ENDROOT
BRANCH   1   2
ATOM      2  C   UNL     1     105.071  97.546  95.165  1.00  0.00     0.000 C 
BRANCH   2   3
ATOM      3  C   UNL     1     103.767  98.367  95.094  1.00  0.00     0.000 C 
BRANCH   3   4
ATOM      4  C   UNL     1     103.970  99.807  94.591  1.00  0.00     0.000 C 
BRANCH   4   5
ATOM      5  C   UNL     1     102.649 100.555  94.364  1.00  0.00     0.000 C 
BRANCH   5   6
ATOM      6  C   UNL     1     101.794 100.666  95.639  1.00  0.00     0.000 C 
BRANCH   6   7
ATOM      7  C   UNL     1     101.786 102.077  96.264  1.00  0.00     0.000 C 
BRANCH   7   8
ATOM      8  C   UNL     1     102.460 102.107  97.648  1.00  0.00     0.000 C 
BRANCH   8   9
ATOM      9  C   UNL     1     103.242 100.816  97.952  1.00  0.00     0.000 C 
BRANCH   9  10
ATOM     10  C   UNL     1     104.690 101.100  98.394  1.00  0.00     0.000 C 
BRANCH  10  11
ATOM     11  C   UNL     1     105.410 102.101  97.475  1.00  0.00     0.000 C 
BRANCH  11  12
ATOM     12  C   UNL     1     106.536 101.504  96.608  1.00  0.00     0.000 C 
BRANCH  12  13
ATOM     13  C   UNL     1     106.914 100.054  96.982  1.00  0.00     0.006 C 
BRANCH  13  14
ATOM     14  C   UNL     1     108.234  99.613  96.337  1.00  0.00     0.053 C 
BRANCH  14  15
ATOM     15  C   UNL     1     109.398 100.299  96.981  1.00  0.00     0.041 C 
ATOM     16  O   UNL     1     109.608 100.167  98.215  1.00  0.00    -0.550 OA
ATOM     17  O   UNL     1     110.252 101.091  96.218  1.00  0.00    -0.550 OA
ENDBRANCH  14  15
ENDBRANCH  13  14
ENDBRANCH  12  13
ENDBRANCH  11  12
ENDBRANCH  10  11
ENDBRANCH   9  10
ENDBRANCH   8   9
ENDBRANCH   7   8
ENDBRANCH   6   7
ENDBRANCH   5   6
ENDBRANCH   4   5
ENDBRANCH   3   4
ENDBRANCH   2   3
ENDBRANCH   1   2
BRANCH   1  18
ATOM     18  C   UNL     1     104.137  97.206  97.516  1.00  0.00     0.000 C 
BRANCH  18  19
ATOM     19  C   UNL     1     103.625  95.999  98.321  1.00  0.00     0.000 C 
BRANCH  19  20
ATOM     20  C   UNL     1     102.617  96.385  99.417  1.00  0.00     0.000 C 
BRANCH  20  21
ATOM     21  C   UNL     1     102.385  97.904  99.563  1.00  0.00     0.000 C 
BRANCH  21  22
ATOM     22  C   UNL     1     100.965  98.317 100.006  1.00  0.00     0.000 C 
BRANCH  22  23
ATOM     23  C   UNL     1     100.165  99.164  98.997  1.00  0.00     0.000 C 
BRANCH  23  24
ATOM     24  C   UNL     1      98.736  99.484  99.466  1.00  0.00    -0.000 C 
BRANCH  24  25
ATOM     25  C   UNL     1      97.736  98.462  98.901  1.00  0.00    -0.000 C 
BRANCH  25  26
ATOM     26  C   UNL     1      97.075  97.608  99.996  1.00  0.00    -0.000 C 
BRANCH  26  27
ATOM     27  C   UNL     1      96.471  96.306  99.448  1.00  0.00    -0.000 C 
BRANCH  27  28
ATOM     28  C   UNL     1      97.079  95.957  98.082  1.00  0.00    -0.000 C 
BRANCH  28  29
ATOM     29  C   UNL     1      98.174  94.882  98.178  1.00  0.00    -0.000 C 
BRANCH  29  30
ATOM     30  C   UNL     1      99.529  95.372  97.649  1.00  0.00    -0.000 C 
BRANCH  30  31
ATOM     31  C   UNL     1      99.355  96.167  96.351  1.00  0.00    -0.003 C 
ATOM     32  C   UNL     1     100.435  97.235  96.205  1.00  0.00     0.004 C 
ENDBRANCH  30  31
ENDBRANCH  29  30
ENDBRANCH  28  29
ENDBRANCH  27  28
ENDBRANCH  26  27
ENDBRANCH  25  26
ENDBRANCH  24  25
ENDBRANCH  23  24
ENDBRANCH  22  23
ENDBRANCH  21  22
ENDBRANCH  20  21
ENDBRANCH  19  20
ENDBRANCH  18  19
ENDBRANCH   1  18
TORSDOF 28
ENDMDL
MODEL 5
REMARK VINA RESULT:    -3.846      1.294      4.596
REMARK INTER + INTRA:         -15.901
REMARK INTER:                  -9.825
REMARK INTRA:                  -6.076
REMARK UNBOUND:                -5.760
REMARK SMILES CCCCCCCCCCCCCCCCCCCCCCCCCCCCCC(=O)[O-]
REMARK SMILES IDX 16 1 17 2 18 3 19 4 20 5 21 6 22 7 23 8 24 9 25 10 26 11
REMARK SMILES IDX 27 12 28 13 29 14 30 15 31 16 32 17 15 18 14 19 13 20 12 21
REMARK SMILES IDX 11 22 10 23 9 24 8 25 7 26 6 27 5 28 4 29 3 30 2 31 1 32
REMARK H PARENT
REMARK Flexibility Score: inf
ROOT
ATOM      1  C   UNL     1     100.464  96.999  96.646  1.00  0.00     0.000 C 
ENDROOT
BRANCH   1   2
ATOM      2  C   UNL     1      99.299  96.541  95.750  1.00  0.00     0.000 C 
BRANCH   2   3
ATOM      3  C   UNL     1      98.107  97.520  95.786  1.00  0.00     0.000 C 
BRANCH   3   4
ATOM      4  C   UNL     1      96.897  96.992  96.575  1.00  0.00     0.000 C 
BRANCH   4   5
ATOM      5  C   UNL     1      96.971  97.314  98.074  1.00  0.00     0.000 C 
BRANCH   5   6
ATOM      6  C   UNL     1      97.475  98.739  98.359  1.00  0.00     0.000 C 
BRANCH   6   7
ATOM      7  C   UNL     1      98.652  98.797  99.355  1.00  0.00     0.000 C 
BRANCH   7   8
ATOM      8  C   UNL     1      99.654  99.915  99.013  1.00  0.00     0.000 C 
BRANCH   8   9
ATOM      9  C   UNL     1     100.874  99.923  99.951  1.00  0.00     0.000 C 
BRANCH   9  10
ATOM     10  C   UNL     1     102.184 100.237  99.204  1.00  0.00     0.000 C 
BRANCH  10  11
ATOM     11  C   UNL     1     102.071 100.029  97.684  1.00  0.00     0.000 C 
BRANCH  11  12
ATOM     12  C   UNL     1     102.483 101.239  96.823  1.00  0.00     0.000 C 
BRANCH  12  13
ATOM     13  C   UNL     1     101.781 101.299  95.450  1.00  0.00     0.006 C 
BRANCH  13  14
ATOM     14  C   UNL     1     100.438 100.557  95.451  1.00  0.00     0.053 C 
BRANCH  14  15
ATOM     15  C   UNL     1      99.299 101.516  95.604  1.00  0.00     0.041 C 
ATOM     16  O   UNL     1      98.129 101.088  95.781  1.00  0.00    -0.550 OA
ATOM     17  O   UNL     1      99.529 102.888  95.547  1.00  0.00    -0.550 OA
ENDBRANCH  14  15
ENDBRANCH  13  14
ENDBRANCH  12  13
ENDBRANCH  11  12
ENDBRANCH  10  11
ENDBRANCH   9  10
ENDBRANCH   8   9
ENDBRANCH   7   8
ENDBRANCH   6   7
ENDBRANCH   5   6
ENDBRANCH   4   5
ENDBRANCH   3   4
ENDBRANCH   2   3
ENDBRANCH   1   2
BRANCH   1  18
ATOM     18  C   UNL     1     100.598  96.131  97.909  1.00  0.00     0.000 C 
BRANCH  18  19
ATOM     19  C   UNL     1     101.804  96.539  98.772  1.00  0.00     0.000 C 
BRANCH  19  20
ATOM     20  C   UNL     1     102.835  95.410  98.946  1.00  0.00     0.000 C 
BRANCH  20  21
ATOM     21  C   UNL     1     104.096  95.559  98.069  1.00  0.00     0.000 C 
BRANCH  21  22
ATOM     22  C   UNL     1     104.398  96.994  97.583  1.00  0.00     0.000 C 
BRANCH  22  23
ATOM     23  C   UNL     1     104.933  97.117  96.143  1.00  0.00     0.000 C 
BRANCH  23  24
ATOM     24  C   UNL     1     104.198  98.179  95.308  1.00  0.00    -0.000 C 
BRANCH  24  25
ATOM     25  C   UNL     1     105.116  99.379  95.026  1.00  0.00    -0.000 C 
BRANCH  25  26
ATOM     26  C   UNL     1     106.589  98.976  94.850  1.00  0.00    -0.000 C 
BRANCH  26  27
ATOM     27  C   UNL     1     107.557 100.143  95.091  1.00  0.00    -0.000 C 
BRANCH  27  28
ATOM     28  C   UNL     1     108.543  99.808  96.220  1.00  0.00    -0.000 C 
BRANCH  28  29
ATOM     29  C   UNL     1     108.151 100.451  97.561  1.00  0.00    -0.000 C 
BRANCH  29  30
ATOM     30  C   UNL     1     107.187 101.632  97.388  1.00  0.00    -0.000 C 
BRANCH  30  31
ATOM     31  C   UNL     1     105.869 101.375  98.125  1.00  0.00    -0.003 C 
ATOM     32  C   UNL     1     105.903 100.047  98.877  1.00  0.00     0.004 C 
ENDBRANCH  30  31
ENDBRANCH  29  30
ENDBRANCH  28  29
ENDBRANCH  27  28
ENDBRANCH  26  27
ENDBRANCH  25  26
ENDBRANCH  24  25
ENDBRANCH  23  24
ENDBRANCH  22  23
ENDBRANCH  21  22
ENDBRANCH  20  21
ENDBRANCH  19  20
ENDBRANCH  18  19
ENDBRANCH   1  18
TORSDOF 28
ENDMDL
MODEL 6
REMARK VINA RESULT:    -3.844      2.791      6.590
REMARK INTER + INTRA:         -15.895
REMARK INTER:                  -9.592
REMARK INTRA:                  -6.303
REMARK UNBOUND:                -5.760
REMARK SMILES CCCCCCCCCCCCCCCCCCCCCCCCCCCCCC(=O)[O-]
REMARK SMILES IDX 16 1 17 2 18 3 19 4 20 5 21 6 22 7 23 8 24 9 25 10 26 11
REMARK SMILES IDX 27 12 28 13 29 14 30 15 31 16 32 17 15 18 14 19 13 20 12 21
REMARK SMILES IDX 11 22 10 23 9 24 8 25 7 26 6 27 5 28 4 29 3 30 2 31 1 32
REMARK H PARENT
REMARK Flexibility Score: inf
ROOT
ATOM      1  C   UNL     1     100.740  96.253  97.962  1.00  0.00     0.000 C 
ENDROOT
BRANCH   1   2
ATOM      2  C   UNL     1     102.022  95.721  98.629  1.00  0.00     0.000 C 
BRANCH   2   3
ATOM      3  C   UNL     1     102.698  96.773  99.532  1.00  0.00     0.000 C 
BRANCH   3   4
ATOM      4  C   UNL     1     101.810  97.993  99.831  1.00  0.00     0.000 C 
BRANCH   4   5
ATOM      5  C   UNL     1     102.124  98.647 101.183  1.00  0.00     0.000 C 
BRANCH   5   6
ATOM      6  C   UNL     1     100.871  99.182 101.898  1.00  0.00     0.000 C 
BRANCH   6   7
ATOM      7  C   UNL     1     100.180 100.347 101.158  1.00  0.00     0.000 C 
BRANCH   7   8
ATOM      8  C   UNL     1     101.101 101.572 101.009  1.00  0.00     0.000 C 
BRANCH   8   9
ATOM      9  C   UNL     1     101.586 101.774  99.563  1.00  0.00     0.000 C 
BRANCH   9  10
ATOM     10  C   UNL     1     103.121 101.858  99.467  1.00  0.00     0.000 C 
BRANCH  10  11
ATOM     11  C   UNL     1     103.649 101.564  98.053  1.00  0.00     0.000 C 
BRANCH  11  12
ATOM     12  C   UNL     1     103.861 100.072  97.727  1.00  0.00     0.000 C 
BRANCH  12  13
ATOM     13  C   UNL     1     104.403  99.812  96.306  1.00  0.00     0.006 C 
BRANCH  13  14
ATOM     14  C   UNL     1     103.906  98.480  95.729  1.00  0.00     0.053 C 
BRANCH  14  15
ATOM     15  C   UNL     1     104.969  97.430  95.817  1.00  0.00     0.041 C 
ATOM     16  O   UNL     1     105.254  96.908  96.925  1.00  0.00    -0.550 OA
ATOM     17  O   UNL     1     105.650  97.028  94.670  1.00  0.00    -0.550 OA
ENDBRANCH  14  15
ENDBRANCH  13  14
ENDBRANCH  12  13
ENDBRANCH  11  12
ENDBRANCH  10  11
ENDBRANCH   9  10
ENDBRANCH   8   9
ENDBRANCH   7   8
ENDBRANCH   6   7
ENDBRANCH   5   6
ENDBRANCH   4   5
ENDBRANCH   3   4
ENDBRANCH   2   3
ENDBRANCH   1   2
BRANCH   1  18
ATOM     18  C   UNL     1      99.622  95.197  97.934  1.00  0.00     0.000 C 
BRANCH  18  19
ATOM     19  C   UNL     1      98.898  95.150  96.578  1.00  0.00     0.000 C 
BRANCH  19  20
ATOM     20  C   UNL     1      99.371  96.238  95.599  1.00  0.00     0.000 C 
BRANCH  20  21
ATOM     21  C   UNL     1      98.246  97.155  95.074  1.00  0.00     0.000 C 
BRANCH  21  22
ATOM     22  C   UNL     1      97.036  97.324  96.018  1.00  0.00     0.000 C 
BRANCH  22  23
ATOM     23  C   UNL     1      96.994  98.633  96.830  1.00  0.00     0.000 C 
BRANCH  23  24
ATOM     24  C   UNL     1      98.078  98.712  97.918  1.00  0.00    -0.000 C 
BRANCH  24  25
ATOM     25  C   UNL     1      98.956  99.958  97.721  1.00  0.00    -0.000 C 
BRANCH  25  26
ATOM     26  C   UNL     1     100.259  99.654  96.963  1.00  0.00    -0.000 C 
BRANCH  26  27
ATOM     27  C   UNL     1     100.254 100.208  95.530  1.00  0.00    -0.000 C 
BRANCH  27  28
ATOM     28  C   UNL     1     101.203 101.410  95.408  1.00  0.00    -0.000 C 
BRANCH  28  29
ATOM     29  C   UNL     1     100.588 102.710  95.953  1.00  0.00    -0.000 C 
BRANCH  29  30
ATOM     30  C   UNL     1      99.153 102.935  95.457  1.00  0.00    -0.000 C 
BRANCH  30  31
ATOM     31  C   UNL     1      98.338 103.730  96.483  1.00  0.00    -0.003 C 
ATOM     32  C   UNL     1      98.957 103.636  97.876  1.00  0.00     0.004 C 
ENDBRANCH  30  31
ENDBRANCH  29  30
ENDBRANCH  28  29
ENDBRANCH  27  28
ENDBRANCH  26  27
ENDBRANCH  25  26
ENDBRANCH  24  25
ENDBRANCH  23  24
ENDBRANCH  22  23
ENDBRANCH  21  22
ENDBRANCH  20  21
ENDBRANCH  19  20
ENDBRANCH  18  19
ENDBRANCH   1  18
TORSDOF 28
ENDMDL
MODEL 7
REMARK VINA RESULT:    -3.833      2.902      7.969
REMARK INTER + INTRA:         -15.867
REMARK INTER:                 -10.403
REMARK INTRA:                  -5.464
REMARK UNBOUND:                -5.760
REMARK SMILES CCCCCCCCCCCCCCCCCCCCCCCCCCCCCC(=O)[O-]
REMARK SMILES IDX 16 1 17 2 18 3 19 4 20 5 21 6 22 7 23 8 24 9 25 10 26 11
REMARK SMILES IDX 27 12 28 13 29 14 30 15 31 16 32 17 15 18 14 19 13 20 12 21
REMARK SMILES IDX 11 22 10 23 9 24 8 25 7 26 6 27 5 28 4 29 3 30 2 31 1 32
REMARK H PARENT
REMARK Flexibility Score: inf
ROOT
ATOM      1  C   UNL     1     105.202  97.561  95.253  1.00  0.00     0.000 C 
ENDROOT
BRANCH   1   2
ATOM      2  C   UNL     1     103.812  98.171  94.998  1.00  0.00     0.000 C 
BRANCH   2   3
ATOM      3  C   UNL     1     103.867  99.700  94.797  1.00  0.00     0.000 C 
BRANCH   3   4
ATOM      4  C   UNL     1     102.485 100.374  94.801  1.00  0.00     0.000 C 
BRANCH   4   5
ATOM      5  C   UNL     1     102.243 101.239  96.046  1.00  0.00     0.000 C 
BRANCH   5   6
ATOM      6  C   UNL     1     102.804 100.611  97.333  1.00  0.00     0.000 C 
BRANCH   6   7
ATOM      7  C   UNL     1     103.058 101.629  98.465  1.00  0.00     0.000 C 
BRANCH   7   8
ATOM      8  C   UNL     1     104.546 101.713  98.852  1.00  0.00     0.000 C 
BRANCH   8   9
ATOM      9  C   UNL     1     105.197 100.327  99.000  1.00  0.00     0.000 C 
BRANCH   9  10
ATOM     10  C   UNL     1     106.663 100.316  98.527  1.00  0.00     0.000 C 
BRANCH  10  11
ATOM     11  C   UNL     1     106.799 100.148  97.004  1.00  0.00     0.000 C 
BRANCH  11  12
ATOM     12  C   UNL     1     106.767 101.458  96.193  1.00  0.00     0.000 C 
BRANCH  12  13
ATOM     13  C   UNL     1     107.700 101.457  94.963  1.00  0.00     0.006 C 
BRANCH  13  14
ATOM     14  C   UNL     1     108.668 102.647  94.966  1.00  0.00     0.053 C 
BRANCH  14  15
ATOM     15  C   UNL     1     109.049 103.021  96.364  1.00  0.00     0.041 C 
ATOM     16  O   UNL     1     109.883 102.328  97.000  1.00  0.00    -0.550 OA
ATOM     17  O   UNL     1     108.478 104.139  96.968  1.00  0.00    -0.550 OA
ENDBRANCH  14  15
ENDBRANCH  13  14
ENDBRANCH  12  13
ENDBRANCH  11  12
ENDBRANCH  10  11
ENDBRANCH   9  10
ENDBRANCH   8   9
ENDBRANCH   7   8
ENDBRANCH   6   7
ENDBRANCH   5   6
ENDBRANCH   4   5
ENDBRANCH   3   4
ENDBRANCH   2   3
ENDBRANCH   1   2
BRANCH   1  18
ATOM     18  C   UNL     1     105.244  96.742  96.555  1.00  0.00     0.000 C 
BRANCH  18  19
ATOM     19  C   UNL     1     104.132  97.149  97.537  1.00  0.00     0.000 C 
BRANCH  19  20
ATOM     20  C   UNL     1     103.604  95.973  98.376  1.00  0.00     0.000 C 
BRANCH  20  21
ATOM     21  C   UNL     1     102.636  96.382  99.507  1.00  0.00     0.000 C 
BRANCH  21  22
ATOM     22  C   UNL     1     102.586  97.893  99.821  1.00  0.00     0.000 C 
BRANCH  22  23
ATOM     23  C   UNL     1     101.325  98.386 100.556  1.00  0.00     0.000 C 
BRANCH  23  24
ATOM     24  C   UNL     1     100.430  99.292  99.695  1.00  0.00    -0.000 C 
BRANCH  24  25
ATOM     25  C   UNL     1      99.429  98.455  98.883  1.00  0.00    -0.000 C 
BRANCH  25  26
ATOM     26  C   UNL     1      99.499  98.741  97.374  1.00  0.00    -0.000 C 
BRANCH  26  27
ATOM     27  C   UNL     1     100.439  97.779  96.631  1.00  0.00    -0.000 C 
BRANCH  27  28
ATOM     28  C   UNL     1     100.204  96.330  97.086  1.00  0.00    -0.000 C 
BRANCH  28  29
ATOM     29  C   UNL     1      98.965  95.697  96.433  1.00  0.00    -0.000 C 
BRANCH  29  30
ATOM     30  C   UNL     1      98.509  94.420  97.152  1.00  0.00    -0.000 C 
BRANCH  30  31
ATOM     31  C   UNL     1      97.650  94.757  98.375  1.00  0.00    -0.003 C 
ATOM     32  C   UNL     1      96.623  95.839  98.051  1.00  0.00     0.004 C 
ENDBRANCH  30  31
ENDBRANCH  29  30
ENDBRANCH  28  29
ENDBRANCH  27  28
ENDBRANCH  26  27
ENDBRANCH  25  26
ENDBRANCH  24  25
ENDBRANCH  23  24
ENDBRANCH  22  23
ENDBRANCH  21  22
ENDBRANCH  20  21
ENDBRANCH  19  20
ENDBRANCH  18  19
ENDBRANCH   1  18
TORSDOF 28
ENDMDL
MODEL 8
REMARK VINA RESULT:    -3.826      2.405      7.258
REMARK INTER + INTRA:         -15.849
REMARK INTER:                  -9.885
REMARK INTRA:                  -5.965
REMARK UNBOUND:                -5.760
REMARK SMILES CCCCCCCCCCCCCCCCCCCCCCCCCCCCCC(=O)[O-]
REMARK SMILES IDX 16 1 17 2 18 3 19 4 20 5 21 6 22 7 23 8 24 9 25 10 26 11
REMARK SMILES IDX 27 12 28 13 29 14 30 15 31 16 32 17 15 18 14 19 13 20 12 21
REMARK SMILES IDX 11 22 10 23 9 24 8 25 7 26 6 27 5 28 4 29 3 30 2 31 1 32
REMARK H PARENT
REMARK Flexibility Score: inf
ROOT
ATOM      1  C   UNL     1     102.351  97.480  99.748  1.00  0.00     0.000 C 
ENDROOT
BRANCH   1   2
ATOM      2  C   UNL     1     102.568  96.124  99.053  1.00  0.00     0.000 C 
BRANCH   2   3
ATOM      3  C   UNL     1     103.813  96.120  98.143  1.00  0.00     0.000 C 
BRANCH   3   4
ATOM      4  C   UNL     1     104.138  97.495  97.534  1.00  0.00     0.000 C 
BRANCH   4   5
ATOM      5  C   UNL     1     103.284  97.823  96.302  1.00  0.00     0.000 C 
BRANCH   5   6
ATOM      6  C   UNL     1     104.120  98.287  95.097  1.00  0.00     0.000 C 
BRANCH   6   7
ATOM      7  C   UNL     1     105.498  97.598  94.990  1.00  0.00     0.000 C 
BRANCH   7   8
ATOM      8  C   UNL     1     106.662  98.601  95.085  1.00  0.00     0.000 C 
BRANCH   8   9
ATOM      9  C   UNL     1     106.189 100.064  95.010  1.00  0.00     0.000 C 
BRANCH   9  10
ATOM     10  C   UNL     1     106.586 100.872  96.259  1.00  0.00     0.000 C 
BRANCH  10  11
ATOM     11  C   UNL     1     106.966  99.980  97.453  1.00  0.00     0.000 C 
BRANCH  11  12
ATOM     12  C   UNL     1     106.194 100.262  98.756  1.00  0.00     0.000 C 
BRANCH  12  13
ATOM     13  C   UNL     1     106.820 101.372  99.628  1.00  0.00     0.006 C 
BRANCH  13  14
ATOM     14  C   UNL     1     105.875 102.566  99.814  1.00  0.00     0.053 C 
BRANCH  14  15
ATOM     15  C   UNL     1     106.177 103.646  98.823  1.00  0.00     0.041 C 
ATOM     16  O   UNL     1     105.409 103.842  97.846  1.00  0.00    -0.550 OA
ATOM     17  O   UNL     1     107.314 104.436  98.975  1.00  0.00    -0.550 OA
ENDBRANCH  14  15
ENDBRANCH  13  14
ENDBRANCH  12  13
ENDBRANCH  11  12
ENDBRANCH  10  11
ENDBRANCH   9  10
ENDBRANCH   8   9
ENDBRANCH   7   8
ENDBRANCH   6   7
ENDBRANCH   5   6
ENDBRANCH   4   5
ENDBRANCH   3   4
ENDBRANCH   2   3
ENDBRANCH   1   2
BRANCH   1  18
ATOM     18  C   UNL     1     100.957  98.062  99.459  1.00  0.00     0.000 C 
BRANCH  18  19
ATOM     19  C   UNL     1     101.010  99.559  99.108  1.00  0.00     0.000 C 
BRANCH  19  20
ATOM     20  C   UNL     1     102.426 100.153  99.197  1.00  0.00     0.000 C 
BRANCH  20  21
ATOM     21  C   UNL     1     102.602 101.494  98.453  1.00  0.00     0.000 C 
BRANCH  21  22
ATOM     22  C   UNL     1     103.133 101.383  97.007  1.00  0.00     0.000 C 
BRANCH  22  23
ATOM     23  C   UNL     1     102.063 101.343  95.899  1.00  0.00     0.000 C 
BRANCH  23  24
ATOM     24  C   UNL     1     100.813 102.177  96.226  1.00  0.00    -0.000 C 
BRANCH  24  25
ATOM     25  C   UNL     1      99.546 101.312  96.143  1.00  0.00    -0.000 C 
BRANCH  25  26
ATOM     26  C   UNL     1      99.774  99.990  95.392  1.00  0.00    -0.000 C 
BRANCH  26  27
ATOM     27  C   UNL     1      98.901  98.845  95.927  1.00  0.00    -0.000 C 
BRANCH  27  28
ATOM     28  C   UNL     1      99.736  97.570  96.121  1.00  0.00    -0.000 C 
BRANCH  28  29
ATOM     29  C   UNL     1      99.056  96.321  95.534  1.00  0.00    -0.000 C 
BRANCH  29  30
ATOM     30  C   UNL     1      98.974  95.167  96.541  1.00  0.00    -0.000 C 
BRANCH  30  31
ATOM     31  C   UNL     1      98.519  95.670  97.915  1.00  0.00    -0.003 C 
ATOM     32  C   UNL     1      97.471  94.744  98.527  1.00  0.00     0.004 C 
ENDBRANCH  30  31
ENDBRANCH  29  30
ENDBRANCH  28  29
ENDBRANCH  27  28
ENDBRANCH  26  27
ENDBRANCH  25  26
ENDBRANCH  24  25
ENDBRANCH  23  24
ENDBRANCH  22  23
ENDBRANCH  21  22
ENDBRANCH  20  21
ENDBRANCH  19  20
ENDBRANCH  18  19
ENDBRANCH   1  18
TORSDOF 28
ENDMDL
MODEL 9
REMARK VINA RESULT:    -3.804      2.801      6.677
REMARK INTER + INTRA:         -15.791
REMARK INTER:                 -10.021
REMARK INTRA:                  -5.770
REMARK UNBOUND:                -5.760
REMARK SMILES CCCCCCCCCCCCCCCCCCCCCCCCCCCCCC(=O)[O-]
REMARK SMILES IDX 16 1 17 2 18 3 19 4 20 5 21 6 22 7 23 8 24 9 25 10 26 11
REMARK SMILES IDX 27 12 28 13 29 14 30 15 31 16 32 17 15 18 14 19 13 20 12 21
REMARK SMILES IDX 11 22 10 23 9 24 8 25 7 26 6 27 5 28 4 29 3 30 2 31 1 32
REMARK H PARENT
REMARK Flexibility Score: inf
ROOT
ATOM      1  C   UNL     1     105.206  97.851  95.074  1.00  0.00     0.000 C 
ENDROOT
BRANCH   1   2
ATOM      2  C   UNL     1     105.575  96.974  96.284  1.00  0.00     0.000 C 
BRANCH   2   3
ATOM      3  C   UNL     1     104.471  96.963  97.363  1.00  0.00     0.000 C 
BRANCH   3   4
ATOM      4  C   UNL     1     104.237  95.579  97.993  1.00  0.00     0.000 C 
BRANCH   4   5
ATOM      5  C   UNL     1     103.009  95.539  98.913  1.00  0.00     0.000 C 
BRANCH   5   6
ATOM      6  C   UNL     1     102.198  96.845  98.890  1.00  0.00     0.000 C 
BRANCH   6   7
ATOM      7  C   UNL     1     102.288  97.659 100.198  1.00  0.00     0.000 C 
BRANCH   7   8
ATOM      8  C   UNL     1     102.174  99.175  99.953  1.00  0.00     0.000 C 
BRANCH   8   9
ATOM      9  C   UNL     1     102.677  99.587  98.558  1.00  0.00     0.000 C 
BRANCH   9  10
ATOM     10  C   UNL     1     103.569 100.841  98.605  1.00  0.00     0.000 C 
BRANCH  10  11
ATOM     11  C   UNL     1     104.938 100.627  97.936  1.00  0.00     0.000 C 
BRANCH  11  12
ATOM     12  C   UNL     1     106.022 100.013  98.843  1.00  0.00     0.000 C 
BRANCH  12  13
ATOM     13  C   UNL     1     107.464 100.254  98.348  1.00  0.00     0.006 C 
BRANCH  13  14
ATOM     14  C   UNL     1     107.672  99.772  96.906  1.00  0.00     0.053 C 
BRANCH  14  15
ATOM     15  C   UNL     1     108.197 100.877  96.044  1.00  0.00     0.041 C 
ATOM     16  O   UNL     1     107.458 101.412  95.179  1.00  0.00    -0.550 OA
ATOM     17  O   UNL     1     109.511 101.316  96.195  1.00  0.00    -0.550 OA
ENDBRANCH  14  15
ENDBRANCH  13  14
ENDBRANCH  12  13
ENDBRANCH  11  12
ENDBRANCH  10  11
ENDBRANCH   9  10
ENDBRANCH   8   9
ENDBRANCH   7   8
ENDBRANCH   6   7
ENDBRANCH   5   6
ENDBRANCH   4   5
ENDBRANCH   3   4
ENDBRANCH   2   3
ENDBRANCH   1   2
BRANCH   1  18
ATOM     18  C   UNL     1     103.701  98.165  95.025  1.00  0.00     0.000 C 
BRANCH  18  19
ATOM     19  C   UNL     1     103.422  99.637  94.677  1.00  0.00     0.000 C 
BRANCH  19  20
ATOM     20  C   UNL     1     102.004 100.093  95.060  1.00  0.00     0.000 C 
BRANCH  20  21
ATOM     21  C   UNL     1     101.886 101.597  95.387  1.00  0.00     0.000 C 
BRANCH  21  22
ATOM     22  C   UNL     1     100.507 102.053  95.912  1.00  0.00     0.000 C 
BRANCH  22  23
ATOM     23  C   UNL     1     100.488 102.623  97.344  1.00  0.00     0.000 C 
BRANCH  23  24
ATOM     24  C   UNL     1      99.115 102.512  98.027  1.00  0.00    -0.000 C 
BRANCH  24  25
ATOM     25  C   UNL     1      98.462 101.155  97.718  1.00  0.00    -0.000 C 
BRANCH  25  26
ATOM     26  C   UNL     1      98.713 100.109  98.817  1.00  0.00    -0.000 C 
BRANCH  26  27
ATOM     27  C   UNL     1      98.654  98.668  98.288  1.00  0.00    -0.000 C 
BRANCH  27  28
ATOM     28  C   UNL     1      99.631  98.478  97.117  1.00  0.00    -0.000 C 
BRANCH  28  29
ATOM     29  C   UNL     1      98.964  97.841  95.887  1.00  0.00    -0.000 C 
BRANCH  29  30
ATOM     30  C   UNL     1      99.332  96.361  95.718  1.00  0.00    -0.000 C 
BRANCH  30  31
ATOM     31  C   UNL     1      98.492  95.479  96.647  1.00  0.00    -0.003 C 
ATOM     32  C   UNL     1      99.367  94.762  97.673  1.00  0.00     0.004 C 
ENDBRANCH  30  31
ENDBRANCH  29  30
ENDBRANCH  28  29
ENDBRANCH  27  28
ENDBRANCH  26  27
ENDBRANCH  25  26
ENDBRANCH  24  25
ENDBRANCH  23  24
ENDBRANCH  22  23
ENDBRANCH  21  22
ENDBRANCH  20  21
ENDBRANCH  19  20
ENDBRANCH  18  19
ENDBRANCH   1  18
TORSDOF 28
ENDMDL
