MODEL 1
REMARK VINA RESULT:    -3.614      0.000      0.000
REMARK INTER + INTRA:          -4.698
REMARK INTER:                  -4.459
REMARK INTRA:                  -0.238
REMARK UNBOUND:                -0.238
REMARK SMILES CCCCCC(=O)[O-]
REMARK SMILES IDX 4 1 5 2 6 3 7 4 8 5 3 6 2 7 1 8
REMARK H PARENT
REMARK Flexibility Score: inf
ROOT
ATOM      1  C   UNL     1       5.495 -10.979   7.288  1.00  0.00     0.006 C 
ENDROOT
BRANCH   1   2
ATOM      2  C   UNL     1       4.051 -10.636   6.902  1.00  0.00     0.053 C 
BRANCH   2   3
ATOM      3  C   UNL     1       4.027  -9.805   5.657  1.00  0.00     0.041 C 
ATOM      4  O   UNL     1       3.548 -10.274   4.591  1.00  0.00    -0.550 OA
ATOM      5  O   UNL     1       4.580  -8.531   5.662  1.00  0.00    -0.550 OA
ENDBRANCH   2   3
ENDBRANCH   1   2
BRANCH   1   6
ATOM      6  C   UNL     1       5.999 -12.264   6.612  1.00  0.00     0.000 C 
BRANCH   6   7
ATOM      7  C   UNL     1       4.906 -13.336   6.492  1.00  0.00    -0.003 C 
ATOM      8  C   UNL     1       4.764 -13.816   5.051  1.00  0.00     0.004 C 
ENDBRANCH   6   7
ENDBRANCH   1   6
TORSDOF 4
ENDMDL
MODEL 2
REMARK VINA RESULT:    -3.560      0.115      1.148
REMARK INTER + INTRA:          -4.630
REMARK INTER:                  -4.436
REMARK INTRA:                  -0.194
REMARK UNBOUND:                -0.238
REMARK SMILES CCCCCC(=O)[O-]
REMARK SMILES IDX 4 1 5 2 6 3 7 4 8 5 3 6 2 7 1 8
REMARK H PARENT
REMARK Flexibility Score: inf
ROOT
ATOM      1  C   UNL     1       5.523 -10.934   7.241  1.00  0.00     0.006 C 
ENDROOT
BRANCH   1   2
ATOM      2  C   UNL     1       4.088 -10.605   6.812  1.00  0.00     0.053 C 
BRANCH   2   3
ATOM      3  C   UNL     1       4.094  -9.706   5.615  1.00  0.00     0.041 C 
ATOM      4  O   UNL     1       4.590  -8.552   5.692  1.00  0.00    -0.550 OA
ATOM      5  O   UNL     1       3.507 -10.126   4.428  1.00  0.00    -0.550 OA
ENDBRANCH   2   3
ENDBRANCH   1   2
BRANCH   1   6
ATOM      6  C   UNL     1       6.002 -12.295   6.707  1.00  0.00     0.000 C 
BRANCH   6   7
ATOM      7  C   UNL     1       4.854 -13.302   6.545  1.00  0.00    -0.003 C 
ATOM      8  C   UNL     1       4.789 -13.835   5.117  1.00  0.00     0.004 C 
ENDBRANCH   6   7
ENDBRANCH   1   6
TORSDOF 4
ENDMDL
MODEL 3
REMARK VINA RESULT:    -3.482      1.498      2.183
REMARK INTER + INTRA:          -4.534
REMARK INTER:                  -4.306
REMARK INTRA:                  -0.228
REMARK UNBOUND:                -0.238
REMARK SMILES CCCCCC(=O)[O-]
REMARK SMILES IDX 4 1 5 2 6 3 7 4 8 5 3 6 2 7 1 8
REMARK H PARENT
REMARK Flexibility Score: inf
ROOT
ATOM      1  C   UNL     1       3.839 -10.885   6.873  1.00  0.00     0.006 C 
ENDROOT
BRANCH   1   2
ATOM      2  C   UNL     1       3.993 -10.053   5.593  1.00  0.00     0.053 C 
BRANCH   2   3
ATOM      3  C   UNL     1       4.412  -8.655   5.928  1.00  0.00     0.041 C 
ATOM      4  O   UNL     1       3.904  -7.678   5.316  1.00  0.00    -0.550 OA
ATOM      5  O   UNL     1       5.398  -8.435   6.880  1.00  0.00    -0.550 OA
ENDBRANCH   2   3
ENDBRANCH   1   2
BRANCH   1   6
ATOM      6  C   UNL     1       4.577 -12.231   6.795  1.00  0.00     0.000 C 
BRANCH   6   7
ATOM      7  C   UNL     1       6.088 -12.065   6.582  1.00  0.00    -0.003 C 
ATOM      8  C   UNL     1       6.767 -11.547   7.845  1.00  0.00     0.004 C 
ENDBRANCH   6   7
ENDBRANCH   1   6
TORSDOF 4
ENDMDL
MODEL 4
REMARK VINA RESULT:    -3.396      2.168      3.638
REMARK INTER + INTRA:          -4.429
REMARK INTER:                  -4.318
REMARK INTRA:                  -0.111
REMARK UNBOUND:                -0.238
REMARK SMILES CCCCCC(=O)[O-]
REMARK SMILES IDX 4 1 5 2 6 3 7 4 8 5 3 6 2 7 1 8
REMARK H PARENT
REMARK Flexibility Score: inf
ROOT
ATOM      1  C   UNL     1       5.317 -13.338   5.981  1.00  0.00     0.006 C 
ENDROOT
BRANCH   1   2
ATOM      2  C   UNL     1       4.446 -13.943   4.873  1.00  0.00     0.053 C 
BRANCH   2   3
ATOM      3  C   UNL     1       4.686 -13.235   3.576  1.00  0.00     0.041 C 
ATOM      4  O   UNL     1       3.938 -12.285   3.225  1.00  0.00    -0.550 OA
ATOM      5  O   UNL     1       5.705 -13.658   2.733  1.00  0.00    -0.550 OA
ENDBRANCH   2   3
ENDBRANCH   1   2
BRANCH   1   6
ATOM      6  C   UNL     1       4.582 -12.252   6.784  1.00  0.00     0.000 C 
BRANCH   6   7
ATOM      7  C   UNL     1       5.501 -11.088   7.182  1.00  0.00    -0.003 C 
ATOM      8  C   UNL     1       6.786 -11.597   7.826  1.00  0.00     0.004 C 
ENDBRANCH   6   7
ENDBRANCH   1   6
TORSDOF 4
ENDMDL
MODEL 5
REMARK VINA RESULT:    -3.379      2.397      3.360
REMARK INTER + INTRA:          -4.408
REMARK INTER:                  -4.346
REMARK INTRA:                  -0.062
REMARK UNBOUND:                -0.238
REMARK SMILES CCCCCC(=O)[O-]
REMARK SMILES IDX 4 1 5 2 6 3 7 4 8 5 3 6 2 7 1 8
REMARK H PARENT
REMARK Flexibility Score: inf
ROOT
ATOM      1  C   UNL     1       4.882 -13.144   4.986  1.00  0.00     0.006 C 
ENDROOT
BRANCH   1   2
ATOM      2  C   UNL     1       5.207 -13.292   6.478  1.00  0.00     0.053 C 
BRANCH   2   3
ATOM      3  C   UNL     1       5.586 -11.968   7.062  1.00  0.00     0.041 C 
ATOM      4  O   UNL     1       4.702 -11.105   7.305  1.00  0.00    -0.550 OA
ATOM      5  O   UNL     1       6.923 -11.668   7.293  1.00  0.00    -0.550 OA
ENDBRANCH   2   3
ENDBRANCH   1   2
BRANCH   1   6
ATOM      6  C   UNL     1       4.231 -14.405   4.395  1.00  0.00     0.000 C 
BRANCH   6   7
ATOM      7  C   UNL     1       2.713 -14.258   4.216  1.00  0.00    -0.003 C 
ATOM      8  C   UNL     1       2.027 -15.620   4.200  1.00  0.00     0.004 C 
ENDBRANCH   6   7
ENDBRANCH   1   6
TORSDOF 4
ENDMDL
MODEL 6
REMARK VINA RESULT:    -3.349      1.975      3.145
REMARK INTER + INTRA:          -4.370
REMARK INTER:                  -4.258
REMARK INTRA:                  -0.112
REMARK UNBOUND:                -0.238
REMARK SMILES CCCCCC(=O)[O-]
REMARK SMILES IDX 4 1 5 2 6 3 7 4 8 5 3 6 2 7 1 8
REMARK H PARENT
REMARK Flexibility Score: inf
ROOT
ATOM      1  C   UNL     1       4.723 -13.647   5.062  1.00  0.00     0.006 C 
ENDROOT
BRANCH   1   2
ATOM      2  C   UNL     1       3.655 -12.619   4.667  1.00  0.00     0.053 C 
BRANCH   2   3
ATOM      3  C   UNL     1       3.866 -12.163   3.257  1.00  0.00     0.041 C 
ATOM      4  O   UNL     1       4.454 -12.910   2.430  1.00  0.00    -0.550 OA
ATOM      5  O   UNL     1       3.459 -10.893   2.868  1.00  0.00    -0.550 OA
ENDBRANCH   2   3
ENDBRANCH   1   2
BRANCH   1   6
ATOM      6  C   UNL     1       5.252 -13.430   6.489  1.00  0.00     0.000 C 
BRANCH   6   7
ATOM      7  C   UNL     1       5.396 -11.944   6.846  1.00  0.00    -0.003 C 
ATOM      8  C   UNL     1       6.718 -11.675   7.557  1.00  0.00     0.004 C 
ENDBRANCH   6   7
ENDBRANCH   1   6
TORSDOF 4
ENDMDL
MODEL 7
REMARK VINA RESULT:    -3.285      2.492      3.481
REMARK INTER + INTRA:          -4.292
REMARK INTER:                  -4.241
REMARK INTRA:                  -0.051
REMARK UNBOUND:                -0.238
REMARK SMILES CCCCCC(=O)[O-]
REMARK SMILES IDX 4 1 5 2 6 3 7 4 8 5 3 6 2 7 1 8
REMARK H PARENT
REMARK Flexibility Score: inf
ROOT
ATOM      1  C   UNL     1       4.437 -13.044   5.181  1.00  0.00     0.006 C 
ENDROOT
BRANCH   1   2
ATOM      2  C   UNL     1       5.247 -13.305   6.457  1.00  0.00     0.053 C 
BRANCH   2   3
ATOM      3  C   UNL     1       5.664 -12.012   7.085  1.00  0.00     0.041 C 
ATOM      4  O   UNL     1       6.833 -11.872   7.531  1.00  0.00    -0.550 OA
ATOM      5  O   UNL     1       4.746 -10.978   7.220  1.00  0.00    -0.550 OA
ENDBRANCH   2   3
ENDBRANCH   1   2
BRANCH   1   6
ATOM      6  C   UNL     1       4.950 -13.854   3.979  1.00  0.00     0.000 C 
BRANCH   6   7
ATOM      7  C   UNL     1       4.680 -13.156   2.638  1.00  0.00    -0.003 C 
ATOM      8  C   UNL     1       5.816 -13.404   1.652  1.00  0.00     0.004 C 
ENDBRANCH   6   7
ENDBRANCH   1   6
TORSDOF 4
ENDMDL
MODEL 8
REMARK VINA RESULT:    -3.238      2.228      3.905
REMARK INTER + INTRA:          -4.233
REMARK INTER:                  -4.117
REMARK INTRA:                  -0.116
REMARK UNBOUND:                -0.238
REMARK SMILES CCCCCC(=O)[O-]
REMARK SMILES IDX 4 1 5 2 6 3 7 4 8 5 3 6 2 7 1 8
REMARK H PARENT
REMARK Flexibility Score: inf
ROOT
ATOM      1  C   UNL     1       5.542 -12.254   6.659  1.00  0.00     0.006 C 
ENDROOT
BRANCH   1   2
ATOM      2  C   UNL     1       5.217 -13.708   6.291  1.00  0.00     0.053 C 
BRANCH   2   3
ATOM      3  C   UNL     1       4.616 -13.776   4.922  1.00  0.00     0.041 C 
ATOM      4  O   UNL     1       5.144 -13.150   3.965  1.00  0.00    -0.550 OA
ATOM      5  O   UNL     1       3.444 -14.493   4.713  1.00  0.00    -0.550 OA
ENDBRANCH   2   3
ENDBRANCH   1   2
BRANCH   1   6
ATOM      6  C   UNL     1       4.279 -11.411   6.905  1.00  0.00     0.000 C 
BRANCH   6   7
ATOM      7  C   UNL     1       4.471  -9.936   6.525  1.00  0.00    -0.003 C 
ATOM      8  C   UNL     1       3.224  -9.120   6.848  1.00  0.00     0.004 C 
ENDBRANCH   6   7
ENDBRANCH   1   6
TORSDOF 4
ENDMDL
MODEL 9
REMARK VINA RESULT:    -3.206      3.184      4.328
REMARK INTER + INTRA:          -4.194
REMARK INTER:                  -4.137
REMARK INTRA:                  -0.057
REMARK UNBOUND:                -0.238
REMARK SMILES CCCCCC(=O)[O-]
REMARK SMILES IDX 4 1 5 2 6 3 7 4 8 5 3 6 2 7 1 8
REMARK H PARENT
REMARK Flexibility Score: inf
ROOT
ATOM      1  C   UNL     1       4.896 -13.516   4.973  1.00  0.00     0.006 C 
ENDROOT
BRANCH   1   2
ATOM      2  C   UNL     1       3.414 -13.367   4.607  1.00  0.00     0.053 C 
BRANCH   2   3
ATOM      3  C   UNL     1       2.985 -14.482   3.705  1.00  0.00     0.041 C 
ATOM      4  O   UNL     1       3.142 -14.385   2.459  1.00  0.00    -0.550 OA
ATOM      5  O   UNL     1       2.368 -15.607   4.236  1.00  0.00    -0.550 OA
ENDBRANCH   2   3
ENDBRANCH   1   2
BRANCH   1   6
ATOM      6  C   UNL     1       5.153 -13.342   6.479  1.00  0.00     0.000 C 
BRANCH   6   7
ATOM      7  C   UNL     1       5.433 -11.883   6.867  1.00  0.00    -0.003 C 
ATOM      8  C   UNL     1       6.757 -11.758   7.613  1.00  0.00     0.004 C 
ENDBRANCH   6   7
ENDBRANCH   1   6
TORSDOF 4
ENDMDL
