MODEL 1
REMARK VINA RESULT:    -5.795      0.000      0.000
REMARK INTER + INTRA:          -9.489
REMARK INTER:                  -8.336
REMARK INTRA:                  -1.153
REMARK UNBOUND:                -1.153
REMARK SMILES CC(C)=CCCC(C)=CCCC(C)=CCO
REMARK SMILES IDX 10 1 9 2 7 3 8 4 6 5 5 6 4 7 1 8 2 9 3 10 11 11 12 12 14 13
REMARK SMILES IDX 13 14 15 15 16 16
REMARK H PARENT 16 17
REMARK Flexibility Score: inf
ROOT
ATOM      1  C   UNL     1     -13.920  18.540 -17.603  1.00  0.00     0.032 C 
ENDROOT
BRANCH   1   2
ATOM      2  C   UNL     1     -13.892  19.098 -16.203  1.00  0.00    -0.028 C 
ATOM      3  C   UNL     1     -12.763  19.422 -15.531  1.00  0.00    -0.077 C 
ATOM      4  C   UNL     1     -11.398  19.320 -16.171  1.00  0.00     0.039 C 
BRANCH   3   5
ATOM      5  C   UNL     1     -12.876  19.924 -14.108  1.00  0.00     0.034 C 
BRANCH   5   6
ATOM      6  C   UNL     1     -14.001  20.958 -13.985  1.00  0.00     0.032 C 
BRANCH   6   7
ATOM      7  C   UNL     1     -13.666  22.208 -14.760  1.00  0.00    -0.028 C 
ATOM      8  C   UNL     1     -13.279  23.575 -12.697  1.00  0.00     0.039 C 
ATOM      9  C   UNL     1     -13.364  23.398 -14.195  1.00  0.00    -0.080 C 
ATOM     10  C   UNL     1     -13.088  24.572 -15.099  1.00  0.00     0.039 C 
ENDBRANCH   6   7
ENDBRANCH   5   6
ENDBRANCH   3   5
ENDBRANCH   1   2
BRANCH   1  11
ATOM     11  C   UNL     1     -14.535  17.136 -17.612  1.00  0.00     0.034 C 
BRANCH  11  12
ATOM     12  C   UNL     1     -13.468  16.085 -17.379  1.00  0.00    -0.075 C 
ATOM     13  C   UNL     1     -13.356  15.396 -16.221  1.00  0.00    -0.000 C 
ATOM     14  C   UNL     1     -12.534  15.743 -18.511  1.00  0.00     0.039 C 
BRANCH  13  15
ATOM     15  C   UNL     1     -14.227  15.616 -15.014  1.00  0.00     0.183 C 
BRANCH  15  16
ATOM     16  O   UNL     1     -13.486  16.242 -14.004  1.00  0.00    -0.392 OA
ATOM     17  H   UNL     1     -13.165  17.098 -14.392  1.00  0.00     0.210 HD
ENDBRANCH  15  16
ENDBRANCH  13  15
ENDBRANCH  11  12
ENDBRANCH   1  11
TORSDOF 8
ENDMDL
MODEL 2
REMARK VINA RESULT:    -5.772      6.838      9.919
REMARK INTER + INTRA:          -9.456
REMARK INTER:                  -8.408
REMARK INTRA:                  -1.048
REMARK UNBOUND:                -1.153
REMARK SMILES CC(C)=CCCC(C)=CCCC(C)=CCO
REMARK SMILES IDX 10 1 9 2 7 3 8 4 6 5 5 6 4 7 1 8 2 9 3 10 11 11 12 12 14 13
REMARK SMILES IDX 13 14 15 15 16 16
REMARK H PARENT 16 17
REMARK Flexibility Score: inf
ROOT
ATOM      1  C   UNL     1      -9.459  11.751 -22.541  1.00  0.00     0.032 C 
ENDROOT
BRANCH   1   2
ATOM      2  C   UNL     1      -9.907  12.901 -21.675  1.00  0.00    -0.028 C 
ATOM      3  C   UNL     1      -9.491  14.180 -21.827  1.00  0.00    -0.077 C 
ATOM      4  C   UNL     1      -8.573  14.591 -22.954  1.00  0.00     0.039 C 
BRANCH   3   5
ATOM      5  C   UNL     1      -9.980  15.229 -20.852  1.00  0.00     0.034 C 
BRANCH   5   6
ATOM      6  C   UNL     1     -10.688  14.575 -19.660  1.00  0.00     0.032 C 
BRANCH   6   7
ATOM      7  C   UNL     1     -11.944  15.331 -19.303  1.00  0.00    -0.028 C 
ATOM      8  C   UNL     1     -13.405  13.900 -20.749  1.00  0.00     0.039 C 
ATOM      9  C   UNL     1     -13.168  15.055 -19.804  1.00  0.00    -0.080 C 
ATOM     10  C   UNL     1     -14.327  15.921 -19.383  1.00  0.00     0.039 C 
ENDBRANCH   6   7
ENDBRANCH   5   6
ENDBRANCH   3   5
ENDBRANCH   1   2
BRANCH   1  11
ATOM     11  C   UNL     1     -10.660  10.908 -22.982  1.00  0.00     0.034 C 
BRANCH  11  12
ATOM     12  C   UNL     1     -10.752  10.860 -24.495  1.00  0.00    -0.075 C 
ATOM     13  C   UNL     1     -11.589  10.028 -25.154  1.00  0.00    -0.000 C 
ATOM     14  C   UNL     1      -9.923  11.830 -25.297  1.00  0.00     0.039 C 
BRANCH  13  15
ATOM     15  C   UNL     1     -12.486   9.021 -24.487  1.00  0.00     0.183 C 
BRANCH  15  16
ATOM     16  O   UNL     1     -11.750   7.875 -24.162  1.00  0.00    -0.392 OA
ATOM     17  H   UNL     1     -12.038   7.174 -24.803  1.00  0.00     0.210 HD
ENDBRANCH  15  16
ENDBRANCH  13  15
ENDBRANCH  11  12
ENDBRANCH   1  11
TORSDOF 8
ENDMDL
MODEL 3
REMARK VINA RESULT:    -5.763      2.867      6.698
REMARK INTER + INTRA:          -9.443
REMARK INTER:                  -8.682
REMARK INTRA:                  -0.760
REMARK UNBOUND:                -1.153
REMARK SMILES CC(C)=CCCC(C)=CCCC(C)=CCO
REMARK SMILES IDX 10 1 9 2 7 3 8 4 6 5 5 6 4 7 1 8 2 9 3 10 11 11 12 12 14 13
REMARK SMILES IDX 13 14 15 15 16 16
REMARK H PARENT 16 17
REMARK Flexibility Score: inf
ROOT
ATOM      1  C   UNL     1     -12.931  20.635 -12.996  1.00  0.00     0.032 C 
ENDROOT
BRANCH   1   2
ATOM      2  C   UNL     1     -12.772  20.465 -14.486  1.00  0.00    -0.028 C 
ATOM      3  C   UNL     1     -12.680  19.270 -15.113  1.00  0.00    -0.077 C 
ATOM      4  C   UNL     1     -12.805  17.964 -14.364  1.00  0.00     0.039 C 
BRANCH   3   5
ATOM      5  C   UNL     1     -12.470  19.245 -16.612  1.00  0.00     0.034 C 
BRANCH   5   6
ATOM      6  C   UNL     1     -13.597  18.471 -17.305  1.00  0.00     0.032 C 
BRANCH   6   7
ATOM      7  C   UNL     1     -14.789  19.363 -17.546  1.00  0.00    -0.028 C 
ATOM      8  C   UNL     1     -14.999  18.700 -19.952  1.00  0.00     0.039 C 
ATOM      9  C   UNL     1     -15.414  19.495 -18.737  1.00  0.00    -0.080 C 
ATOM     10  C   UNL     1     -16.572  20.455 -18.837  1.00  0.00     0.039 C 
ENDBRANCH   6   7
ENDBRANCH   5   6
ENDBRANCH   3   5
ENDBRANCH   1   2
BRANCH   1  11
ATOM     11  C   UNL     1     -13.722  21.909 -12.679  1.00  0.00     0.034 C 
BRANCH  11  12
ATOM     12  C   UNL     1     -12.781  23.063 -12.396  1.00  0.00    -0.075 C 
ATOM     13  C   UNL     1     -12.572  24.073 -13.271  1.00  0.00    -0.000 C 
ATOM     14  C   UNL     1     -12.101  23.126 -11.053  1.00  0.00     0.039 C 
BRANCH  13  15
ATOM     15  C   UNL     1     -13.194  24.153 -14.639  1.00  0.00     0.183 C 
BRANCH  15  16
ATOM     16  O   UNL     1     -12.630  25.218 -15.352  1.00  0.00    -0.392 OA
ATOM     17  H   UNL     1     -12.355  25.887 -14.673  1.00  0.00     0.210 HD
ENDBRANCH  15  16
ENDBRANCH  13  15
ENDBRANCH  11  12
ENDBRANCH   1  11
TORSDOF 8
ENDMDL
MODEL 4
REMARK VINA RESULT:    -5.668      1.725      3.532
REMARK INTER + INTRA:          -9.307
REMARK INTER:                  -8.149
REMARK INTRA:                  -1.157
REMARK UNBOUND:                -1.153
REMARK SMILES CC(C)=CCCC(C)=CCCC(C)=CCO
REMARK SMILES IDX 10 1 9 2 7 3 8 4 6 5 5 6 4 7 1 8 2 9 3 10 11 11 12 12 14 13
REMARK SMILES IDX 13 14 15 15 16 16
REMARK H PARENT 16 17
REMARK Flexibility Score: inf
ROOT
ATOM      1  C   UNL     1     -12.437  19.588 -14.032  1.00  0.00     0.032 C 
ENDROOT
BRANCH   1   2
ATOM      2  C   UNL     1     -13.466  20.386 -13.271  1.00  0.00    -0.028 C 
ATOM      3  C   UNL     1     -13.979  21.566 -13.686  1.00  0.00    -0.077 C 
ATOM      4  C   UNL     1     -13.610  22.170 -15.021  1.00  0.00     0.039 C 
BRANCH   3   5
ATOM      5  C   UNL     1     -14.968  22.288 -12.798  1.00  0.00     0.034 C 
BRANCH   5   6
ATOM      6  C   UNL     1     -14.458  23.690 -12.443  1.00  0.00     0.032 C 
BRANCH   6   7
ATOM      7  C   UNL     1     -14.076  23.768 -10.986  1.00  0.00    -0.028 C 
ATOM      8  C   UNL     1     -11.648  23.353 -11.437  1.00  0.00     0.039 C 
ATOM      9  C   UNL     1     -12.822  23.594 -10.516  1.00  0.00    -0.080 C 
ATOM     10  C   UNL     1     -12.597  23.664  -9.028  1.00  0.00     0.039 C 
ENDBRANCH   6   7
ENDBRANCH   5   6
ENDBRANCH   3   5
ENDBRANCH   1   2
BRANCH   1  11
ATOM     11  C   UNL     1     -13.104  18.444 -14.803  1.00  0.00     0.034 C 
BRANCH  11  12
ATOM     12  C   UNL     1     -12.673  18.459 -16.256  1.00  0.00    -0.075 C 
ATOM     13  C   UNL     1     -13.157  17.594 -17.175  1.00  0.00    -0.000 C 
ATOM     14  C   UNL     1     -11.714  19.528 -16.713  1.00  0.00     0.039 C 
BRANCH  13  15
ATOM     15  C   UNL     1     -14.131  16.488 -16.870  1.00  0.00     0.183 C 
BRANCH  15  16
ATOM     16  O   UNL     1     -13.432  15.322 -16.534  1.00  0.00    -0.392 OA
ATOM     17  H   UNL     1     -13.595  14.682 -17.276  1.00  0.00     0.210 HD
ENDBRANCH  15  16
ENDBRANCH  13  15
ENDBRANCH  11  12
ENDBRANCH   1  11
TORSDOF 8
ENDMDL
MODEL 5
REMARK VINA RESULT:    -5.600      3.432      7.670
REMARK INTER + INTRA:          -9.208
REMARK INTER:                  -7.780
REMARK INTRA:                  -1.429
REMARK UNBOUND:                -1.153
REMARK SMILES CC(C)=CCCC(C)=CCCC(C)=CCO
REMARK SMILES IDX 10 1 9 2 7 3 8 4 6 5 5 6 4 7 1 8 2 9 3 10 11 11 12 12 14 13
REMARK SMILES IDX 13 14 15 15 16 16
REMARK H PARENT 16 17
REMARK Flexibility Score: inf
ROOT
ATOM      1  C   UNL     1     -12.575  21.447 -10.228  1.00  0.00     0.032 C 
ENDROOT
BRANCH   1   2
ATOM      2  C   UNL     1     -13.152  21.687 -11.601  1.00  0.00    -0.028 C 
ATOM      3  C   UNL     1     -12.798  22.710 -12.411  1.00  0.00    -0.077 C 
ATOM      4  C   UNL     1     -11.711  23.688 -12.032  1.00  0.00     0.039 C 
BRANCH   3   5
ATOM      5  C   UNL     1     -13.496  22.864 -13.745  1.00  0.00     0.034 C 
BRANCH   5   6
ATOM      6  C   UNL     1     -14.038  21.515 -14.233  1.00  0.00     0.032 C 
BRANCH   6   7
ATOM      7  C   UNL     1     -13.188  20.971 -15.354  1.00  0.00    -0.028 C 
ATOM      8  C   UNL     1     -12.607  18.876 -14.110  1.00  0.00     0.039 C 
ATOM      9  C   UNL     1     -12.519  19.799 -15.304  1.00  0.00    -0.080 C 
ATOM     10  C   UNL     1     -11.678  19.401 -16.489  1.00  0.00     0.039 C 
ENDBRANCH   6   7
ENDBRANCH   5   6
ENDBRANCH   3   5
ENDBRANCH   1   2
BRANCH   1  11
ATOM     11  C   UNL     1     -13.570  21.872  -9.143  1.00  0.00     0.034 C 
BRANCH  11  12
ATOM     12  C   UNL     1     -13.350  23.321  -8.756  1.00  0.00    -0.075 C 
ATOM     13  C   UNL     1     -14.177  24.319  -9.143  1.00  0.00    -0.000 C 
ATOM     14  C   UNL     1     -12.199  23.657  -7.844  1.00  0.00     0.039 C 
BRANCH  13  15
ATOM     15  C   UNL     1     -15.373  24.131 -10.037  1.00  0.00     0.183 C 
BRANCH  15  16
ATOM     16  O   UNL     1     -15.135  24.734 -11.278  1.00  0.00    -0.392 OA
ATOM     17  H   UNL     1     -14.716  25.612 -11.079  1.00  0.00     0.210 HD
ENDBRANCH  15  16
ENDBRANCH  13  15
ENDBRANCH  11  12
ENDBRANCH   1  11
TORSDOF 8
ENDMDL
MODEL 6
REMARK VINA RESULT:    -5.578     10.822     12.259
REMARK INTER + INTRA:          -9.177
REMARK INTER:                  -8.383
REMARK INTRA:                  -0.794
REMARK UNBOUND:                -1.153
REMARK SMILES CC(C)=CCCC(C)=CCCC(C)=CCO
REMARK SMILES IDX 10 1 9 2 7 3 8 4 6 5 5 6 4 7 1 8 2 9 3 10 11 11 12 12 14 13
REMARK SMILES IDX 13 14 15 15 16 16
REMARK H PARENT 16 17
REMARK Flexibility Score: inf
ROOT
ATOM      1  C   UNL     1     -10.444  11.349 -25.147  1.00  0.00     0.032 C 
ENDROOT
BRANCH   1   2
ATOM      2  C   UNL     1      -9.748  12.661 -24.884  1.00  0.00    -0.028 C 
ATOM      3  C   UNL     1      -9.362  13.091 -23.661  1.00  0.00    -0.077 C 
ATOM      4  C   UNL     1      -9.531  12.237 -22.426  1.00  0.00     0.039 C 
BRANCH   3   5
ATOM      5  C   UNL     1      -8.719  14.455 -23.533  1.00  0.00     0.034 C 
BRANCH   5   6
ATOM      6  C   UNL     1      -8.659  15.157 -24.894  1.00  0.00     0.032 C 
BRANCH   6   7
ATOM      7  C   UNL     1      -7.345  14.880 -25.582  1.00  0.00    -0.028 C 
ATOM      8  C   UNL     1      -7.040  17.259 -26.303  1.00  0.00     0.039 C 
ATOM      9  C   UNL     1      -6.618  15.809 -26.240  1.00  0.00    -0.080 C 
ATOM     10  C   UNL     1      -5.340  15.377 -26.912  1.00  0.00     0.039 C 
ENDBRANCH   6   7
ENDBRANCH   5   6
ENDBRANCH   3   5
ENDBRANCH   1   2
BRANCH   1  11
ATOM     11  C   UNL     1     -11.943  11.570 -25.377  1.00  0.00     0.034 C 
BRANCH  11  12
ATOM     12  C   UNL     1     -12.738  11.144 -24.159  1.00  0.00    -0.075 C 
ATOM     13  C   UNL     1     -13.045   9.854 -23.896  1.00  0.00    -0.000 C 
ATOM     14  C   UNL     1     -13.145  12.196 -23.160  1.00  0.00     0.039 C 
BRANCH  13  15
ATOM     15  C   UNL     1     -12.689   8.697 -24.790  1.00  0.00     0.183 C 
BRANCH  15  16
ATOM     16  O   UNL     1     -11.753   7.875 -24.150  1.00  0.00    -0.392 OA
ATOM     17  H   UNL     1     -11.751   7.019 -24.654  1.00  0.00     0.210 HD
ENDBRANCH  15  16
ENDBRANCH  13  15
ENDBRANCH  11  12
ENDBRANCH   1  11
TORSDOF 8
ENDMDL
MODEL 7
REMARK VINA RESULT:    -5.554      8.875     11.412
REMARK INTER + INTRA:          -9.143
REMARK INTER:                  -7.255
REMARK INTRA:                  -1.888
REMARK UNBOUND:                -1.153
REMARK SMILES CC(C)=CCCC(C)=CCCC(C)=CCO
REMARK SMILES IDX 10 1 9 2 7 3 8 4 6 5 5 6 4 7 1 8 2 9 3 10 11 11 12 12 14 13
REMARK SMILES IDX 13 14 15 15 16 16
REMARK H PARENT 16 17
REMARK Flexibility Score: inf
ROOT
ATOM      1  C   UNL     1      -9.592  11.392 -22.921  1.00  0.00     0.032 C 
ENDROOT
BRANCH   1   2
ATOM      2  C   UNL     1     -11.053  11.021 -22.883  1.00  0.00    -0.028 C 
ATOM      3  C   UNL     1     -11.728  10.469 -23.917  1.00  0.00    -0.077 C 
ATOM      4  C   UNL     1     -11.042  10.097 -25.210  1.00  0.00     0.039 C 
BRANCH   3   5
ATOM      5  C   UNL     1     -13.208  10.194 -23.761  1.00  0.00     0.034 C 
BRANCH   5   6
ATOM      6  C   UNL     1     -13.974  11.491 -23.477  1.00  0.00     0.032 C 
BRANCH   6   7
ATOM      7  C   UNL     1     -13.626  12.551 -24.492  1.00  0.00    -0.028 C 
ATOM      8  C   UNL     1     -12.992  14.236 -22.750  1.00  0.00     0.039 C 
ATOM      9  C   UNL     1     -13.207  13.797 -24.180  1.00  0.00    -0.080 C 
ATOM     10  C   UNL     1     -12.931  14.764 -25.303  1.00  0.00     0.039 C 
ENDBRANCH   6   7
ENDBRANCH   5   6
ENDBRANCH   3   5
ENDBRANCH   1   2
BRANCH   1  11
ATOM     11  C   UNL     1      -9.387  12.829 -22.429  1.00  0.00     0.034 C 
BRANCH  11  12
ATOM     12  C   UNL     1      -9.352  13.793 -23.599  1.00  0.00    -0.075 C 
ATOM     13  C   UNL     1      -9.411  15.135 -23.448  1.00  0.00    -0.000 C 
ATOM     14  C   UNL     1      -9.173  13.235 -24.987  1.00  0.00     0.039 C 
BRANCH  13  15
ATOM     15  C   UNL     1      -9.571  15.834 -22.124  1.00  0.00     0.183 C 
BRANCH  15  16
ATOM     16  O   UNL     1      -8.311  16.110 -21.581  1.00  0.00    -0.392 OA
ATOM     17  H   UNL     1      -8.448  16.193 -20.601  1.00  0.00     0.210 HD
ENDBRANCH  15  16
ENDBRANCH  13  15
ENDBRANCH  11  12
ENDBRANCH   1  11
TORSDOF 8
ENDMDL
MODEL 8
REMARK VINA RESULT:    -5.472      7.551     10.843
REMARK INTER + INTRA:          -9.024
REMARK INTER:                  -7.655
REMARK INTRA:                  -1.369
REMARK UNBOUND:                -1.153
REMARK SMILES CC(C)=CCCC(C)=CCCC(C)=CCO
REMARK SMILES IDX 10 1 9 2 7 3 8 4 6 5 5 6 4 7 1 8 2 9 3 10 11 11 12 12 14 13
REMARK SMILES IDX 13 14 15 15 16 16
REMARK H PARENT 16 17
REMARK Flexibility Score: inf
ROOT
ATOM      1  C   UNL     1     -10.587  11.114 -25.262  1.00  0.00     0.032 C 
ENDROOT
BRANCH   1   2
ATOM      2  C   UNL     1      -9.984  12.412 -24.788  1.00  0.00    -0.028 C 
ATOM      3  C   UNL     1      -9.539  12.635 -23.530  1.00  0.00    -0.077 C 
ATOM      4  C   UNL     1      -9.540  11.549 -22.481  1.00  0.00     0.039 C 
BRANCH   3   5
ATOM      5  C   UNL     1      -9.004  14.005 -23.175  1.00  0.00     0.034 C 
BRANCH   5   6
ATOM      6  C   UNL     1     -10.127  14.910 -22.657  1.00  0.00     0.032 C 
BRANCH   6   7
ATOM      7  C   UNL     1     -10.004  15.117 -21.168  1.00  0.00    -0.028 C 
ATOM      8  C   UNL     1     -11.996  13.691 -20.645  1.00  0.00     0.039 C 
ATOM      9  C   UNL     1     -10.851  14.596 -20.253  1.00  0.00    -0.080 C 
ATOM     10  C   UNL     1     -10.624  14.920 -18.799  1.00  0.00     0.039 C 
ENDBRANCH   6   7
ENDBRANCH   5   6
ENDBRANCH   3   5
ENDBRANCH   1   2
BRANCH   1  11
ATOM     11  C   UNL     1     -12.065  11.305 -25.619  1.00  0.00     0.034 C 
BRANCH  11  12
ATOM     12  C   UNL     1     -12.948  10.972 -24.432  1.00  0.00    -0.075 C 
ATOM     13  C   UNL     1     -13.243   9.704 -24.067  1.00  0.00    -0.000 C 
ATOM     14  C   UNL     1     -13.463  12.103 -23.579  1.00  0.00     0.039 C 
BRANCH  13  15
ATOM     15  C   UNL     1     -12.784   8.479 -24.811  1.00  0.00     0.183 C 
BRANCH  15  16
ATOM     16  O   UNL     1     -11.704   7.894 -24.138  1.00  0.00    -0.392 OA
ATOM     17  H   UNL     1     -12.014   6.995 -23.853  1.00  0.00     0.210 HD
ENDBRANCH  15  16
ENDBRANCH  13  15
ENDBRANCH  11  12
ENDBRANCH   1  11
TORSDOF 8
ENDMDL
MODEL 9
REMARK VINA RESULT:    -5.467      9.037     11.618
REMARK INTER + INTRA:          -9.018
REMARK INTER:                  -7.276
REMARK INTRA:                  -1.742
REMARK UNBOUND:                -1.153
REMARK SMILES CC(C)=CCCC(C)=CCCC(C)=CCO
REMARK SMILES IDX 10 1 9 2 7 3 8 4 6 5 5 6 4 7 1 8 2 9 3 10 11 11 12 12 14 13
REMARK SMILES IDX 13 14 15 15 16 16
REMARK H PARENT 16 17
REMARK Flexibility Score: inf
ROOT
ATOM      1  C   UNL     1      -9.498  15.547 -23.124  1.00  0.00     0.032 C 
ENDROOT
BRANCH   1   2
ATOM      2  C   UNL     1     -10.414  14.840 -22.157  1.00  0.00    -0.028 C 
ATOM      3  C   UNL     1     -11.688  14.481 -22.434  1.00  0.00    -0.077 C 
ATOM      4  C   UNL     1     -12.298  14.696 -23.799  1.00  0.00     0.039 C 
BRANCH   3   5
ATOM      5  C   UNL     1     -12.516  13.823 -21.351  1.00  0.00     0.034 C 
BRANCH   5   6
ATOM      6  C   UNL     1     -11.968  12.431 -21.020  1.00  0.00     0.032 C 
BRANCH   6   7
ATOM      7  C   UNL     1     -12.136  11.496 -22.192  1.00  0.00    -0.028 C 
ATOM      8  C   UNL     1      -9.670  11.210 -22.520  1.00  0.00     0.039 C 
ATOM      9  C   UNL     1     -11.113  10.959 -22.891  1.00  0.00    -0.080 C 
ATOM     10  C   UNL     1     -11.434  10.070 -24.065  1.00  0.00     0.039 C 
ENDBRANCH   6   7
ENDBRANCH   5   6
ENDBRANCH   3   5
ENDBRANCH   1   2
BRANCH   1  11
ATOM     11  C   UNL     1      -8.400  14.599 -23.618  1.00  0.00     0.034 C 
BRANCH  11  12
ATOM     12  C   UNL     1      -8.578  14.299 -25.093  1.00  0.00    -0.075 C 
ATOM     13  C   UNL     1      -7.898  14.952 -26.063  1.00  0.00    -0.000 C 
ATOM     14  C   UNL     1      -9.501  13.179 -25.495  1.00  0.00     0.039 C 
BRANCH  13  15
ATOM     15  C   UNL     1      -6.931  16.078 -25.811  1.00  0.00     0.183 C 
BRANCH  15  16
ATOM     16  O   UNL     1      -7.625  17.293 -25.756  1.00  0.00    -0.392 OA
ATOM     17  H   UNL     1      -8.529  17.108 -26.122  1.00  0.00     0.210 HD
ENDBRANCH  15  16
ENDBRANCH  13  15
ENDBRANCH  11  12
ENDBRANCH   1  11
TORSDOF 8
ENDMDL
