MODEL 1
REMARK VINA RESULT:    -5.226      0.000      0.000
REMARK INTER + INTRA:          -5.226
REMARK INTER:                  -5.226
REMARK INTRA:                   0.000
REMARK UNBOUND:                 0.000
REMARK SMILES C=C1CCC[C@@]2(C)CC(=O)C(=C(C)C)C[C@@H]12
REMARK SMILES IDX 13 1 12 2 11 3 15 4 16 5 2 6 1 7 3 8 4 9 5 10 6 11 8 12 9 13
REMARK SMILES IDX 10 14 7 15 14 16
REMARK H PARENT
REMARK Flexibility Score: inf
ROOT
ATOM      1  C   UNL     1     -13.065   9.875 -27.272  1.00  0.00     0.039 C 
ATOM      2  C   UNL     1     -14.509  10.318 -27.316  1.00  0.00    -0.070 C 
ATOM      3  C   UNL     1     -14.982  11.092 -28.334  1.00  0.00    -0.006 C 
ATOM      4  C   UNL     1     -14.098  11.548 -29.478  1.00  0.00     0.047 C 
ATOM      5  C   UNL     1     -14.462  12.958 -30.013  1.00  0.00     0.025 C 
ATOM      6  C   UNL     1     -13.685  13.206 -31.296  1.00  0.00    -0.073 C 
ATOM      7  C   UNL     1     -12.547  13.917 -31.277  1.00  0.00     0.008 C 
ATOM      8  C   UNL     1     -14.130  12.508 -32.563  1.00  0.00     0.031 C 
ATOM      9  C   UNL     1     -15.646  12.623 -32.771  1.00  0.00     0.005 C 
ATOM     10  C   UNL     1     -16.447  12.313 -31.492  1.00  0.00     0.008 C 
ATOM     11  C   UNL     1     -15.989  13.164 -30.269  1.00  0.00    -0.018 C 
ATOM     12  C   UNL     1     -16.805  12.768 -29.010  1.00  0.00     0.088 C 
ATOM     13  C   UNL     1     -16.418  11.430 -28.469  1.00  0.00     0.159 C 
ATOM     14  O   UNL     1     -17.317  10.611 -28.142  1.00  0.00    -0.295 OA
ATOM     15  C   UNL     1     -16.275  14.665 -30.537  1.00  0.00     0.012 C 
ATOM     16  C   UNL     1     -15.395   9.902 -26.165  1.00  0.00     0.039 C 
ENDROOT
TORSDOF 0
ENDMDL
MODEL 2
REMARK VINA RESULT:    -4.791      1.370      1.832
REMARK INTER + INTRA:          -4.791
REMARK INTER:                  -4.791
REMARK INTRA:                   0.000
REMARK UNBOUND:                 0.000
REMARK SMILES C=C1CCC[C@@]2(C)CC(=O)C(=C(C)C)C[C@@H]12
REMARK SMILES IDX 13 1 12 2 11 3 15 4 16 5 2 6 1 7 3 8 4 9 5 10 6 11 8 12 9 13
REMARK SMILES IDX 10 14 7 15 14 16
REMARK H PARENT
REMARK Flexibility Score: inf
ROOT
ATOM      1  C   UNL     1     -15.085  11.502 -26.749  1.00  0.00     0.039 C 
ATOM      2  C   UNL     1     -16.136  11.091 -27.755  1.00  0.00    -0.070 C 
ATOM      3  C   UNL     1     -16.116  11.563 -29.034  1.00  0.00    -0.006 C 
ATOM      4  C   UNL     1     -15.045  12.518 -29.524  1.00  0.00     0.047 C 
ATOM      5  C   UNL     1     -15.564  13.542 -30.567  1.00  0.00     0.025 C 
ATOM      6  C   UNL     1     -14.373  14.277 -31.161  1.00  0.00    -0.073 C 
ATOM      7  C   UNL     1     -14.020  15.488 -30.703  1.00  0.00     0.008 C 
ATOM      8  C   UNL     1     -13.500  13.554 -32.165  1.00  0.00     0.031 C 
ATOM      9  C   UNL     1     -14.337  12.844 -33.237  1.00  0.00     0.005 C 
ATOM     10  C   UNL     1     -15.512  12.045 -32.641  1.00  0.00     0.008 C 
ATOM     11  C   UNL     1     -16.418  12.905 -31.710  1.00  0.00    -0.018 C 
ATOM     12  C   UNL     1     -17.550  12.029 -31.111  1.00  0.00     0.088 C 
ATOM     13  C   UNL     1     -17.053  11.076 -30.071  1.00  0.00     0.159 C 
ATOM     14  O   UNL     1     -17.437   9.877 -30.097  1.00  0.00    -0.295 OA
ATOM     15  C   UNL     1     -17.106  14.026 -32.534  1.00  0.00     0.012 C 
ATOM     16  C   UNL     1     -17.231  10.168 -27.273  1.00  0.00     0.039 C 
ENDROOT
TORSDOF 0
ENDMDL
MODEL 3
REMARK VINA RESULT:    -4.452      1.917      4.745
REMARK INTER + INTRA:          -4.452
REMARK INTER:                  -4.452
REMARK INTRA:                   0.000
REMARK UNBOUND:                 0.000
REMARK SMILES C=C1CCC[C@@]2(C)CC(=O)C(=C(C)C)C[C@@H]12
REMARK SMILES IDX 13 1 12 2 11 3 15 4 16 5 2 6 1 7 3 8 4 9 5 10 6 11 8 12 9 13
REMARK SMILES IDX 10 14 7 15 14 16
REMARK H PARENT
REMARK Flexibility Score: inf
ROOT
ATOM      1  C   UNL     1     -14.799  12.878 -33.335  1.00  0.00     0.039 C 
ATOM      2  C   UNL     1     -14.164  12.376 -32.059  1.00  0.00    -0.070 C 
ATOM      3  C   UNL     1     -14.924  11.982 -30.996  1.00  0.00    -0.006 C 
ATOM      4  C   UNL     1     -16.439  12.019 -31.031  1.00  0.00     0.047 C 
ATOM      5  C   UNL     1     -17.078  12.361 -29.660  1.00  0.00     0.025 C 
ATOM      6  C   UNL     1     -18.578  12.133 -29.752  1.00  0.00    -0.073 C 
ATOM      7  C   UNL     1     -19.412  13.161 -29.975  1.00  0.00     0.008 C 
ATOM      8  C   UNL     1     -19.099  10.712 -29.747  1.00  0.00     0.031 C 
ATOM      9  C   UNL     1     -18.452   9.875 -28.635  1.00  0.00     0.005 C 
ATOM     10  C   UNL     1     -16.924  10.051 -28.572  1.00  0.00     0.008 C 
ATOM     11  C   UNL     1     -16.489  11.543 -28.465  1.00  0.00    -0.018 C 
ATOM     12  C   UNL     1     -14.942  11.648 -28.452  1.00  0.00     0.088 C 
ATOM     13  C   UNL     1     -14.332  11.365 -29.787  1.00  0.00     0.159 C 
ATOM     14  O   UNL     1     -13.331  10.605 -29.862  1.00  0.00    -0.295 OA
ATOM     15  C   UNL     1     -16.992  12.143 -27.125  1.00  0.00     0.012 C 
ATOM     16  C   UNL     1     -12.654  12.366 -31.994  1.00  0.00     0.039 C 
ENDROOT
TORSDOF 0
ENDMDL
MODEL 4
REMARK VINA RESULT:    -4.209      2.063      4.765
REMARK INTER + INTRA:          -4.209
REMARK INTER:                  -4.209
REMARK INTRA:                   0.000
REMARK UNBOUND:                 0.000
REMARK SMILES C=C1CCC[C@@]2(C)CC(=O)C(=C(C)C)C[C@@H]12
REMARK SMILES IDX 13 1 12 2 11 3 15 4 16 5 2 6 1 7 3 8 4 9 5 10 6 11 8 12 9 13
REMARK SMILES IDX 10 14 7 15 14 16
REMARK H PARENT
REMARK Flexibility Score: inf
ROOT
ATOM      1  C   UNL     1     -13.590  15.124 -32.107  1.00  0.00     0.039 C 
ATOM      2  C   UNL     1     -12.984  13.796 -31.716  1.00  0.00    -0.070 C 
ATOM      3  C   UNL     1     -13.726  12.832 -31.099  1.00  0.00    -0.006 C 
ATOM      4  C   UNL     1     -15.194  13.030 -30.775  1.00  0.00     0.047 C 
ATOM      5  C   UNL     1     -15.633  12.334 -29.460  1.00  0.00     0.025 C 
ATOM      6  C   UNL     1     -17.149  12.390 -29.363  1.00  0.00    -0.073 C 
ATOM      7  C   UNL     1     -17.750  13.335 -28.623  1.00  0.00     0.008 C 
ATOM      8  C   UNL     1     -17.969  11.466 -30.237  1.00  0.00     0.031 C 
ATOM      9  C   UNL     1     -17.438  10.027 -30.195  1.00  0.00     0.005 C 
ATOM     10  C   UNL     1     -15.908   9.952 -30.354  1.00  0.00     0.008 C 
ATOM     11  C   UNL     1     -15.148  10.853 -29.335  1.00  0.00    -0.018 C 
ATOM     12  C   UNL     1     -13.619  10.765 -29.583  1.00  0.00     0.088 C 
ATOM     13  C   UNL     1     -13.194  11.478 -30.825  1.00  0.00     0.159 C 
ATOM     14  O   UNL     1     -12.393  10.916 -31.619  1.00  0.00    -0.295 OA
ATOM     15  C   UNL     1     -15.400  10.342 -27.892  1.00  0.00     0.012 C 
ATOM     16  C   UNL     1     -11.513  13.596 -32.000  1.00  0.00     0.039 C 
ENDROOT
TORSDOF 0
ENDMDL
MODEL 5
REMARK VINA RESULT:    -4.195     10.201     12.533
REMARK INTER + INTRA:          -4.195
REMARK INTER:                  -4.195
REMARK INTRA:                   0.000
REMARK UNBOUND:                 0.000
REMARK SMILES C=C1CCC[C@@]2(C)CC(=O)C(=C(C)C)C[C@@H]12
REMARK SMILES IDX 13 1 12 2 11 3 15 4 16 5 2 6 1 7 3 8 4 9 5 10 6 11 8 12 9 13
REMARK SMILES IDX 10 14 7 15 14 16
REMARK H PARENT
REMARK Flexibility Score: inf
ROOT
ATOM      1  C   UNL     1     -27.145  16.481 -31.482  1.00  0.00     0.039 C 
ATOM      2  C   UNL     1     -25.918  15.659 -31.163  1.00  0.00    -0.070 C 
ATOM      3  C   UNL     1     -26.021  14.359 -30.761  1.00  0.00    -0.006 C 
ATOM      4  C   UNL     1     -27.360  13.663 -30.616  1.00  0.00     0.047 C 
ATOM      5  C   UNL     1     -27.396  12.633 -29.458  1.00  0.00     0.025 C 
ATOM      6  C   UNL     1     -28.685  11.833 -29.558  1.00  0.00    -0.073 C 
ATOM      7  C   UNL     1     -29.749  12.155 -28.805  1.00  0.00     0.008 C 
ATOM      8  C   UNL     1     -28.801  10.772 -30.632  1.00  0.00     0.031 C 
ATOM      9  C   UNL     1     -27.556   9.875 -30.678  1.00  0.00     0.005 C 
ATOM     10  C   UNL     1     -26.243  10.679 -30.639  1.00  0.00     0.008 C 
ATOM     11  C   UNL     1     -26.171  11.664 -29.434  1.00  0.00    -0.018 C 
ATOM     12  C   UNL     1     -24.846  12.469 -29.482  1.00  0.00     0.088 C 
ATOM     13  C   UNL     1     -24.834  13.495 -30.570  1.00  0.00     0.159 C 
ATOM     14  O   UNL     1     -23.818  13.604 -31.307  1.00  0.00    -0.295 OA
ATOM     15  C   UNL     1     -26.163  10.866 -28.103  1.00  0.00     0.012 C 
ATOM     16  C   UNL     1     -24.577  16.347 -31.268  1.00  0.00     0.039 C 
ENDROOT
TORSDOF 0
ENDMDL
MODEL 6
REMARK VINA RESULT:    -4.140      2.138      4.701
REMARK INTER + INTRA:          -4.140
REMARK INTER:                  -4.140
REMARK INTRA:                   0.000
REMARK UNBOUND:                 0.000
REMARK SMILES C=C1CCC[C@@]2(C)CC(=O)C(=C(C)C)C[C@@H]12
REMARK SMILES IDX 13 1 12 2 11 3 15 4 16 5 2 6 1 7 3 8 4 9 5 10 6 11 8 12 9 13
REMARK SMILES IDX 10 14 7 15 14 16
REMARK H PARENT
REMARK Flexibility Score: inf
ROOT
ATOM      1  C   UNL     1     -12.099  14.381 -30.859  1.00  0.00     0.039 C 
ATOM      2  C   UNL     1     -12.934  13.589 -31.839  1.00  0.00    -0.070 C 
ATOM      3  C   UNL     1     -14.103  12.997 -31.459  1.00  0.00    -0.006 C 
ATOM      4  C   UNL     1     -14.635  13.099 -30.043  1.00  0.00     0.047 C 
ATOM      5  C   UNL     1     -15.383  11.825 -29.573  1.00  0.00     0.025 C 
ATOM      6  C   UNL     1     -16.073  12.125 -28.252  1.00  0.00    -0.073 C 
ATOM      7  C   UNL     1     -15.507  11.767 -27.089  1.00  0.00     0.008 C 
ATOM      8  C   UNL     1     -17.328  12.971 -28.264  1.00  0.00     0.031 C 
ATOM      9  C   UNL     1     -18.315  12.506 -29.342  1.00  0.00     0.005 C 
ATOM     10  C   UNL     1     -17.637  12.258 -30.702  1.00  0.00     0.008 C 
ATOM     11  C   UNL     1     -16.424  11.285 -30.605  1.00  0.00    -0.018 C 
ATOM     12  C   UNL     1     -15.763  11.116 -31.999  1.00  0.00     0.088 C 
ATOM     13  C   UNL     1     -15.003  12.330 -32.427  1.00  0.00     0.159 C 
ATOM     14  O   UNL     1     -15.142  12.765 -33.601  1.00  0.00    -0.295 OA
ATOM     15  C   UNL     1     -16.912   9.878 -30.167  1.00  0.00     0.012 C 
ATOM     16  C   UNL     1     -12.401  13.448 -33.246  1.00  0.00     0.039 C 
ENDROOT
TORSDOF 0
ENDMDL
