MODEL 1
REMARK VINA RESULT:    12.501      0.000      0.000
REMARK INTER + INTRA:          14.980
REMARK INTER:                  15.424
REMARK INTRA:                  -0.443
REMARK UNBOUND:                -0.443
REMARK SMILES CC(C)=CCC[C@@H](C)c1ccc(C)cc1
REMARK SMILES IDX 6 1 7 2 8 3 9 4 13 5 12 6 11 7 14 8 10 9 15 10 5 11 4 12
REMARK SMILES IDX 2 13 1 14 3 15
REMARK H PARENT
REMARK Flexibility Score: inf
ROOT
ATOM      1  C   UNL     1      24.366 -42.374 -16.662  1.00  0.00     0.012 C 
ENDROOT
BRANCH   1   2
ATOM      2  C   UNL     1      24.668 -41.552 -17.936  1.00  0.00     0.016 C 
ATOM      3  C   UNL     1      25.804 -42.159 -18.777  1.00  0.00     0.013 C 
BRANCH   2   4
ATOM      4  C   UNL     1      23.413 -41.257 -18.743  1.00  0.00    -0.045 A 
ATOM      5  C   UNL     1      19.770 -40.472 -20.932  1.00  0.00     0.044 C 
ATOM      6  C   UNL     1      21.023 -40.775 -20.168  1.00  0.00    -0.051 A 
ATOM      7  C   UNL     1      21.088 -40.526 -18.789  1.00  0.00     0.004 A 
ATOM      8  C   UNL     1      22.160 -41.253 -20.834  1.00  0.00     0.004 A 
ATOM      9  C   UNL     1      22.267 -40.777 -18.082  1.00  0.00     0.004 A 
ATOM     10  C   UNL     1      23.340 -41.503 -20.129  1.00  0.00     0.004 A 
ENDBRANCH   2   4
ENDBRANCH   1   2
BRANCH   1  11
ATOM     11  C   UNL     1      25.318 -42.102 -15.484  1.00  0.00     0.028 C 
BRANCH  11  12
ATOM     12  C   UNL     1      24.628 -42.377 -14.172  1.00  0.00    -0.028 C 
ATOM     13  C   UNL     1      25.256 -42.814 -13.057  1.00  0.00    -0.080 C 
ATOM     14  C   UNL     1      24.442 -43.010 -11.803  1.00  0.00     0.039 C 
ATOM     15  C   UNL     1      26.735 -43.125 -13.041  1.00  0.00     0.039 C 
ENDBRANCH  11  12
ENDBRANCH   1  11
TORSDOF 4
ENDMDL
MODEL 2
REMARK VINA RESULT:    14.589      9.711     14.093
REMARK INTER + INTRA:          17.558
REMARK INTER:                  18.025
REMARK INTRA:                  -0.467
REMARK UNBOUND:                -0.443
REMARK SMILES CC(C)=CCC[C@@H](C)c1ccc(C)cc1
REMARK SMILES IDX 6 1 7 2 8 3 9 4 13 5 12 6 11 7 14 8 10 9 15 10 5 11 4 12
REMARK SMILES IDX 2 13 1 14 3 15
REMARK H PARENT
REMARK Flexibility Score: inf
ROOT
ATOM      1  C   UNL     1      18.914 -35.248 -28.116  1.00  0.00     0.012 C 
ENDROOT
BRANCH   1   2
ATOM      2  C   UNL     1      18.245 -33.897 -28.460  1.00  0.00     0.016 C 
ATOM      3  C   UNL     1      18.666 -33.363 -29.839  1.00  0.00     0.013 C 
BRANCH   2   4
ATOM      4  C   UNL     1      16.737 -33.934 -28.263  1.00  0.00    -0.045 A 
ATOM      5  C   UNL     1      12.464 -33.936 -27.613  1.00  0.00     0.044 C 
ATOM      6  C   UNL     1      13.950 -33.937 -27.805  1.00  0.00    -0.051 A 
ATOM      7  C   UNL     1      14.649 -32.726 -27.916  1.00  0.00     0.004 A 
ATOM      8  C   UNL     1      14.647 -35.146 -27.937  1.00  0.00     0.004 A 
ATOM      9  C   UNL     1      16.031 -32.725 -28.130  1.00  0.00     0.004 A 
ATOM     10  C   UNL     1      16.027 -35.147 -28.152  1.00  0.00     0.004 A 
ENDBRANCH   2   4
ENDBRANCH   1   2
BRANCH   1  11
ATOM     11  C   UNL     1      20.366 -35.135 -27.619  1.00  0.00     0.028 C 
BRANCH  11  12
ATOM     12  C   UNL     1      20.588 -36.028 -26.425  1.00  0.00    -0.028 C 
ATOM     13  C   UNL     1      21.461 -37.060 -26.396  1.00  0.00    -0.080 C 
ATOM     14  C   UNL     1      21.605 -37.844 -25.116  1.00  0.00     0.039 C 
ATOM     15  C   UNL     1      22.276 -37.454 -27.606  1.00  0.00     0.039 C 
ENDBRANCH  11  12
ENDBRANCH   1  11
TORSDOF 4
ENDMDL
