MODEL 1
REMARK VINA RESULT:     1.346      0.000      0.000
REMARK INTER + INTRA:           1.883
REMARK INTER:                   2.447
REMARK INTRA:                  -0.564
REMARK UNBOUND:                -0.564
REMARK SMILES CCCCCCCCCCCCCC[C@@H](C)C(=O)[O-]
REMARK SMILES IDX 9 1 10 2 11 3 12 4 13 5 14 6 15 7 16 8 17 9 18 10 19 11 8 12
REMARK SMILES IDX 7 13 6 14 5 15 4 16 3 17 2 18 1 19
REMARK H PARENT
REMARK Flexibility Score: inf
ROOT
ATOM      1  C   UNL     1     -31.392 -18.837 -23.278  1.00  0.00     0.000 C 
ENDROOT
BRANCH   1   2
ATOM      2  C   UNL     1     -31.669 -19.618 -21.983  1.00  0.00     0.000 C 
BRANCH   2   3
ATOM      3  C   UNL     1     -32.174 -21.056 -22.195  1.00  0.00     0.000 C 
BRANCH   3   4
ATOM      4  C   UNL     1     -31.489 -22.072 -21.263  1.00  0.00     0.000 C 
BRANCH   4   5
ATOM      5  C   UNL     1     -30.010 -21.739 -21.026  1.00  0.00     0.001 C 
BRANCH   5   6
ATOM      6  C   UNL     1     -29.540 -22.124 -19.611  1.00  0.00     0.009 C 
BRANCH   6   7
ATOM      7  C   UNL     1     -28.171 -21.505 -19.272  1.00  0.00     0.032 C 
ATOM      8  C   UNL     1     -28.201 -19.986 -19.472  1.00  0.00     0.014 C 
BRANCH   7   9
ATOM      9  C   UNL     1     -27.767 -21.832 -17.859  1.00  0.00     0.044 C 
ATOM     10  O   UNL     1     -26.551 -21.866 -17.534  1.00  0.00    -0.550 OA
ATOM     11  O   UNL     1     -28.743 -22.058 -16.894  1.00  0.00    -0.550 OA
ENDBRANCH   7   9
ENDBRANCH   6   7
ENDBRANCH   5   6
ENDBRANCH   4   5
ENDBRANCH   3   4
ENDBRANCH   2   3
ENDBRANCH   1   2
BRANCH   1  12
ATOM     12  C   UNL     1     -31.761 -19.624 -24.548  1.00  0.00     0.000 C 
BRANCH  12  13
ATOM     13  C   UNL     1     -30.806 -19.306 -25.711  1.00  0.00    -0.000 C 
BRANCH  13  14
ATOM     14  C   UNL     1     -30.776 -20.403 -26.795  1.00  0.00    -0.000 C 
BRANCH  14  15
ATOM     15  C   UNL     1     -30.383 -21.804 -26.280  1.00  0.00    -0.000 C 
BRANCH  15  16
ATOM     16  C   UNL     1     -29.978 -21.818 -24.788  1.00  0.00    -0.000 C 
BRANCH  16  17
ATOM     17  C   UNL     1     -28.495 -21.453 -24.581  1.00  0.00    -0.000 C 
BRANCH  17  18
ATOM     18  C   UNL     1     -28.131 -21.312 -23.095  1.00  0.00    -0.003 C 
ATOM     19  C   UNL     1     -26.867 -22.092 -22.729  1.00  0.00     0.004 C 
ENDBRANCH  17  18
ENDBRANCH  16  17
ENDBRANCH  15  16
ENDBRANCH  14  15
ENDBRANCH  13  14
ENDBRANCH  12  13
ENDBRANCH   1  12
TORSDOF 14
ENDMDL
MODEL 2
REMARK VINA RESULT:     2.638      4.298      8.172
REMARK INTER + INTRA:           4.232
REMARK INTER:                   4.884
REMARK INTRA:                  -0.652
REMARK UNBOUND:                -0.564
REMARK SMILES CCCCCCCCCCCCCC[C@@H](C)C(=O)[O-]
REMARK SMILES IDX 9 1 10 2 11 3 12 4 13 5 14 6 15 7 16 8 17 9 18 10 19 11 8 12
REMARK SMILES IDX 7 13 6 14 5 15 4 16 3 17 2 18 1 19
REMARK H PARENT
REMARK Flexibility Score: inf
ROOT
ATOM      1  C   UNL     1     -28.245 -20.744 -18.690  1.00  0.00     0.000 C 
ENDROOT
BRANCH   1   2
ATOM      2  C   UNL     1     -27.572 -21.109 -20.024  1.00  0.00     0.000 C 
BRANCH   2   3
ATOM      3  C   UNL     1     -28.531 -21.649 -21.100  1.00  0.00     0.000 C 
BRANCH   3   4
ATOM      4  C   UNL     1     -29.874 -22.125 -20.518  1.00  0.00     0.000 C 
BRANCH   4   5
ATOM      5  C   UNL     1     -31.049 -21.848 -21.467  1.00  0.00     0.001 C 
BRANCH   5   6
ATOM      6  C   UNL     1     -30.627 -21.868 -22.947  1.00  0.00     0.009 C 
BRANCH   6   7
ATOM      7  C   UNL     1     -31.448 -20.876 -23.792  1.00  0.00     0.032 C 
ATOM      8  C   UNL     1     -31.798 -19.629 -22.971  1.00  0.00     0.014 C 
BRANCH   7   9
ATOM      9  C   UNL     1     -30.699 -20.480 -25.037  1.00  0.00     0.044 C 
ATOM     10  O   UNL     1     -30.519 -21.312 -25.965  1.00  0.00    -0.550 OA
ATOM     11  O   UNL     1     -30.239 -19.176 -25.184  1.00  0.00    -0.550 OA
ENDBRANCH   7   9
ENDBRANCH   6   7
ENDBRANCH   5   6
ENDBRANCH   4   5
ENDBRANCH   3   4
ENDBRANCH   2   3
ENDBRANCH   1   2
BRANCH   1  12
ATOM     12  C   UNL     1     -28.238 -21.899 -17.675  1.00  0.00     0.000 C 
BRANCH  12  13
ATOM     13  C   UNL     1     -29.631 -22.125 -17.062  1.00  0.00    -0.000 C 
BRANCH  13  14
ATOM     14  C   UNL     1     -29.645 -22.028 -15.522  1.00  0.00    -0.000 C 
BRANCH  14  15
ATOM     15  C   UNL     1     -31.049 -22.105 -14.886  1.00  0.00    -0.000 C 
BRANCH  15  16
ATOM     16  C   UNL     1     -31.433 -20.837 -14.090  1.00  0.00    -0.000 C 
BRANCH  16  17
ATOM     17  C   UNL     1     -30.251 -19.856 -13.946  1.00  0.00    -0.000 C 
BRANCH  17  18
ATOM     18  C   UNL     1     -30.273 -19.109 -12.604  1.00  0.00    -0.003 C 
ATOM     19  C   UNL     1     -28.868 -18.848 -12.060  1.00  0.00     0.004 C 
ENDBRANCH  17  18
ENDBRANCH  16  17
ENDBRANCH  15  16
ENDBRANCH  14  15
ENDBRANCH  13  14
ENDBRANCH  12  13
ENDBRANCH   1  12
TORSDOF 14
ENDMDL
MODEL 3
REMARK VINA RESULT:     3.527      4.194      8.039
REMARK INTER + INTRA:           5.850
REMARK INTER:                   5.993
REMARK INTRA:                  -0.143
REMARK UNBOUND:                -0.564
REMARK SMILES CCCCCCCCCCCCCC[C@@H](C)C(=O)[O-]
REMARK SMILES IDX 9 1 10 2 11 3 12 4 13 5 14 6 15 7 16 8 17 9 18 10 19 11 8 12
REMARK SMILES IDX 7 13 6 14 5 15 4 16 3 17 2 18 1 19
REMARK H PARENT
REMARK Flexibility Score: inf
ROOT
ATOM      1  C   UNL     1     -28.464 -20.795 -20.402  1.00  0.00     0.000 C 
ENDROOT
BRANCH   1   2
ATOM      2  C   UNL     1     -27.980 -21.057 -21.837  1.00  0.00     0.000 C 
BRANCH   2   3
ATOM      3  C   UNL     1     -28.933 -21.913 -22.690  1.00  0.00     0.000 C 
BRANCH   3   4
ATOM      4  C   UNL     1     -30.392 -21.841 -22.207  1.00  0.00     0.000 C 
BRANCH   4   5
ATOM      5  C   UNL     1     -31.300 -21.109 -23.206  1.00  0.00     0.001 C 
BRANCH   5   6
ATOM      6  C   UNL     1     -31.286 -21.761 -24.600  1.00  0.00     0.009 C 
BRANCH   6   7
ATOM      7  C   UNL     1     -30.145 -21.213 -25.480  1.00  0.00     0.032 C 
ATOM      8  C   UNL     1     -30.003 -22.045 -26.759  1.00  0.00     0.014 C 
BRANCH   7   9
ATOM      9  C   UNL     1     -30.381 -19.767 -25.828  1.00  0.00     0.044 C 
ATOM     10  O   UNL     1     -30.218 -18.866 -24.963  1.00  0.00    -0.550 OA
ATOM     11  O   UNL     1     -30.743 -19.416 -27.125  1.00  0.00    -0.550 OA
ENDBRANCH   7   9
ENDBRANCH   6   7
ENDBRANCH   5   6
ENDBRANCH   4   5
ENDBRANCH   3   4
ENDBRANCH   2   3
ENDBRANCH   1   2
BRANCH   1  12
ATOM     12  C   UNL     1     -28.209 -21.979 -19.453  1.00  0.00     0.000 C 
BRANCH  12  13
ATOM     13  C   UNL     1     -29.329 -22.121 -18.408  1.00  0.00    -0.000 C 
BRANCH  13  14
ATOM     14  C   UNL     1     -28.813 -22.124 -16.954  1.00  0.00    -0.000 C 
BRANCH  14  15
ATOM     15  C   UNL     1     -29.919 -22.050 -15.880  1.00  0.00    -0.000 C 
BRANCH  15  16
ATOM     16  C   UNL     1     -29.627 -21.018 -14.767  1.00  0.00    -0.000 C 
BRANCH  16  17
ATOM     17  C   UNL     1     -30.865 -20.732 -13.894  1.00  0.00    -0.000 C 
BRANCH  17  18
ATOM     18  C   UNL     1     -30.840 -19.320 -13.291  1.00  0.00    -0.003 C 
ATOM     19  C   UNL     1     -29.620 -19.091 -12.398  1.00  0.00     0.004 C 
ENDBRANCH  17  18
ENDBRANCH  16  17
ENDBRANCH  15  16
ENDBRANCH  14  15
ENDBRANCH  13  14
ENDBRANCH  12  13
ENDBRANCH   1  12
TORSDOF 14
ENDMDL
MODEL 4
REMARK VINA RESULT:     4.204      3.947      7.665
REMARK INTER + INTRA:           7.081
REMARK INTER:                   7.487
REMARK INTRA:                  -0.406
REMARK UNBOUND:                -0.564
REMARK SMILES CCCCCCCCCCCCCC[C@@H](C)C(=O)[O-]
REMARK SMILES IDX 9 1 10 2 11 3 12 4 13 5 14 6 15 7 16 8 17 9 18 10 19 11 8 12
REMARK SMILES IDX 7 13 6 14 5 15 4 16 3 17 2 18 1 19
REMARK H PARENT
REMARK Flexibility Score: inf
ROOT
ATOM      1  C   UNL     1     -27.444 -20.138 -19.016  1.00  0.00     0.000 C 
ENDROOT
BRANCH   1   2
ATOM      2  C   UNL     1     -28.108 -20.286 -20.395  1.00  0.00     0.000 C 
BRANCH   2   3
ATOM      3  C   UNL     1     -27.751 -21.582 -21.144  1.00  0.00     0.000 C 
BRANCH   3   4
ATOM      4  C   UNL     1     -28.538 -21.749 -22.456  1.00  0.00     0.000 C 
BRANCH   4   5
ATOM      5  C   UNL     1     -30.031 -22.007 -22.209  1.00  0.00     0.001 C 
BRANCH   5   6
ATOM      6  C   UNL     1     -30.856 -20.707 -22.188  1.00  0.00     0.009 C 
BRANCH   6   7
ATOM      7  C   UNL     1     -31.822 -20.621 -23.385  1.00  0.00     0.032 C 
ATOM      8  C   UNL     1     -32.719 -19.383 -23.266  1.00  0.00     0.014 C 
BRANCH   7   9
ATOM      9  C   UNL     1     -31.066 -20.586 -24.686  1.00  0.00     0.044 C 
ATOM     10  O   UNL     1     -31.306 -21.432 -25.587  1.00  0.00    -0.550 OA
ATOM     11  O   UNL     1     -30.123 -19.588 -24.914  1.00  0.00    -0.550 OA
ENDBRANCH   7   9
ENDBRANCH   6   7
ENDBRANCH   5   6
ENDBRANCH   4   5
ENDBRANCH   3   4
ENDBRANCH   2   3
ENDBRANCH   1   2
BRANCH   1  12
ATOM     12  C   UNL     1     -27.722 -21.328 -18.081  1.00  0.00     0.000 C 
BRANCH  12  13
ATOM     13  C   UNL     1     -28.981 -22.103 -18.506  1.00  0.00    -0.000 C 
BRANCH  13  14
ATOM     14  C   UNL     1     -30.080 -22.124 -17.424  1.00  0.00    -0.000 C 
BRANCH  14  15
ATOM     15  C   UNL     1     -29.553 -22.125 -15.973  1.00  0.00    -0.000 C 
BRANCH  15  16
ATOM     16  C   UNL     1     -30.672 -22.017 -14.912  1.00  0.00    -0.000 C 
BRANCH  16  17
ATOM     17  C   UNL     1     -30.505 -20.778 -14.010  1.00  0.00    -0.000 C 
BRANCH  17  18
ATOM     18  C   UNL     1     -31.734 -19.857 -14.049  1.00  0.00    -0.003 C 
ATOM     19  C   UNL     1     -32.936 -20.522 -14.721  1.00  0.00     0.004 C 
ENDBRANCH  17  18
ENDBRANCH  16  17
ENDBRANCH  15  16
ENDBRANCH  14  15
ENDBRANCH  13  14
ENDBRANCH  12  13
ENDBRANCH   1  12
TORSDOF 14
ENDMDL
