MODEL 1
REMARK VINA RESULT:     0.464      0.000      0.000
REMARK INTER + INTRA:          -0.470
REMARK INTER:                   1.007
REMARK INTRA:                  -1.477
REMARK UNBOUND:                -1.477
REMARK SMILES CCCCCCCCCCCCCCCCCCCCCC(=O)[O-]
REMARK SMILES IDX 12 1 11 2 10 3 9 4 8 5 7 6 6 7 5 8 4 9 3 10 2 11 1 12 13 13
REMARK SMILES IDX 14 14 15 15 16 16 17 17 18 18 19 19 20 20 21 21 22 22 23 23
REMARK SMILES IDX 24 24
REMARK H PARENT
REMARK Flexibility Score: inf
ROOT
ATOM      1  C   UNL     1      -0.465  -9.099   2.210  1.00  0.00     0.000 C 
ENDROOT
BRANCH   1   2
ATOM      2  C   UNL     1      -0.138  -9.753   3.567  1.00  0.00     0.000 C 
BRANCH   2   3
ATOM      3  C   UNL     1      -0.816 -11.124   3.779  1.00  0.00     0.000 C 
BRANCH   3   4
ATOM      4  C   UNL     1      -2.290 -11.124   3.338  1.00  0.00    -0.000 C 
BRANCH   4   5
ATOM      5  C   UNL     1      -2.955  -9.745   3.475  1.00  0.00    -0.000 C 
BRANCH   5   6
ATOM      6  C   UNL     1      -3.977  -9.665   4.631  1.00  0.00    -0.000 C 
BRANCH   6   7
ATOM      7  C   UNL     1      -5.355 -10.212   4.223  1.00  0.00    -0.000 C 
BRANCH   7   8
ATOM      8  C   UNL     1      -5.344 -10.877   2.837  1.00  0.00    -0.000 C 
BRANCH   8   9
ATOM      9  C   UNL     1      -6.442 -10.325   1.910  1.00  0.00    -0.000 C 
BRANCH   9  10
ATOM     10  C   UNL     1      -6.076  -8.959   1.307  1.00  0.00    -0.000 C 
BRANCH  10  11
ATOM     11  C   UNL     1      -6.167  -8.946  -0.227  1.00  0.00    -0.003 C 
ATOM     12  C   UNL     1      -6.441 -10.344  -0.773  1.00  0.00     0.004 C 
ENDBRANCH  10  11
ENDBRANCH   9  10
ENDBRANCH   8   9
ENDBRANCH   7   8
ENDBRANCH   6   7
ENDBRANCH   5   6
ENDBRANCH   4   5
ENDBRANCH   3   4
ENDBRANCH   2   3
ENDBRANCH   1   2
BRANCH   1  13
ATOM     13  C   UNL     1       0.663  -8.243   1.608  1.00  0.00     0.000 C 
BRANCH  13  14
ATOM     14  C   UNL     1       0.540  -6.755   1.976  1.00  0.00     0.000 C 
BRANCH  14  15
ATOM     15  C   UNL     1       1.130  -6.434   3.362  1.00  0.00     0.000 C 
BRANCH  15  16
ATOM     16  C   UNL     1       0.131  -5.856   4.385  1.00  0.00     0.000 C 
BRANCH  16  17
ATOM     17  C   UNL     1      -0.736  -6.894   5.122  1.00  0.00     0.000 C 
BRANCH  17  18
ATOM     18  C   UNL     1      -2.243  -6.682   4.899  1.00  0.00     0.000 C 
BRANCH  18  19
ATOM     19  C   UNL     1      -2.545  -5.402   4.103  1.00  0.00     0.000 C 
BRANCH  19  20
ATOM     20  C   UNL     1      -4.052  -5.130   3.964  1.00  0.00     0.006 C 
BRANCH  20  21
ATOM     21  C   UNL     1      -4.834  -6.396   3.586  1.00  0.00     0.053 C 
BRANCH  21  22
ATOM     22  C   UNL     1      -6.243  -6.352   4.095  1.00  0.00     0.041 C 
ATOM     23  O   UNL     1      -6.744  -7.356   4.665  1.00  0.00    -0.550 OA
ATOM     24  O   UNL     1      -6.990  -5.189   3.968  1.00  0.00    -0.550 OA
ENDBRANCH  21  22
ENDBRANCH  20  21
ENDBRANCH  19  20
ENDBRANCH  18  19
ENDBRANCH  17  18
ENDBRANCH  16  17
ENDBRANCH  15  16
ENDBRANCH  14  15
ENDBRANCH  13  14
ENDBRANCH   1  13
TORSDOF 20
ENDMDL
MODEL 2
REMARK VINA RESULT:     0.905      1.927      5.713
REMARK INTER + INTRA:           0.485
REMARK INTER:                   2.344
REMARK INTRA:                  -1.859
REMARK UNBOUND:                -1.477
REMARK SMILES CCCCCCCCCCCCCCCCCCCCCC(=O)[O-]
REMARK SMILES IDX 12 1 11 2 10 3 9 4 8 5 7 6 6 7 5 8 4 9 3 10 2 11 1 12 13 13
REMARK SMILES IDX 14 14 15 15 16 16 17 17 18 18 19 19 20 20 21 21 22 22 23 23
REMARK SMILES IDX 24 24
REMARK H PARENT
REMARK Flexibility Score: inf
ROOT
ATOM      1  C   UNL     1      -0.626  -8.992   3.565  1.00  0.00     0.000 C 
ENDROOT
BRANCH   1   2
ATOM      2  C   UNL     1      -1.410  -8.642   4.845  1.00  0.00     0.000 C 
BRANCH   2   3
ATOM      3  C   UNL     1      -1.712  -7.136   5.000  1.00  0.00     0.000 C 
BRANCH   3   4
ATOM      4  C   UNL     1      -0.433  -6.290   5.125  1.00  0.00    -0.000 C 
BRANCH   4   5
ATOM      5  C   UNL     1      -0.580  -4.890   4.507  1.00  0.00    -0.000 C 
BRANCH   5   6
ATOM      6  C   UNL     1       0.591  -4.499   3.579  1.00  0.00    -0.000 C 
BRANCH   6   7
ATOM      7  C   UNL     1       1.466  -5.710   3.213  1.00  0.00    -0.000 C 
BRANCH   7   8
ATOM      8  C   UNL     1       1.104  -6.314   1.847  1.00  0.00    -0.000 C 
BRANCH   8   9
ATOM      9  C   UNL     1       0.971  -5.247   0.746  1.00  0.00    -0.000 C 
BRANCH   9  10
ATOM     10  C   UNL     1       0.324  -5.796  -0.535  1.00  0.00    -0.000 C 
BRANCH  10  11
ATOM     11  C   UNL     1      -0.292  -4.690  -1.408  1.00  0.00    -0.003 C 
ATOM     12  C   UNL     1      -1.394  -5.248  -2.304  1.00  0.00     0.004 C 
ENDBRANCH  10  11
ENDBRANCH   9  10
ENDBRANCH   8   9
ENDBRANCH   7   8
ENDBRANCH   6   7
ENDBRANCH   5   6
ENDBRANCH   4   5
ENDBRANCH   3   4
ENDBRANCH   2   3
ENDBRANCH   1   2
BRANCH   1  13
ATOM     13  C   UNL     1      -0.393 -10.495   3.331  1.00  0.00     0.000 C 
BRANCH  13  14
ATOM     14  C   UNL     1      -1.425 -11.114   2.372  1.00  0.00     0.000 C 
BRANCH  14  15
ATOM     15  C   UNL     1      -2.853 -11.101   2.947  1.00  0.00     0.000 C 
BRANCH  15  16
ATOM     16  C   UNL     1      -3.876 -10.268   2.147  1.00  0.00     0.000 C 
BRANCH  16  17
ATOM     17  C   UNL     1      -5.178 -11.000   1.774  1.00  0.00     0.000 C 
BRANCH  17  18
ATOM     18  C   UNL     1      -6.440 -10.199   2.138  1.00  0.00     0.000 C 
BRANCH  18  19
ATOM     19  C   UNL     1      -6.725 -10.206   3.648  1.00  0.00     0.000 C 
BRANCH  19  20
ATOM     20  C   UNL     1      -7.042  -8.805   4.199  1.00  0.00     0.006 C 
BRANCH  20  21
ATOM     21  C   UNL     1      -6.839  -7.710   3.143  1.00  0.00     0.053 C 
BRANCH  21  22
ATOM     22  C   UNL     1      -5.724  -6.780   3.516  1.00  0.00     0.041 C 
ATOM     23  O   UNL     1      -4.547  -7.016   3.137  1.00  0.00    -0.550 OA
ATOM     24  O   UNL     1      -5.992  -5.636   4.255  1.00  0.00    -0.550 OA
ENDBRANCH  21  22
ENDBRANCH  20  21
ENDBRANCH  19  20
ENDBRANCH  18  19
ENDBRANCH  17  18
ENDBRANCH  16  17
ENDBRANCH  15  16
ENDBRANCH  14  15
ENDBRANCH  13  14
ENDBRANCH   1  13
TORSDOF 20
ENDMDL
MODEL 3
REMARK VINA RESULT:     1.111      2.665      5.634
REMARK INTER + INTRA:           0.934
REMARK INTER:                   2.415
REMARK INTRA:                  -1.481
REMARK UNBOUND:                -1.477
REMARK SMILES CCCCCCCCCCCCCCCCCCCCCC(=O)[O-]
REMARK SMILES IDX 12 1 11 2 10 3 9 4 8 5 7 6 6 7 5 8 4 9 3 10 2 11 1 12 13 13
REMARK SMILES IDX 14 14 15 15 16 16 17 17 18 18 19 19 20 20 21 21 22 22 23 23
REMARK SMILES IDX 24 24
REMARK H PARENT
REMARK Flexibility Score: inf
ROOT
ATOM      1  C   UNL     1      -4.920  -7.756   3.945  1.00  0.00     0.000 C 
ENDROOT
BRANCH   1   2
ATOM      2  C   UNL     1      -4.456  -7.779   2.476  1.00  0.00     0.000 C 
BRANCH   2   3
ATOM      3  C   UNL     1      -5.614  -7.831   1.456  1.00  0.00     0.000 C 
BRANCH   3   4
ATOM      4  C   UNL     1      -5.120  -8.061   0.017  1.00  0.00    -0.000 C 
BRANCH   4   5
ATOM      5  C   UNL     1      -5.821  -9.241  -0.674  1.00  0.00    -0.000 C 
BRANCH   5   6
ATOM      6  C   UNL     1      -6.156 -10.407   0.283  1.00  0.00    -0.000 C 
BRANCH   6   7
ATOM      7  C   UNL     1      -4.889 -11.098   0.815  1.00  0.00    -0.000 C 
BRANCH   7   8
ATOM      8  C   UNL     1      -4.761 -11.011   2.344  1.00  0.00    -0.000 C 
BRANCH   8   9
ATOM      9  C   UNL     1      -3.295 -10.965   2.810  1.00  0.00    -0.000 C 
BRANCH   9  10
ATOM     10  C   UNL     1      -3.162 -10.944   4.341  1.00  0.00    -0.000 C 
BRANCH  10  11
ATOM     11  C   UNL     1      -1.697 -10.919   4.808  1.00  0.00    -0.003 C 
ATOM     12  C   UNL     1      -0.748 -10.733   3.628  1.00  0.00     0.004 C 
ENDBRANCH  10  11
ENDBRANCH   9  10
ENDBRANCH   8   9
ENDBRANCH   7   8
ENDBRANCH   6   7
ENDBRANCH   5   6
ENDBRANCH   4   5
ENDBRANCH   3   4
ENDBRANCH   2   3
ENDBRANCH   1   2
BRANCH   1  13
ATOM     13  C   UNL     1      -6.437  -7.898   4.155  1.00  0.00     0.000 C 
BRANCH  13  14
ATOM     14  C   UNL     1      -7.125  -6.553   4.447  1.00  0.00     0.000 C 
BRANCH  14  15
ATOM     15  C   UNL     1      -6.486  -5.380   3.681  1.00  0.00     0.000 C 
BRANCH  15  16
ATOM     16  C   UNL     1      -5.367  -4.634   4.436  1.00  0.00     0.000 C 
BRANCH  16  17
ATOM     17  C   UNL     1      -4.142  -4.245   3.587  1.00  0.00     0.000 C 
BRANCH  17  18
ATOM     18  C   UNL     1      -2.862  -4.985   4.012  1.00  0.00     0.000 C 
BRANCH  18  19
ATOM     19  C   UNL     1      -1.711  -4.024   4.346  1.00  0.00     0.000 C 
BRANCH  19  20
ATOM     20  C   UNL     1      -0.551  -4.718   5.081  1.00  0.00     0.006 C 
BRANCH  20  21
ATOM     21  C   UNL     1      -0.658  -6.247   5.012  1.00  0.00     0.053 C 
BRANCH  21  22
ATOM     22  C   UNL     1       0.542  -6.858   4.352  1.00  0.00     0.041 C 
ATOM     23  O   UNL     1       1.353  -7.548   5.023  1.00  0.00    -0.550 OA
ATOM     24  O   UNL     1       0.745  -6.690   2.990  1.00  0.00    -0.550 OA
ENDBRANCH  21  22
ENDBRANCH  20  21
ENDBRANCH  19  20
ENDBRANCH  18  19
ENDBRANCH  17  18
ENDBRANCH  16  17
ENDBRANCH  15  16
ENDBRANCH  14  15
ENDBRANCH  13  14
ENDBRANCH   1  13
TORSDOF 20
ENDMDL
MODEL 4
REMARK VINA RESULT:     1.147      2.459      5.852
REMARK INTER + INTRA:           1.010
REMARK INTER:                   3.471
REMARK INTRA:                  -2.460
REMARK UNBOUND:                -1.477
REMARK SMILES CCCCCCCCCCCCCCCCCCCCCC(=O)[O-]
REMARK SMILES IDX 12 1 11 2 10 3 9 4 8 5 7 6 6 7 5 8 4 9 3 10 2 11 1 12 13 13
REMARK SMILES IDX 14 14 15 15 16 16 17 17 18 18 19 19 20 20 21 21 22 22 23 23
REMARK SMILES IDX 24 24
REMARK H PARENT
REMARK Flexibility Score: inf
ROOT
ATOM      1  C   UNL     1       0.001  -8.630   5.053  1.00  0.00     0.000 C 
ENDROOT
BRANCH   1   2
ATOM      2  C   UNL     1      -1.452  -8.118   5.011  1.00  0.00     0.000 C 
BRANCH   2   3
ATOM      3  C   UNL     1      -1.573  -6.579   5.043  1.00  0.00     0.000 C 
BRANCH   3   4
ATOM      4  C   UNL     1      -0.203  -5.884   5.125  1.00  0.00    -0.000 C 
BRANCH   4   5
ATOM      5  C   UNL     1      -0.097  -4.662   4.198  1.00  0.00    -0.000 C 
BRANCH   5   6
ATOM      6  C   UNL     1       1.028  -4.780   3.146  1.00  0.00    -0.000 C 
BRANCH   6   7
ATOM      7  C   UNL     1       1.285  -6.241   2.739  1.00  0.00    -0.000 C 
BRANCH   7   8
ATOM      8  C   UNL     1       0.681  -6.592   1.370  1.00  0.00    -0.000 C 
BRANCH   8   9
ATOM      9  C   UNL     1       0.987  -5.529   0.301  1.00  0.00    -0.000 C 
BRANCH   9  10
ATOM     10  C   UNL     1       0.281  -5.813  -1.035  1.00  0.00    -0.000 C 
BRANCH  10  11
ATOM     11  C   UNL     1      -0.603  -4.643  -1.497  1.00  0.00    -0.003 C 
ATOM     12  C   UNL     1       0.222  -3.374  -1.689  1.00  0.00     0.004 C 
ENDBRANCH  10  11
ENDBRANCH   9  10
ENDBRANCH   8   9
ENDBRANCH   7   8
ENDBRANCH   6   7
ENDBRANCH   5   6
ENDBRANCH   4   5
ENDBRANCH   3   4
ENDBRANCH   2   3
ENDBRANCH   1   2
BRANCH   1  13
ATOM     13  C   UNL     1       0.226 -10.015   4.422  1.00  0.00     0.000 C 
BRANCH  13  14
ATOM     14  C   UNL     1      -0.363 -10.126   3.005  1.00  0.00     0.000 C 
BRANCH  14  15
ATOM     15  C   UNL     1      -1.534 -11.122   2.924  1.00  0.00     0.000 C 
BRANCH  15  16
ATOM     16  C   UNL     1      -2.934 -10.484   2.821  1.00  0.00     0.000 C 
BRANCH  16  17
ATOM     17  C   UNL     1      -3.810 -10.603   4.083  1.00  0.00     0.000 C 
BRANCH  17  18
ATOM     18  C   UNL     1      -5.013  -9.646   4.069  1.00  0.00     0.000 C 
BRANCH  18  19
ATOM     19  C   UNL     1      -4.723  -8.349   3.297  1.00  0.00     0.000 C 
BRANCH  19  20
ATOM     20  C   UNL     1      -5.835  -7.991   2.296  1.00  0.00     0.006 C 
BRANCH  20  21
ATOM     21  C   UNL     1      -6.482  -9.240   1.683  1.00  0.00     0.053 C 
BRANCH  21  22
ATOM     22  C   UNL     1      -5.971  -9.507   0.299  1.00  0.00     0.041 C 
ATOM     23  O   UNL     1      -5.902 -10.686  -0.136  1.00  0.00    -0.550 OA
ATOM     24  O   UNL     1      -5.600  -8.450  -0.520  1.00  0.00    -0.550 OA
ENDBRANCH  21  22
ENDBRANCH  20  21
ENDBRANCH  19  20
ENDBRANCH  18  19
ENDBRANCH  17  18
ENDBRANCH  16  17
ENDBRANCH  15  16
ENDBRANCH  14  15
ENDBRANCH  13  14
ENDBRANCH   1  13
TORSDOF 20
ENDMDL
MODEL 5
REMARK VINA RESULT:     1.583      2.323      5.032
REMARK INTER + INTRA:           1.957
REMARK INTER:                   4.182
REMARK INTRA:                  -2.225
REMARK UNBOUND:                -1.477
REMARK SMILES CCCCCCCCCCCCCCCCCCCCCC(=O)[O-]
REMARK SMILES IDX 12 1 11 2 10 3 9 4 8 5 7 6 6 7 5 8 4 9 3 10 2 11 1 12 13 13
REMARK SMILES IDX 14 14 15 15 16 16 17 17 18 18 19 19 20 20 21 21 22 22 23 23
REMARK SMILES IDX 24 24
REMARK H PARENT
REMARK Flexibility Score: inf
ROOT
ATOM      1  C   UNL     1      -4.320  -7.381   4.297  1.00  0.00     0.000 C 
ENDROOT
BRANCH   1   2
ATOM      2  C   UNL     1      -3.952  -8.127   2.999  1.00  0.00     0.000 C 
BRANCH   2   3
ATOM      3  C   UNL     1      -4.930  -7.869   1.832  1.00  0.00     0.000 C 
BRANCH   3   4
ATOM      4  C   UNL     1      -4.360  -8.323   0.478  1.00  0.00    -0.000 C 
BRANCH   4   5
ATOM      5  C   UNL     1      -5.417  -8.340  -0.640  1.00  0.00    -0.000 C 
BRANCH   5   6
ATOM      6  C   UNL     1      -6.734  -9.036  -0.233  1.00  0.00    -0.000 C 
BRANCH   6   7
ATOM      7  C   UNL     1      -6.568 -10.561  -0.120  1.00  0.00    -0.000 C 
BRANCH   7   8
ATOM      8  C   UNL     1      -7.124 -11.124   1.198  1.00  0.00    -0.000 C 
BRANCH   8   9
ATOM      9  C   UNL     1      -6.135 -10.974   2.366  1.00  0.00    -0.000 C 
BRANCH   9  10
ATOM     10  C   UNL     1      -6.759 -10.274   3.584  1.00  0.00    -0.000 C 
BRANCH  10  11
ATOM     11  C   UNL     1      -6.004 -10.573   4.890  1.00  0.00    -0.003 C 
ATOM     12  C   UNL     1      -4.593 -11.078   4.605  1.00  0.00     0.004 C 
ENDBRANCH  10  11
ENDBRANCH   9  10
ENDBRANCH   8   9
ENDBRANCH   7   8
ENDBRANCH   6   7
ENDBRANCH   5   6
ENDBRANCH   4   5
ENDBRANCH   3   4
ENDBRANCH   2   3
ENDBRANCH   1   2
BRANCH   1  13
ATOM     13  C   UNL     1      -5.806  -7.011   4.441  1.00  0.00     0.000 C 
BRANCH  13  14
ATOM     14  C   UNL     1      -6.056  -5.498   4.327  1.00  0.00     0.000 C 
BRANCH  14  15
ATOM     15  C   UNL     1      -5.076  -4.804   3.364  1.00  0.00     0.000 C 
BRANCH  15  16
ATOM     16  C   UNL     1      -4.121  -3.784   4.018  1.00  0.00     0.000 C 
BRANCH  16  17
ATOM     17  C   UNL     1      -2.620  -4.045   3.793  1.00  0.00     0.000 C 
BRANCH  17  18
ATOM     18  C   UNL     1      -2.091  -5.234   4.612  1.00  0.00     0.000 C 
BRANCH  18  19
ATOM     19  C   UNL     1      -0.568  -5.176   4.817  1.00  0.00     0.000 C 
BRANCH  19  20
ATOM     20  C   UNL     1       0.077  -6.571   4.877  1.00  0.00     0.006 C 
BRANCH  20  21
ATOM     21  C   UNL     1      -0.155  -7.370   3.588  1.00  0.00     0.053 C 
BRANCH  21  22
ATOM     22  C   UNL     1      -0.643  -8.758   3.875  1.00  0.00     0.041 C 
ATOM     23  O   UNL     1      -1.282  -9.001   4.932  1.00  0.00    -0.550 OA
ATOM     24  O   UNL     1      -0.417  -9.776   2.959  1.00  0.00    -0.550 OA
ENDBRANCH  21  22
ENDBRANCH  20  21
ENDBRANCH  19  20
ENDBRANCH  18  19
ENDBRANCH  17  18
ENDBRANCH  16  17
ENDBRANCH  15  16
ENDBRANCH  14  15
ENDBRANCH  13  14
ENDBRANCH   1  13
TORSDOF 20
ENDMDL
MODEL 6
REMARK VINA RESULT:     2.467      2.201      6.447
REMARK INTER + INTRA:           3.875
REMARK INTER:                   4.340
REMARK INTRA:                  -0.465
REMARK UNBOUND:                -1.477
REMARK SMILES CCCCCCCCCCCCCCCCCCCCCC(=O)[O-]
REMARK SMILES IDX 12 1 11 2 10 3 9 4 8 5 7 6 6 7 5 8 4 9 3 10 2 11 1 12 13 13
REMARK SMILES IDX 14 14 15 15 16 16 17 17 18 18 19 19 20 20 21 21 22 22 23 23
REMARK SMILES IDX 24 24
REMARK H PARENT
REMARK Flexibility Score: inf
ROOT
ATOM      1  C   UNL     1      -0.707  -8.913   3.681  1.00  0.00     0.000 C 
ENDROOT
BRANCH   1   2
ATOM      2  C   UNL     1      -0.447  -8.281   5.063  1.00  0.00     0.000 C 
BRANCH   2   3
ATOM      3  C   UNL     1      -0.019  -6.799   5.000  1.00  0.00     0.000 C 
BRANCH   3   4
ATOM      4  C   UNL     1      -1.092  -5.904   4.357  1.00  0.00    -0.000 C 
BRANCH   4   5
ATOM      5  C   UNL     1      -0.985  -4.434   4.794  1.00  0.00    -0.000 C 
BRANCH   5   6
ATOM      6  C   UNL     1       0.457  -3.992   5.125  1.00  0.00    -0.000 C 
BRANCH   6   7
ATOM      7  C   UNL     1       0.990  -2.960   4.117  1.00  0.00    -0.000 C 
BRANCH   7   8
ATOM      8  C   UNL     1       1.998  -3.562   3.125  1.00  0.00    -0.000 C 
BRANCH   8   9
ATOM      9  C   UNL     1       1.314  -4.345   1.992  1.00  0.00    -0.000 C 
BRANCH   9  10
ATOM     10  C   UNL     1       1.726  -5.826   1.963  1.00  0.00    -0.000 C 
BRANCH  10  11
ATOM     11  C   UNL     1       0.524  -6.772   1.812  1.00  0.00    -0.003 C 
ATOM     12  C   UNL     1       0.974  -8.168   1.390  1.00  0.00     0.004 C 
ENDBRANCH  10  11
ENDBRANCH   9  10
ENDBRANCH   8   9
ENDBRANCH   7   8
ENDBRANCH   6   7
ENDBRANCH   5   6
ENDBRANCH   4   5
ENDBRANCH   3   4
ENDBRANCH   2   3
ENDBRANCH   1   2
BRANCH   1  13
ATOM     13  C   UNL     1      -0.775 -10.450   3.667  1.00  0.00     0.000 C 
BRANCH  13  14
ATOM     14  C   UNL     1      -1.715 -10.994   2.578  1.00  0.00     0.000 C 
BRANCH  14  15
ATOM     15  C   UNL     1      -3.198 -10.931   2.987  1.00  0.00     0.000 C 
BRANCH  15  16
ATOM     16  C   UNL     1      -3.643  -9.610   3.647  1.00  0.00     0.000 C 
BRANCH  16  17
ATOM     17  C   UNL     1      -4.791  -9.733   4.665  1.00  0.00     0.000 C 
BRANCH  17  18
ATOM     18  C   UNL     1      -5.628 -11.010   4.473  1.00  0.00     0.000 C 
BRANCH  18  19
ATOM     19  C   UNL     1      -7.011 -10.720   3.867  1.00  0.00     0.000 C 
BRANCH  19  20
ATOM     20  C   UNL     1      -7.012 -10.782   2.331  1.00  0.00     0.006 C 
BRANCH  20  21
ATOM     21  C   UNL     1      -6.738  -9.410   1.698  1.00  0.00     0.053 C 
BRANCH  21  22
ATOM     22  C   UNL     1      -6.547  -9.511   0.215  1.00  0.00     0.041 C 
ATOM     23  O   UNL     1      -6.470  -8.469  -0.487  1.00  0.00    -0.550 OA
ATOM     24  O   UNL     1      -6.423 -10.756  -0.386  1.00  0.00    -0.550 OA
ENDBRANCH  21  22
ENDBRANCH  20  21
ENDBRANCH  19  20
ENDBRANCH  18  19
ENDBRANCH  17  18
ENDBRANCH  16  17
ENDBRANCH  15  16
ENDBRANCH  14  15
ENDBRANCH  13  14
ENDBRANCH   1  13
TORSDOF 20
ENDMDL
MODEL 7
REMARK VINA RESULT:     3.122      2.385      5.934
REMARK INTER + INTRA:           5.295
REMARK INTER:                   4.561
REMARK INTRA:                   0.735
REMARK UNBOUND:                -1.477
REMARK SMILES CCCCCCCCCCCCCCCCCCCCCC(=O)[O-]
REMARK SMILES IDX 12 1 11 2 10 3 9 4 8 5 7 6 6 7 5 8 4 9 3 10 2 11 1 12 13 13
REMARK SMILES IDX 14 14 15 15 16 16 17 17 18 18 19 19 20 20 21 21 22 22 23 23
REMARK SMILES IDX 24 24
REMARK H PARENT
REMARK Flexibility Score: inf
ROOT
ATOM      1  C   UNL     1      -4.994  -7.262   3.530  1.00  0.00     0.000 C 
ENDROOT
BRANCH   1   2
ATOM      2  C   UNL     1      -5.286  -7.595   2.053  1.00  0.00     0.000 C 
BRANCH   2   3
ATOM      3  C   UNL     1      -6.087  -8.899   1.854  1.00  0.00     0.000 C 
BRANCH   3   4
ATOM      4  C   UNL     1      -5.628  -9.687   0.615  1.00  0.00    -0.000 C 
BRANCH   4   5
ATOM      5  C   UNL     1      -4.991 -11.041   0.971  1.00  0.00    -0.000 C 
BRANCH   5   6
ATOM      6  C   UNL     1      -4.479 -11.119   2.426  1.00  0.00    -0.000 C 
BRANCH   6   7
ATOM      7  C   UNL     1      -2.943 -11.124   2.497  1.00  0.00    -0.000 C 
BRANCH   7   8
ATOM      8  C   UNL     1      -2.385 -10.003   3.388  1.00  0.00    -0.000 C 
BRANCH   8   9
ATOM      9  C   UNL     1      -0.864  -9.830   3.235  1.00  0.00    -0.000 C 
BRANCH   9  10
ATOM     10  C   UNL     1      -0.066 -10.818   4.103  1.00  0.00    -0.000 C 
BRANCH  10  11
ATOM     11  C   UNL     1       0.987 -10.120   4.978  1.00  0.00    -0.003 C 
ATOM     12  C   UNL     1       2.241 -10.979   5.119  1.00  0.00     0.004 C 
ENDBRANCH  10  11
ENDBRANCH   9  10
ENDBRANCH   8   9
ENDBRANCH   7   8
ENDBRANCH   6   7
ENDBRANCH   5   6
ENDBRANCH   4   5
ENDBRANCH   3   4
ENDBRANCH   2   3
ENDBRANCH   1   2
BRANCH   1  13
ATOM     13  C   UNL     1      -5.945  -7.913   4.548  1.00  0.00     0.000 C 
BRANCH  13  14
ATOM     14  C   UNL     1      -7.123  -7.001   4.929  1.00  0.00     0.000 C 
BRANCH  14  15
ATOM     15  C   UNL     1      -7.091  -5.649   4.193  1.00  0.00     0.000 C 
BRANCH  15  16
ATOM     16  C   UNL     1      -5.945  -4.702   4.607  1.00  0.00     0.000 C 
BRANCH  16  17
ATOM     17  C   UNL     1      -5.858  -3.384   3.814  1.00  0.00     0.000 C 
BRANCH  17  18
ATOM     18  C   UNL     1      -4.685  -3.361   2.820  1.00  0.00     0.000 C 
BRANCH  18  19
ATOM     19  C   UNL     1      -3.344  -3.709   3.485  1.00  0.00     0.000 C 
BRANCH  19  20
ATOM     20  C   UNL     1      -3.431  -4.955   4.383  1.00  0.00     0.006 C 
BRANCH  20  21
ATOM     21  C   UNL     1      -2.439  -6.045   3.954  1.00  0.00     0.053 C 
BRANCH  21  22
ATOM     22  C   UNL     1      -1.068  -5.796   4.508  1.00  0.00     0.041 C 
ATOM     23  O   UNL     1      -0.755  -4.656   4.940  1.00  0.00    -0.550 OA
ATOM     24  O   UNL     1      -0.148  -6.833   4.574  1.00  0.00    -0.550 OA
ENDBRANCH  21  22
ENDBRANCH  20  21
ENDBRANCH  19  20
ENDBRANCH  18  19
ENDBRANCH  17  18
ENDBRANCH  16  17
ENDBRANCH  15  16
ENDBRANCH  14  15
ENDBRANCH  13  14
ENDBRANCH   1  13
TORSDOF 20
ENDMDL
