MODEL 1
REMARK VINA RESULT:    -4.757      0.000      0.000
REMARK INTER + INTRA:          -5.201
REMARK INTER:                  -5.175
REMARK INTRA:                  -0.027
REMARK UNBOUND:                -0.027
REMARK SMILES O=C([O-])c1ccc(O)cc1
REMARK SMILES IDX 4 1 5 2 10 3 6 4 9 5 7 6 2 7 1 8 3 9 8 10
REMARK H PARENT 8 11
REMARK Flexibility Score: inf
ROOT
ATOM      1  C   UNL     1       5.743  11.092   6.798  1.00  0.00    -0.003 A 
ATOM      2  C   UNL     1       5.729  12.118   7.761  1.00  0.00     0.014 A 
ATOM      3  C   UNL     1       5.179   9.845   7.122  1.00  0.00     0.014 A 
ATOM      4  C   UNL     1       5.162  11.899   9.020  1.00  0.00     0.047 A 
ATOM      5  C   UNL     1       4.613   9.630   8.382  1.00  0.00     0.047 A 
ATOM      6  C   UNL     1       4.603  10.657   9.335  1.00  0.00     0.115 A 
ENDROOT
BRANCH   1   7
ATOM      7  C   UNL     1       6.341  11.318   5.464  1.00  0.00     0.071 C 
ATOM      8  O   UNL     1       5.627  11.693   4.497  1.00  0.00    -0.545 OA
ATOM      9  O   UNL     1       7.702  11.119   5.259  1.00  0.00    -0.545 OA
ENDBRANCH   1   7
BRANCH   6  10
ATOM     10  O   UNL     1       4.042  10.454  10.594  1.00  0.00    -0.508 OA
ATOM     11  H   UNL     1       4.399   9.746  11.224  1.00  0.00     0.293 HD
ENDBRANCH   6  10
TORSDOF 2
ENDMDL
MODEL 2
REMARK VINA RESULT:    -4.746      0.114      1.531
REMARK INTER + INTRA:          -5.189
REMARK INTER:                  -5.162
REMARK INTRA:                  -0.027
REMARK UNBOUND:                -0.027
REMARK SMILES O=C([O-])c1ccc(O)cc1
REMARK SMILES IDX 4 1 5 2 10 3 6 4 9 5 7 6 2 7 1 8 3 9 8 10
REMARK H PARENT 8 11
REMARK Flexibility Score: inf
ROOT
ATOM      1  C   UNL     1       5.750  11.101   6.731  1.00  0.00    -0.003 A 
ATOM      2  C   UNL     1       5.064   9.909   7.030  1.00  0.00     0.014 A 
ATOM      3  C   UNL     1       5.873  12.085   7.728  1.00  0.00     0.014 A 
ATOM      4  C   UNL     1       4.515   9.708   8.300  1.00  0.00     0.047 A 
ATOM      5  C   UNL     1       5.322  11.880   8.997  1.00  0.00     0.047 A 
ATOM      6  C   UNL     1       4.641  10.691   9.286  1.00  0.00     0.115 A 
ENDROOT
BRANCH   1   7
ATOM      7  C   UNL     1       6.334  11.320   5.390  1.00  0.00     0.071 C 
ATOM      8  O   UNL     1       5.612  11.694   4.429  1.00  0.00    -0.545 OA
ATOM      9  O   UNL     1       7.692  11.114   5.171  1.00  0.00    -0.545 OA
ENDBRANCH   1   7
BRANCH   6  10
ATOM     10  O   UNL     1       4.088  10.475  10.546  1.00  0.00    -0.508 OA
ATOM     11  H   UNL     1       3.956   9.540  10.914  1.00  0.00     0.293 HD
ENDBRANCH   6  10
TORSDOF 2
ENDMDL
MODEL 3
REMARK VINA RESULT:    -4.616      2.186      4.505
REMARK INTER + INTRA:          -5.048
REMARK INTER:                  -5.020
REMARK INTRA:                  -0.028
REMARK UNBOUND:                -0.027
REMARK SMILES O=C([O-])c1ccc(O)cc1
REMARK SMILES IDX 4 1 5 2 10 3 6 4 9 5 7 6 2 7 1 8 3 9 8 10
REMARK H PARENT 8 11
REMARK Flexibility Score: inf
ROOT
ATOM      1  C   UNL     1       3.061  11.368   8.872  1.00  0.00    -0.003 A 
ATOM      2  C   UNL     1       4.390  11.676   9.217  1.00  0.00     0.014 A 
ATOM      3  C   UNL     1       2.818  10.550   7.754  1.00  0.00     0.014 A 
ATOM      4  C   UNL     1       5.452  11.173   8.459  1.00  0.00     0.047 A 
ATOM      5  C   UNL     1       3.883  10.049   6.999  1.00  0.00     0.047 A 
ATOM      6  C   UNL     1       5.203  10.360   7.349  1.00  0.00     0.115 A 
ENDROOT
BRANCH   1   7
ATOM      7  C   UNL     1       1.933  11.896   9.670  1.00  0.00     0.071 C 
ATOM      8  O   UNL     1       1.656  13.125   9.655  1.00  0.00    -0.545 OA
ATOM      9  O   UNL     1       1.162  11.042  10.451  1.00  0.00    -0.545 OA
ENDBRANCH   1   7
BRANCH   6  10
ATOM     10  O   UNL     1       6.272   9.867   6.604  1.00  0.00    -0.508 OA
ATOM     11  H   UNL     1       6.977  10.484   6.218  1.00  0.00     0.293 HD
ENDBRANCH   6  10
TORSDOF 2
ENDMDL
MODEL 4
REMARK VINA RESULT:    -4.561      1.860      4.294
REMARK INTER + INTRA:          -4.988
REMARK INTER:                  -4.960
REMARK INTRA:                  -0.028
REMARK UNBOUND:                -0.027
REMARK SMILES O=C([O-])c1ccc(O)cc1
REMARK SMILES IDX 4 1 5 2 10 3 6 4 9 5 7 6 2 7 1 8 3 9 8 10
REMARK H PARENT 8 11
REMARK Flexibility Score: inf
ROOT
ATOM      1  C   UNL     1       5.158  10.864   6.603  1.00  0.00    -0.003 A 
ATOM      2  C   UNL     1       6.160  11.619   7.240  1.00  0.00     0.014 A 
ATOM      3  C   UNL     1       5.084  10.874   5.199  1.00  0.00     0.014 A 
ATOM      4  C   UNL     1       7.068  12.368   6.485  1.00  0.00     0.047 A 
ATOM      5  C   UNL     1       5.994  11.625   4.448  1.00  0.00     0.047 A 
ATOM      6  C   UNL     1       6.989  12.374   5.089  1.00  0.00     0.115 A 
ENDROOT
BRANCH   1   7
ATOM      7  C   UNL     1       4.194  10.069   7.396  1.00  0.00     0.071 C 
ATOM      8  O   UNL     1       4.561   9.018   7.986  1.00  0.00    -0.545 OA
ATOM      9  O   UNL     1       2.867  10.471   7.501  1.00  0.00    -0.545 OA
ENDBRANCH   1   7
BRANCH   6  10
ATOM     10  O   UNL     1       7.901  13.125   4.351  1.00  0.00    -0.508 OA
ATOM     11  H   UNL     1       7.598  13.746   3.610  1.00  0.00     0.293 HD
ENDBRANCH   6  10
TORSDOF 2
ENDMDL
MODEL 5
REMARK VINA RESULT:    -4.513      2.215      2.913
REMARK INTER + INTRA:          -4.935
REMARK INTER:                  -4.900
REMARK INTRA:                  -0.035
REMARK UNBOUND:                -0.027
REMARK SMILES O=C([O-])c1ccc(O)cc1
REMARK SMILES IDX 4 1 5 2 10 3 6 4 9 5 7 6 2 7 1 8 3 9 8 10
REMARK H PARENT 8 11
REMARK Flexibility Score: inf
ROOT
ATOM      1  C   UNL     1       4.968  11.125   8.044  1.00  0.00    -0.003 A 
ATOM      2  C   UNL     1       4.114  10.311   7.277  1.00  0.00     0.014 A 
ATOM      3  C   UNL     1       4.416  11.929   9.057  1.00  0.00     0.014 A 
ATOM      4  C   UNL     1       2.738  10.303   7.521  1.00  0.00     0.047 A 
ATOM      5  C   UNL     1       3.038  11.918   9.298  1.00  0.00     0.047 A 
ATOM      6  C   UNL     1       2.196  11.105   8.529  1.00  0.00     0.115 A 
ENDROOT
BRANCH   1   7
ATOM      7  C   UNL     1       6.426  11.138   7.791  1.00  0.00     0.071 C 
ATOM      8  O   UNL     1       7.224  11.575   8.662  1.00  0.00    -0.545 OA
ATOM      9  O   UNL     1       6.936  10.666   6.587  1.00  0.00    -0.545 OA
ENDBRANCH   1   7
BRANCH   6  10
ATOM     10  O   UNL     1       0.822  11.086   8.759  1.00  0.00    -0.508 OA
ATOM     11  H   UNL     1       0.159  11.289   8.021  1.00  0.00     0.293 HD
ENDBRANCH   6  10
TORSDOF 2
ENDMDL
MODEL 6
REMARK VINA RESULT:    -4.276      2.109      2.806
REMARK INTER + INTRA:          -4.677
REMARK INTER:                  -4.641
REMARK INTRA:                  -0.036
REMARK UNBOUND:                -0.027
REMARK SMILES O=C([O-])c1ccc(O)cc1
REMARK SMILES IDX 4 1 5 2 10 3 6 4 9 5 7 6 2 7 1 8 3 9 8 10
REMARK H PARENT 8 11
REMARK Flexibility Score: inf
ROOT
ATOM      1  C   UNL     1       7.230  11.215   5.471  1.00  0.00    -0.003 A 
ATOM      2  C   UNL     1       7.194  10.774   6.807  1.00  0.00     0.014 A 
ATOM      3  C   UNL     1       6.028  11.293   4.746  1.00  0.00     0.014 A 
ATOM      4  C   UNL     1       5.979  10.420   7.402  1.00  0.00     0.047 A 
ATOM      5  C   UNL     1       4.815  10.937   5.345  1.00  0.00     0.047 A 
ATOM      6  C   UNL     1       4.788  10.500   6.675  1.00  0.00     0.115 A 
ENDROOT
BRANCH   1   7
ATOM      7  C   UNL     1       8.512  11.593   4.836  1.00  0.00     0.071 C 
ATOM      8  O   UNL     1       9.600  11.453   5.455  1.00  0.00    -0.545 OA
ATOM      9  O   UNL     1       8.533  12.108   3.545  1.00  0.00    -0.545 OA
ENDBRANCH   1   7
BRANCH   6  10
ATOM     10  O   UNL     1       3.587  10.142   7.282  1.00  0.00    -0.508 OA
ATOM     11  H   UNL     1       2.812   9.771   6.745  1.00  0.00     0.293 HD
ENDBRANCH   6  10
TORSDOF 2
ENDMDL
MODEL 7
REMARK VINA RESULT:    -4.275      1.490      4.242
REMARK INTER + INTRA:          -4.677
REMARK INTER:                  -4.650
REMARK INTRA:                  -0.027
REMARK UNBOUND:                -0.027
REMARK SMILES O=C([O-])c1ccc(O)cc1
REMARK SMILES IDX 4 1 5 2 10 3 6 4 9 5 7 6 2 7 1 8 3 9 8 10
REMARK H PARENT 8 11
REMARK Flexibility Score: inf
ROOT
ATOM      1  C   UNL     1       5.297  10.910   7.697  1.00  0.00    -0.003 A 
ATOM      2  C   UNL     1       5.102  10.905   6.304  1.00  0.00     0.014 A 
ATOM      3  C   UNL     1       6.609  10.891   8.203  1.00  0.00     0.014 A 
ATOM      4  C   UNL     1       6.199  10.882   5.437  1.00  0.00     0.047 A 
ATOM      5  C   UNL     1       7.703  10.868   7.332  1.00  0.00     0.047 A 
ATOM      6  C   UNL     1       7.500  10.863   5.946  1.00  0.00     0.115 A 
ENDROOT
BRANCH   1   7
ATOM      7  C   UNL     1       4.141  10.936   8.620  1.00  0.00     0.071 C 
ATOM      8  O   UNL     1       3.565  12.021   8.897  1.00  0.00    -0.545 OA
ATOM      9  O   UNL     1       3.674   9.760   9.197  1.00  0.00    -0.545 OA
ENDBRANCH   1   7
BRANCH   6  10
ATOM     10  O   UNL     1       8.582  10.839   5.069  1.00  0.00    -0.508 OA
ATOM     11  H   UNL     1       8.969   9.966   4.729  1.00  0.00     0.293 HD
ENDBRANCH   6  10
TORSDOF 2
ENDMDL
MODEL 8
REMARK VINA RESULT:    -4.216      1.748      2.460
REMARK INTER + INTRA:          -4.613
REMARK INTER:                  -4.578
REMARK INTRA:                  -0.035
REMARK UNBOUND:                -0.027
REMARK SMILES O=C([O-])c1ccc(O)cc1
REMARK SMILES IDX 4 1 5 2 10 3 6 4 9 5 7 6 2 7 1 8 3 9 8 10
REMARK H PARENT 8 11
REMARK Flexibility Score: inf
ROOT
ATOM      1  C   UNL     1       6.524  10.986   6.625  1.00  0.00    -0.003 A 
ATOM      2  C   UNL     1       5.545  10.949   5.615  1.00  0.00     0.014 A 
ATOM      3  C   UNL     1       6.148  10.701   7.949  1.00  0.00     0.014 A 
ATOM      4  C   UNL     1       4.219  10.632   5.926  1.00  0.00     0.047 A 
ATOM      5  C   UNL     1       4.821  10.385   8.257  1.00  0.00     0.047 A 
ATOM      6  C   UNL     1       3.852  10.350   7.245  1.00  0.00     0.115 A 
ENDROOT
BRANCH   1   7
ATOM      7  C   UNL     1       7.928  11.320   6.302  1.00  0.00     0.071 C 
ATOM      8  O   UNL     1       8.865  10.955   7.060  1.00  0.00    -0.545 OA
ATOM      9  O   UNL     1       8.234  12.042   5.154  1.00  0.00    -0.545 OA
ENDBRANCH   1   7
BRANCH   6  10
ATOM     10  O   UNL     1       2.527  10.036   7.539  1.00  0.00    -0.508 OA
ATOM     11  H   UNL     1       1.762  10.611   7.207  1.00  0.00     0.293 HD
ENDBRANCH   6  10
TORSDOF 2
ENDMDL
MODEL 9
REMARK VINA RESULT:    -3.871      2.126      3.801
REMARK INTER + INTRA:          -4.237
REMARK INTER:                  -4.210
REMARK INTRA:                  -0.027
REMARK UNBOUND:                -0.027
REMARK SMILES O=C([O-])c1ccc(O)cc1
REMARK SMILES IDX 4 1 5 2 10 3 6 4 9 5 7 6 2 7 1 8 3 9 8 10
REMARK H PARENT 8 11
REMARK Flexibility Score: inf
ROOT
ATOM      1  C   UNL     1       5.356  10.583   7.644  1.00  0.00    -0.003 A 
ATOM      2  C   UNL     1       5.825  11.408   8.683  1.00  0.00     0.014 A 
ATOM      3  C   UNL     1       6.122  10.463   6.471  1.00  0.00     0.014 A 
ATOM      4  C   UNL     1       7.035  12.095   8.549  1.00  0.00     0.047 A 
ATOM      5  C   UNL     1       7.331  11.153   6.341  1.00  0.00     0.047 A 
ATOM      6  C   UNL     1       7.791  11.971   7.380  1.00  0.00     0.115 A 
ENDROOT
BRANCH   1   7
ATOM      7  C   UNL     1       4.077   9.852   7.780  1.00  0.00     0.071 C 
ATOM      8  O   UNL     1       4.067   8.623   8.052  1.00  0.00    -0.545 OA
ATOM      9  O   UNL     1       2.866  10.513   7.608  1.00  0.00    -0.545 OA
ENDBRANCH   1   7
BRANCH   6  10
ATOM     10  O   UNL     1       8.994  12.663   7.262  1.00  0.00    -0.508 OA
ATOM     11  H   UNL     1       9.536  12.926   8.077  1.00  0.00     0.293 HD
ENDBRANCH   6  10
TORSDOF 2
ENDMDL
