MODEL 1
REMARK VINA RESULT:    -1.697      0.000      0.000
REMARK INTER + INTRA:          -3.249
REMARK INTER:                  -2.391
REMARK INTRA:                  -0.858
REMARK UNBOUND:                -0.858
REMARK SMILES CCCCCCCCC(=O)[O-]
REMARK SMILES IDX 6 1 7 2 8 3 9 4 10 5 11 6 5 7 4 8 3 9 2 10 1 11
REMARK H PARENT
REMARK Flexibility Score: inf
ROOT
ATOM      1  C   UNL     1      21.582  27.855  13.640  1.00  0.00     0.000 C 
ENDROOT
BRANCH   1   2
ATOM      2  C   UNL     1      22.343  28.333  12.392  1.00  0.00     0.006 C 
BRANCH   2   3
ATOM      3  C   UNL     1      23.792  27.832  12.368  1.00  0.00     0.053 C 
BRANCH   3   4
ATOM      4  C   UNL     1      24.772  28.954  12.526  1.00  0.00     0.041 C 
ATOM      5  O   UNL     1      24.459  30.123  12.178  1.00  0.00    -0.550 OA
ATOM      6  O   UNL     1      26.043  28.703  13.027  1.00  0.00    -0.550 OA
ENDBRANCH   3   4
ENDBRANCH   2   3
ENDBRANCH   1   2
BRANCH   1   7
ATOM      7  C   UNL     1      21.058  29.048  14.453  1.00  0.00     0.000 C 
BRANCH   7   8
ATOM      8  C   UNL     1      22.157  29.731  15.282  1.00  0.00    -0.000 C 
BRANCH   8   9
ATOM      9  C   UNL     1      22.805  28.780  16.303  1.00  0.00    -0.000 C 
BRANCH   9  10
ATOM     10  C   UNL     1      24.335  28.732  16.174  1.00  0.00    -0.003 C 
ATOM     11  C   UNL     1      24.878  27.308  16.062  1.00  0.00     0.004 C 
ENDBRANCH   9  10
ENDBRANCH   8   9
ENDBRANCH   7   8
ENDBRANCH   1   7
TORSDOF 7
ENDMDL
MODEL 2
REMARK VINA RESULT:    -1.635      2.002      2.613
REMARK INTER + INTRA:          -3.162
REMARK INTER:                  -2.573
REMARK INTRA:                  -0.589
REMARK UNBOUND:                -0.858
REMARK SMILES CCCCCCCCC(=O)[O-]
REMARK SMILES IDX 6 1 7 2 8 3 9 4 10 5 11 6 5 7 4 8 3 9 2 10 1 11
REMARK H PARENT
REMARK Flexibility Score: inf
ROOT
ATOM      1  C   UNL     1      22.849  26.365  13.403  1.00  0.00     0.000 C 
ENDROOT
BRANCH   1   2
ATOM      2  C   UNL     1      23.400  26.913  12.077  1.00  0.00     0.006 C 
BRANCH   2   3
ATOM      3  C   UNL     1      23.282  28.439  11.985  1.00  0.00     0.053 C 
BRANCH   3   4
ATOM      4  C   UNL     1      24.266  29.129  12.880  1.00  0.00     0.041 C 
ATOM      5  O   UNL     1      23.865  29.930  13.765  1.00  0.00    -0.550 OA
ATOM      6  O   UNL     1      25.628  28.912  12.715  1.00  0.00    -0.550 OA
ENDBRANCH   3   4
ENDBRANCH   2   3
ENDBRANCH   1   2
BRANCH   1   7
ATOM      7  C   UNL     1      23.556  25.059  13.793  1.00  0.00     0.000 C 
BRANCH   7   8
ATOM      8  C   UNL     1      24.560  25.247  14.941  1.00  0.00    -0.000 C 
BRANCH   8   9
ATOM      9  C   UNL     1      24.419  26.614  15.632  1.00  0.00    -0.000 C 
BRANCH   9  10
ATOM     10  C   UNL     1      25.769  27.329  15.804  1.00  0.00    -0.003 C 
ATOM     11  C   UNL     1      26.125  27.581  17.269  1.00  0.00     0.004 C 
ENDBRANCH   9  10
ENDBRANCH   8   9
ENDBRANCH   7   8
ENDBRANCH   1   7
TORSDOF 7
ENDMDL
MODEL 3
REMARK VINA RESULT:    -1.600      1.521      2.990
REMARK INTER + INTRA:          -3.112
REMARK INTER:                  -2.242
REMARK INTRA:                  -0.870
REMARK UNBOUND:                -0.858
REMARK SMILES CCCCCCCCC(=O)[O-]
REMARK SMILES IDX 6 1 7 2 8 3 9 4 10 5 11 6 5 7 4 8 3 9 2 10 1 11
REMARK H PARENT
REMARK Flexibility Score: inf
ROOT
ATOM      1  C   UNL     1      22.987  29.396  16.869  1.00  0.00     0.000 C 
ENDROOT
BRANCH   1   2
ATOM      2  C   UNL     1      22.627  29.369  15.375  1.00  0.00     0.006 C 
BRANCH   2   3
ATOM      3  C   UNL     1      23.708  30.022  14.505  1.00  0.00     0.053 C 
BRANCH   3   4
ATOM      4  C   UNL     1      24.082  29.158  13.339  1.00  0.00     0.041 C 
ATOM      5  O   UNL     1      23.189  28.587  12.661  1.00  0.00    -0.550 OA
ATOM      6  O   UNL     1      25.420  28.958  13.023  1.00  0.00    -0.550 OA
ENDBRANCH   3   4
ENDBRANCH   2   3
ENDBRANCH   1   2
BRANCH   1   7
ATOM      7  C   UNL     1      24.509  29.338  17.068  1.00  0.00     0.000 C 
BRANCH   7   8
ATOM      8  C   UNL     1      25.022  27.910  17.312  1.00  0.00    -0.000 C 
BRANCH   8   9
ATOM      9  C   UNL     1      26.010  27.444  16.228  1.00  0.00    -0.000 C 
BRANCH   9  10
ATOM     10  C   UNL     1      25.614  26.092  15.615  1.00  0.00    -0.003 C 
ATOM     11  C   UNL     1      24.119  25.991  15.313  1.00  0.00     0.004 C 
ENDBRANCH   9  10
ENDBRANCH   8   9
ENDBRANCH   7   8
ENDBRANCH   1   7
TORSDOF 7
ENDMDL
MODEL 4
REMARK VINA RESULT:    -1.574      2.496      4.042
REMARK INTER + INTRA:          -3.076
REMARK INTER:                  -2.227
REMARK INTRA:                  -0.849
REMARK UNBOUND:                -0.858
REMARK SMILES CCCCCCCCC(=O)[O-]
REMARK SMILES IDX 6 1 7 2 8 3 9 4 10 5 11 6 5 7 4 8 3 9 2 10 1 11
REMARK H PARENT
REMARK Flexibility Score: inf
ROOT
ATOM      1  C   UNL     1      24.598  28.295  15.699  1.00  0.00     0.000 C 
ENDROOT
BRANCH   1   2
ATOM      2  C   UNL     1      23.643  27.262  16.317  1.00  0.00     0.006 C 
BRANCH   2   3
ATOM      3  C   UNL     1      22.940  26.410  15.251  1.00  0.00     0.053 C 
BRANCH   3   4
ATOM      4  C   UNL     1      23.875  25.424  14.621  1.00  0.00     0.041 C 
ATOM      5  O   UNL     1      23.722  25.083  13.419  1.00  0.00    -0.550 OA
ATOM      6  O   UNL     1      24.896  24.854  15.372  1.00  0.00    -0.550 OA
ENDBRANCH   3   4
ENDBRANCH   2   3
ENDBRANCH   1   2
BRANCH   1   7
ATOM      7  C   UNL     1      23.845  29.578  15.316  1.00  0.00     0.000 C 
BRANCH   7   8
ATOM      8  C   UNL     1      23.856  29.845  13.802  1.00  0.00    -0.000 C 
BRANCH   8   9
ATOM      9  C   UNL     1      24.931  29.026  13.066  1.00  0.00    -0.000 C 
BRANCH   9  10
ATOM     10  C   UNL     1      24.358  28.237  11.878  1.00  0.00    -0.003 C 
ATOM     11  C   UNL     1      22.831  28.193  11.875  1.00  0.00     0.004 C 
ENDBRANCH   9  10
ENDBRANCH   8   9
ENDBRANCH   7   8
ENDBRANCH   1   7
TORSDOF 7
ENDMDL
MODEL 5
REMARK VINA RESULT:    -1.533      2.117      3.392
REMARK INTER + INTRA:          -3.018
REMARK INTER:                  -2.128
REMARK INTRA:                  -0.890
REMARK UNBOUND:                -0.858
REMARK SMILES CCCCCCCCC(=O)[O-]
REMARK SMILES IDX 6 1 7 2 8 3 9 4 10 5 11 6 5 7 4 8 3 9 2 10 1 11
REMARK H PARENT
REMARK Flexibility Score: inf
ROOT
ATOM      1  C   UNL     1      22.954  28.577  12.625  1.00  0.00     0.000 C 
ENDROOT
BRANCH   1   2
ATOM      2  C   UNL     1      24.035  29.496  13.215  1.00  0.00     0.006 C 
BRANCH   2   3
ATOM      3  C   UNL     1      23.964  29.568  14.746  1.00  0.00     0.053 C 
BRANCH   3   4
ATOM      4  C   UNL     1      24.778  28.488  15.392  1.00  0.00     0.041 C 
ATOM      5  O   UNL     1      24.580  28.181  16.597  1.00  0.00    -0.550 OA
ATOM      6  O   UNL     1      25.776  27.844  14.673  1.00  0.00    -0.550 OA
ENDBRANCH   3   4
ENDBRANCH   2   3
ENDBRANCH   1   2
BRANCH   1   7
ATOM      7  C   UNL     1      23.587  27.369  11.919  1.00  0.00     0.000 C 
BRANCH   7   8
ATOM      8  C   UNL     1      23.223  26.032  12.584  1.00  0.00    -0.000 C 
BRANCH   8   9
ATOM      9  C   UNL     1      22.279  26.209  13.786  1.00  0.00    -0.000 C 
BRANCH   9  10
ATOM     10  C   UNL     1      22.756  25.438  15.027  1.00  0.00    -0.003 C 
ATOM     11  C   UNL     1      24.103  24.749  14.817  1.00  0.00     0.004 C 
ENDBRANCH   9  10
ENDBRANCH   8   9
ENDBRANCH   7   8
ENDBRANCH   1   7
TORSDOF 7
ENDMDL
MODEL 6
REMARK VINA RESULT:    -1.528      3.327      4.463
REMARK INTER + INTRA:          -3.011
REMARK INTER:                  -2.362
REMARK INTRA:                  -0.649
REMARK UNBOUND:                -0.858
REMARK SMILES CCCCCCCCC(=O)[O-]
REMARK SMILES IDX 6 1 7 2 8 3 9 4 10 5 11 6 5 7 4 8 3 9 2 10 1 11
REMARK H PARENT
REMARK Flexibility Score: inf
ROOT
ATOM      1  C   UNL     1      22.623  26.008  13.168  1.00  0.00     0.000 C 
ENDROOT
BRANCH   1   2
ATOM      2  C   UNL     1      23.550  24.921  13.734  1.00  0.00     0.006 C 
BRANCH   2   3
ATOM      3  C   UNL     1      24.408  25.436  14.896  1.00  0.00     0.053 C 
BRANCH   3   4
ATOM      4  C   UNL     1      25.294  24.364  15.452  1.00  0.00     0.041 C 
ATOM      5  O   UNL     1      25.577  24.348  16.679  1.00  0.00    -0.550 OA
ATOM      6  O   UNL     1      25.835  23.401  14.609  1.00  0.00    -0.550 OA
ENDBRANCH   3   4
ENDBRANCH   2   3
ENDBRANCH   1   2
BRANCH   1   7
ATOM      7  C   UNL     1      23.201  26.604  11.875  1.00  0.00     0.000 C 
BRANCH   7   8
ATOM      8  C   UNL     1      23.214  28.140  11.882  1.00  0.00    -0.000 C 
BRANCH   8   9
ATOM      9  C   UNL     1      24.640  28.719  11.875  1.00  0.00    -0.000 C 
BRANCH   9  10
ATOM     10  C   UNL     1      25.274  28.736  13.275  1.00  0.00    -0.003 C 
ATOM     11  C   UNL     1      24.308  29.212  14.360  1.00  0.00     0.004 C 
ENDBRANCH   9  10
ENDBRANCH   8   9
ENDBRANCH   7   8
ENDBRANCH   1   7
TORSDOF 7
ENDMDL
MODEL 7
REMARK VINA RESULT:    -1.510      2.811      3.708
REMARK INTER + INTRA:          -2.986
REMARK INTER:                  -2.283
REMARK INTRA:                  -0.703
REMARK UNBOUND:                -0.858
REMARK SMILES CCCCCCCCC(=O)[O-]
REMARK SMILES IDX 6 1 7 2 8 3 9 4 10 5 11 6 5 7 4 8 3 9 2 10 1 11
REMARK H PARENT
REMARK Flexibility Score: inf
ROOT
ATOM      1  C   UNL     1      22.849  27.652  12.292  1.00  0.00     0.000 C 
ENDROOT
BRANCH   1   2
ATOM      2  C   UNL     1      22.867  26.116  12.322  1.00  0.00     0.006 C 
BRANCH   2   3
ATOM      3  C   UNL     1      22.875  25.562  13.753  1.00  0.00     0.053 C 
BRANCH   3   4
ATOM      4  C   UNL     1      23.866  24.450  13.914  1.00  0.00     0.041 C 
ATOM      5  O   UNL     1      24.705  24.479  14.851  1.00  0.00    -0.550 OA
ATOM      6  O   UNL     1      23.883  23.397  13.007  1.00  0.00    -0.550 OA
ENDBRANCH   3   4
ENDBRANCH   2   3
ENDBRANCH   1   2
BRANCH   1   7
ATOM      7  C   UNL     1      24.218  28.209  11.875  1.00  0.00     0.000 C 
BRANCH   7   8
ATOM      8  C   UNL     1      24.896  29.018  12.992  1.00  0.00    -0.000 C 
BRANCH   8   9
ATOM      9  C   UNL     1      23.883  29.667  13.950  1.00  0.00    -0.000 C 
BRANCH   9  10
ATOM     10  C   UNL     1      24.112  29.258  15.414  1.00  0.00    -0.003 C 
ATOM     11  C   UNL     1      25.009  28.029  15.554  1.00  0.00     0.004 C 
ENDBRANCH   9  10
ENDBRANCH   8   9
ENDBRANCH   7   8
ENDBRANCH   1   7
TORSDOF 7
ENDMDL
MODEL 8
REMARK VINA RESULT:    -1.485     25.079     25.975
REMARK INTER + INTRA:          -2.950
REMARK INTER:                  -2.294
REMARK INTRA:                  -0.656
REMARK UNBOUND:                -0.858
REMARK SMILES CCCCCCCCC(=O)[O-]
REMARK SMILES IDX 6 1 7 2 8 3 9 4 10 5 11 6 5 7 4 8 3 9 2 10 1 11
REMARK H PARENT
REMARK Flexibility Score: inf
ROOT
ATOM      1  C   UNL     1       5.876  12.478  26.999  1.00  0.00     0.000 C 
ENDROOT
BRANCH   1   2
ATOM      2  C   UNL     1       6.392  13.862  26.574  1.00  0.00     0.006 C 
BRANCH   2   3
ATOM      3  C   UNL     1       7.054  13.837  25.191  1.00  0.00     0.053 C 
BRANCH   3   4
ATOM      4  C   UNL     1       7.124  15.204  24.582  1.00  0.00     0.041 C 
ATOM      5  O   UNL     1       6.068  15.839  24.326  1.00  0.00    -0.550 OA
ATOM      6  O   UNL     1       8.356  15.763  24.266  1.00  0.00    -0.550 OA
ENDBRANCH   3   4
ENDBRANCH   2   3
ENDBRANCH   1   2
BRANCH   1   7
ATOM      7  C   UNL     1       7.018  11.614  27.553  1.00  0.00     0.000 C 
BRANCH   7   8
ATOM      8  C   UNL     1       7.137  10.257  26.841  1.00  0.00    -0.000 C 
BRANCH   8   9
ATOM      9  C   UNL     1       6.023  10.036  25.803  1.00  0.00    -0.000 C 
BRANCH   9  10
ATOM     10  C   UNL     1       6.566   9.954  24.367  1.00  0.00    -0.003 C 
ATOM     11  C   UNL     1       8.071  10.204  24.286  1.00  0.00     0.004 C 
ENDBRANCH   9  10
ENDBRANCH   8   9
ENDBRANCH   7   8
ENDBRANCH   1   7
TORSDOF 7
ENDMDL
MODEL 9
REMARK VINA RESULT:    -1.467     25.580     26.406
REMARK INTER + INTRA:          -2.925
REMARK INTER:                  -2.183
REMARK INTRA:                  -0.742
REMARK UNBOUND:                -0.858
REMARK SMILES CCCCCCCCC(=O)[O-]
REMARK SMILES IDX 6 1 7 2 8 3 9 4 10 5 11 6 5 7 4 8 3 9 2 10 1 11
REMARK H PARENT
REMARK Flexibility Score: inf
ROOT
ATOM      1  C   UNL     1       5.875  11.366  25.563  1.00  0.00     0.000 C 
ENDROOT
BRANCH   1   2
ATOM      2  C   UNL     1       6.664  10.729  26.718  1.00  0.00     0.006 C 
BRANCH   2   3
ATOM      3  C   UNL     1       7.855   9.900  26.220  1.00  0.00     0.053 C 
BRANCH   3   4
ATOM      4  C   UNL     1       9.058  10.073  27.096  1.00  0.00     0.041 C 
ATOM      5  O   UNL     1      10.215   9.989  26.608  1.00  0.00    -0.550 OA
ATOM      6  O   UNL     1       8.901  10.293  28.459  1.00  0.00    -0.550 OA
ENDBRANCH   3   4
ENDBRANCH   2   3
ENDBRANCH   1   2
BRANCH   1   7
ATOM      7  C   UNL     1       5.979  12.898  25.607  1.00  0.00     0.000 C 
BRANCH   7   8
ATOM      8  C   UNL     1       6.098  13.446  27.038  1.00  0.00    -0.000 C 
BRANCH   8   9
ATOM      9  C   UNL     1       7.247  14.459  27.189  1.00  0.00    -0.000 C 
BRANCH   9  10
ATOM     10  C   UNL     1       8.551  13.801  27.667  1.00  0.00    -0.003 C 
ATOM     11  C   UNL     1       9.543  13.555  26.531  1.00  0.00     0.004 C 
ENDBRANCH   9  10
ENDBRANCH   8   9
ENDBRANCH   7   8
ENDBRANCH   1   7
TORSDOF 7
ENDMDL
