MODEL 1
REMARK VINA RESULT:    -5.629      0.000      0.000
REMARK INTER + INTRA:          -6.047
REMARK INTER:                  -5.958
REMARK INTRA:                  -0.089
REMARK UNBOUND:                -0.089
REMARK SMILES C=C(C)[C@@H]1CC=C(C)C(=O)C1
REMARK SMILES IDX 8 1 7 2 6 3 5 4 4 5 11 6 9 7 10 8 2 9 1 10 3 11
REMARK H PARENT
REMARK Flexibility Score: inf
ROOT
ATOM      1  C   UNL     1     -29.374  19.121 -33.124  1.00  0.00     0.048 C 
ATOM      2  C   UNL     1     -27.909  19.462 -33.127  1.00  0.00    -0.012 C 
ATOM      3  C   UNL     1     -27.481  20.599 -33.703  1.00  0.00    -0.019 C 
ATOM      4  C   UNL     1     -26.037  21.022 -33.660  1.00  0.00     0.036 C 
ATOM      5  C   UNL     1     -25.099  19.800 -33.619  1.00  0.00     0.025 C 
ATOM      6  C   UNL     1     -25.473  18.880 -32.441  1.00  0.00     0.089 C 
ATOM      7  C   UNL     1     -26.940  18.549 -32.470  1.00  0.00     0.158 C 
ATOM      8  O   UNL     1     -27.347  17.507 -31.889  1.00  0.00    -0.295 OA
ENDROOT
BRANCH   5   9
ATOM      9  C   UNL     1     -23.635  20.216 -33.564  1.00  0.00    -0.077 C 
ATOM     10  C   UNL     1     -22.752  19.793 -34.484  1.00  0.00     0.008 C 
ATOM     11  C   UNL     1     -23.147  21.119 -32.460  1.00  0.00     0.039 C 
ENDBRANCH   5   9
TORSDOF 1
ENDMDL
MODEL 2
REMARK VINA RESULT:    -5.217     10.599     12.110
REMARK INTER + INTRA:          -5.611
REMARK INTER:                  -5.518
REMARK INTRA:                  -0.093
REMARK UNBOUND:                -0.089
REMARK SMILES C=C(C)[C@@H]1CC=C(C)C(=O)C1
REMARK SMILES IDX 8 1 7 2 6 3 5 4 4 5 11 6 9 7 10 8 2 9 1 10 3 11
REMARK H PARENT
REMARK Flexibility Score: inf
ROOT
ATOM      1  C   UNL     1     -14.547  15.271 -30.806  1.00  0.00     0.048 C 
ATOM      2  C   UNL     1     -15.737  14.418 -30.464  1.00  0.00    -0.012 C 
ATOM      3  C   UNL     1     -16.077  14.214 -29.179  1.00  0.00    -0.019 C 
ATOM      4  C   UNL     1     -17.305  13.436 -28.791  1.00  0.00     0.036 C 
ATOM      5  C   UNL     1     -17.633  12.353 -29.837  1.00  0.00     0.025 C 
ATOM      6  C   UNL     1     -17.760  12.984 -31.237  1.00  0.00     0.089 C 
ATOM      7  C   UNL     1     -16.552  13.822 -31.553  1.00  0.00     0.158 C 
ATOM      8  O   UNL     1     -16.263  14.053 -32.758  1.00  0.00    -0.295 OA
ENDROOT
BRANCH   5   9
ATOM      9  C   UNL     1     -18.882  11.566 -29.461  1.00  0.00    -0.077 C 
ATOM     10  C   UNL     1     -20.112  12.061 -29.675  1.00  0.00     0.008 C 
ATOM     11  C   UNL     1     -18.754  10.202 -28.832  1.00  0.00     0.039 C 
ENDBRANCH   5   9
TORSDOF 1
ENDMDL
MODEL 3
REMARK VINA RESULT:    -5.145     10.491     12.082
REMARK INTER + INTRA:          -5.535
REMARK INTER:                  -5.447
REMARK INTRA:                  -0.088
REMARK UNBOUND:                -0.089
REMARK SMILES C=C(C)[C@@H]1CC=C(C)C(=O)C1
REMARK SMILES IDX 8 1 7 2 6 3 5 4 4 5 11 6 9 7 10 8 2 9 1 10 3 11
REMARK H PARENT
REMARK Flexibility Score: inf
ROOT
ATOM      1  C   UNL     1     -14.550  15.226 -30.818  1.00  0.00     0.048 C 
ATOM      2  C   UNL     1     -15.744  14.381 -30.469  1.00  0.00    -0.012 C 
ATOM      3  C   UNL     1     -16.074  14.175 -29.181  1.00  0.00    -0.019 C 
ATOM      4  C   UNL     1     -17.305  13.405 -28.785  1.00  0.00     0.036 C 
ATOM      5  C   UNL     1     -17.650  12.328 -29.832  1.00  0.00     0.025 C 
ATOM      6  C   UNL     1     -17.785  12.965 -31.229  1.00  0.00     0.089 C 
ATOM      7  C   UNL     1     -16.573  13.795 -31.552  1.00  0.00     0.158 C 
ATOM      8  O   UNL     1     -16.292  14.028 -32.759  1.00  0.00    -0.295 OA
ENDROOT
BRANCH   5   9
ATOM      9  C   UNL     1     -18.902  11.550 -29.447  1.00  0.00    -0.077 C 
ATOM     10  C   UNL     1     -18.823  10.338 -28.872  1.00  0.00     0.008 C 
ATOM     11  C   UNL     1     -20.266  12.134 -29.711  1.00  0.00     0.039 C 
ENDBRANCH   5   9
TORSDOF 1
ENDMDL
MODEL 4
REMARK VINA RESULT:    -4.871     10.830     12.671
REMARK INTER + INTRA:          -5.244
REMARK INTER:                  -5.151
REMARK INTRA:                  -0.093
REMARK UNBOUND:                -0.089
REMARK SMILES C=C(C)[C@@H]1CC=C(C)C(=O)C1
REMARK SMILES IDX 8 1 7 2 6 3 5 4 4 5 11 6 9 7 10 8 2 9 1 10 3 11
REMARK H PARENT
REMARK Flexibility Score: inf
ROOT
ATOM      1  C   UNL     1     -13.293  15.120 -31.992  1.00  0.00     0.048 C 
ATOM      2  C   UNL     1     -14.527  14.499 -31.397  1.00  0.00    -0.012 C 
ATOM      3  C   UNL     1     -14.899  14.802 -30.141  1.00  0.00    -0.019 C 
ATOM      4  C   UNL     1     -16.168  14.268 -29.532  1.00  0.00     0.036 C 
ATOM      5  C   UNL     1     -16.524  12.885 -30.109  1.00  0.00     0.025 C 
ATOM      6  C   UNL     1     -16.597  12.950 -31.647  1.00  0.00     0.089 C 
ATOM      7  C   UNL     1     -15.347  13.568 -32.212  1.00  0.00     0.158 C 
ATOM      8  O   UNL     1     -15.025  13.320 -33.405  1.00  0.00    -0.295 OA
ENDROOT
BRANCH   5   9
ATOM      9  C   UNL     1     -17.814  12.340 -29.509  1.00  0.00    -0.077 C 
ATOM     10  C   UNL     1     -18.994  12.946 -29.719  1.00  0.00     0.008 C 
ATOM     11  C   UNL     1     -17.784  11.096 -28.658  1.00  0.00     0.039 C 
ENDBRANCH   5   9
TORSDOF 1
ENDMDL
MODEL 5
REMARK VINA RESULT:    -4.818      8.755     10.598
REMARK INTER + INTRA:          -5.189
REMARK INTER:                  -5.096
REMARK INTRA:                  -0.093
REMARK UNBOUND:                -0.089
REMARK SMILES C=C(C)[C@@H]1CC=C(C)C(=O)C1
REMARK SMILES IDX 8 1 7 2 6 3 5 4 4 5 11 6 9 7 10 8 2 9 1 10 3 11
REMARK H PARENT
REMARK Flexibility Score: inf
ROOT
ATOM      1  C   UNL     1     -23.616  10.193 -27.386  1.00  0.00     0.048 C 
ATOM      2  C   UNL     1     -24.983  10.633 -27.833  1.00  0.00    -0.012 C 
ATOM      3  C   UNL     1     -26.078  10.191 -27.190  1.00  0.00    -0.019 C 
ATOM      4  C   UNL     1     -27.461  10.666 -27.550  1.00  0.00     0.036 C 
ATOM      5  C   UNL     1     -27.558  11.021 -29.046  1.00  0.00     0.025 C 
ATOM      6  C   UNL     1     -26.472  12.048 -29.423  1.00  0.00     0.089 C 
ATOM      7  C   UNL     1     -25.117  11.576 -28.971  1.00  0.00     0.158 C 
ATOM      8  O   UNL     1     -24.088  12.028 -29.543  1.00  0.00    -0.295 OA
ENDROOT
BRANCH   5   9
ATOM      9  C   UNL     1     -28.950  11.515 -29.419  1.00  0.00    -0.077 C 
ATOM     10  C   UNL     1     -29.450  12.651 -28.906  1.00  0.00     0.008 C 
ATOM     11  C   UNL     1     -29.799  10.724 -30.381  1.00  0.00     0.039 C 
ENDBRANCH   5   9
TORSDOF 1
ENDMDL
MODEL 6
REMARK VINA RESULT:    -4.796     11.086     11.877
REMARK INTER + INTRA:          -5.165
REMARK INTER:                  -5.070
REMARK INTRA:                  -0.095
REMARK UNBOUND:                -0.089
REMARK SMILES C=C(C)[C@@H]1CC=C(C)C(=O)C1
REMARK SMILES IDX 8 1 7 2 6 3 5 4 4 5 11 6 9 7 10 8 2 9 1 10 3 11
REMARK H PARENT
REMARK Flexibility Score: inf
ROOT
ATOM      1  C   UNL     1     -18.947  12.006 -29.473  1.00  0.00     0.048 C 
ATOM      2  C   UNL     1     -17.786  12.844 -29.933  1.00  0.00    -0.012 C 
ATOM      3  C   UNL     1     -17.602  13.083 -31.244  1.00  0.00    -0.019 C 
ATOM      4  C   UNL     1     -16.502  13.981 -31.745  1.00  0.00     0.036 C 
ATOM      5  C   UNL     1     -15.280  13.942 -30.808  1.00  0.00     0.025 C 
ATOM      6  C   UNL     1     -15.701  14.285 -29.366  1.00  0.00     0.089 C 
ATOM      7  C   UNL     1     -16.857  13.426 -28.933  1.00  0.00     0.158 C 
ATOM      8  O   UNL     1     -17.057  13.241 -27.702  1.00  0.00    -0.295 OA
ENDROOT
BRANCH   5   9
ATOM      9  C   UNL     1     -14.165  14.856 -31.300  1.00  0.00    -0.077 C 
ATOM     10  C   UNL     1     -14.048  16.119 -30.856  1.00  0.00     0.008 C 
ATOM     11  C   UNL     1     -13.162  14.351 -32.306  1.00  0.00     0.039 C 
ENDBRANCH   5   9
TORSDOF 1
ENDMDL
MODEL 7
REMARK VINA RESULT:    -4.736      7.055      8.345
REMARK INTER + INTRA:          -5.101
REMARK INTER:                  -5.012
REMARK INTRA:                  -0.089
REMARK UNBOUND:                -0.089
REMARK SMILES C=C(C)[C@@H]1CC=C(C)C(=O)C1
REMARK SMILES IDX 8 1 7 2 6 3 5 4 4 5 11 6 9 7 10 8 2 9 1 10 3 11
REMARK H PARENT
REMARK Flexibility Score: inf
ROOT
ATOM      1  C   UNL     1     -30.053   9.921 -30.927  1.00  0.00     0.048 C 
ATOM      2  C   UNL     1     -28.928  10.903 -30.744  1.00  0.00    -0.012 C 
ATOM      3  C   UNL     1     -27.931  10.963 -31.644  1.00  0.00    -0.019 C 
ATOM      4  C   UNL     1     -26.827  11.983 -31.546  1.00  0.00     0.036 C 
ATOM      5  C   UNL     1     -26.542  12.357 -30.079  1.00  0.00     0.025 C 
ATOM      6  C   UNL     1     -27.836  12.829 -29.387  1.00  0.00     0.089 C 
ATOM      7  C   UNL     1     -28.938  11.823 -29.580  1.00  0.00     0.158 C 
ATOM      8  O   UNL     1     -29.897  11.800 -28.763  1.00  0.00    -0.295 OA
ENDROOT
BRANCH   5   9
ATOM      9  C   UNL     1     -25.435  13.398 -29.969  1.00  0.00    -0.077 C 
ATOM     10  C   UNL     1     -24.153  13.039 -29.790  1.00  0.00     0.008 C 
ATOM     11  C   UNL     1     -25.767  14.865 -30.059  1.00  0.00     0.039 C 
ENDBRANCH   5   9
TORSDOF 1
ENDMDL
MODEL 8
REMARK VINA RESULT:    -4.728      6.735      8.849
REMARK INTER + INTRA:          -5.093
REMARK INTER:                  -4.999
REMARK INTRA:                  -0.094
REMARK UNBOUND:                -0.089
REMARK SMILES C=C(C)[C@@H]1CC=C(C)C(=O)C1
REMARK SMILES IDX 8 1 7 2 6 3 5 4 4 5 11 6 9 7 10 8 2 9 1 10 3 11
REMARK H PARENT
REMARK Flexibility Score: inf
ROOT
ATOM      1  C   UNL     1     -23.280  14.750 -30.875  1.00  0.00     0.048 C 
ATOM      2  C   UNL     1     -24.344  13.908 -30.227  1.00  0.00    -0.012 C 
ATOM      3  C   UNL     1     -24.043  12.688 -29.749  1.00  0.00    -0.019 C 
ATOM      4  C   UNL     1     -25.054  11.843 -29.022  1.00  0.00     0.036 C 
ATOM      5  C   UNL     1     -26.482  12.121 -29.529  1.00  0.00     0.025 C 
ATOM      6  C   UNL     1     -26.800  13.625 -29.431  1.00  0.00     0.089 C 
ATOM      7  C   UNL     1     -25.723  14.440 -30.095  1.00  0.00     0.158 C 
ATOM      8  O   UNL     1     -25.995  15.602 -30.500  1.00  0.00    -0.295 OA
ENDROOT
BRANCH   5   9
ATOM      9  C   UNL     1     -27.516  11.280 -28.792  1.00  0.00    -0.077 C 
ATOM     10  C   UNL     1     -27.342   9.960 -28.608  1.00  0.00     0.008 C 
ATOM     11  C   UNL     1     -28.766  11.923 -28.250  1.00  0.00     0.039 C 
ENDBRANCH   5   9
TORSDOF 1
ENDMDL
MODEL 9
REMARK VINA RESULT:    -4.595     11.099     13.062
REMARK INTER + INTRA:          -4.952
REMARK INTER:                  -4.854
REMARK INTRA:                  -0.098
REMARK UNBOUND:                -0.089
REMARK SMILES C=C(C)[C@@H]1CC=C(C)C(=O)C1
REMARK SMILES IDX 8 1 7 2 6 3 5 4 4 5 11 6 9 7 10 8 2 9 1 10 3 11
REMARK H PARENT
REMARK Flexibility Score: inf
ROOT
ATOM      1  C   UNL     1     -13.611  13.954 -32.237  1.00  0.00     0.048 C 
ATOM      2  C   UNL     1     -14.821  13.312 -31.617  1.00  0.00    -0.012 C 
ATOM      3  C   UNL     1     -16.032  13.881 -31.750  1.00  0.00    -0.019 C 
ATOM      4  C   UNL     1     -17.282  13.234 -31.217  1.00  0.00     0.036 C 
ATOM      5  C   UNL     1     -16.982  12.388 -29.965  1.00  0.00     0.025 C 
ATOM      6  C   UNL     1     -15.876  11.359 -30.269  1.00  0.00     0.089 C 
ATOM      7  C   UNL     1     -14.677  12.032 -30.878  1.00  0.00     0.158 C 
ATOM      8  O   UNL     1     -13.551  11.473 -30.795  1.00  0.00    -0.295 OA
ENDROOT
BRANCH   5   9
ATOM      9  C   UNL     1     -18.239  11.718 -29.424  1.00  0.00    -0.077 C 
ATOM     10  C   UNL     1     -18.176  10.570 -28.728  1.00  0.00     0.008 C 
ATOM     11  C   UNL     1     -19.590  12.341 -29.664  1.00  0.00     0.039 C 
ENDBRANCH   5   9
TORSDOF 1
ENDMDL
