MODEL 1
REMARK VINA RESULT:    -2.546      0.000      0.000
REMARK INTER + INTRA:          -3.468
REMARK INTER:                  -3.588
REMARK INTRA:                   0.120
REMARK UNBOUND:                 0.120
REMARK SMILES CC1=CCC(=C(C)C)C(=O)CC(C)=CCC1
REMARK SMILES IDX 12 1 14 2 13 3 15 4 16 5 2 6 1 7 3 8 11 10 9 11 10 12 5 13
REMARK SMILES IDX 6 14 7 15 8 16 4 17
REMARK H PARENT
REMARK Flexibility Score: 60.00
ROOT
ATOM      1  C   UNL     1      81.805   7.105  58.294  1.00  0.00    -0.070 C 
ATOM      2  C   UNL     1      82.412   6.880  57.099  1.00  0.00    -0.027 C 
ATOM      3  C   UNL     1      82.119   8.405  58.993  1.00  0.00     0.039 C 
ENDROOT
BRANCH   2   4
ATOM      4  C   UNL     1      82.167   5.704  56.184  1.00  0.00     0.032 C 
BRANCH   4   5
ATOM      5  C   UNL     1      82.855   4.416  56.656  1.00  0.00     0.034 C 
BRANCH   5   6
ATOM      6  C   UNL     1      81.853   3.280  56.720  1.00  0.00    -0.077 C 
ATOM      7  C   UNL     1      81.107   2.913  55.463  1.00  0.00     0.039 C 
ATOM      8  C   UNL     1      81.537   2.629  57.864  1.00  0.00    -0.023 CG0
ATOM      9  G   UNL     1      82.186   2.846  59.211  1.00  0.00     0.000 G0
ENDBRANCH   5   6
ENDBRANCH   4   5
ENDBRANCH   2   4
BRANCH   1  10
ATOM     10  C   UNL     1      80.900   6.103  59.004  1.00  0.00     0.111 C 
BRANCH  10  11
ATOM     11  C   UNL     1      81.609   5.256  60.030  1.00  0.00     0.163 C 
ATOM     12  O   UNL     1      82.451   5.827  60.777  1.00  0.00    -0.294 OA
BRANCH  11  13
ATOM     13  C   UNL     1      81.394   3.776  60.149  1.00  0.00    -0.002 C 
ATOM     14  C   UNL     1      80.464   3.271  61.020  1.00  0.00    -0.069 C 
ATOM     15  C   UNL     1      80.161   1.790  61.090  1.00  0.00     0.039 C 
ATOM     16  C   UNL     1      79.725   4.159  61.997  1.00  0.00     0.039 C 
BRANCH  13  17
ATOM     17  C   UNL     1      82.193   2.841  59.241  1.00  0.00     0.066 CG0
ATOM     18  G   UNL     1      81.537   2.661  57.892  1.00  0.00     0.000 G0
ENDBRANCH  13  17
ENDBRANCH  11  13
ENDBRANCH  10  11
ENDBRANCH   1  10
TORSDOF 0
ENDMDL
MODEL 2
REMARK VINA RESULT:    -2.201      7.443      9.245
REMARK INTER + INTRA:          -2.981
REMARK INTER:                  -3.102
REMARK INTRA:                   0.121
REMARK UNBOUND:                 0.120
REMARK SMILES CC1=CCC(=C(C)C)C(=O)CC(C)=CCC1
REMARK SMILES IDX 12 1 14 2 13 3 15 4 16 5 2 6 1 7 3 8 11 10 9 11 10 12 5 13
REMARK SMILES IDX 6 14 7 15 8 16 4 17
REMARK H PARENT
REMARK Flexibility Score: 60.00
ROOT
ATOM      1  C   UNL     1      79.362   1.925  67.780  1.00  0.00    -0.070 C 
ATOM      2  C   UNL     1      79.170   2.596  66.614  1.00  0.00    -0.027 C 
ATOM      3  C   UNL     1      79.651   2.748  69.012  1.00  0.00     0.039 C 
ENDROOT
BRANCH   2   4
ATOM      4  C   UNL     1      78.771   1.988  65.291  1.00  0.00     0.032 C 
BRANCH   4   5
ATOM      5  C   UNL     1      79.951   1.369  64.529  1.00  0.00     0.034 C 
BRANCH   5   6
ATOM      6  C   UNL     1      79.584  -0.016  64.033  1.00  0.00    -0.077 C 
ATOM      7  C   UNL     1      78.418  -0.152  63.088  1.00  0.00     0.039 C 
ATOM      8  C   UNL     1      80.200  -1.146  64.455  1.00  0.00    -0.023 CG0
ATOM      9  G   UNL     1      81.391  -1.208  65.382  1.00  0.00     0.000 G0
ENDBRANCH   5   6
ENDBRANCH   4   5
ENDBRANCH   2   4
BRANCH   1  10
ATOM     10  C   UNL     1      79.386   0.404  67.905  1.00  0.00     0.111 C 
BRANCH  10  11
ATOM     11  C   UNL     1      80.749  -0.207  67.702  1.00  0.00     0.163 C 
ATOM     12  O   UNL     1      81.734   0.371  68.240  1.00  0.00    -0.294 OA
BRANCH  11  13
ATOM     13  C   UNL     1      80.976  -1.420  66.850  1.00  0.00    -0.002 C 
ATOM     14  C   UNL     1      80.773  -2.678  67.354  1.00  0.00    -0.069 C 
ATOM     15  C   UNL     1      80.901  -3.913  66.489  1.00  0.00     0.039 C 
ATOM     16  C   UNL     1      80.461  -2.908  68.818  1.00  0.00     0.039 C 
BRANCH  13  17
ATOM     17  C   UNL     1      81.383  -1.228  65.390  1.00  0.00     0.066 CG0
ATOM     18  G   UNL     1      80.187  -1.150  64.470  1.00  0.00     0.000 G0
ENDBRANCH  13  17
ENDBRANCH  11  13
ENDBRANCH  10  11
ENDBRANCH   1  10
TORSDOF 0
ENDMDL
MODEL 3
REMARK VINA RESULT:    -2.185      5.734      8.651
REMARK INTER + INTRA:          -2.959
REMARK INTER:                  -3.084
REMARK INTRA:                   0.125
REMARK UNBOUND:                 0.120
REMARK SMILES CC1=CCC(=C(C)C)C(=O)CC(C)=CCC1
REMARK SMILES IDX 12 1 14 2 13 3 15 4 16 5 2 6 1 7 3 8 11 10 9 11 10 12 5 13
REMARK SMILES IDX 6 14 7 15 8 16 4 17
REMARK H PARENT
REMARK Flexibility Score: 60.00
ROOT
ATOM      1  C   UNL     1      78.801   4.439  63.277  1.00  0.00    -0.070 C 
ATOM      2  C   UNL     1      79.862   3.820  63.856  1.00  0.00    -0.027 C 
ATOM      3  C   UNL     1      78.845   4.633  61.781  1.00  0.00     0.039 C 
ENDROOT
BRANCH   2   4
ATOM      4  C   UNL     1      79.984   3.433  65.310  1.00  0.00     0.032 C 
BRANCH   4   5
ATOM      5  C   UNL     1      79.253   2.128  65.653  1.00  0.00     0.034 C 
BRANCH   5   6
ATOM      6  C   UNL     1      78.466   2.291  66.938  1.00  0.00    -0.077 C 
ATOM      7  C   UNL     1      79.227   2.380  68.236  1.00  0.00     0.039 C 
ATOM      8  C   UNL     1      77.113   2.283  66.990  1.00  0.00    -0.023 CG0
ATOM      9  G   UNL     1      76.185   2.219  65.799  1.00  0.00     0.000 G0
ENDBRANCH   5   6
ENDBRANCH   4   5
ENDBRANCH   2   4
BRANCH   1  10
ATOM     10  C   UNL     1      77.616   5.019  64.045  1.00  0.00     0.111 C 
BRANCH  10  11
ATOM     11  C   UNL     1      76.395   4.135  64.047  1.00  0.00     0.163 C 
ATOM     12  O   UNL     1      75.868   3.865  62.932  1.00  0.00    -0.294 OA
BRANCH  11  13
ATOM     13  C   UNL     1      75.764   3.624  65.309  1.00  0.00    -0.002 C 
ATOM     14  C   UNL     1      74.818   4.365  65.968  1.00  0.00    -0.069 C 
ATOM     15  C   UNL     1      74.098   3.831  67.187  1.00  0.00     0.039 C 
ATOM     16  C   UNL     1      74.476   5.777  65.545  1.00  0.00     0.039 C 
BRANCH  13  17
ATOM     17  C   UNL     1      76.156   2.237  65.817  1.00  0.00     0.066 CG0
ATOM     18  G   UNL     1      77.110   2.308  66.986  1.00  0.00     0.000 G0
ENDBRANCH  13  17
ENDBRANCH  11  13
ENDBRANCH  10  11
ENDBRANCH   1  10
TORSDOF 0
ENDMDL
MODEL 4
REMARK VINA RESULT:    -2.120      6.404      9.054
REMARK INTER + INTRA:          -2.868
REMARK INTER:                  -2.985
REMARK INTRA:                   0.117
REMARK UNBOUND:                 0.120
REMARK SMILES CC1=CCC(=C(C)C)C(=O)CC(C)=CCC1
REMARK SMILES IDX 12 1 14 2 13 3 15 4 16 5 2 6 1 7 3 8 11 10 9 11 10 12 5 13
REMARK SMILES IDX 6 14 7 15 8 16 4 17
REMARK H PARENT
REMARK Flexibility Score: 60.00
ROOT
ATOM      1  C   UNL     1      79.251   1.538  67.436  1.00  0.00    -0.070 C 
ATOM      2  C   UNL     1      80.163   1.654  66.436  1.00  0.00    -0.027 C 
ATOM      3  C   UNL     1      79.444   0.412  68.422  1.00  0.00     0.039 C 
ENDROOT
BRANCH   2   4
ATOM      4  C   UNL     1      80.223   2.757  65.407  1.00  0.00     0.032 C 
BRANCH   4   5
ATOM      5  C   UNL     1      79.255   2.546  64.236  1.00  0.00     0.034 C 
BRANCH   5   6
ATOM      6  C   UNL     1      78.535   3.840  63.912  1.00  0.00    -0.077 C 
ATOM      7  C   UNL     1      79.357   5.028  63.482  1.00  0.00     0.039 C 
ATOM      8  C   UNL     1      77.200   4.009  64.063  1.00  0.00    -0.023 CG0
ATOM      9  G   UNL     1      76.216   2.936  64.467  1.00  0.00     0.000 G0
ENDBRANCH   5   6
ENDBRANCH   4   5
ENDBRANCH   2   4
BRANCH   1  10
ATOM     10  C   UNL     1      78.009   2.415  67.576  1.00  0.00     0.111 C 
BRANCH  10  11
ATOM     11  C   UNL     1      76.825   1.934  66.776  1.00  0.00     0.163 C 
ATOM     12  O   UNL     1      76.597   0.693  66.762  1.00  0.00    -0.294 OA
BRANCH  11  13
ATOM     13  C   UNL     1      75.963   2.857  65.967  1.00  0.00    -0.002 C 
ATOM     14  C   UNL     1      75.029   3.655  66.575  1.00  0.00    -0.069 C 
ATOM     15  C   UNL     1      74.214   4.663  65.793  1.00  0.00     0.039 C 
ATOM     16  C   UNL     1      74.722   3.538  68.052  1.00  0.00     0.039 C 
BRANCH  13  17
ATOM     17  C   UNL     1      76.182   2.933  64.457  1.00  0.00     0.066 CG0
ATOM     18  G   UNL     1      77.185   3.998  64.080  1.00  0.00     0.000 G0
ENDBRANCH  13  17
ENDBRANCH  11  13
ENDBRANCH  10  11
ENDBRANCH   1  10
TORSDOF 0
ENDMDL
MODEL 5
REMARK VINA RESULT:    -1.940      6.025      8.541
REMARK INTER + INTRA:          -2.613
REMARK INTER:                  -2.991
REMARK INTRA:                   0.378
REMARK UNBOUND:                 0.120
REMARK SMILES CC1=CCC(=C(C)C)C(=O)CC(C)=CCC1
REMARK SMILES IDX 12 1 14 2 13 3 15 4 16 5 2 6 1 7 3 8 11 10 9 11 10 12 5 13
REMARK SMILES IDX 6 14 7 15 8 16 4 17
REMARK H PARENT
REMARK Flexibility Score: 60.00
ROOT
ATOM      1  C   UNL     1      79.611   3.372  63.806  1.00  0.00    -0.070 C 
ATOM      2  C   UNL     1      80.081   3.459  65.078  1.00  0.00    -0.027 C 
ATOM      3  C   UNL     1      79.797   4.576  62.916  1.00  0.00     0.039 C 
ENDROOT
BRANCH   2   4
ATOM      4  C   UNL     1      80.094   2.349  66.102  1.00  0.00     0.032 C 
BRANCH   4   5
ATOM      5  C   UNL     1      79.155   2.607  67.287  1.00  0.00     0.034 C 
BRANCH   5   6
ATOM      6  C   UNL     1      77.926   1.726  67.182  1.00  0.00    -0.077 C 
ATOM      7  C   UNL     1      77.971   0.358  67.813  1.00  0.00     0.039 C 
ATOM      8  C   UNL     1      76.817   2.072  66.486  1.00  0.00    -0.023 CG0
ATOM      9  G   UNL     1      76.583   3.399  65.803  1.00  0.00     0.000 G0
ENDBRANCH   5   6
ENDBRANCH   4   5
ENDBRANCH   2   4
BRANCH   1  10
ATOM     10  C   UNL     1      78.841   2.176  63.252  1.00  0.00     0.111 C 
BRANCH  10  11
ATOM     11  C   UNL     1      77.401   2.117  63.692  1.00  0.00     0.163 C 
ATOM     12  O   UNL     1      76.777   1.036  63.504  1.00  0.00    -0.294 OA
BRANCH  11  13
ATOM     13  C   UNL     1      76.683   3.296  64.280  1.00  0.00    -0.002 C 
ATOM     14  C   UNL     1      76.103   4.238  63.471  1.00  0.00    -0.069 C 
ATOM     15  C   UNL     1      75.292   5.383  64.037  1.00  0.00     0.039 C 
ATOM     16  C   UNL     1      76.283   4.215  61.968  1.00  0.00     0.039 C 
BRANCH  13  17
ATOM     17  C   UNL     1      76.561   3.400  65.799  1.00  0.00     0.066 CG0
ATOM     18  G   UNL     1      76.802   2.074  66.482  1.00  0.00     0.000 G0
ENDBRANCH  13  17
ENDBRANCH  11  13
ENDBRANCH  10  11
ENDBRANCH   1  10
TORSDOF 0
ENDMDL
MODEL 6
REMARK VINA RESULT:    -1.923      4.807      7.010
REMARK INTER + INTRA:          -2.589
REMARK INTER:                  -2.865
REMARK INTRA:                   0.276
REMARK UNBOUND:                 0.120
REMARK SMILES CC1=CCC(=C(C)C)C(=O)CC(C)=CCC1
REMARK SMILES IDX 12 1 14 2 13 3 15 4 16 5 2 6 1 7 3 8 11 10 9 11 10 12 5 13
REMARK SMILES IDX 6 14 7 15 8 16 4 17
REMARK H PARENT
REMARK Flexibility Score: 60.00
ROOT
ATOM      1  C   UNL     1      78.997   3.810  52.586  1.00  0.00    -0.070 C 
ATOM      2  C   UNL     1      79.410   3.772  51.292  1.00  0.00    -0.027 C 
ATOM      3  C   UNL     1      79.363   5.032  53.392  1.00  0.00     0.039 C 
ENDROOT
BRANCH   2   4
ATOM      4  C   UNL     1      79.073   2.704  50.280  1.00  0.00     0.032 C 
BRANCH   4   5
ATOM      5  C   UNL     1      80.272   1.821  49.908  1.00  0.00     0.034 C 
BRANCH   5   6
ATOM      6  C   UNL     1      80.185   0.489  50.626  1.00  0.00    -0.077 C 
ATOM      7  C   UNL     1      79.449  -0.640  49.951  1.00  0.00     0.039 C 
ATOM      8  C   UNL     1      80.666   0.282  51.875  1.00  0.00    -0.023 CG0
ATOM      9  G   UNL     1      81.442   1.283  52.698  1.00  0.00     0.000 G0
ENDBRANCH   5   6
ENDBRANCH   4   5
ENDBRANCH   2   4
BRANCH   1  10
ATOM     10  C   UNL     1      78.266   2.671  53.291  1.00  0.00     0.111 C 
BRANCH  10  11
ATOM     11  C   UNL     1      79.181   1.657  53.928  1.00  0.00     0.163 C 
ATOM     12  O   UNL     1      78.647   0.687  54.533  1.00  0.00    -0.294 OA
BRANCH  11  13
ATOM     13  C   UNL     1      80.675   1.792  53.916  1.00  0.00    -0.002 C 
ATOM     14  C   UNL     1      81.340   2.312  54.996  1.00  0.00    -0.069 C 
ATOM     15  C   UNL     1      82.851   2.370  55.048  1.00  0.00     0.039 C 
ATOM     16  C   UNL     1      80.600   2.905  56.176  1.00  0.00     0.039 C 
BRANCH  13  17
ATOM     17  C   UNL     1      81.450   1.287  52.699  1.00  0.00     0.066 CG0
ATOM     18  G   UNL     1      80.660   0.277  51.901  1.00  0.00     0.000 G0
ENDBRANCH  13  17
ENDBRANCH  11  13
ENDBRANCH  10  11
ENDBRANCH   1  10
TORSDOF 0
ENDMDL
MODEL 7
REMARK VINA RESULT:    -1.916     15.220     16.271
REMARK INTER + INTRA:          -2.579
REMARK INTER:                  -2.700
REMARK INTRA:                   0.121
REMARK UNBOUND:                 0.120
REMARK SMILES CC1=CCC(=C(C)C)C(=O)CC(C)=CCC1
REMARK SMILES IDX 12 1 14 2 13 3 15 4 16 5 2 6 1 7 3 8 11 10 9 11 10 12 5 13
REMARK SMILES IDX 6 14 7 15 8 16 4 17
REMARK H PARENT
REMARK Flexibility Score: 60.00
ROOT
ATOM      1  C   UNL     1      68.037   7.102  53.560  1.00  0.00    -0.070 C 
ATOM      2  C   UNL     1      68.322   6.972  54.882  1.00  0.00    -0.027 C 
ATOM      3  C   UNL     1      69.013   7.885  52.716  1.00  0.00     0.039 C 
ENDROOT
BRANCH   2   4
ATOM      4  C   UNL     1      67.546   6.152  55.885  1.00  0.00     0.032 C 
BRANCH   4   5
ATOM      5  C   UNL     1      67.757   4.640  55.723  1.00  0.00     0.034 C 
BRANCH   5   6
ATOM      6  C   UNL     1      66.426   3.918  55.771  1.00  0.00    -0.077 C 
ATOM      7  C   UNL     1      65.637   3.955  57.055  1.00  0.00     0.039 C 
ATOM      8  C   UNL     1      65.943   3.175  54.746  1.00  0.00    -0.023 CG0
ATOM      9  G   UNL     1      66.581   3.032  53.384  1.00  0.00     0.000 G0
ENDBRANCH   5   6
ENDBRANCH   4   5
ENDBRANCH   2   4
BRANCH   1  10
ATOM     10  C   UNL     1      66.764   6.583  52.897  1.00  0.00     0.111 C 
BRANCH  10  11
ATOM     11  C   UNL     1      66.947   5.288  52.149  1.00  0.00     0.163 C 
ATOM     12  O   UNL     1      67.839   5.250  51.256  1.00  0.00    -0.294 OA
BRANCH  11  13
ATOM     13  C   UNL     1      66.083   4.084  52.385  1.00  0.00    -0.002 C 
ATOM     14  C   UNL     1      64.907   3.921  51.699  1.00  0.00    -0.069 C 
ATOM     15  C   UNL     1      64.067   2.672  51.848  1.00  0.00     0.039 C 
ATOM     16  C   UNL     1      64.357   5.002  50.795  1.00  0.00     0.039 C 
BRANCH  13  17
ATOM     17  C   UNL     1      66.564   3.014  53.364  1.00  0.00     0.066 CG0
ATOM     18  G   UNL     1      65.953   3.181  54.735  1.00  0.00     0.000 G0
ENDBRANCH  13  17
ENDBRANCH  11  13
ENDBRANCH  10  11
ENDBRANCH   1  10
TORSDOF 0
ENDMDL
MODEL 8
REMARK VINA RESULT:    -1.899      8.124     10.161
REMARK INTER + INTRA:          -2.556
REMARK INTER:                  -2.855
REMARK INTRA:                   0.300
REMARK UNBOUND:                 0.120
REMARK SMILES CC1=CCC(=C(C)C)C(=O)CC(C)=CCC1
REMARK SMILES IDX 12 1 14 2 13 3 15 4 16 5 2 6 1 7 3 8 11 10 9 11 10 12 5 13
REMARK SMILES IDX 6 14 7 15 8 16 4 17
REMARK H PARENT
REMARK Flexibility Score: 60.00
ROOT
ATOM      1  C   UNL     1      80.123  -0.741  64.522  1.00  0.00    -0.070 C 
ATOM      2  C   UNL     1      79.470   0.447  64.612  1.00  0.00    -0.027 C 
ATOM      3  C   UNL     1      79.395  -1.880  63.851  1.00  0.00     0.039 C 
ENDROOT
BRANCH   2   4
ATOM      4  C   UNL     1      80.040   1.739  65.147  1.00  0.00     0.032 C 
BRANCH   4   5
ATOM      5  C   UNL     1      79.357   2.215  66.436  1.00  0.00     0.034 C 
BRANCH   5   6
ATOM      6  C   UNL     1      80.262   1.970  67.628  1.00  0.00    -0.077 C 
ATOM      7  C   UNL     1      81.205   3.067  68.048  1.00  0.00     0.039 C 
ATOM      8  C   UNL     1      80.322   0.789  68.288  1.00  0.00    -0.023 CG0
ATOM      9  G   UNL     1      79.448  -0.415  68.024  1.00  0.00     0.000 G0
ENDBRANCH   5   6
ENDBRANCH   4   5
ENDBRANCH   2   4
BRANCH   1  10
ATOM     10  C   UNL     1      81.498  -1.016  65.124  1.00  0.00     0.111 C 
BRANCH  10  11
ATOM     11  C   UNL     1      81.477  -1.272  66.609  1.00  0.00     0.163 C 
ATOM     12  O   UNL     1      82.583  -1.274  67.217  1.00  0.00    -0.294 OA
BRANCH  11  13
ATOM     13  C   UNL     1      80.216  -1.577  67.362  1.00  0.00    -0.002 C 
ATOM     14  C   UNL     1      79.786  -2.870  67.514  1.00  0.00    -0.069 C 
ATOM     15  C   UNL     1      78.571  -3.212  68.349  1.00  0.00     0.039 C 
ATOM     16  C   UNL     1      80.470  -4.023  66.812  1.00  0.00     0.039 C 
BRANCH  13  17
ATOM     17  C   UNL     1      79.447  -0.425  68.007  1.00  0.00     0.066 CG0
ATOM     18  G   UNL     1      80.332   0.770  68.276  1.00  0.00     0.000 G0
ENDBRANCH  13  17
ENDBRANCH  11  13
ENDBRANCH  10  11
ENDBRANCH   1  10
TORSDOF 0
ENDMDL
MODEL 9
REMARK VINA RESULT:    -1.792      7.301      8.984
REMARK INTER + INTRA:          -2.405
REMARK INTER:                  -2.615
REMARK INTRA:                   0.211
REMARK UNBOUND:                 0.120
REMARK SMILES CC1=CCC(=C(C)C)C(=O)CC(C)=CCC1
REMARK SMILES IDX 12 1 14 2 13 3 15 4 16 5 2 6 1 7 3 8 11 10 9 11 10 12 5 13
REMARK SMILES IDX 6 14 7 15 8 16 4 17
REMARK H PARENT
REMARK Flexibility Score: 60.00
ROOT
ATOM      1  C   UNL     1      80.887   0.560  67.852  1.00  0.00    -0.070 C 
ATOM      2  C   UNL     1      80.871   1.894  67.599  1.00  0.00    -0.027 C 
ATOM      3  C   UNL     1      82.011   0.032  68.709  1.00  0.00     0.039 C 
ENDROOT
BRANCH   2   4
ATOM      4  C   UNL     1      79.793   2.648  66.858  1.00  0.00     0.032 C 
BRANCH   4   5
ATOM      5  C   UNL     1      79.961   2.602  65.333  1.00  0.00     0.034 C 
BRANCH   5   6
ATOM      6  C   UNL     1      78.622   2.353  64.666  1.00  0.00    -0.077 C 
ATOM      7  C   UNL     1      77.530   3.376  64.851  1.00  0.00     0.039 C 
ATOM      8  C   UNL     1      78.331   1.225  63.977  1.00  0.00    -0.023 CG0
ATOM      9  G   UNL     1      79.295   0.102  63.675  1.00  0.00     0.000 G0
ENDBRANCH   5   6
ENDBRANCH   4   5
ENDBRANCH   2   4
BRANCH   1  10
ATOM     10  C   UNL     1      79.896  -0.441  67.263  1.00  0.00     0.111 C 
BRANCH  10  11
ATOM     11  C   UNL     1      80.263  -0.926  65.883  1.00  0.00     0.163 C 
ATOM     12  O   UNL     1      81.468  -1.236  65.674  1.00  0.00    -0.294 OA
BRANCH  11  13
ATOM     13  C   UNL     1      79.273  -0.995  64.758  1.00  0.00    -0.002 C 
ATOM     14  C   UNL     1      78.326  -1.986  64.717  1.00  0.00    -0.069 C 
ATOM     15  C   UNL     1      77.258  -2.022  63.647  1.00  0.00     0.039 C 
ATOM     16  C   UNL     1      78.328  -3.128  65.710  1.00  0.00     0.039 C 
BRANCH  13  17
ATOM     17  C   UNL     1      79.302   0.092  63.685  1.00  0.00     0.066 CG0
ATOM     18  G   UNL     1      78.322   1.204  63.974  1.00  0.00     0.000 G0
ENDBRANCH  13  17
ENDBRANCH  11  13
ENDBRANCH  10  11
ENDBRANCH   1  10
TORSDOF 0
ENDMDL
