MODEL 1
REMARK VINA RESULT:    -3.643      0.000      0.000
REMARK INTER + INTRA:          -4.153
REMARK INTER:                  -3.962
REMARK INTRA:                  -0.191
REMARK UNBOUND:                -0.191
REMARK SMILES C=C(C)[C@@H]1CC[C@@H](C)C[C@@H]1O
REMARK SMILES IDX 8 1 7 2 6 3 5 4 4 5 10 6 9 7 11 8 2 10 1 11 3 12
REMARK H PARENT 11 9
REMARK Flexibility Score: inf
ROOT
ATOM      1  C   UNL     1       7.497   1.579   1.455  1.00  0.00     0.008 C 
ATOM      2  C   UNL     1       7.315   2.634   0.358  1.00  0.00    -0.012 C 
ATOM      3  C   UNL     1       5.818   2.886   0.094  1.00  0.00     0.004 C 
ATOM      4  C   UNL     1       5.618   3.919  -1.022  1.00  0.00     0.011 C 
ATOM      5  C   UNL     1       6.336   3.475  -2.314  1.00  0.00     0.043 C 
ATOM      6  C   UNL     1       7.843   3.229  -2.064  1.00  0.00     0.121 C 
ATOM      7  C   UNL     1       8.033   2.197  -0.935  1.00  0.00     0.035 C 
ENDROOT
BRANCH   6   8
ATOM      8  O   UNL     1       8.494   4.429  -1.729  1.00  0.00    -0.392 OA
ATOM      9  H   UNL     1       7.923   5.170  -2.061  1.00  0.00     0.210 HD
ENDBRANCH   6   8
BRANCH   5  10
ATOM     10  C   UNL     1       6.092   4.439  -3.472  1.00  0.00    -0.075 C 
ATOM     11  C   UNL     1       6.532   4.178  -4.714  1.00  0.00     0.008 C 
ATOM     12  C   UNL     1       5.343   5.726  -3.235  1.00  0.00     0.039 C 
ENDBRANCH   5  10
TORSDOF 2
ENDMDL
MODEL 2
REMARK VINA RESULT:    -3.425      2.327      5.031
REMARK INTER + INTRA:          -3.916
REMARK INTER:                  -3.733
REMARK INTRA:                  -0.183
REMARK UNBOUND:                -0.191
REMARK SMILES C=C(C)[C@@H]1CC[C@@H](C)C[C@@H]1O
REMARK SMILES IDX 8 1 7 2 6 3 5 4 4 5 10 6 9 7 11 8 2 10 1 11 3 12
REMARK H PARENT 11 9
REMARK Flexibility Score: inf
ROOT
ATOM      1  C   UNL     1       5.438   2.821  -2.941  1.00  0.00     0.008 C 
ATOM      2  C   UNL     1       5.763   2.346  -1.522  1.00  0.00    -0.012 C 
ATOM      3  C   UNL     1       6.257   3.524  -0.658  1.00  0.00     0.004 C 
ATOM      4  C   UNL     1       6.615   3.059   0.759  1.00  0.00     0.011 C 
ATOM      5  C   UNL     1       7.668   1.933   0.716  1.00  0.00     0.043 C 
ATOM      6  C   UNL     1       7.181   0.740  -0.140  1.00  0.00     0.121 C 
ATOM      7  C   UNL     1       6.814   1.218  -1.558  1.00  0.00     0.035 C 
ENDROOT
BRANCH   6   8
ATOM      8  O   UNL     1       6.069   0.120   0.458  1.00  0.00    -0.392 OA
ATOM      9  H   UNL     1       6.355  -0.793   0.720  1.00  0.00     0.210 HD
ENDBRANCH   6   8
BRANCH   5  10
ATOM     10  C   UNL     1       8.111   1.501   2.112  1.00  0.00    -0.075 C 
ATOM     11  C   UNL     1       7.676   2.129   3.217  1.00  0.00     0.008 C 
ATOM     12  C   UNL     1       9.065   0.345   2.274  1.00  0.00     0.039 C 
ENDBRANCH   5  10
TORSDOF 2
ENDMDL
MODEL 3
REMARK VINA RESULT:    -3.337      1.462      4.471
REMARK INTER + INTRA:          -3.820
REMARK INTER:                  -3.629
REMARK INTRA:                  -0.191
REMARK UNBOUND:                -0.191
REMARK SMILES C=C(C)[C@@H]1CC[C@@H](C)C[C@@H]1O
REMARK SMILES IDX 8 1 7 2 6 3 5 4 4 5 10 6 9 7 11 8 2 10 1 11 3 12
REMARK H PARENT 11 9
REMARK Flexibility Score: inf
ROOT
ATOM      1  C   UNL     1       5.851   5.567  -4.315  1.00  0.00     0.008 C 
ATOM      2  C   UNL     1       6.327   4.889  -3.026  1.00  0.00    -0.012 C 
ATOM      3  C   UNL     1       7.642   4.123  -3.272  1.00  0.00     0.004 C 
ATOM      4  C   UNL     1       8.116   3.413  -1.998  1.00  0.00     0.011 C 
ATOM      5  C   UNL     1       7.023   2.466  -1.459  1.00  0.00     0.043 C 
ATOM      6  C   UNL     1       5.701   3.225  -1.197  1.00  0.00     0.121 C 
ATOM      7  C   UNL     1       5.237   3.943  -2.480  1.00  0.00     0.035 C 
ENDROOT
BRANCH   6   8
ATOM      8  O   UNL     1       5.860   4.160  -0.159  1.00  0.00    -0.392 OA
ATOM      9  H   UNL     1       6.828   4.189   0.057  1.00  0.00     0.210 HD
ENDBRANCH   6   8
BRANCH   5  10
ATOM     10  C   UNL     1       7.490   1.680  -0.236  1.00  0.00    -0.075 C 
ATOM     11  C   UNL     1       8.632   1.982   0.405  1.00  0.00     0.008 C 
ATOM     12  C   UNL     1       6.665   0.528   0.277  1.00  0.00     0.039 C 
ENDBRANCH   5  10
TORSDOF 2
ENDMDL
MODEL 4
REMARK VINA RESULT:    -3.323      1.442      2.121
REMARK INTER + INTRA:          -3.805
REMARK INTER:                  -3.612
REMARK INTRA:                  -0.193
REMARK UNBOUND:                -0.191
REMARK SMILES C=C(C)[C@@H]1CC[C@@H](C)C[C@@H]1O
REMARK SMILES IDX 8 1 7 2 6 3 5 4 4 5 10 6 9 7 11 8 2 10 1 11 3 12
REMARK H PARENT 11 9
REMARK Flexibility Score: inf
ROOT
ATOM      1  C   UNL     1       7.756   1.699   2.080  1.00  0.00     0.008 C 
ATOM      2  C   UNL     1       7.462   1.945   0.597  1.00  0.00    -0.012 C 
ATOM      3  C   UNL     1       8.744   2.370  -0.145  1.00  0.00     0.004 C 
ATOM      4  C   UNL     1       8.460   2.648  -1.627  1.00  0.00     0.011 C 
ATOM      5  C   UNL     1       7.359   3.717  -1.781  1.00  0.00     0.043 C 
ATOM      6  C   UNL     1       6.062   3.298  -1.049  1.00  0.00     0.121 C 
ATOM      7  C   UNL     1       6.359   3.011   0.435  1.00  0.00     0.035 C 
ENDROOT
BRANCH   6   8
ATOM      8  O   UNL     1       5.496   2.161  -1.651  1.00  0.00    -0.392 OA
ATOM      9  H   UNL     1       4.629   1.995  -1.197  1.00  0.00     0.210 HD
ENDBRANCH   6   8
BRANCH   5  10
ATOM     10  C   UNL     1       7.106   4.080  -3.242  1.00  0.00    -0.075 C 
ATOM     11  C   UNL     1       7.681   3.401  -4.249  1.00  0.00     0.008 C 
ATOM     12  C   UNL     1       6.195   5.231  -3.585  1.00  0.00     0.039 C 
ENDBRANCH   5  10
TORSDOF 2
ENDMDL
MODEL 5
REMARK VINA RESULT:    -3.276     11.523     11.850
REMARK INTER + INTRA:          -3.754
REMARK INTER:                  -3.564
REMARK INTRA:                  -0.190
REMARK UNBOUND:                -0.191
REMARK SMILES C=C(C)[C@@H]1CC[C@@H](C)C[C@@H]1O
REMARK SMILES IDX 8 1 7 2 6 3 5 4 4 5 10 6 9 7 11 8 2 10 1 11 3 12
REMARK H PARENT 11 9
REMARK Flexibility Score: inf
ROOT
ATOM      1  C   UNL     1       1.082  -7.114  -4.968  1.00  0.00     0.008 C 
ATOM      2  C   UNL     1       0.133  -5.916  -4.860  1.00  0.00    -0.012 C 
ATOM      3  C   UNL     1      -1.224  -6.242  -5.515  1.00  0.00     0.004 C 
ATOM      4  C   UNL     1      -2.177  -5.042  -5.442  1.00  0.00     0.011 C 
ATOM      5  C   UNL     1      -1.540  -3.797  -6.092  1.00  0.00     0.043 C 
ATOM      6  C   UNL     1      -0.181  -3.452  -5.437  1.00  0.00     0.121 C 
ATOM      7  C   UNL     1       0.765  -4.667  -5.507  1.00  0.00     0.035 C 
ENDROOT
BRANCH   6   8
ATOM      8  O   UNL     1      -0.359  -3.062  -4.098  1.00  0.00    -0.392 OA
ATOM      9  H   UNL     1      -1.125  -3.585  -3.745  1.00  0.00     0.210 HD
ENDBRANCH   6   8
BRANCH   5  10
ATOM     10  C   UNL     1      -2.491  -2.603  -6.111  1.00  0.00    -0.075 C 
ATOM     11  C   UNL     1      -3.747  -2.693  -5.641  1.00  0.00     0.008 C 
ATOM     12  C   UNL     1      -2.031  -1.283  -6.674  1.00  0.00     0.039 C 
ENDBRANCH   5  10
TORSDOF 2
ENDMDL
MODEL 6
REMARK VINA RESULT:    -3.227     13.754     14.369
REMARK INTER + INTRA:          -3.701
REMARK INTER:                  -3.514
REMARK INTRA:                  -0.187
REMARK UNBOUND:                -0.191
REMARK SMILES C=C(C)[C@@H]1CC[C@@H](C)C[C@@H]1O
REMARK SMILES IDX 8 1 7 2 6 3 5 4 4 5 10 6 9 7 11 8 2 10 1 11 3 12
REMARK H PARENT 11 9
REMARK Flexibility Score: inf
ROOT
ATOM      1  C   UNL     1      -2.449  -3.410  -5.642  1.00  0.00     0.008 C 
ATOM      2  C   UNL     1      -2.101  -4.902  -5.643  1.00  0.00    -0.012 C 
ATOM      3  C   UNL     1      -0.648  -5.117  -5.176  1.00  0.00     0.004 C 
ATOM      4  C   UNL     1      -0.273  -6.605  -5.199  1.00  0.00     0.011 C 
ATOM      5  C   UNL     1      -0.491  -7.202  -6.605  1.00  0.00     0.043 C 
ATOM      6  C   UNL     1      -1.949  -7.001  -7.082  1.00  0.00     0.121 C 
ATOM      7  C   UNL     1      -2.318  -5.505  -7.046  1.00  0.00     0.035 C 
ENDROOT
BRANCH   6   8
ATOM      8  O   UNL     1      -2.840  -7.733  -6.279  1.00  0.00    -0.392 OA
ATOM      9  H   UNL     1      -2.834  -7.310  -5.381  1.00  0.00     0.210 HD
ENDBRANCH   6   8
BRANCH   5  10
ATOM     10  C   UNL     1      -0.051  -8.661  -6.688  1.00  0.00    -0.075 C 
ATOM     11  C   UNL     1       0.174  -9.266  -7.867  1.00  0.00     0.008 C 
ATOM     12  C   UNL     1       0.136  -9.464  -5.426  1.00  0.00     0.039 C 
ENDBRANCH   5  10
TORSDOF 2
ENDMDL
MODEL 7
REMARK VINA RESULT:    -3.206     12.236     13.216
REMARK INTER + INTRA:          -3.678
REMARK INTER:                  -3.563
REMARK INTRA:                  -0.114
REMARK UNBOUND:                -0.191
REMARK SMILES C=C(C)[C@@H]1CC[C@@H](C)C[C@@H]1O
REMARK SMILES IDX 8 1 7 2 6 3 5 4 4 5 10 6 9 7 11 8 2 10 1 11 3 12
REMARK H PARENT 11 9
REMARK Flexibility Score: inf
ROOT
ATOM      1  C   UNL     1      -4.863  -0.834  -7.549  1.00  0.00     0.008 C 
ATOM      2  C   UNL     1      -3.730  -1.645  -6.914  1.00  0.00    -0.012 C 
ATOM      3  C   UNL     1      -3.008  -2.491  -7.981  1.00  0.00     0.004 C 
ATOM      4  C   UNL     1      -1.888  -3.333  -7.355  1.00  0.00     0.011 C 
ATOM      5  C   UNL     1      -2.441  -4.229  -6.227  1.00  0.00     0.043 C 
ATOM      6  C   UNL     1      -3.160  -3.390  -5.144  1.00  0.00     0.121 C 
ATOM      7  C   UNL     1      -4.276  -2.541  -5.783  1.00  0.00     0.035 C 
ENDROOT
BRANCH   6   8
ATOM      8  O   UNL     1      -2.248  -2.554  -4.475  1.00  0.00    -0.392 OA
ATOM      9  H   UNL     1      -1.368  -3.012  -4.497  1.00  0.00     0.210 HD
ENDBRANCH   6   8
BRANCH   5  10
ATOM     10  C   UNL     1      -1.370  -5.141  -5.635  1.00  0.00    -0.075 C 
ATOM     11  C   UNL     1      -1.670  -6.354  -5.141  1.00  0.00     0.008 C 
ATOM     12  C   UNL     1       0.066  -4.685  -5.591  1.00  0.00     0.039 C 
ENDBRANCH   5  10
TORSDOF 2
ENDMDL
MODEL 8
REMARK VINA RESULT:    -3.202     11.956     12.296
REMARK INTER + INTRA:          -3.673
REMARK INTER:                  -3.480
REMARK INTRA:                  -0.194
REMARK UNBOUND:                -0.191
REMARK SMILES C=C(C)[C@@H]1CC[C@@H](C)C[C@@H]1O
REMARK SMILES IDX 8 1 7 2 6 3 5 4 4 5 10 6 9 7 11 8 2 10 1 11 3 12
REMARK H PARENT 11 9
REMARK Flexibility Score: inf
ROOT
ATOM      1  C   UNL     1       0.849  -6.902  -4.574  1.00  0.00     0.008 C 
ATOM      2  C   UNL     1       0.051  -5.810  -5.292  1.00  0.00    -0.012 C 
ATOM      3  C   UNL     1       0.343  -4.430  -4.670  1.00  0.00     0.004 C 
ATOM      4  C   UNL     1      -0.472  -3.328  -5.359  1.00  0.00     0.011 C 
ATOM      5  C   UNL     1      -1.980  -3.646  -5.303  1.00  0.00     0.043 C 
ATOM      6  C   UNL     1      -2.289  -5.024  -5.934  1.00  0.00     0.121 C 
ATOM      7  C   UNL     1      -1.459  -6.123  -5.242  1.00  0.00     0.035 C 
ENDROOT
BRANCH   6   8
ATOM      8  O   UNL     1      -2.011  -5.014  -7.312  1.00  0.00    -0.392 OA
ATOM      9  H   UNL     1      -2.876  -4.875  -7.779  1.00  0.00     0.210 HD
ENDBRANCH   6   8
BRANCH   5  10
ATOM     10  C   UNL     1      -2.829  -2.531  -5.907  1.00  0.00    -0.075 C 
ATOM     11  C   UNL     1      -2.274  -1.433  -6.447  1.00  0.00     0.008 C 
ATOM     12  C   UNL     1      -4.333  -2.643  -5.902  1.00  0.00     0.039 C 
ENDBRANCH   5  10
TORSDOF 2
ENDMDL
MODEL 9
REMARK VINA RESULT:    -3.130      3.119      4.437
REMARK INTER + INTRA:          -3.595
REMARK INTER:                  -3.403
REMARK INTRA:                  -0.192
REMARK UNBOUND:                -0.191
REMARK SMILES C=C(C)[C@@H]1CC[C@@H](C)C[C@@H]1O
REMARK SMILES IDX 8 1 7 2 6 3 5 4 4 5 10 6 9 7 11 8 2 10 1 11 3 12
REMARK H PARENT 11 9
REMARK Flexibility Score: inf
ROOT
ATOM      1  C   UNL     1       4.935  -2.227  -3.006  1.00  0.00     0.008 C 
ATOM      2  C   UNL     1       5.669  -1.104  -2.268  1.00  0.00    -0.012 C 
ATOM      3  C   UNL     1       5.394  -1.183  -0.753  1.00  0.00     0.004 C 
ATOM      4  C   UNL     1       6.100  -0.046  -0.002  1.00  0.00     0.011 C 
ATOM      5  C   UNL     1       5.678   1.327  -0.565  1.00  0.00     0.043 C 
ATOM      6  C   UNL     1       5.958   1.423  -2.083  1.00  0.00     0.121 C 
ATOM      7  C   UNL     1       5.254   0.272  -2.827  1.00  0.00     0.035 C 
ENDROOT
BRANCH   6   8
ATOM      8  O   UNL     1       7.340   1.380  -2.337  1.00  0.00    -0.392 OA
ATOM      9  H   UNL     1       7.743   0.791  -1.648  1.00  0.00     0.210 HD
ENDBRANCH   6   8
BRANCH   5  10
ATOM     10  C   UNL     1       6.297   2.485   0.212  1.00  0.00    -0.075 C 
ATOM     11  C   UNL     1       5.915   3.758   0.009  1.00  0.00     0.008 C 
ATOM     12  C   UNL     1       7.371   2.217   1.235  1.00  0.00     0.039 C 
ENDBRANCH   5  10
TORSDOF 2
ENDMDL
