MODEL 1
REMARK VINA RESULT:    -5.042      0.000      0.000
REMARK INTER + INTRA:         -10.687
REMARK INTER:                  -9.168
REMARK INTRA:                  -1.519
REMARK UNBOUND:                -1.519
REMARK SMILES CCCCCCCCCCCCCC[C@H](C)C(=O)[O-]
REMARK SMILES IDX 9 1 10 2 11 3 12 4 13 5 14 6 15 7 16 8 17 9 18 10 19 11 8 12
REMARK SMILES IDX 7 13 6 14 5 15 4 16 3 17 2 18 1 19
REMARK H PARENT
REMARK Flexibility Score: inf
ROOT
ATOM      1  C   UNL     1     -20.257  -3.895  24.053  1.00  0.00     0.000 C 
ENDROOT
BRANCH   1   2
ATOM      2  C   UNL     1     -19.124  -3.000  23.519  1.00  0.00     0.000 C 
BRANCH   2   3
ATOM      3  C   UNL     1     -18.287  -3.616  22.383  1.00  0.00     0.000 C 
BRANCH   3   4
ATOM      4  C   UNL     1     -16.794  -3.733  22.736  1.00  0.00     0.000 C 
BRANCH   4   5
ATOM      5  C   UNL     1     -16.254  -5.158  22.545  1.00  0.00     0.001 C 
BRANCH   5   6
ATOM      6  C   UNL     1     -17.015  -5.936  21.455  1.00  0.00     0.009 C 
BRANCH   6   7
ATOM      7  C   UNL     1     -16.074  -6.742  20.533  1.00  0.00     0.032 C 
ATOM      8  C   UNL     1     -14.672  -6.909  21.137  1.00  0.00     0.014 C 
BRANCH   7   9
ATOM      9  C   UNL     1     -15.968  -6.062  19.196  1.00  0.00     0.044 C 
ATOM     10  O   UNL     1     -15.405  -4.939  19.099  1.00  0.00    -0.550 OA
ATOM     11  O   UNL     1     -16.486  -6.668  18.057  1.00  0.00    -0.550 OA
ENDBRANCH   7   9
ENDBRANCH   6   7
ENDBRANCH   5   6
ENDBRANCH   4   5
ENDBRANCH   3   4
ENDBRANCH   2   3
ENDBRANCH   1   2
BRANCH   1  12
ATOM     12  C   UNL     1     -20.266  -5.294  23.411  1.00  0.00     0.000 C 
BRANCH  12  13
ATOM     13  C   UNL     1     -21.273  -6.242  24.084  1.00  0.00    -0.000 C 
BRANCH  13  14
ATOM     14  C   UNL     1     -22.732  -5.804  23.860  1.00  0.00    -0.000 C 
BRANCH  14  15
ATOM     15  C   UNL     1     -23.514  -5.642  25.176  1.00  0.00    -0.000 C 
BRANCH  15  16
ATOM     16  C   UNL     1     -22.738  -6.032  26.450  1.00  0.00    -0.000 C 
BRANCH  16  17
ATOM     17  C   UNL     1     -22.661  -4.938  27.533  1.00  0.00    -0.000 C 
BRANCH  17  18
ATOM     18  C   UNL     1     -23.199  -3.563  27.101  1.00  0.00    -0.003 C 
ATOM     19  C   UNL     1     -22.089  -2.576  26.742  1.00  0.00     0.004 C 
ENDBRANCH  17  18
ENDBRANCH  16  17
ENDBRANCH  15  16
ENDBRANCH  14  15
ENDBRANCH  13  14
ENDBRANCH  12  13
ENDBRANCH   1  12
TORSDOF 14
ENDMDL
MODEL 2
REMARK VINA RESULT:    -4.960     13.558     15.838
REMARK INTER + INTRA:         -10.538
REMARK INTER:                  -7.958
REMARK INTRA:                  -2.580
REMARK UNBOUND:                -1.519
REMARK SMILES CCCCCCCCCCCCCC[C@H](C)C(=O)[O-]
REMARK SMILES IDX 9 1 10 2 11 3 12 4 13 5 14 6 15 7 16 8 17 9 18 10 19 11 8 12
REMARK SMILES IDX 7 13 6 14 5 15 4 16 3 17 2 18 1 19
REMARK H PARENT
REMARK Flexibility Score: inf
ROOT
ATOM      1  C   UNL     1     -15.767   9.729  32.060  1.00  0.00     0.000 C 
ENDROOT
BRANCH   1   2
ATOM      2  C   UNL     1     -14.397   9.080  32.332  1.00  0.00     0.000 C 
BRANCH   2   3
ATOM      3  C   UNL     1     -14.054   7.881  31.429  1.00  0.00     0.000 C 
BRANCH   3   4
ATOM      4  C   UNL     1     -13.780   8.290  29.972  1.00  0.00     0.000 C 
BRANCH   4   5
ATOM      5  C   UNL     1     -14.085   7.160  28.976  1.00  0.00     0.001 C 
BRANCH   5   6
ATOM      6  C   UNL     1     -15.073   6.124  29.544  1.00  0.00     0.009 C 
BRANCH   6   7
ATOM      7  C   UNL     1     -14.485   4.697  29.579  1.00  0.00     0.032 C 
ATOM      8  C   UNL     1     -14.071   4.206  28.185  1.00  0.00     0.014 C 
BRANCH   7   9
ATOM      9  C   UNL     1     -15.491   3.747  30.169  1.00  0.00     0.044 C 
ATOM     10  O   UNL     1     -15.395   2.510  29.953  1.00  0.00    -0.550 OA
ATOM     11  O   UNL     1     -16.529   4.226  30.959  1.00  0.00    -0.550 OA
ENDBRANCH   7   9
ENDBRANCH   6   7
ENDBRANCH   5   6
ENDBRANCH   4   5
ENDBRANCH   3   4
ENDBRANCH   2   3
ENDBRANCH   1   2
BRANCH   1  12
ATOM     12  C   UNL     1     -16.943   8.765  32.298  1.00  0.00     0.000 C 
BRANCH  12  13
ATOM     13  C   UNL     1     -17.605   8.311  30.986  1.00  0.00    -0.000 C 
BRANCH  13  14
ATOM     14  C   UNL     1     -17.766   9.465  29.980  1.00  0.00    -0.000 C 
BRANCH  14  15
ATOM     15  C   UNL     1     -17.183   9.133  28.594  1.00  0.00    -0.000 C 
BRANCH  15  16
ATOM     16  C   UNL     1     -16.227  10.195  28.015  1.00  0.00    -0.000 C 
BRANCH  16  17
ATOM     17  C   UNL     1     -16.114  11.494  28.837  1.00  0.00    -0.000 C 
BRANCH  17  18
ATOM     18  C   UNL     1     -14.683  11.868  29.260  1.00  0.00    -0.003 C 
ATOM     19  C   UNL     1     -13.639  11.518  28.201  1.00  0.00     0.004 C 
ENDBRANCH  17  18
ENDBRANCH  16  17
ENDBRANCH  15  16
ENDBRANCH  14  15
ENDBRANCH  13  14
ENDBRANCH  12  13
ENDBRANCH   1  12
TORSDOF 14
ENDMDL
MODEL 3
REMARK VINA RESULT:    -4.938      4.100      7.831
REMARK INTER + INTRA:         -10.499
REMARK INTER:                  -7.900
REMARK INTRA:                  -2.599
REMARK UNBOUND:                -1.519
REMARK SMILES CCCCCCCCCCCCCC[C@H](C)C(=O)[O-]
REMARK SMILES IDX 9 1 10 2 11 3 12 4 13 5 14 6 15 7 16 8 17 9 18 10 19 11 8 12
REMARK SMILES IDX 7 13 6 14 5 15 4 16 3 17 2 18 1 19
REMARK H PARENT
REMARK Flexibility Score: inf
ROOT
ATOM      1  C   UNL     1     -16.688  -4.823  17.918  1.00  0.00     0.000 C 
ENDROOT
BRANCH   1   2
ATOM      2  C   UNL     1     -16.722  -6.312  18.306  1.00  0.00     0.000 C 
BRANCH   2   3
ATOM      3  C   UNL     1     -15.508  -6.801  19.118  1.00  0.00     0.000 C 
BRANCH   3   4
ATOM      4  C   UNL     1     -15.071  -5.799  20.201  1.00  0.00     0.000 C 
BRANCH   4   5
ATOM      5  C   UNL     1     -15.004  -6.434  21.598  1.00  0.00     0.001 C 
BRANCH   5   6
ATOM      6  C   UNL     1     -16.182  -6.012  22.496  1.00  0.00     0.009 C 
BRANCH   6   7
ATOM      7  C   UNL     1     -16.986  -4.833  21.907  1.00  0.00     0.032 C 
ATOM      8  C   UNL     1     -16.765  -3.531  22.690  1.00  0.00     0.014 C 
BRANCH   7   9
ATOM      9  C   UNL     1     -18.451  -5.172  21.896  1.00  0.00     0.044 C 
ATOM     10  O   UNL     1     -19.107  -5.181  22.972  1.00  0.00    -0.550 OA
ATOM     11  O   UNL     1     -19.093  -5.473  20.700  1.00  0.00    -0.550 OA
ENDBRANCH   7   9
ENDBRANCH   6   7
ENDBRANCH   5   6
ENDBRANCH   4   5
ENDBRANCH   3   4
ENDBRANCH   2   3
ENDBRANCH   1   2
BRANCH   1  12
ATOM     12  C   UNL     1     -16.438  -4.601  16.416  1.00  0.00     0.000 C 
BRANCH  12  13
ATOM     13  C   UNL     1     -15.209  -3.717  16.149  1.00  0.00    -0.000 C 
BRANCH  13  14
ATOM     14  C   UNL     1     -14.194  -3.757  17.306  1.00  0.00    -0.000 C 
BRANCH  14  15
ATOM     15  C   UNL     1     -13.951  -2.373  17.934  1.00  0.00    -0.000 C 
BRANCH  15  16
ATOM     16  C   UNL     1     -14.503  -2.197  19.363  1.00  0.00    -0.000 C 
BRANCH  16  17
ATOM     17  C   UNL     1     -15.891  -1.534  19.454  1.00  0.00    -0.000 C 
BRANCH  17  18
ATOM     18  C   UNL     1     -16.318  -0.755  18.197  1.00  0.00    -0.003 C 
ATOM     19  C   UNL     1     -17.657  -1.226  17.631  1.00  0.00     0.004 C 
ENDBRANCH  17  18
ENDBRANCH  16  17
ENDBRANCH  15  16
ENDBRANCH  14  15
ENDBRANCH  13  14
ENDBRANCH  12  13
ENDBRANCH   1  12
TORSDOF 14
ENDMDL
MODEL 4
REMARK VINA RESULT:    -4.893      4.313      7.413
REMARK INTER + INTRA:         -10.417
REMARK INTER:                  -8.879
REMARK INTRA:                  -1.538
REMARK UNBOUND:                -1.519
REMARK SMILES CCCCCCCCCCCCCC[C@H](C)C(=O)[O-]
REMARK SMILES IDX 9 1 10 2 11 3 12 4 13 5 14 6 15 7 16 8 17 9 18 10 19 11 8 12
REMARK SMILES IDX 7 13 6 14 5 15 4 16 3 17 2 18 1 19
REMARK H PARENT
REMARK Flexibility Score: inf
ROOT
ATOM      1  C   UNL     1     -16.834  -5.030  17.549  1.00  0.00     0.000 C 
ENDROOT
BRANCH   1   2
ATOM      2  C   UNL     1     -15.972  -5.099  16.275  1.00  0.00     0.000 C 
BRANCH   2   3
ATOM      3  C   UNL     1     -15.065  -3.878  16.036  1.00  0.00     0.000 C 
BRANCH   3   4
ATOM      4  C   UNL     1     -14.077  -3.633  17.190  1.00  0.00     0.000 C 
BRANCH   4   5
ATOM      5  C   UNL     1     -14.113  -2.183  17.696  1.00  0.00     0.001 C 
BRANCH   5   6
ATOM      6  C   UNL     1     -15.488  -1.520  17.493  1.00  0.00     0.009 C 
BRANCH   6   7
ATOM      7  C   UNL     1     -15.424  -0.287  16.567  1.00  0.00     0.032 C 
ATOM      8  C   UNL     1     -14.086   0.458  16.685  1.00  0.00     0.014 C 
BRANCH   7   9
ATOM      9  C   UNL     1     -16.553   0.653  16.892  1.00  0.00     0.044 C 
ATOM     10  O   UNL     1     -17.019   0.702  18.061  1.00  0.00    -0.550 OA
ATOM     11  O   UNL     1     -17.086   1.475  15.906  1.00  0.00    -0.550 OA
ENDBRANCH   7   9
ENDBRANCH   6   7
ENDBRANCH   5   6
ENDBRANCH   4   5
ENDBRANCH   3   4
ENDBRANCH   2   3
ENDBRANCH   1   2
BRANCH   1  12
ATOM     12  C   UNL     1     -16.846  -6.352  18.336  1.00  0.00     0.000 C 
BRANCH  12  13
ATOM     13  C   UNL     1     -15.467  -6.700  18.919  1.00  0.00    -0.000 C 
BRANCH  13  14
ATOM     14  C   UNL     1     -15.057  -5.754  20.062  1.00  0.00    -0.000 C 
BRANCH  14  15
ATOM     15  C   UNL     1     -15.085  -6.439  21.441  1.00  0.00    -0.000 C 
BRANCH  15  16
ATOM     16  C   UNL     1     -16.128  -5.877  22.429  1.00  0.00    -0.000 C 
BRANCH  16  17
ATOM     17  C   UNL     1     -16.941  -4.674  21.911  1.00  0.00    -0.000 C 
BRANCH  17  18
ATOM     18  C   UNL     1     -16.846  -3.408  22.781  1.00  0.00    -0.003 C 
ATOM     19  C   UNL     1     -18.211  -2.906  23.250  1.00  0.00     0.004 C 
ENDBRANCH  17  18
ENDBRANCH  16  17
ENDBRANCH  15  16
ENDBRANCH  14  15
ENDBRANCH  13  14
ENDBRANCH  12  13
ENDBRANCH   1  12
TORSDOF 14
ENDMDL
MODEL 5
REMARK VINA RESULT:    -4.892     12.885     15.226
REMARK INTER + INTRA:         -10.415
REMARK INTER:                  -8.821
REMARK INTRA:                  -1.593
REMARK UNBOUND:                -1.519
REMARK SMILES CCCCCCCCCCCCCC[C@H](C)C(=O)[O-]
REMARK SMILES IDX 9 1 10 2 11 3 12 4 13 5 14 6 15 7 16 8 17 9 18 10 19 11 8 12
REMARK SMILES IDX 7 13 6 14 5 15 4 16 3 17 2 18 1 19
REMARK H PARENT
REMARK Flexibility Score: inf
ROOT
ATOM      1  C   UNL     1     -14.008   7.947  31.440  1.00  0.00     0.000 C 
ENDROOT
BRANCH   1   2
ATOM      2  C   UNL     1     -14.773   6.655  31.097  1.00  0.00     0.000 C 
BRANCH   2   3
ATOM      3  C   UNL     1     -15.203   6.524  29.624  1.00  0.00     0.000 C 
BRANCH   3   4
ATOM      4  C   UNL     1     -14.009   6.476  28.655  1.00  0.00     0.000 C 
BRANCH   4   5
ATOM      5  C   UNL     1     -14.020   5.220  27.770  1.00  0.00     0.001 C 
BRANCH   5   6
ATOM      6  C   UNL     1     -13.558   3.960  28.527  1.00  0.00     0.009 C 
BRANCH   6   7
ATOM      7  C   UNL     1     -14.656   2.878  28.606  1.00  0.00     0.032 C 
ATOM      8  C   UNL     1     -15.217   2.722  30.027  1.00  0.00     0.014 C 
BRANCH   7   9
ATOM      9  C   UNL     1     -14.106   1.560  28.135  1.00  0.00     0.044 C 
ATOM     10  O   UNL     1     -14.422   1.111  27.001  1.00  0.00    -0.550 OA
ATOM     11  O   UNL     1     -13.242   0.831  28.944  1.00  0.00    -0.550 OA
ENDBRANCH   7   9
ENDBRANCH   6   7
ENDBRANCH   5   6
ENDBRANCH   4   5
ENDBRANCH   3   4
ENDBRANCH   2   3
ENDBRANCH   1   2
BRANCH   1  12
ATOM     12  C   UNL     1     -14.695   8.775  32.539  1.00  0.00     0.000 C 
BRANCH  12  13
ATOM     13  C   UNL     1     -14.976  10.221  32.097  1.00  0.00    -0.000 C 
BRANCH  13  14
ATOM     14  C   UNL     1     -15.330  10.319  30.602  1.00  0.00    -0.000 C 
BRANCH  14  15
ATOM     15  C   UNL     1     -14.643  11.506  29.903  1.00  0.00    -0.000 C 
BRANCH  15  16
ATOM     16  C   UNL     1     -14.235  11.255  28.437  1.00  0.00    -0.000 C 
BRANCH  16  17
ATOM     17  C   UNL     1     -13.131  10.198  28.235  1.00  0.00    -0.000 C 
BRANCH  17  18
ATOM     18  C   UNL     1     -13.176   9.470  26.880  1.00  0.00    -0.003 C 
ATOM     19  C   UNL     1     -14.197  10.072  25.914  1.00  0.00     0.004 C 
ENDBRANCH  17  18
ENDBRANCH  16  17
ENDBRANCH  15  16
ENDBRANCH  14  15
ENDBRANCH  13  14
ENDBRANCH  12  13
ENDBRANCH   1  12
TORSDOF 14
ENDMDL
MODEL 6
REMARK VINA RESULT:    -4.888      4.499      8.720
REMARK INTER + INTRA:         -10.407
REMARK INTER:                  -8.711
REMARK INTRA:                  -1.696
REMARK UNBOUND:                -1.519
REMARK SMILES CCCCCCCCCCCCCC[C@H](C)C(=O)[O-]
REMARK SMILES IDX 9 1 10 2 11 3 12 4 13 5 14 6 15 7 16 8 17 9 18 10 19 11 8 12
REMARK SMILES IDX 7 13 6 14 5 15 4 16 3 17 2 18 1 19
REMARK H PARENT
REMARK Flexibility Score: inf
ROOT
ATOM      1  C   UNL     1     -14.720  -4.429  15.798  1.00  0.00     0.000 C 
ENDROOT
BRANCH   1   2
ATOM      2  C   UNL     1     -15.144  -5.888  16.048  1.00  0.00     0.000 C 
BRANCH   2   3
ATOM      3  C   UNL     1     -14.633  -6.497  17.367  1.00  0.00     0.000 C 
BRANCH   3   4
ATOM      4  C   UNL     1     -15.738  -6.637  18.428  1.00  0.00     0.000 C 
BRANCH   4   5
ATOM      5  C   UNL     1     -15.217  -6.399  19.854  1.00  0.00     0.001 C 
BRANCH   5   6
ATOM      6  C   UNL     1     -15.690  -5.055  20.439  1.00  0.00     0.009 C 
BRANCH   6   7
ATOM      7  C   UNL     1     -16.295  -5.201  21.852  1.00  0.00     0.032 C 
ATOM      8  C   UNL     1     -15.858  -6.503  22.538  1.00  0.00     0.014 C 
BRANCH   7   9
ATOM      9  C   UNL     1     -17.796  -5.154  21.770  1.00  0.00     0.044 C 
ATOM     10  O   UNL     1     -18.372  -4.136  21.302  1.00  0.00    -0.550 OA
ATOM     11  O   UNL     1     -18.556  -6.233  22.206  1.00  0.00    -0.550 OA
ENDBRANCH   7   9
ENDBRANCH   6   7
ENDBRANCH   5   6
ENDBRANCH   4   5
ENDBRANCH   3   4
ENDBRANCH   2   3
ENDBRANCH   1   2
BRANCH   1  12
ATOM     12  C   UNL     1     -15.167  -3.475  16.920  1.00  0.00     0.000 C 
BRANCH  12  13
ATOM     13  C   UNL     1     -13.980  -2.789  17.615  1.00  0.00    -0.000 C 
BRANCH  13  14
ATOM     14  C   UNL     1     -14.346  -2.256  19.012  1.00  0.00    -0.000 C 
BRANCH  14  15
ATOM     15  C   UNL     1     -15.671  -1.472  19.023  1.00  0.00    -0.000 C 
BRANCH  15  16
ATOM     16  C   UNL     1     -15.556   0.011  18.615  1.00  0.00    -0.000 C 
BRANCH  16  17
ATOM     17  C   UNL     1     -16.012   0.333  17.179  1.00  0.00    -0.000 C 
BRANCH  17  18
ATOM     18  C   UNL     1     -14.883   0.362  16.134  1.00  0.00    -0.003 C 
ATOM     19  C   UNL     1     -13.657   1.143  16.605  1.00  0.00     0.004 C 
ENDBRANCH  17  18
ENDBRANCH  16  17
ENDBRANCH  15  16
ENDBRANCH  14  15
ENDBRANCH  13  14
ENDBRANCH  12  13
ENDBRANCH   1  12
TORSDOF 14
ENDMDL
MODEL 7
REMARK VINA RESULT:    -4.876      3.653      6.767
REMARK INTER + INTRA:         -10.385
REMARK INTER:                  -8.565
REMARK INTRA:                  -1.820
REMARK UNBOUND:                -1.519
REMARK SMILES CCCCCCCCCCCCCC[C@H](C)C(=O)[O-]
REMARK SMILES IDX 9 1 10 2 11 3 12 4 13 5 14 6 15 7 16 8 17 9 18 10 19 11 8 12
REMARK SMILES IDX 7 13 6 14 5 15 4 16 3 17 2 18 1 19
REMARK H PARENT
REMARK Flexibility Score: inf
ROOT
ATOM      1  C   UNL     1     -15.305  -6.358  17.485  1.00  0.00     0.000 C 
ENDROOT
BRANCH   1   2
ATOM      2  C   UNL     1     -13.966  -5.932  16.857  1.00  0.00     0.000 C 
BRANCH   2   3
ATOM      3  C   UNL     1     -13.740  -4.411  16.775  1.00  0.00     0.000 C 
BRANCH   3   4
ATOM      4  C   UNL     1     -15.038  -3.628  16.511  1.00  0.00     0.000 C 
BRANCH   4   5
ATOM      5  C   UNL     1     -15.095  -2.304  17.288  1.00  0.00     0.001 C 
BRANCH   5   6
ATOM      6  C   UNL     1     -14.251  -2.339  18.576  1.00  0.00     0.009 C 
BRANCH   6   7
ATOM      7  C   UNL     1     -15.112  -2.255  19.854  1.00  0.00     0.032 C 
ATOM      8  C   UNL     1     -16.592  -2.553  19.577  1.00  0.00     0.014 C 
BRANCH   7   9
ATOM      9  C   UNL     1     -14.979  -0.888  20.468  1.00  0.00     0.044 C 
ATOM     10  O   UNL     1     -14.930  -0.759  21.720  1.00  0.00    -0.550 OA
ATOM     11  O   UNL     1     -14.907   0.240  19.659  1.00  0.00    -0.550 OA
ENDBRANCH   7   9
ENDBRANCH   6   7
ENDBRANCH   5   6
ENDBRANCH   4   5
ENDBRANCH   3   4
ENDBRANCH   2   3
ENDBRANCH   1   2
BRANCH   1  12
ATOM     12  C   UNL     1     -15.139  -6.995  18.876  1.00  0.00     0.000 C 
BRANCH  12  13
ATOM     13  C   UNL     1     -15.229  -5.961  20.010  1.00  0.00    -0.000 C 
BRANCH  13  14
ATOM     14  C   UNL     1     -14.764  -6.530  21.362  1.00  0.00    -0.000 C 
BRANCH  14  15
ATOM     15  C   UNL     1     -15.828  -6.388  22.466  1.00  0.00    -0.000 C 
BRANCH  15  16
ATOM     16  C   UNL     1     -16.722  -5.137  22.355  1.00  0.00    -0.000 C 
BRANCH  16  17
ATOM     17  C   UNL     1     -18.200  -5.414  22.018  1.00  0.00    -0.000 C 
BRANCH  17  18
ATOM     18  C   UNL     1     -19.215  -4.677  22.910  1.00  0.00    -0.003 C 
ATOM     19  C   UNL     1     -18.770  -3.261  23.272  1.00  0.00     0.004 C 
ENDBRANCH  17  18
ENDBRANCH  16  17
ENDBRANCH  15  16
ENDBRANCH  14  15
ENDBRANCH  13  14
ENDBRANCH  12  13
ENDBRANCH   1  12
TORSDOF 14
ENDMDL
MODEL 8
REMARK VINA RESULT:    -4.847     13.059     15.299
REMARK INTER + INTRA:         -10.333
REMARK INTER:                  -7.728
REMARK INTRA:                  -2.605
REMARK UNBOUND:                -1.519
REMARK SMILES CCCCCCCCCCCCCC[C@H](C)C(=O)[O-]
REMARK SMILES IDX 9 1 10 2 11 3 12 4 13 5 14 6 15 7 16 8 17 9 18 10 19 11 8 12
REMARK SMILES IDX 7 13 6 14 5 15 4 16 3 17 2 18 1 19
REMARK H PARENT
REMARK Flexibility Score: inf
ROOT
ATOM      1  C   UNL     1     -15.219   9.576  28.349  1.00  0.00     0.000 C 
ENDROOT
BRANCH   1   2
ATOM      2  C   UNL     1     -13.687   9.606  28.193  1.00  0.00     0.000 C 
BRANCH   2   3
ATOM      3  C   UNL     1     -12.977   8.271  28.483  1.00  0.00     0.000 C 
BRANCH   3   4
ATOM      4  C   UNL     1     -13.957   7.134  28.821  1.00  0.00     0.000 C 
BRANCH   4   5
ATOM      5  C   UNL     1     -13.678   5.857  28.014  1.00  0.00     0.001 C 
BRANCH   5   6
ATOM      6  C   UNL     1     -14.301   4.604  28.657  1.00  0.00     0.009 C 
BRANCH   6   7
ATOM      7  C   UNL     1     -15.575   4.923  29.469  1.00  0.00     0.032 C 
ATOM      8  C   UNL     1     -15.453   4.489  30.936  1.00  0.00     0.014 C 
BRANCH   7   9
ATOM      9  C   UNL     1     -16.761   4.246  28.840  1.00  0.00     0.044 C 
ATOM     10  O   UNL     1     -17.887   4.810  28.842  1.00  0.00    -0.550 OA
ATOM     11  O   UNL     1     -16.623   2.994  28.251  1.00  0.00    -0.550 OA
ENDBRANCH   7   9
ENDBRANCH   6   7
ENDBRANCH   5   6
ENDBRANCH   4   5
ENDBRANCH   3   4
ENDBRANCH   2   3
ENDBRANCH   1   2
BRANCH   1  12
ATOM     12  C   UNL     1     -15.753  10.718  29.231  1.00  0.00     0.000 C 
BRANCH  12  13
ATOM     13  C   UNL     1     -14.733  11.167  30.291  1.00  0.00    -0.000 C 
BRANCH  13  14
ATOM     14  C   UNL     1     -15.111  10.694  31.706  1.00  0.00    -0.000 C 
BRANCH  14  15
ATOM     15  C   UNL     1     -14.453   9.353  32.081  1.00  0.00    -0.000 C 
BRANCH  15  16
ATOM     16  C   UNL     1     -15.371   8.120  31.965  1.00  0.00    -0.000 C 
BRANCH  16  17
ATOM     17  C   UNL     1     -16.882   8.426  31.942  1.00  0.00    -0.000 C 
BRANCH  17  18
ATOM     18  C   UNL     1     -17.672   7.691  30.845  1.00  0.00    -0.003 C 
ATOM     19  C   UNL     1     -18.608   8.615  30.066  1.00  0.00     0.004 C 
ENDBRANCH  17  18
ENDBRANCH  16  17
ENDBRANCH  15  16
ENDBRANCH  14  15
ENDBRANCH  13  14
ENDBRANCH  12  13
ENDBRANCH   1  12
TORSDOF 14
ENDMDL
MODEL 9
REMARK VINA RESULT:    -4.828      4.459      6.801
REMARK INTER + INTRA:         -10.299
REMARK INTER:                  -8.458
REMARK INTRA:                  -1.841
REMARK UNBOUND:                -1.519
REMARK SMILES CCCCCCCCCCCCCC[C@H](C)C(=O)[O-]
REMARK SMILES IDX 9 1 10 2 11 3 12 4 13 5 14 6 15 7 16 8 17 9 18 10 19 11 8 12
REMARK SMILES IDX 7 13 6 14 5 15 4 16 3 17 2 18 1 19
REMARK H PARENT
REMARK Flexibility Score: inf
ROOT
ATOM      1  C   UNL     1     -16.859  -6.373  18.276  1.00  0.00     0.000 C 
ENDROOT
BRANCH   1   2
ATOM      2  C   UNL     1     -16.907  -4.954  17.680  1.00  0.00     0.000 C 
BRANCH   2   3
ATOM      3  C   UNL     1     -16.659  -4.876  16.163  1.00  0.00     0.000 C 
BRANCH   3   4
ATOM      4  C   UNL     1     -15.184  -4.617  15.811  1.00  0.00     0.000 C 
BRANCH   4   5
ATOM      5  C   UNL     1     -14.457  -3.799  16.890  1.00  0.00     0.001 C 
BRANCH   5   6
ATOM      6  C   UNL     1     -14.879  -2.318  16.892  1.00  0.00     0.009 C 
BRANCH   6   7
ATOM      7  C   UNL     1     -14.464  -1.583  18.184  1.00  0.00     0.032 C 
ATOM      8  C   UNL     1     -14.722  -2.427  19.440  1.00  0.00     0.014 C 
BRANCH   7   9
ATOM      9  C   UNL     1     -15.208  -0.281  18.290  1.00  0.00     0.044 C 
ATOM     10  O   UNL     1     -16.171  -0.037  17.515  1.00  0.00    -0.550 OA
ATOM     11  O   UNL     1     -14.843   0.661  19.245  1.00  0.00    -0.550 OA
ENDBRANCH   7   9
ENDBRANCH   6   7
ENDBRANCH   5   6
ENDBRANCH   4   5
ENDBRANCH   3   4
ENDBRANCH   2   3
ENDBRANCH   1   2
BRANCH   1  12
ATOM     12  C   UNL     1     -15.489  -6.720  18.885  1.00  0.00     0.000 C 
BRANCH  12  13
ATOM     13  C   UNL     1     -15.140  -5.830  20.090  1.00  0.00    -0.000 C 
BRANCH  13  14
ATOM     14  C   UNL     1     -14.926  -6.644  21.379  1.00  0.00    -0.000 C 
BRANCH  14  15
ATOM     15  C   UNL     1     -15.916  -6.264  22.494  1.00  0.00    -0.000 C 
BRANCH  15  16
ATOM     16  C   UNL     1     -17.345  -5.935  22.017  1.00  0.00    -0.000 C 
BRANCH  16  17
ATOM     17  C   UNL     1     -17.816  -4.495  22.300  1.00  0.00    -0.000 C 
BRANCH  17  18
ATOM     18  C   UNL     1     -16.717  -3.545  22.810  1.00  0.00    -0.003 C 
ATOM     19  C   UNL     1     -16.966  -2.087  22.424  1.00  0.00     0.004 C 
ENDBRANCH  17  18
ENDBRANCH  16  17
ENDBRANCH  15  16
ENDBRANCH  14  15
ENDBRANCH  13  14
ENDBRANCH  12  13
ENDBRANCH   1  12
TORSDOF 14
ENDMDL
