MODEL 1
REMARK VINA RESULT:    -4.170      0.000      0.000
REMARK INTER + INTRA:          -4.861
REMARK INTER:                  -4.658
REMARK INTRA:                  -0.204
REMARK UNBOUND:                -0.204
REMARK SMILES O=C([O-])c1ccccc1C(=O)[O-]
REMARK SMILES IDX 4 1 9 2 5 3 8 4 6 5 7 6 2 7 1 8 3 9 10 10 11 11 12 12
REMARK H PARENT
REMARK Flexibility Score: inf
ROOT
ATOM      1  C   UNL     1      63.855  33.392  60.393  1.00  0.00     0.006 A 
ATOM      2  C   UNL     1      62.489  33.667  60.105  1.00  0.00     0.006 A 
ATOM      3  C   UNL     1      64.669  34.421  60.901  1.00  0.00     0.010 A 
ATOM      4  C   UNL     1      62.006  34.978  60.272  1.00  0.00     0.010 A 
ATOM      5  C   UNL     1      64.162  35.709  61.079  1.00  0.00     0.001 A 
ATOM      6  C   UNL     1      62.837  35.989  60.755  1.00  0.00     0.001 A 
ENDROOT
BRANCH   1   7
ATOM      7  C   UNL     1      64.483  32.078  60.116  1.00  0.00     0.072 C 
ATOM      8  O   UNL     1      64.430  31.157  60.972  1.00  0.00    -0.545 OA
ATOM      9  O   UNL     1      65.192  31.867  58.939  1.00  0.00    -0.545 OA
ENDBRANCH   1   7
BRANCH   2  10
ATOM     10  C   UNL     1      61.524  32.620  59.699  1.00  0.00     0.072 C 
ATOM     11  O   UNL     1      61.209  32.467  58.488  1.00  0.00    -0.545 OA
ATOM     12  O   UNL     1      61.005  31.745  60.646  1.00  0.00    -0.545 OA
ENDBRANCH   2  10
TORSDOF 2
ENDMDL
MODEL 2
REMARK VINA RESULT:    -4.162     11.742     13.719
REMARK INTER + INTRA:          -4.853
REMARK INTER:                  -4.660
REMARK INTRA:                  -0.193
REMARK UNBOUND:                -0.204
REMARK SMILES O=C([O-])c1ccccc1C(=O)[O-]
REMARK SMILES IDX 4 1 9 2 5 3 8 4 6 5 7 6 2 7 1 8 3 9 10 10 11 11 12 12
REMARK H PARENT
REMARK Flexibility Score: inf
ROOT
ATOM      1  C   UNL     1      56.406  28.095  50.297  1.00  0.00     0.006 A 
ATOM      2  C   UNL     1      56.580  26.711  50.014  1.00  0.00     0.006 A 
ATOM      3  C   UNL     1      55.143  28.683  50.092  1.00  0.00     0.010 A 
ATOM      4  C   UNL     1      55.504  25.983  49.475  1.00  0.00     0.010 A 
ATOM      5  C   UNL     1      54.084  27.935  49.577  1.00  0.00     0.001 A 
ATOM      6  C   UNL     1      54.267  26.591  49.258  1.00  0.00     0.001 A 
ENDROOT
BRANCH   1   7
ATOM      7  C   UNL     1      57.520  28.970  50.734  1.00  0.00     0.072 C 
ATOM      8  O   UNL     1      57.564  29.395  51.918  1.00  0.00    -0.545 OA
ATOM      9  O   UNL     1      58.492  29.384  49.831  1.00  0.00    -0.545 OA
ENDBRANCH   1   7
BRANCH   2  10
ATOM     10  C   UNL     1      57.828  25.976  50.326  1.00  0.00     0.072 C 
ATOM     11  O   UNL     1      58.797  25.981  49.521  1.00  0.00    -0.545 OA
ATOM     12  O   UNL     1      57.967  25.327  51.547  1.00  0.00    -0.545 OA
ENDBRANCH   2  10
TORSDOF 2
ENDMDL
MODEL 3
REMARK VINA RESULT:    -4.142      0.132      3.156
REMARK INTER + INTRA:          -4.830
REMARK INTER:                  -4.628
REMARK INTRA:                  -0.203
REMARK UNBOUND:                -0.204
REMARK SMILES O=C([O-])c1ccccc1C(=O)[O-]
REMARK SMILES IDX 4 1 9 2 5 3 8 4 6 5 7 6 2 7 1 8 3 9 10 10 11 11 12 12
REMARK H PARENT
REMARK Flexibility Score: inf
ROOT
ATOM      1  C   UNL     1      62.418  33.592  60.048  1.00  0.00     0.006 A 
ATOM      2  C   UNL     1      63.785  33.369  60.373  1.00  0.00     0.006 A 
ATOM      3  C   UNL     1      61.878  34.882  60.206  1.00  0.00     0.010 A 
ATOM      4  C   UNL     1      64.543  34.428  60.906  1.00  0.00     0.010 A 
ATOM      5  C   UNL     1      62.654  35.923  60.715  1.00  0.00     0.001 A 
ATOM      6  C   UNL     1      63.980  35.694  61.075  1.00  0.00     0.001 A 
ENDROOT
BRANCH   1   7
ATOM      7  C   UNL     1      61.510  32.503  59.615  1.00  0.00     0.072 C 
ATOM      8  O   UNL     1      61.149  32.421  58.412  1.00  0.00    -0.545 OA
ATOM      9  O   UNL     1      60.995  31.600  60.538  1.00  0.00    -0.545 OA
ENDBRANCH   1   7
BRANCH   2  10
ATOM     10  C   UNL     1      64.477  32.085  60.113  1.00  0.00     0.072 C 
ATOM     11  O   UNL     1      64.424  31.144  60.949  1.00  0.00    -0.545 OA
ATOM     12  O   UNL     1      65.137  31.881  58.907  1.00  0.00    -0.545 OA
ENDBRANCH   2  10
TORSDOF 2
ENDMDL
MODEL 4
REMARK VINA RESULT:    -4.139     11.586     13.511
REMARK INTER + INTRA:          -4.826
REMARK INTER:                  -4.637
REMARK INTRA:                  -0.190
REMARK UNBOUND:                -0.204
REMARK SMILES O=C([O-])c1ccccc1C(=O)[O-]
REMARK SMILES IDX 4 1 9 2 5 3 8 4 6 5 7 6 2 7 1 8 3 9 10 10 11 11 12 12
REMARK H PARENT
REMARK Flexibility Score: inf
ROOT
ATOM      1  C   UNL     1      56.896  26.755  50.001  1.00  0.00     0.006 A 
ATOM      2  C   UNL     1      56.718  28.129  50.329  1.00  0.00     0.006 A 
ATOM      3  C   UNL     1      55.807  26.027  49.488  1.00  0.00     0.010 A 
ATOM      4  C   UNL     1      55.441  28.704  50.193  1.00  0.00     0.010 A 
ATOM      5  C   UNL     1      54.554  26.625  49.340  1.00  0.00     0.001 A 
ATOM      6  C   UNL     1      54.370  27.957  49.703  1.00  0.00     0.001 A 
ENDROOT
BRANCH   1   7
ATOM      7  C   UNL     1      58.166  26.032  50.244  1.00  0.00     0.072 C 
ATOM      8  O   UNL     1      58.293  25.298  51.259  1.00  0.00    -0.545 OA
ATOM      9  O   UNL     1      59.253  26.204  49.394  1.00  0.00    -0.545 OA
ENDBRANCH   1   7
BRANCH   2  10
ATOM     10  C   UNL     1      57.834  29.009  50.745  1.00  0.00     0.072 C 
ATOM     11  O   UNL     1      58.029  29.271  51.962  1.00  0.00    -0.545 OA
ATOM     12  O   UNL     1      58.722  29.502  49.798  1.00  0.00    -0.545 OA
ENDBRANCH   2  10
TORSDOF 2
ENDMDL
MODEL 5
REMARK VINA RESULT:    -3.797     13.238     14.804
REMARK INTER + INTRA:          -4.444
REMARK INTER:                  -4.240
REMARK INTRA:                  -0.204
REMARK UNBOUND:                -0.204
REMARK SMILES O=C([O-])c1ccccc1C(=O)[O-]
REMARK SMILES IDX 4 1 9 2 5 3 8 4 6 5 7 6 2 7 1 8 3 9 10 10 11 11 12 12
REMARK H PARENT
REMARK Flexibility Score: inf
ROOT
ATOM      1  C   UNL     1      54.950  28.003  50.136  1.00  0.00     0.006 A 
ATOM      2  C   UNL     1      55.357  26.682  49.796  1.00  0.00     0.006 A 
ATOM      3  C   UNL     1      55.933  28.973  50.410  1.00  0.00     0.010 A 
ATOM      4  C   UNL     1      56.727  26.365  49.806  1.00  0.00     0.010 A 
ATOM      5  C   UNL     1      57.288  28.641  50.391  1.00  0.00     0.001 A 
ATOM      6  C   UNL     1      57.683  27.337  50.101  1.00  0.00     0.001 A 
ENDROOT
BRANCH   1   7
ATOM      7  C   UNL     1      53.528  28.389  50.288  1.00  0.00     0.072 C 
ATOM      8  O   UNL     1      52.910  28.919  49.327  1.00  0.00    -0.545 OA
ATOM      9  O   UNL     1      52.876  28.232  51.505  1.00  0.00    -0.545 OA
ENDBRANCH   1   7
BRANCH   2  10
ATOM     10  C   UNL     1      54.406  25.633  49.361  1.00  0.00     0.072 C 
ATOM     11  O   UNL     1      54.082  24.695  50.137  1.00  0.00    -0.545 OA
ATOM     12  O   UNL     1      53.805  25.712  48.110  1.00  0.00    -0.545 OA
ENDBRANCH   2  10
TORSDOF 2
ENDMDL
MODEL 6
REMARK VINA RESULT:    -3.740      1.976      3.287
REMARK INTER + INTRA:          -4.382
REMARK INTER:                  -4.171
REMARK INTRA:                  -0.211
REMARK UNBOUND:                -0.204
REMARK SMILES O=C([O-])c1ccccc1C(=O)[O-]
REMARK SMILES IDX 4 1 9 2 5 3 8 4 6 5 7 6 2 7 1 8 3 9 10 10 11 11 12 12
REMARK H PARENT
REMARK Flexibility Score: inf
ROOT
ATOM      1  C   UNL     1      63.432  32.086  60.245  1.00  0.00     0.006 A 
ATOM      2  C   UNL     1      62.040  32.370  60.171  1.00  0.00     0.006 A 
ATOM      3  C   UNL     1      63.853  30.859  60.791  1.00  0.00     0.010 A 
ATOM      4  C   UNL     1      61.124  31.445  60.706  1.00  0.00     0.010 A 
ATOM      5  C   UNL     1      62.925  29.947  61.296  1.00  0.00     0.001 A 
ATOM      6  C   UNL     1      61.565  30.245  61.263  1.00  0.00     0.001 A 
ENDROOT
BRANCH   1   7
ATOM      7  C   UNL     1      64.471  33.060  59.836  1.00  0.00     0.072 C 
ATOM      8  O   UNL     1      65.068  32.924  58.735  1.00  0.00    -0.545 OA
ATOM      9  O   UNL     1      64.845  34.096  60.684  1.00  0.00    -0.545 OA
ENDBRANCH   1   7
BRANCH   2  10
ATOM     10  C   UNL     1      61.497  33.569  59.492  1.00  0.00     0.072 C 
ATOM     11  O   UNL     1      61.036  33.494  58.322  1.00  0.00    -0.545 OA
ATOM     12  O   UNL     1      61.428  34.781  60.168  1.00  0.00    -0.545 OA
ENDBRANCH   2  10
TORSDOF 2
ENDMDL
MODEL 7
REMARK VINA RESULT:    -3.735      1.977      4.284
REMARK INTER + INTRA:          -4.375
REMARK INTER:                  -4.153
REMARK INTRA:                  -0.222
REMARK UNBOUND:                -0.204
REMARK SMILES O=C([O-])c1ccccc1C(=O)[O-]
REMARK SMILES IDX 4 1 9 2 5 3 8 4 6 5 7 6 2 7 1 8 3 9 10 10 11 11 12 12
REMARK H PARENT
REMARK Flexibility Score: inf
ROOT
ATOM      1  C   UNL     1      62.060  32.399  60.160  1.00  0.00     0.006 A 
ATOM      2  C   UNL     1      63.453  32.136  60.282  1.00  0.00     0.006 A 
ATOM      3  C   UNL     1      61.140  31.455  60.654  1.00  0.00     0.010 A 
ATOM      4  C   UNL     1      63.873  30.911  60.832  1.00  0.00     0.010 A 
ATOM      5  C   UNL     1      61.580  30.256  61.216  1.00  0.00     0.001 A 
ATOM      6  C   UNL     1      62.942  29.980  61.294  1.00  0.00     0.001 A 
ENDROOT
BRANCH   1   7
ATOM      7  C   UNL     1      61.528  33.597  59.469  1.00  0.00     0.072 C 
ATOM      8  O   UNL     1      61.275  34.644  60.121  1.00  0.00    -0.545 OA
ATOM      9  O   UNL     1      61.241  33.561  58.109  1.00  0.00    -0.545 OA
ENDBRANCH   1   7
BRANCH   2  10
ATOM     10  C   UNL     1      64.494  33.125  59.918  1.00  0.00     0.072 C 
ATOM     11  O   UNL     1      65.051  33.089  58.788  1.00  0.00    -0.545 OA
ATOM     12  O   UNL     1      64.820  34.149  60.798  1.00  0.00    -0.545 OA
ENDBRANCH   2  10
TORSDOF 2
ENDMDL
MODEL 8
REMARK VINA RESULT:    -3.697     11.925     12.942
REMARK INTER + INTRA:          -4.333
REMARK INTER:                  -4.133
REMARK INTRA:                  -0.200
REMARK UNBOUND:                -0.204
REMARK SMILES O=C([O-])c1ccccc1C(=O)[O-]
REMARK SMILES IDX 4 1 9 2 5 3 8 4 6 5 7 6 2 7 1 8 3 9 10 10 11 11 12 12
REMARK H PARENT
REMARK Flexibility Score: inf
ROOT
ATOM      1  C   UNL     1      58.027  27.063  50.180  1.00  0.00     0.006 A 
ATOM      2  C   UNL     1      57.852  28.475  50.221  1.00  0.00     0.006 A 
ATOM      3  C   UNL     1      59.224  26.536  49.661  1.00  0.00     0.010 A 
ATOM      4  C   UNL     1      58.853  29.303  49.682  1.00  0.00     0.010 A 
ATOM      5  C   UNL     1      60.213  27.379  49.152  1.00  0.00     0.001 A 
ATOM      6  C   UNL     1      60.022  28.758  49.152  1.00  0.00     0.001 A 
ENDROOT
BRANCH   1   7
ATOM      7  C   UNL     1      56.969  26.113  50.597  1.00  0.00     0.072 C 
ATOM      8  O   UNL     1      57.044  25.528  51.709  1.00  0.00    -0.545 OA
ATOM      9  O   UNL     1      55.916  25.805  49.742  1.00  0.00    -0.545 OA
ENDBRANCH   1   7
BRANCH   2  10
ATOM     10  C   UNL     1      56.690  29.124  50.871  1.00  0.00     0.072 C 
ATOM     11  O   UNL     1      56.800  29.651  52.010  1.00  0.00    -0.545 OA
ATOM     12  O   UNL     1      55.478  29.219  50.198  1.00  0.00    -0.545 OA
ENDBRANCH   2  10
TORSDOF 2
ENDMDL
MODEL 9
REMARK VINA RESULT:    -3.680      1.976      3.232
REMARK INTER + INTRA:          -4.314
REMARK INTER:                  -4.126
REMARK INTRA:                  -0.188
REMARK UNBOUND:                -0.204
REMARK SMILES O=C([O-])c1ccccc1C(=O)[O-]
REMARK SMILES IDX 4 1 9 2 5 3 8 4 6 5 7 6 2 7 1 8 3 9 10 10 11 11 12 12
REMARK H PARENT
REMARK Flexibility Score: inf
ROOT
ATOM      1  C   UNL     1      63.646  35.144  60.535  1.00  0.00     0.006 A 
ATOM      2  C   UNL     1      63.320  33.860  60.016  1.00  0.00     0.006 A 
ATOM      3  C   UNL     1      62.630  36.109  60.664  1.00  0.00     0.010 A 
ATOM      4  C   UNL     1      62.004  33.612  59.584  1.00  0.00     0.010 A 
ATOM      5  C   UNL     1      61.327  35.833  60.249  1.00  0.00     0.001 A 
ATOM      6  C   UNL     1      61.018  34.591  59.700  1.00  0.00     0.001 A 
ENDROOT
BRANCH   1   7
ATOM      7  C   UNL     1      65.032  35.539  60.883  1.00  0.00     0.072 C 
ATOM      8  O   UNL     1      65.341  35.778  62.080  1.00  0.00    -0.545 OA
ATOM      9  O   UNL     1      65.990  35.711  59.891  1.00  0.00    -0.545 OA
ENDBRANCH   1   7
BRANCH   2  10
ATOM     10  C   UNL     1      64.287  32.739  59.971  1.00  0.00     0.072 C 
ATOM     11  O   UNL     1      64.366  31.917  60.922  1.00  0.00    -0.545 OA
ATOM     12  O   UNL     1      65.074  32.543  58.842  1.00  0.00    -0.545 OA
ENDBRANCH   2  10
TORSDOF 2
ENDMDL
