MODEL 1
REMARK VINA RESULT:    -2.673      0.000      0.000
REMARK INTER + INTRA:          -8.927
REMARK INTER:                  -7.049
REMARK INTRA:                  -1.878
REMARK UNBOUND:                -1.878
REMARK SMILES CCCCCCCCCCCCCCCCCCCCCCCCCCCCCC(=O)[O-]
REMARK SMILES IDX 16 1 17 2 18 3 19 4 20 5 21 6 22 7 23 8 24 9 25 10 26 11
REMARK SMILES IDX 27 12 28 13 29 14 30 15 31 16 32 17 15 18 14 19 13 20 12 21
REMARK SMILES IDX 11 22 10 23 9 24 8 25 7 26 6 27 5 28 4 29 3 30 2 31 1 32
REMARK H PARENT
REMARK Flexibility Score: inf
ROOT
ATOM      1  C   UNL     1       6.953   7.075  34.616  1.00  0.00     0.000 C 
ENDROOT
BRANCH   1   2
ATOM      2  C   UNL     1       7.185   5.696  35.255  1.00  0.00     0.000 C 
BRANCH   2   3
ATOM      3  C   UNL     1       6.078   5.261  36.239  1.00  0.00     0.000 C 
BRANCH   3   4
ATOM      4  C   UNL     1       4.951   4.463  35.555  1.00  0.00     0.000 C 
BRANCH   4   5
ATOM      5  C   UNL     1       5.482   3.453  34.524  1.00  0.00     0.000 C 
BRANCH   5   6
ATOM      6  C   UNL     1       5.566   2.024  35.081  1.00  0.00     0.000 C 
BRANCH   6   7
ATOM      7  C   UNL     1       5.706   2.039  36.607  1.00  0.00     0.000 C 
BRANCH   7   8
ATOM      8  C   UNL     1       6.671   0.942  37.085  1.00  0.00     0.000 C 
BRANCH   8   9
ATOM      9  C   UNL     1       8.016   0.977  36.329  1.00  0.00     0.000 C 
BRANCH   9  10
ATOM     10  C   UNL     1       9.056   1.921  36.959  1.00  0.00     0.000 C 
BRANCH  10  11
ATOM     11  C   UNL     1       9.069   3.312  36.311  1.00  0.00     0.000 C 
BRANCH  11  12
ATOM     12  C   UNL     1      10.326   3.507  35.448  1.00  0.00     0.000 C 
BRANCH  12  13
ATOM     13  C   UNL     1      10.560   4.979  35.073  1.00  0.00     0.006 C 
BRANCH  13  14
ATOM     14  C   UNL     1      11.421   5.137  33.812  1.00  0.00     0.053 C 
BRANCH  14  15
ATOM     15  C   UNL     1      12.870   5.226  34.181  1.00  0.00     0.041 C 
ATOM     16  O   UNL     1      13.501   4.192  34.526  1.00  0.00    -0.550 OA
ATOM     17  O   UNL     1      13.507   6.460  34.201  1.00  0.00    -0.550 OA
ENDBRANCH  14  15
ENDBRANCH  13  14
ENDBRANCH  12  13
ENDBRANCH  11  12
ENDBRANCH  10  11
ENDBRANCH   9  10
ENDBRANCH   8   9
ENDBRANCH   7   8
ENDBRANCH   6   7
ENDBRANCH   5   6
ENDBRANCH   4   5
ENDBRANCH   3   4
ENDBRANCH   2   3
ENDBRANCH   1   2
BRANCH   1  18
ATOM     18  C   UNL     1       6.515   8.145  35.630  1.00  0.00     0.000 C 
BRANCH  18  19
ATOM     19  C   UNL     1       6.674   9.575  35.090  1.00  0.00     0.000 C 
BRANCH  19  20
ATOM     20  C   UNL     1       6.054   9.752  33.693  1.00  0.00     0.000 C 
BRANCH  20  21
ATOM     21  C   UNL     1       4.975  10.848  33.666  1.00  0.00     0.000 C 
BRANCH  21  22
ATOM     22  C   UNL     1       5.566  12.248  33.437  1.00  0.00     0.000 C 
BRANCH  22  23
ATOM     23  C   UNL     1       4.933  13.275  34.388  1.00  0.00     0.000 C 
BRANCH  23  24
ATOM     24  C   UNL     1       5.641  13.345  35.755  1.00  0.00    -0.000 C 
BRANCH  24  25
ATOM     25  C   UNL     1       6.312  14.696  36.087  1.00  0.00    -0.000 C 
BRANCH  25  26
ATOM     26  C   UNL     1       5.544  15.948  35.618  1.00  0.00    -0.000 C 
BRANCH  26  27
ATOM     27  C   UNL     1       6.439  17.175  35.339  1.00  0.00    -0.000 C 
BRANCH  27  28
ATOM     28  C   UNL     1       5.796  18.526  35.715  1.00  0.00    -0.000 C 
BRANCH  28  29
ATOM     29  C   UNL     1       6.751  19.731  35.597  1.00  0.00    -0.000 C 
BRANCH  29  30
ATOM     30  C   UNL     1       6.431  20.612  34.376  1.00  0.00    -0.000 C 
BRANCH  30  31
ATOM     31  C   UNL     1       7.073  20.090  33.083  1.00  0.00    -0.003 C 
ATOM     32  C   UNL     1       6.275  20.461  31.833  1.00  0.00     0.004 C 
ENDBRANCH  30  31
ENDBRANCH  29  30
ENDBRANCH  28  29
ENDBRANCH  27  28
ENDBRANCH  26  27
ENDBRANCH  25  26
ENDBRANCH  24  25
ENDBRANCH  23  24
ENDBRANCH  22  23
ENDBRANCH  21  22
ENDBRANCH  20  21
ENDBRANCH  19  20
ENDBRANCH  18  19
ENDBRANCH   1  18
TORSDOF 28
ENDMDL
MODEL 2
REMARK VINA RESULT:    -2.488      1.679      2.487
REMARK INTER + INTRA:          -8.438
REMARK INTER:                  -6.884
REMARK INTRA:                  -1.554
REMARK UNBOUND:                -1.878
REMARK SMILES CCCCCCCCCCCCCCCCCCCCCCCCCCCCCC(=O)[O-]
REMARK SMILES IDX 16 1 17 2 18 3 19 4 20 5 21 6 22 7 23 8 24 9 25 10 26 11
REMARK SMILES IDX 27 12 28 13 29 14 30 15 31 16 32 17 15 18 14 19 13 20 12 21
REMARK SMILES IDX 11 22 10 23 9 24 8 25 7 26 6 27 5 28 4 29 3 30 2 31 1 32
REMARK H PARENT
REMARK Flexibility Score: inf
ROOT
ATOM      1  C   UNL     1       8.884   6.948  33.960  1.00  0.00     0.000 C 
ENDROOT
BRANCH   1   2
ATOM      2  C   UNL     1       8.666   6.095  35.221  1.00  0.00     0.000 C 
BRANCH   2   3
ATOM      3  C   UNL     1       7.456   5.140  35.135  1.00  0.00     0.000 C 
BRANCH   3   4
ATOM      4  C   UNL     1       6.119   5.886  34.967  1.00  0.00     0.000 C 
BRANCH   4   5
ATOM      5  C   UNL     1       5.005   4.987  34.403  1.00  0.00     0.000 C 
BRANCH   5   6
ATOM      6  C   UNL     1       5.526   3.965  33.381  1.00  0.00     0.000 C 
BRANCH   6   7
ATOM      7  C   UNL     1       4.876   2.594  33.601  1.00  0.00     0.000 C 
BRANCH   7   8
ATOM      8  C   UNL     1       5.784   1.680  34.440  1.00  0.00     0.000 C 
BRANCH   8   9
ATOM      9  C   UNL     1       5.469   1.769  35.948  1.00  0.00     0.000 C 
BRANCH   9  10
ATOM     10  C   UNL     1       6.531   1.104  36.842  1.00  0.00     0.000 C 
BRANCH  10  11
ATOM     11  C   UNL     1       7.773   1.982  37.048  1.00  0.00     0.000 C 
BRANCH  11  12
ATOM     12  C   UNL     1       9.055   1.133  37.046  1.00  0.00     0.000 C 
BRANCH  12  13
ATOM     13  C   UNL     1      10.017   1.524  35.913  1.00  0.00     0.006 C 
BRANCH  13  14
ATOM     14  C   UNL     1      10.947   2.682  36.301  1.00  0.00     0.053 C 
BRANCH  14  15
ATOM     15  C   UNL     1      12.332   2.170  36.555  1.00  0.00     0.041 C 
ATOM     16  O   UNL     1      13.333   2.853  36.211  1.00  0.00    -0.550 OA
ATOM     17  O   UNL     1      12.516   0.914  37.118  1.00  0.00    -0.550 OA
ENDBRANCH  14  15
ENDBRANCH  13  14
ENDBRANCH  12  13
ENDBRANCH  11  12
ENDBRANCH  10  11
ENDBRANCH   9  10
ENDBRANCH   8   9
ENDBRANCH   7   8
ENDBRANCH   6   7
ENDBRANCH   5   6
ENDBRANCH   4   5
ENDBRANCH   3   4
ENDBRANCH   2   3
ENDBRANCH   1   2
BRANCH   1  18
ATOM     18  C   UNL     1       7.574   7.483  33.358  1.00  0.00     0.000 C 
BRANCH  18  19
ATOM     19  C   UNL     1       7.490   9.017  33.387  1.00  0.00     0.000 C 
BRANCH  19  20
ATOM     20  C   UNL     1       7.190   9.566  34.793  1.00  0.00     0.000 C 
BRANCH  20  21
ATOM     21  C   UNL     1       5.682   9.731  35.048  1.00  0.00     0.000 C 
BRANCH  21  22
ATOM     22  C   UNL     1       5.356  11.004  35.844  1.00  0.00     0.000 C 
BRANCH  22  23
ATOM     23  C   UNL     1       5.229  12.218  34.912  1.00  0.00     0.000 C 
BRANCH  23  24
ATOM     24  C   UNL     1       4.923  13.526  35.667  1.00  0.00    -0.000 C 
BRANCH  24  25
ATOM     25  C   UNL     1       6.128  14.179  36.379  1.00  0.00    -0.000 C 
BRANCH  25  26
ATOM     26  C   UNL     1       5.838  15.532  37.060  1.00  0.00    -0.000 C 
BRANCH  26  27
ATOM     27  C   UNL     1       5.144  16.567  36.149  1.00  0.00    -0.000 C 
BRANCH  27  28
ATOM     28  C   UNL     1       6.019  17.075  34.985  1.00  0.00    -0.000 C 
BRANCH  28  29
ATOM     29  C   UNL     1       5.979  18.604  34.788  1.00  0.00    -0.000 C 
BRANCH  29  30
ATOM     30  C   UNL     1       5.953  19.000  33.301  1.00  0.00    -0.000 C 
BRANCH  30  31
ATOM     31  C   UNL     1       6.200  20.500  33.082  1.00  0.00    -0.003 C 
ATOM     32  C   UNL     1       7.380  20.775  32.151  1.00  0.00     0.004 C 
ENDBRANCH  30  31
ENDBRANCH  29  30
ENDBRANCH  28  29
ENDBRANCH  27  28
ENDBRANCH  26  27
ENDBRANCH  25  26
ENDBRANCH  24  25
ENDBRANCH  23  24
ENDBRANCH  22  23
ENDBRANCH  21  22
ENDBRANCH  20  21
ENDBRANCH  19  20
ENDBRANCH  18  19
ENDBRANCH   1  18
TORSDOF 28
ENDMDL
MODEL 3
REMARK VINA RESULT:    -1.765      4.158     11.691
REMARK INTER + INTRA:          -6.533
REMARK INTER:                  -3.809
REMARK INTRA:                  -2.724
REMARK UNBOUND:                -1.878
REMARK SMILES CCCCCCCCCCCCCCCCCCCCCCCCCCCCCC(=O)[O-]
REMARK SMILES IDX 16 1 17 2 18 3 19 4 20 5 21 6 22 7 23 8 24 9 25 10 26 11
REMARK SMILES IDX 27 12 28 13 29 14 30 15 31 16 32 17 15 18 14 19 13 20 12 21
REMARK SMILES IDX 11 22 10 23 9 24 8 25 7 26 6 27 5 28 4 29 3 30 2 31 1 32
REMARK H PARENT
REMARK Flexibility Score: inf
ROOT
ATOM      1  C   UNL     1       8.279   7.059  34.893  1.00  0.00     0.000 C 
ENDROOT
BRANCH   1   2
ATOM      2  C   UNL     1       8.629   7.463  36.335  1.00  0.00     0.000 C 
BRANCH   2   3
ATOM      3  C   UNL     1       7.457   8.098  37.115  1.00  0.00     0.000 C 
BRANCH   3   4
ATOM      4  C   UNL     1       6.080   7.636  36.602  1.00  0.00     0.000 C 
BRANCH   4   5
ATOM      5  C   UNL     1       5.056   8.782  36.536  1.00  0.00     0.000 C 
BRANCH   5   6
ATOM      6  C   UNL     1       4.903   9.362  35.122  1.00  0.00     0.000 C 
BRANCH   6   7
ATOM      7  C   UNL     1       6.113  10.227  34.752  1.00  0.00     0.000 C 
BRANCH   7   8
ATOM      8  C   UNL     1       5.909  10.911  33.391  1.00  0.00     0.000 C 
BRANCH   8   9
ATOM      9  C   UNL     1       4.942  12.111  33.480  1.00  0.00     0.000 C 
BRANCH   9  10
ATOM     10  C   UNL     1       5.214  13.038  34.678  1.00  0.00     0.000 C 
BRANCH  10  11
ATOM     11  C   UNL     1       6.062  14.261  34.307  1.00  0.00     0.000 C 
BRANCH  11  12
ATOM     12  C   UNL     1       5.701  15.471  35.184  1.00  0.00     0.000 C 
BRANCH  12  13
ATOM     13  C   UNL     1       5.923  16.809  34.461  1.00  0.00     0.006 C 
BRANCH  13  14
ATOM     14  C   UNL     1       5.760  18.017  35.393  1.00  0.00     0.053 C 
BRANCH  14  15
ATOM     15  C   UNL     1       5.864  19.292  34.613  1.00  0.00     0.041 C 
ATOM     16  O   UNL     1       5.848  19.268  33.354  1.00  0.00    -0.550 OA
ATOM     17  O   UNL     1       6.038  20.500  35.277  1.00  0.00    -0.550 OA
ENDBRANCH  14  15
ENDBRANCH  13  14
ENDBRANCH  12  13
ENDBRANCH  11  12
ENDBRANCH  10  11
ENDBRANCH   9  10
ENDBRANCH   8   9
ENDBRANCH   7   8
ENDBRANCH   6   7
ENDBRANCH   5   6
ENDBRANCH   4   5
ENDBRANCH   3   4
ENDBRANCH   2   3
ENDBRANCH   1   2
BRANCH   1  18
ATOM     18  C   UNL     1       7.432   5.779  34.812  1.00  0.00     0.000 C 
BRANCH  18  19
ATOM     19  C   UNL     1       6.387   5.829  33.686  1.00  0.00     0.000 C 
BRANCH  19  20
ATOM     20  C   UNL     1       5.129   5.004  34.010  1.00  0.00     0.000 C 
BRANCH  20  21
ATOM     21  C   UNL     1       5.179   4.387  35.418  1.00  0.00     0.000 C 
BRANCH  21  22
ATOM     22  C   UNL     1       4.947   2.868  35.402  1.00  0.00     0.000 C 
BRANCH  22  23
ATOM     23  C   UNL     1       5.826   2.166  36.447  1.00  0.00     0.000 C 
BRANCH  23  24
ATOM     24  C   UNL     1       7.162   1.662  35.867  1.00  0.00    -0.000 C 
BRANCH  24  25
ATOM     25  C   UNL     1       8.138   1.042  36.891  1.00  0.00    -0.000 C 
BRANCH  25  26
ATOM     26  C   UNL     1       9.488   1.773  37.043  1.00  0.00    -0.000 C 
BRANCH  26  27
ATOM     27  C   UNL     1       9.372   3.311  37.125  1.00  0.00    -0.000 C 
BRANCH  27  28
ATOM     28  C   UNL     1      10.424   4.070  36.291  1.00  0.00    -0.000 C 
BRANCH  28  29
ATOM     29  C   UNL     1      10.346   3.793  34.776  1.00  0.00    -0.000 C 
BRANCH  29  30
ATOM     30  C   UNL     1      11.604   4.274  34.029  1.00  0.00    -0.000 C 
BRANCH  30  31
ATOM     31  C   UNL     1      11.747   5.803  34.033  1.00  0.00    -0.003 C 
ATOM     32  C   UNL     1      13.202   6.260  34.139  1.00  0.00     0.004 C 
ENDBRANCH  30  31
ENDBRANCH  29  30
ENDBRANCH  28  29
ENDBRANCH  27  28
ENDBRANCH  26  27
ENDBRANCH  25  26
ENDBRANCH  24  25
ENDBRANCH  23  24
ENDBRANCH  22  23
ENDBRANCH  21  22
ENDBRANCH  20  21
ENDBRANCH  19  20
ENDBRANCH  18  19
ENDBRANCH   1  18
TORSDOF 28
ENDMDL
MODEL 4
REMARK VINA RESULT:    -1.124      1.456      2.479
REMARK INTER + INTRA:          -4.844
REMARK INTER:                  -3.115
REMARK INTRA:                  -1.728
REMARK UNBOUND:                -1.878
REMARK SMILES CCCCCCCCCCCCCCCCCCCCCCCCCCCCCC(=O)[O-]
REMARK SMILES IDX 16 1 17 2 18 3 19 4 20 5 21 6 22 7 23 8 24 9 25 10 26 11
REMARK SMILES IDX 27 12 28 13 29 14 30 15 31 16 32 17 15 18 14 19 13 20 12 21
REMARK SMILES IDX 11 22 10 23 9 24 8 25 7 26 6 27 5 28 4 29 3 30 2 31 1 32
REMARK H PARENT
REMARK Flexibility Score: inf
ROOT
ATOM      1  C   UNL     1       9.737   5.385  34.310  1.00  0.00     0.000 C 
ENDROOT
BRANCH   1   2
ATOM      2  C   UNL     1       9.510   5.506  35.826  1.00  0.00     0.000 C 
BRANCH   2   3
ATOM      3  C   UNL     1       8.181   4.892  36.316  1.00  0.00     0.000 C 
BRANCH   3   4
ATOM      4  C   UNL     1       6.977   5.307  35.449  1.00  0.00     0.000 C 
BRANCH   4   5
ATOM      5  C   UNL     1       6.163   4.101  34.948  1.00  0.00     0.000 C 
BRANCH   5   6
ATOM      6  C   UNL     1       4.876   3.875  35.754  1.00  0.00     0.000 C 
BRANCH   6   7
ATOM      7  C   UNL     1       5.098   2.830  36.854  1.00  0.00     0.000 C 
BRANCH   7   8
ATOM      8  C   UNL     1       5.711   1.543  36.279  1.00  0.00     0.000 C 
BRANCH   8   9
ATOM      9  C   UNL     1       6.984   1.113  37.037  1.00  0.00     0.000 C 
BRANCH   9  10
ATOM     10  C   UNL     1       8.285   1.346  36.247  1.00  0.00     0.000 C 
BRANCH  10  11
ATOM     11  C   UNL     1       9.535   0.878  37.004  1.00  0.00     0.000 C 
BRANCH  11  12
ATOM     12  C   UNL     1      10.798   1.063  36.148  1.00  0.00     0.000 C 
BRANCH  12  13
ATOM     13  C   UNL     1      11.617   2.294  36.566  1.00  0.00     0.006 C 
BRANCH  13  14
ATOM     14  C   UNL     1      13.006   2.330  35.913  1.00  0.00     0.053 C 
BRANCH  14  15
ATOM     15  C   UNL     1      13.095   3.471  34.947  1.00  0.00     0.041 C 
ATOM     16  O   UNL     1      12.083   3.822  34.284  1.00  0.00    -0.550 OA
ATOM     17  O   UNL     1      14.311   4.108  34.736  1.00  0.00    -0.550 OA
ENDBRANCH  14  15
ENDBRANCH  13  14
ENDBRANCH  12  13
ENDBRANCH  11  12
ENDBRANCH  10  11
ENDBRANCH   9  10
ENDBRANCH   8   9
ENDBRANCH   7   8
ENDBRANCH   6   7
ENDBRANCH   5   6
ENDBRANCH   4   5
ENDBRANCH   3   4
ENDBRANCH   2   3
ENDBRANCH   1   2
BRANCH   1  18
ATOM     18  C   UNL     1       9.636   6.731  33.574  1.00  0.00     0.000 C 
BRANCH  18  19
ATOM     19  C   UNL     1       8.718   7.733  34.292  1.00  0.00     0.000 C 
BRANCH  19  20
ATOM     20  C   UNL     1       7.611   8.283  33.376  1.00  0.00     0.000 C 
BRANCH  20  21
ATOM     21  C   UNL     1       6.960   9.556  33.943  1.00  0.00     0.000 C 
BRANCH  21  22
ATOM     22  C   UNL     1       5.933  10.170  32.979  1.00  0.00     0.000 C 
BRANCH  22  23
ATOM     23  C   UNL     1       5.261  11.403  33.603  1.00  0.00     0.000 C 
BRANCH  23  24
ATOM     24  C   UNL     1       5.511  11.521  35.118  1.00  0.00    -0.000 C 
BRANCH  24  25
ATOM     25  C   UNL     1       5.038  12.841  35.767  1.00  0.00    -0.000 C 
BRANCH  25  26
ATOM     26  C   UNL     1       5.251  14.109  34.916  1.00  0.00    -0.000 C 
BRANCH  26  27
ATOM     27  C   UNL     1       6.182  15.159  35.561  1.00  0.00    -0.000 C 
BRANCH  27  28
ATOM     28  C   UNL     1       5.694  16.615  35.412  1.00  0.00    -0.000 C 
BRANCH  28  29
ATOM     29  C   UNL     1       6.615  17.502  34.550  1.00  0.00    -0.000 C 
BRANCH  29  30
ATOM     30  C   UNL     1       6.573  18.979  34.983  1.00  0.00    -0.000 C 
BRANCH  30  31
ATOM     31  C   UNL     1       5.173  19.431  35.420  1.00  0.00    -0.003 C 
ATOM     32  C   UNL     1       5.181  20.178  36.753  1.00  0.00     0.004 C 
ENDBRANCH  30  31
ENDBRANCH  29  30
ENDBRANCH  28  29
ENDBRANCH  27  28
ENDBRANCH  26  27
ENDBRANCH  25  26
ENDBRANCH  24  25
ENDBRANCH  23  24
ENDBRANCH  22  23
ENDBRANCH  21  22
ENDBRANCH  20  21
ENDBRANCH  19  20
ENDBRANCH  18  19
ENDBRANCH   1  18
TORSDOF 28
ENDMDL
MODEL 5
REMARK VINA RESULT:    -0.591      4.372     11.307
REMARK INTER + INTRA:          -3.438
REMARK INTER:                  -2.354
REMARK INTRA:                  -1.083
REMARK UNBOUND:                -1.878
REMARK SMILES CCCCCCCCCCCCCCCCCCCCCCCCCCCCCC(=O)[O-]
REMARK SMILES IDX 16 1 17 2 18 3 19 4 20 5 21 6 22 7 23 8 24 9 25 10 26 11
REMARK SMILES IDX 27 12 28 13 29 14 30 15 31 16 32 17 15 18 14 19 13 20 12 21
REMARK SMILES IDX 11 22 10 23 9 24 8 25 7 26 6 27 5 28 4 29 3 30 2 31 1 32
REMARK H PARENT
REMARK Flexibility Score: inf
ROOT
ATOM      1  C   UNL     1      13.057   5.732  34.420  1.00  0.00     0.000 C 
ENDROOT
BRANCH   1   2
ATOM      2  C   UNL     1      11.827   6.496  33.903  1.00  0.00     0.000 C 
BRANCH   2   3
ATOM      3  C   UNL     1      10.493   5.739  34.080  1.00  0.00     0.000 C 
BRANCH   3   4
ATOM      4  C   UNL     1      10.570   4.639  35.157  1.00  0.00     0.000 C 
BRANCH   4   5
ATOM      5  C   UNL     1       9.297   4.561  36.016  1.00  0.00     0.000 C 
BRANCH   5   6
ATOM      6  C   UNL     1       9.025   5.856  36.797  1.00  0.00     0.000 C 
BRANCH   6   7
ATOM      7  C   UNL     1       7.542   6.235  36.726  1.00  0.00     0.000 C 
BRANCH   7   8
ATOM      8  C   UNL     1       6.773   5.292  35.786  1.00  0.00     0.000 C 
BRANCH   8   9
ATOM      9  C   UNL     1       6.611   5.883  34.370  1.00  0.00     0.000 C 
BRANCH   9  10
ATOM     10  C   UNL     1       5.404   6.829  34.228  1.00  0.00     0.000 C 
BRANCH  10  11
ATOM     11  C   UNL     1       5.797   8.229  33.739  1.00  0.00     0.000 C 
BRANCH  11  12
ATOM     12  C   UNL     1       6.285   9.104  34.904  1.00  0.00     0.000 C 
BRANCH  12  13
ATOM     13  C   UNL     1       5.237  10.141  35.341  1.00  0.00     0.006 C 
BRANCH  13  14
ATOM     14  C   UNL     1       5.872  11.422  35.899  1.00  0.00     0.053 C 
BRANCH  14  15
ATOM     15  C   UNL     1       5.305  12.624  35.209  1.00  0.00     0.041 C 
ATOM     16  O   UNL     1       4.922  13.619  35.879  1.00  0.00    -0.550 OA
ATOM     17  O   UNL     1       5.148  12.622  33.829  1.00  0.00    -0.550 OA
ENDBRANCH  14  15
ENDBRANCH  13  14
ENDBRANCH  12  13
ENDBRANCH  11  12
ENDBRANCH  10  11
ENDBRANCH   9  10
ENDBRANCH   8   9
ENDBRANCH   7   8
ENDBRANCH   6   7
ENDBRANCH   5   6
ENDBRANCH   4   5
ENDBRANCH   3   4
ENDBRANCH   2   3
ENDBRANCH   1   2
BRANCH   1  18
ATOM     18  C   UNL     1      12.933   4.207  34.264  1.00  0.00     0.000 C 
BRANCH  18  19
ATOM     19  C   UNL     1      13.526   3.438  35.455  1.00  0.00     0.000 C 
BRANCH  19  20
ATOM     20  C   UNL     1      12.907   2.039  35.623  1.00  0.00     0.000 C 
BRANCH  20  21
ATOM     21  C   UNL     1      12.086   1.915  36.918  1.00  0.00     0.000 C 
BRANCH  21  22
ATOM     22  C   UNL     1      10.959   0.876  36.802  1.00  0.00     0.000 C 
BRANCH  22  23
ATOM     23  C   UNL     1       9.580   1.545  36.912  1.00  0.00     0.000 C 
BRANCH  23  24
ATOM     24  C   UNL     1       8.516   0.875  36.023  1.00  0.00    -0.000 C 
BRANCH  24  25
ATOM     25  C   UNL     1       7.074   0.904  36.577  1.00  0.00    -0.000 C 
BRANCH  25  26
ATOM     26  C   UNL     1       6.127   1.918  35.903  1.00  0.00    -0.000 C 
BRANCH  26  27
ATOM     27  C   UNL     1       5.087   1.283  34.955  1.00  0.00    -0.000 C 
BRANCH  27  28
ATOM     28  C   UNL     1       5.581   1.097  33.505  1.00  0.00    -0.000 C 
BRANCH  28  29
ATOM     29  C   UNL     1       4.935   2.062  32.492  1.00  0.00    -0.000 C 
BRANCH  29  30
ATOM     30  C   UNL     1       5.109   1.585  31.038  1.00  0.00    -0.000 C 
BRANCH  30  31
ATOM     31  C   UNL     1       4.994   2.729  30.020  1.00  0.00    -0.003 C 
ATOM     32  C   UNL     1       5.132   2.251  28.575  1.00  0.00     0.004 C 
ENDBRANCH  30  31
ENDBRANCH  29  30
ENDBRANCH  28  29
ENDBRANCH  27  28
ENDBRANCH  26  27
ENDBRANCH  25  26
ENDBRANCH  24  25
ENDBRANCH  23  24
ENDBRANCH  22  23
ENDBRANCH  21  22
ENDBRANCH  20  21
ENDBRANCH  19  20
ENDBRANCH  18  19
ENDBRANCH   1  18
TORSDOF 28
ENDMDL
MODEL 6
REMARK VINA RESULT:    -0.286      1.712      2.543
REMARK INTER + INTRA:          -2.632
REMARK INTER:                  -3.251
REMARK INTRA:                   0.619
REMARK UNBOUND:                -1.878
REMARK SMILES CCCCCCCCCCCCCCCCCCCCCCCCCCCCCC(=O)[O-]
REMARK SMILES IDX 16 1 17 2 18 3 19 4 20 5 21 6 22 7 23 8 24 9 25 10 26 11
REMARK SMILES IDX 27 12 28 13 29 14 30 15 31 16 32 17 15 18 14 19 13 20 12 21
REMARK SMILES IDX 11 22 10 23 9 24 8 25 7 26 6 27 5 28 4 29 3 30 2 31 1 32
REMARK H PARENT
REMARK Flexibility Score: inf
ROOT
ATOM      1  C   UNL     1       6.612   5.666  35.582  1.00  0.00     0.000 C 
ENDROOT
BRANCH   1   2
ATOM      2  C   UNL     1       5.677   4.463  35.789  1.00  0.00     0.000 C 
BRANCH   2   3
ATOM      3  C   UNL     1       5.797   3.375  34.700  1.00  0.00     0.000 C 
BRANCH   3   4
ATOM      4  C   UNL     1       5.580   1.953  35.251  1.00  0.00     0.000 C 
BRANCH   4   5
ATOM      5  C   UNL     1       6.293   1.723  36.594  1.00  0.00     0.000 C 
BRANCH   5   6
ATOM      6  C   UNL     1       7.780   1.376  36.428  1.00  0.00     0.000 C 
BRANCH   6   7
ATOM      7  C   UNL     1       8.662   2.592  36.731  1.00  0.00     0.000 C 
BRANCH   7   8
ATOM      8  C   UNL     1      10.083   2.161  37.125  1.00  0.00     0.000 C 
BRANCH   8   9
ATOM      9  C   UNL     1      10.751   1.289  36.041  1.00  0.00     0.000 C 
BRANCH   9  10
ATOM     10  C   UNL     1      11.699   2.071  35.113  1.00  0.00     0.000 C 
BRANCH  10  11
ATOM     11  C   UNL     1      11.365   3.567  35.043  1.00  0.00     0.000 C 
BRANCH  11  12
ATOM     12  C   UNL     1      12.042   4.227  33.830  1.00  0.00     0.000 C 
BRANCH  12  13
ATOM     13  C   UNL     1      11.424   5.590  33.481  1.00  0.00     0.006 C 
BRANCH  13  14
ATOM     14  C   UNL     1      10.502   6.121  34.588  1.00  0.00     0.053 C 
BRANCH  14  15
ATOM     15  C   UNL     1       9.170   6.499  34.016  1.00  0.00     0.041 C 
ATOM     16  O   UNL     1       9.012   7.619  33.463  1.00  0.00    -0.550 OA
ATOM     17  O   UNL     1       8.089   5.636  34.145  1.00  0.00    -0.550 OA
ENDBRANCH  14  15
ENDBRANCH  13  14
ENDBRANCH  12  13
ENDBRANCH  11  12
ENDBRANCH  10  11
ENDBRANCH   9  10
ENDBRANCH   8   9
ENDBRANCH   7   8
ENDBRANCH   6   7
ENDBRANCH   5   6
ENDBRANCH   4   5
ENDBRANCH   3   4
ENDBRANCH   2   3
ENDBRANCH   1   2
BRANCH   1  18
ATOM     18  C   UNL     1       5.889   7.019  35.683  1.00  0.00     0.000 C 
BRANCH  18  19
ATOM     19  C   UNL     1       5.131   7.385  34.398  1.00  0.00     0.000 C 
BRANCH  19  20
ATOM     20  C   UNL     1       5.617   8.708  33.780  1.00  0.00     0.000 C 
BRANCH  20  21
ATOM     21  C   UNL     1       5.802   9.813  34.834  1.00  0.00     0.000 C 
BRANCH  21  22
ATOM     22  C   UNL     1       4.876  11.016  34.592  1.00  0.00     0.000 C 
BRANCH  22  23
ATOM     23  C   UNL     1       5.608  12.338  34.869  1.00  0.00     0.000 C 
BRANCH  23  24
ATOM     24  C   UNL     1       5.434  12.828  36.319  1.00  0.00    -0.000 C 
BRANCH  24  25
ATOM     25  C   UNL     1       5.096  14.327  36.477  1.00  0.00    -0.000 C 
BRANCH  25  26
ATOM     26  C   UNL     1       5.168  15.160  35.181  1.00  0.00    -0.000 C 
BRANCH  26  27
ATOM     27  C   UNL     1       6.407  16.076  35.082  1.00  0.00    -0.000 C 
BRANCH  27  28
ATOM     28  C   UNL     1       6.352  17.318  35.994  1.00  0.00    -0.000 C 
BRANCH  28  29
ATOM     29  C   UNL     1       5.537  18.491  35.412  1.00  0.00    -0.000 C 
BRANCH  29  30
ATOM     30  C   UNL     1       6.438  19.620  34.880  1.00  0.00    -0.000 C 
BRANCH  30  31
ATOM     31  C   UNL     1       6.364  19.769  33.354  1.00  0.00    -0.003 C 
ATOM     32  C   UNL     1       5.171  19.032  32.745  1.00  0.00     0.004 C 
ENDBRANCH  30  31
ENDBRANCH  29  30
ENDBRANCH  28  29
ENDBRANCH  27  28
ENDBRANCH  26  27
ENDBRANCH  25  26
ENDBRANCH  24  25
ENDBRANCH  23  24
ENDBRANCH  22  23
ENDBRANCH  21  22
ENDBRANCH  20  21
ENDBRANCH  19  20
ENDBRANCH  18  19
ENDBRANCH   1  18
TORSDOF 28
ENDMDL
MODEL 7
REMARK VINA RESULT:     0.002      3.715     11.445
REMARK INTER + INTRA:          -1.873
REMARK INTER:                  -1.688
REMARK INTRA:                  -0.185
REMARK UNBOUND:                -1.878
REMARK SMILES CCCCCCCCCCCCCCCCCCCCCCCCCCCCCC(=O)[O-]
REMARK SMILES IDX 16 1 17 2 18 3 19 4 20 5 21 6 22 7 23 8 24 9 25 10 26 11
REMARK SMILES IDX 27 12 28 13 29 14 30 15 31 16 32 17 15 18 14 19 13 20 12 21
REMARK SMILES IDX 11 22 10 23 9 24 8 25 7 26 6 27 5 28 4 29 3 30 2 31 1 32
REMARK H PARENT
REMARK Flexibility Score: inf
ROOT
ATOM      1  C   UNL     1       8.614   6.268  35.244  1.00  0.00     0.000 C 
ENDROOT
BRANCH   1   2
ATOM      2  C   UNL     1       8.996   7.045  36.514  1.00  0.00     0.000 C 
BRANCH   2   3
ATOM      3  C   UNL     1       7.858   7.920  37.084  1.00  0.00     0.000 C 
BRANCH   3   4
ATOM      4  C   UNL     1       6.461   7.319  36.835  1.00  0.00     0.000 C 
BRANCH   4   5
ATOM      5  C   UNL     1       5.354   8.386  36.802  1.00  0.00     0.000 C 
BRANCH   5   6
ATOM      6  C   UNL     1       4.979   8.809  35.374  1.00  0.00     0.000 C 
BRANCH   6   7
ATOM      7  C   UNL     1       6.218   9.270  34.597  1.00  0.00     0.000 C 
BRANCH   7   8
ATOM      8  C   UNL     1       5.822  10.092  33.360  1.00  0.00     0.000 C 
BRANCH   8   9
ATOM      9  C   UNL     1       5.711  11.599  33.671  1.00  0.00     0.000 C 
BRANCH   9  10
ATOM     10  C   UNL     1       5.042  11.904  35.024  1.00  0.00     0.000 C 
BRANCH  10  11
ATOM     11  C   UNL     1       6.027  12.446  36.068  1.00  0.00     0.000 C 
BRANCH  11  12
ATOM     12  C   UNL     1       5.365  13.520  36.947  1.00  0.00     0.000 C 
BRANCH  12  13
ATOM     13  C   UNL     1       5.860  14.937  36.617  1.00  0.00     0.006 C 
BRANCH  13  14
ATOM     14  C   UNL     1       5.103  15.569  35.441  1.00  0.00     0.053 C 
BRANCH  14  15
ATOM     15  C   UNL     1       5.935  16.638  34.804  1.00  0.00     0.041 C 
ATOM     16  O   UNL     1       7.110  16.388  34.427  1.00  0.00    -0.550 OA
ATOM     17  O   UNL     1       5.431  17.927  34.678  1.00  0.00    -0.550 OA
ENDBRANCH  14  15
ENDBRANCH  13  14
ENDBRANCH  12  13
ENDBRANCH  11  12
ENDBRANCH  10  11
ENDBRANCH   9  10
ENDBRANCH   8   9
ENDBRANCH   7   8
ENDBRANCH   6   7
ENDBRANCH   5   6
ENDBRANCH   4   5
ENDBRANCH   3   4
ENDBRANCH   2   3
ENDBRANCH   1   2
BRANCH   1  18
ATOM     18  C   UNL     1       8.204   4.813  35.524  1.00  0.00     0.000 C 
BRANCH  18  19
ATOM     19  C   UNL     1       6.782   4.492  35.039  1.00  0.00     0.000 C 
BRANCH  19  20
ATOM     20  C   UNL     1       6.142   3.326  35.812  1.00  0.00     0.000 C 
BRANCH  20  21
ATOM     21  C   UNL     1       7.011   2.858  36.992  1.00  0.00     0.000 C 
BRANCH  21  22
ATOM     22  C   UNL     1       7.376   1.368  36.898  1.00  0.00     0.000 C 
BRANCH  22  23
ATOM     23  C   UNL     1       8.880   1.154  37.124  1.00  0.00     0.000 C 
BRANCH  23  24
ATOM     24  C   UNL     1       9.685   1.113  35.812  1.00  0.00    -0.000 C 
BRANCH  24  25
ATOM     25  C   UNL     1      11.205   0.886  35.972  1.00  0.00    -0.000 C 
BRANCH  25  26
ATOM     26  C   UNL     1      11.997   2.086  36.530  1.00  0.00    -0.000 C 
BRANCH  26  27
ATOM     27  C   UNL     1      12.314   3.178  35.485  1.00  0.00    -0.000 C 
BRANCH  27  28
ATOM     28  C   UNL     1      13.813   3.520  35.362  1.00  0.00    -0.000 C 
BRANCH  28  29
ATOM     29  C   UNL     1      14.113   4.707  34.425  1.00  0.00    -0.000 C 
BRANCH  29  30
ATOM     30  C   UNL     1      12.938   5.699  34.346  1.00  0.00    -0.000 C 
BRANCH  30  31
ATOM     31  C   UNL     1      11.703   5.103  33.657  1.00  0.00    -0.003 C 
ATOM     32  C   UNL     1      10.607   6.138  33.406  1.00  0.00     0.004 C 
ENDBRANCH  30  31
ENDBRANCH  29  30
ENDBRANCH  28  29
ENDBRANCH  27  28
ENDBRANCH  26  27
ENDBRANCH  25  26
ENDBRANCH  24  25
ENDBRANCH  23  24
ENDBRANCH  22  23
ENDBRANCH  21  22
ENDBRANCH  20  21
ENDBRANCH  19  20
ENDBRANCH  18  19
ENDBRANCH   1  18
TORSDOF 28
ENDMDL
