MODEL 1
REMARK VINA RESULT:    -3.264      0.000      0.000
REMARK INTER + INTRA:          -3.687
REMARK INTER:                  -3.645
REMARK INTRA:                  -0.042
REMARK UNBOUND:                -0.042
REMARK SMILES CCCC(=O)[O-]
REMARK SMILES IDX 3 1 4 2 5 3 6 4 2 5 1 6
REMARK H PARENT
REMARK Flexibility Score: inf
ROOT
ATOM      1  C   UNL     1       6.536   8.544   5.291  1.00  0.00     0.052 C 
ENDROOT
BRANCH   1   2
ATOM      2  C   UNL     1       5.664   7.379   4.934  1.00  0.00     0.041 C 
ATOM      3  O   UNL     1       4.494   7.299   5.393  1.00  0.00    -0.550 OA
ATOM      4  O   UNL     1       6.156   6.362   4.124  1.00  0.00    -0.550 OA
ENDBRANCH   1   2
BRANCH   1   5
ATOM      5  C   UNL     1       8.000   8.125   5.475  1.00  0.00     0.003 C 
ATOM      6  C   UNL     1       8.216   7.315   6.753  1.00  0.00     0.004 C 
ENDBRANCH   1   5
TORSDOF 2
ENDMDL
MODEL 2
REMARK VINA RESULT:    -3.238      7.918      8.758
REMARK INTER + INTRA:          -3.659
REMARK INTER:                  -3.612
REMARK INTRA:                  -0.047
REMARK UNBOUND:                -0.042
REMARK SMILES CCCC(=O)[O-]
REMARK SMILES IDX 3 1 4 2 5 3 6 4 2 5 1 6
REMARK H PARENT
REMARK Flexibility Score: inf
ROOT
ATOM      1  C   UNL     1      -0.530   4.979   9.998  1.00  0.00     0.052 C 
ENDROOT
BRANCH   1   2
ATOM      2  C   UNL     1      -0.556   6.096   9.001  1.00  0.00     0.041 C 
ATOM      3  O   UNL     1      -1.491   6.940   9.020  1.00  0.00    -0.550 OA
ATOM      4  O   UNL     1       0.432   6.185   8.028  1.00  0.00    -0.550 OA
ENDBRANCH   1   2
BRANCH   1   5
ATOM      5  C   UNL     1      -1.039   5.429  11.373  1.00  0.00     0.003 C 
ATOM      6  C   UNL     1       0.025   6.189  12.166  1.00  0.00     0.004 C 
ENDBRANCH   1   5
TORSDOF 2
ENDMDL
MODEL 3
REMARK VINA RESULT:    -3.212      1.264      1.686
REMARK INTER + INTRA:          -3.629
REMARK INTER:                  -3.623
REMARK INTRA:                  -0.006
REMARK UNBOUND:                -0.042
REMARK SMILES CCCC(=O)[O-]
REMARK SMILES IDX 3 1 4 2 5 3 6 4 2 5 1 6
REMARK H PARENT
REMARK Flexibility Score: inf
ROOT
ATOM      1  C   UNL     1       7.980   7.800   5.962  1.00  0.00     0.052 C 
ENDROOT
BRANCH   1   2
ATOM      2  C   UNL     1       6.750   7.802   5.107  1.00  0.00     0.041 C 
ATOM      3  O   UNL     1       6.093   8.864   4.945  1.00  0.00    -0.550 OA
ATOM      4  O   UNL     1       6.309   6.623   4.518  1.00  0.00    -0.550 OA
ENDBRANCH   1   2
BRANCH   1   5
ATOM      5  C   UNL     1       7.809   6.917   7.205  1.00  0.00     0.003 C 
ATOM      6  C   UNL     1       9.127   6.699   7.949  1.00  0.00     0.004 C 
ENDBRANCH   1   5
TORSDOF 2
ENDMDL
MODEL 4
REMARK VINA RESULT:    -3.183      8.958      9.586
REMARK INTER + INTRA:          -3.597
REMARK INTER:                  -3.579
REMARK INTRA:                  -0.018
REMARK UNBOUND:                -0.042
REMARK SMILES CCCC(=O)[O-]
REMARK SMILES IDX 3 1 4 2 5 3 6 4 2 5 1 6
REMARK H PARENT
REMARK Flexibility Score: inf
ROOT
ATOM      1  C   UNL     1       0.500   6.972  12.864  1.00  0.00     0.052 C 
ENDROOT
BRANCH   1   2
ATOM      2  C   UNL     1       1.287   8.236  12.702  1.00  0.00     0.041 C 
ATOM      3  O   UNL     1       1.099   8.976  11.700  1.00  0.00    -0.550 OA
ATOM      4  O   UNL     1       2.254   8.579  13.639  1.00  0.00    -0.550 OA
ENDBRANCH   1   2
BRANCH   1   5
ATOM      5  C   UNL     1       0.310   6.244  11.527  1.00  0.00     0.003 C 
ATOM      6  C   UNL     1      -1.017   5.488  11.461  1.00  0.00     0.004 C 
ENDBRANCH   1   5
TORSDOF 2
ENDMDL
MODEL 5
REMARK VINA RESULT:    -3.175      8.708      9.127
REMARK INTER + INTRA:          -3.588
REMARK INTER:                  -3.583
REMARK INTRA:                  -0.005
REMARK UNBOUND:                -0.042
REMARK SMILES CCCC(=O)[O-]
REMARK SMILES IDX 3 1 4 2 5 3 6 4 2 5 1 6
REMARK H PARENT
REMARK Flexibility Score: inf
ROOT
ATOM      1  C   UNL     1      -0.768   5.790  11.352  1.00  0.00     0.052 C 
ENDROOT
BRANCH   1   2
ATOM      2  C   UNL     1      -0.967   5.814   9.868  1.00  0.00     0.041 C 
ATOM      3  O   UNL     1      -0.572   4.850   9.161  1.00  0.00    -0.550 OA
ATOM      4  O   UNL     1      -1.555   6.916   9.261  1.00  0.00    -0.550 OA
ENDBRANCH   1   2
BRANCH   1   5
ATOM      5  C   UNL     1       0.518   6.515  11.767  1.00  0.00     0.003 C 
ATOM      6  C   UNL     1       0.571   6.791  13.270  1.00  0.00     0.004 C 
ENDBRANCH   1   5
TORSDOF 2
ENDMDL
MODEL 6
REMARK VINA RESULT:    -3.175      3.209      4.019
REMARK INTER + INTRA:          -3.588
REMARK INTER:                  -3.572
REMARK INTRA:                  -0.015
REMARK UNBOUND:                -0.042
REMARK SMILES CCCC(=O)[O-]
REMARK SMILES IDX 3 1 4 2 5 3 6 4 2 5 1 6
REMARK H PARENT
REMARK Flexibility Score: inf
ROOT
ATOM      1  C   UNL     1       8.714   6.596   7.635  1.00  0.00     0.052 C 
ENDROOT
BRANCH   1   2
ATOM      2  C   UNL     1       8.246   5.332   8.289  1.00  0.00     0.041 C 
ATOM      3  O   UNL     1       8.672   5.015   9.431  1.00  0.00    -0.550 OA
ATOM      4  O   UNL     1       7.369   4.486   7.621  1.00  0.00    -0.550 OA
ENDBRANCH   1   2
BRANCH   1   5
ATOM      5  C   UNL     1       7.589   7.282   6.850  1.00  0.00     0.003 C 
ATOM      6  C   UNL     1       8.107   8.016   5.613  1.00  0.00     0.004 C 
ENDBRANCH   1   5
TORSDOF 2
ENDMDL
MODEL 7
REMARK VINA RESULT:    -3.104      2.440      3.155
REMARK INTER + INTRA:          -3.509
REMARK INTER:                  -3.487
REMARK INTRA:                  -0.022
REMARK UNBOUND:                -0.042
REMARK SMILES CCCC(=O)[O-]
REMARK SMILES IDX 3 1 4 2 5 3 6 4 2 5 1 6
REMARK H PARENT
REMARK Flexibility Score: inf
ROOT
ATOM      1  C   UNL     1       7.873   7.812   5.811  1.00  0.00     0.052 C 
ENDROOT
BRANCH   1   2
ATOM      2  C   UNL     1       8.017   7.040   7.087  1.00  0.00     0.041 C 
ATOM      3  O   UNL     1       6.997   6.734   7.761  1.00  0.00    -0.550 OA
ATOM      4  O   UNL     1       9.279   6.690   7.551  1.00  0.00    -0.550 OA
ENDBRANCH   1   2
BRANCH   1   5
ATOM      5  C   UNL     1       6.419   7.840   5.323  1.00  0.00     0.003 C 
ATOM      6  C   UNL     1       6.088   6.654   4.416  1.00  0.00     0.004 C 
ENDBRANCH   1   5
TORSDOF 2
ENDMDL
MODEL 8
REMARK VINA RESULT:    -3.084      8.489      9.080
REMARK INTER + INTRA:          -3.486
REMARK INTER:                  -3.470
REMARK INTRA:                  -0.016
REMARK UNBOUND:                -0.042
REMARK SMILES CCCC(=O)[O-]
REMARK SMILES IDX 3 1 4 2 5 3 6 4 2 5 1 6
REMARK H PARENT
REMARK Flexibility Score: inf
ROOT
ATOM      1  C   UNL     1       0.794   6.219  11.259  1.00  0.00     0.052 C 
ENDROOT
BRANCH   1   2
ATOM      2  C   UNL     1      -0.397   5.411  10.843  1.00  0.00     0.041 C 
ATOM      3  O   UNL     1      -1.419   5.365  11.577  1.00  0.00    -0.550 OA
ATOM      4  O   UNL     1      -0.365   4.681   9.661  1.00  0.00    -0.550 OA
ENDBRANCH   1   2
BRANCH   1   5
ATOM      5  C   UNL     1       0.591   6.865  12.636  1.00  0.00     0.003 C 
ATOM      6  C   UNL     1       1.326   8.199  12.766  1.00  0.00     0.004 C 
ENDBRANCH   1   5
TORSDOF 2
ENDMDL
MODEL 9
REMARK VINA RESULT:    -3.063      2.131      2.441
REMARK INTER + INTRA:          -3.463
REMARK INTER:                  -3.437
REMARK INTRA:                  -0.026
REMARK UNBOUND:                -0.042
REMARK SMILES CCCC(=O)[O-]
REMARK SMILES IDX 3 1 4 2 5 3 6 4 2 5 1 6
REMARK H PARENT
REMARK Flexibility Score: inf
ROOT
ATOM      1  C   UNL     1       6.184   8.436   5.314  1.00  0.00     0.052 C 
ENDROOT
BRANCH   1   2
ATOM      2  C   UNL     1       5.584   8.615   6.675  1.00  0.00     0.041 C 
ATOM      3  O   UNL     1       4.680   9.472   6.860  1.00  0.00    -0.550 OA
ATOM      4  O   UNL     1       6.049   7.862   7.746  1.00  0.00    -0.550 OA
ENDBRANCH   1   2
BRANCH   1   5
ATOM      5  C   UNL     1       7.712   8.323   5.374  1.00  0.00     0.003 C 
ATOM      6  C   UNL     1       8.408   9.609   4.930  1.00  0.00     0.004 C 
ENDBRANCH   1   5
TORSDOF 2
ENDMDL
