MODEL 1
REMARK VINA RESULT:    -8.705      0.000      0.000
REMARK INTER + INTRA:          -9.468
REMARK INTER:                  -9.468
REMARK INTRA:                   0.000
REMARK UNBOUND:                 0.000
REMARK SMILES Cc1cc(O)c2c(c1)C(=O)c1cc(O)cc(O)c1C2=O
REMARK SMILES IDX 1 1 2 2 8 3 7 4 6 5 4 6 3 7 19 8 20 9 18 10 11 11 9 12 10 13
REMARK SMILES IDX 12 14 13 15 15 16 16 17 5 18 17 20 14 22
REMARK H PARENT 5 19 17 21 14 23
REMARK Flexibility Score: inf
ROOT
ATOM      1  C   UNL     1     164.342 148.271 150.052  1.00  0.00     0.044 C 
ATOM      2  C   UNL     1     165.588 147.573 150.512  1.00  0.00    -0.047 A 
ATOM      3  C   UNL     1     166.595 147.252 149.593  1.00  0.00     0.016 A 
ATOM      4  C   UNL     1     167.752 146.573 150.008  1.00  0.00     0.038 A 
ATOM      5  C   UNL     1     167.906 146.208 151.364  1.00  0.00     0.076 A 
ATOM      6  C   UNL     1     166.846 146.459 152.272  1.00  0.00     0.127 A 
ATOM      7  C   UNL     1     165.712 147.155 151.840  1.00  0.00     0.050 A 
ATOM      8  C   UNL     1     169.204 145.625 151.793  1.00  0.00     0.201 C 
ATOM      9  O   UNL     1     169.615 145.808 152.970  1.00  0.00    -0.288 OA
ATOM     10  C   UNL     1     170.097 144.994 150.786  1.00  0.00     0.076 A 
ATOM     11  C   UNL     1     169.939 145.360 149.430  1.00  0.00     0.041 A 
ATOM     12  C   UNL     1     168.811 146.232 149.028  1.00  0.00     0.194 C 
ATOM     13  O   UNL     1     168.737 146.663 147.844  1.00  0.00    -0.289 OA
ATOM     14  C   UNL     1     170.851 144.890 148.469  1.00  0.00     0.059 A 
ATOM     15  C   UNL     1     171.905 144.052 148.841  1.00  0.00     0.120 A 
ATOM     16  C   UNL     1     172.040 143.656 150.172  1.00  0.00     0.093 A 
ATOM     17  C   UNL     1     171.134 144.093 151.144  1.00  0.00     0.131 A 
ENDROOT
BRANCH   6  18
ATOM     18  O   UNL     1     166.860 146.008 153.594  1.00  0.00    -0.507 OA
ATOM     19  H   UNL     1     167.531 145.339 153.948  1.00  0.00     0.293 HD
ENDBRANCH   6  18
BRANCH  17  20
ATOM     20  O   UNL     1     171.280 143.582 152.436  1.00  0.00    -0.507 OA
ATOM     21  H   UNL     1     170.551 143.615 153.135  1.00  0.00     0.293 HD
ENDBRANCH  17  20
BRANCH  15  22
ATOM     22  O   UNL     1     172.818 143.595 147.894  1.00  0.00    -0.508 OA
ATOM     23  H   UNL     1     172.657 142.743 147.370  1.00  0.00     0.293 HD
ENDBRANCH  15  22
TORSDOF 3
ENDMDL
MODEL 2
REMARK VINA RESULT:    -8.169      1.867      4.010
REMARK INTER + INTRA:          -8.885
REMARK INTER:                  -8.885
REMARK INTRA:                   0.000
REMARK UNBOUND:                 0.000
REMARK SMILES Cc1cc(O)c2c(c1)C(=O)c1cc(O)cc(O)c1C2=O
REMARK SMILES IDX 1 1 2 2 8 3 7 4 6 5 4 6 3 7 19 8 20 9 18 10 11 11 9 12 10 13
REMARK SMILES IDX 12 14 13 15 15 16 16 17 5 18 17 20 14 22
REMARK H PARENT 5 19 17 21 14 23
REMARK Flexibility Score: inf
ROOT
ATOM      1  C   UNL     1     164.623 148.261 150.148  1.00  0.00     0.044 C 
ATOM      2  C   UNL     1     165.889 147.482 150.353  1.00  0.00    -0.047 A 
ATOM      3  C   UNL     1     166.268 147.083 151.641  1.00  0.00     0.016 A 
ATOM      4  C   UNL     1     167.465 146.378 151.848  1.00  0.00     0.038 A 
ATOM      5  C   UNL     1     168.297 146.067 150.749  1.00  0.00     0.076 A 
ATOM      6  C   UNL     1     167.951 146.548 149.461  1.00  0.00     0.127 A 
ATOM      7  C   UNL     1     166.744 147.230 149.276  1.00  0.00     0.050 A 
ATOM      8  C   UNL     1     169.478 145.194 150.985  1.00  0.00     0.201 C 
ATOM      9  O   UNL     1     169.894 144.442 150.065  1.00  0.00    -0.288 OA
ATOM     10  C   UNL     1     170.041 145.072 152.355  1.00  0.00     0.076 A 
ATOM     11  C   UNL     1     169.206 145.386 153.451  1.00  0.00     0.041 A 
ATOM     12  C   UNL     1     167.863 145.965 153.215  1.00  0.00     0.194 C 
ATOM     13  O   UNL     1     167.067 146.129 154.180  1.00  0.00    -0.289 OA
ATOM     14  C   UNL     1     169.657 145.152 154.762  1.00  0.00     0.059 A 
ATOM     15  C   UNL     1     170.931 144.625 154.991  1.00  0.00     0.120 A 
ATOM     16  C   UNL     1     171.772 144.351 153.913  1.00  0.00     0.093 A 
ATOM     17  C   UNL     1     171.355 144.594 152.599  1.00  0.00     0.131 A 
ENDROOT
BRANCH   6  18
ATOM     18  O   UNL     1     168.786 146.403 148.350  1.00  0.00    -0.507 OA
ATOM     19  H   UNL     1     169.558 145.752 148.314  1.00  0.00     0.293 HD
ENDBRANCH   6  18
BRANCH  17  20
ATOM     20  O   UNL     1     172.285 144.382 151.579  1.00  0.00    -0.507 OA
ATOM     21  H   UNL     1     173.064 143.743 151.657  1.00  0.00     0.293 HD
ENDBRANCH  17  20
BRANCH  15  22
ATOM     22  O   UNL     1     171.376 144.379 156.287  1.00  0.00    -0.508 OA
ATOM     23  H   UNL     1     170.791 144.569 157.094  1.00  0.00     0.293 HD
ENDBRANCH  15  22
TORSDOF 3
ENDMDL
MODEL 3
REMARK VINA RESULT:    -8.028      1.201      1.688
REMARK INTER + INTRA:          -8.732
REMARK INTER:                  -8.732
REMARK INTRA:                   0.000
REMARK UNBOUND:                 0.000
REMARK SMILES Cc1cc(O)c2c(c1)C(=O)c1cc(O)cc(O)c1C2=O
REMARK SMILES IDX 1 1 2 2 8 3 7 4 6 5 4 6 3 7 19 8 20 9 18 10 11 11 9 12 10 13
REMARK SMILES IDX 12 14 13 15 15 16 16 17 5 18 17 20 14 22
REMARK H PARENT 5 19 17 21 14 23
REMARK Flexibility Score: inf
ROOT
ATOM      1  C   UNL     1     165.973 147.726 149.994  1.00  0.00     0.044 C 
ATOM      2  C   UNL     1     167.123 146.905 150.499  1.00  0.00    -0.047 A 
ATOM      3  C   UNL     1     168.122 146.476 149.617  1.00  0.00     0.016 A 
ATOM      4  C   UNL     1     169.187 145.683 150.074  1.00  0.00     0.038 A 
ATOM      5  C   UNL     1     169.255 145.312 151.435  1.00  0.00     0.076 A 
ATOM      6  C   UNL     1     168.196 145.677 152.305  1.00  0.00     0.127 A 
ATOM      7  C   UNL     1     167.156 146.484 151.832  1.00  0.00     0.050 A 
ATOM      8  C   UNL     1     170.470 144.599 151.910  1.00  0.00     0.201 C 
ATOM      9  O   UNL     1     170.856 144.746 153.101  1.00  0.00    -0.288 OA
ATOM     10  C   UNL     1     171.326 143.873 150.937  1.00  0.00     0.076 A 
ATOM     11  C   UNL     1     171.255 144.245 149.576  1.00  0.00     0.041 A 
ATOM     12  C   UNL     1     170.238 145.227 149.132  1.00  0.00     0.194 C 
ATOM     13  O   UNL     1     170.251 145.657 147.945  1.00  0.00    -0.289 OA
ATOM     14  C   UNL     1     172.146 143.678 148.649  1.00  0.00     0.059 A 
ATOM     15  C   UNL     1     173.093 142.737 149.059  1.00  0.00     0.120 A 
ATOM     16  C   UNL     1     173.140 142.337 150.395  1.00  0.00     0.093 A 
ATOM     17  C   UNL     1     172.251 142.871 151.334  1.00  0.00     0.131 A 
ENDROOT
BRANCH   6  18
ATOM     18  O   UNL     1     168.117 145.234 153.628  1.00  0.00    -0.507 OA
ATOM     19  H   UNL     1     167.285 145.316 154.195  1.00  0.00     0.293 HD
ENDBRANCH   6  18
BRANCH  17  20
ATOM     20  O   UNL     1     172.298 142.355 152.631  1.00  0.00    -0.507 OA
ATOM     21  H   UNL     1     172.774 141.498 152.873  1.00  0.00     0.293 HD
ENDBRANCH  17  20
BRANCH  15  22
ATOM     22  O   UNL     1     173.986 142.182 148.146  1.00  0.00    -0.508 OA
ATOM     23  H   UNL     1     174.445 142.749 147.441  1.00  0.00     0.293 HD
ENDBRANCH  15  22
TORSDOF 3
ENDMDL
MODEL 4
REMARK VINA RESULT:    -7.671      2.405      4.574
REMARK INTER + INTRA:          -8.344
REMARK INTER:                  -8.344
REMARK INTRA:                   0.000
REMARK UNBOUND:                 0.000
REMARK SMILES Cc1cc(O)c2c(c1)C(=O)c1cc(O)cc(O)c1C2=O
REMARK SMILES IDX 1 1 2 2 8 3 7 4 6 5 4 6 3 7 19 8 20 9 18 10 11 11 9 12 10 13
REMARK SMILES IDX 12 14 13 15 15 16 16 17 5 18 17 20 14 22
REMARK H PARENT 5 19 17 21 14 23
REMARK Flexibility Score: inf
ROOT
ATOM      1  C   UNL     1     165.899 147.622 149.255  1.00  0.00     0.044 C 
ATOM      2  C   UNL     1     167.114 147.019 149.898  1.00  0.00    -0.047 A 
ATOM      3  C   UNL     1     167.094 146.673 151.254  1.00  0.00     0.016 A 
ATOM      4  C   UNL     1     168.235 146.135 151.872  1.00  0.00     0.038 A 
ATOM      5  C   UNL     1     169.416 145.940 151.121  1.00  0.00     0.076 A 
ATOM      6  C   UNL     1     169.456 146.372 149.771  1.00  0.00     0.127 A 
ATOM      7  C   UNL     1     168.301 146.886 149.172  1.00  0.00     0.050 A 
ATOM      8  C   UNL     1     170.553 145.234 151.768  1.00  0.00     0.201 C 
ATOM      9  O   UNL     1     171.342 144.546 151.068  1.00  0.00    -0.288 OA
ATOM     10  C   UNL     1     170.642 145.186 153.250  1.00  0.00     0.076 A 
ATOM     11  C   UNL     1     169.459 145.383 153.998  1.00  0.00     0.041 A 
ATOM     12  C   UNL     1     168.208 145.777 153.310  1.00  0.00     0.194 C 
ATOM     13  O   UNL     1     167.123 145.831 153.953  1.00  0.00    -0.289 OA
ATOM     14  C   UNL     1     169.478 145.210 155.393  1.00  0.00     0.059 A 
ATOM     15  C   UNL     1     170.661 144.859 156.049  1.00  0.00     0.120 A 
ATOM     16  C   UNL     1     171.838 144.703 155.319  1.00  0.00     0.093 A 
ATOM     17  C   UNL     1     171.852 144.890 153.933  1.00  0.00     0.131 A 
ENDROOT
BRANCH   6  18
ATOM     18  O   UNL     1     170.623 146.343 149.002  1.00  0.00    -0.507 OA
ATOM     19  H   UNL     1     171.200 145.521 148.896  1.00  0.00     0.293 HD
ENDBRANCH   6  18
BRANCH  17  20
ATOM     20  O   UNL     1     173.086 144.806 153.283  1.00  0.00    -0.507 OA
ATOM     21  H   UNL     1     173.505 145.575 152.780  1.00  0.00     0.293 HD
ENDBRANCH  17  20
BRANCH  15  22
ATOM     22  O   UNL     1     170.679 144.673 157.429  1.00  0.00    -0.508 OA
ATOM     23  H   UNL     1     170.845 145.445 158.066  1.00  0.00     0.293 HD
ENDBRANCH  15  22
TORSDOF 3
ENDMDL
MODEL 5
REMARK VINA RESULT:    -7.530      2.548      5.072
REMARK INTER + INTRA:          -8.191
REMARK INTER:                  -8.191
REMARK INTRA:                   0.000
REMARK UNBOUND:                 0.000
REMARK SMILES Cc1cc(O)c2c(c1)C(=O)c1cc(O)cc(O)c1C2=O
REMARK SMILES IDX 1 1 2 2 8 3 7 4 6 5 4 6 3 7 19 8 20 9 18 10 11 11 9 12 10 13
REMARK SMILES IDX 12 14 13 15 15 16 16 17 5 18 17 20 14 22
REMARK H PARENT 5 19 17 21 14 23
REMARK Flexibility Score: inf
ROOT
ATOM      1  C   UNL     1     171.773 144.491 156.855  1.00  0.00     0.044 C 
ATOM      2  C   UNL     1     170.723 144.925 155.876  1.00  0.00    -0.047 A 
ATOM      3  C   UNL     1     170.926 144.750 154.502  1.00  0.00     0.016 A 
ATOM      4  C   UNL     1     169.961 145.179 153.575  1.00  0.00     0.038 A 
ATOM      5  C   UNL     1     168.774 145.794 154.030  1.00  0.00     0.076 A 
ATOM      6  C   UNL     1     168.612 146.046 155.416  1.00  0.00     0.127 A 
ATOM      7  C   UNL     1     169.577 145.591 156.321  1.00  0.00     0.050 A 
ATOM      8  C   UNL     1     167.714 146.100 153.034  1.00  0.00     0.201 C 
ATOM      9  O   UNL     1     166.504 146.093 153.384  1.00  0.00    -0.288 OA
ATOM     10  C   UNL     1     168.068 146.225 151.596  1.00  0.00     0.076 A 
ATOM     11  C   UNL     1     169.258 145.610 151.145  1.00  0.00     0.041 A 
ATOM     12  C   UNL     1     170.187 144.996 152.121  1.00  0.00     0.194 C 
ATOM     13  O   UNL     1     171.184 144.337 151.716  1.00  0.00    -0.289 OA
ATOM     14  C   UNL     1     169.556 145.589 149.771  1.00  0.00     0.059 A 
ATOM     15  C   UNL     1     168.692 146.185 148.848  1.00  0.00     0.120 A 
ATOM     16  C   UNL     1     167.538 146.828 149.294  1.00  0.00     0.093 A 
ATOM     17  C   UNL     1     167.228 146.881 150.657  1.00  0.00     0.131 A 
ENDROOT
BRANCH   6  18
ATOM     18  O   UNL     1     167.535 146.771 155.932  1.00  0.00    -0.507 OA
ATOM     19  H   UNL     1     166.704 146.340 156.313  1.00  0.00     0.293 HD
ENDBRANCH   6  18
BRANCH  17  20
ATOM     20  O   UNL     1     166.105 147.620 151.034  1.00  0.00    -0.507 OA
ATOM     21  H   UNL     1     165.243 147.201 151.354  1.00  0.00     0.293 HD
ENDBRANCH  17  20
BRANCH  15  22
ATOM     22  O   UNL     1     168.978 146.155 147.486  1.00  0.00    -0.508 OA
ATOM     23  H   UNL     1     168.566 145.462 146.872  1.00  0.00     0.293 HD
ENDBRANCH  15  22
TORSDOF 3
ENDMDL
MODEL 6
REMARK VINA RESULT:    -7.470      1.463      6.417
REMARK INTER + INTRA:          -8.125
REMARK INTER:                  -8.125
REMARK INTRA:                   0.000
REMARK UNBOUND:                 0.000
REMARK SMILES Cc1cc(O)c2c(c1)C(=O)c1cc(O)cc(O)c1C2=O
REMARK SMILES IDX 1 1 2 2 8 3 7 4 6 5 4 6 3 7 19 8 20 9 18 10 11 11 9 12 10 13
REMARK SMILES IDX 12 14 13 15 15 16 16 17 5 18 17 20 14 22
REMARK H PARENT 5 19 17 21 14 23
REMARK Flexibility Score: inf
ROOT
ATOM      1  C   UNL     1     174.247 141.843 148.877  1.00  0.00     0.044 C 
ATOM      2  C   UNL     1     173.140 142.855 148.916  1.00  0.00    -0.047 A 
ATOM      3  C   UNL     1     172.455 143.103 150.111  1.00  0.00     0.016 A 
ATOM      4  C   UNL     1     171.398 144.028 150.152  1.00  0.00     0.038 A 
ATOM      5  C   UNL     1     171.020 144.716 148.977  1.00  0.00     0.076 A 
ATOM      6  C   UNL     1     171.660 144.398 147.753  1.00  0.00     0.127 A 
ATOM      7  C   UNL     1     172.723 143.489 147.741  1.00  0.00     0.050 A 
ATOM      8  C   UNL     1     169.999 145.791 149.090  1.00  0.00     0.201 C 
ATOM      9  O   UNL     1     170.032 146.770 148.298  1.00  0.00    -0.288 OA
ATOM     10  C   UNL     1     169.068 145.805 150.248  1.00  0.00     0.076 A 
ATOM     11  C   UNL     1     169.449 145.113 151.420  1.00  0.00     0.041 A 
ATOM     12  C   UNL     1     170.673 144.280 151.420  1.00  0.00     0.194 C 
ATOM     13  O   UNL     1     171.086 143.763 152.496  1.00  0.00    -0.289 OA
ATOM     14  C   UNL     1     168.660 145.216 152.579  1.00  0.00     0.059 A 
ATOM     15  C   UNL     1     167.494 145.986 152.578  1.00  0.00     0.120 A 
ATOM     16  C   UNL     1     167.094 146.637 151.411  1.00  0.00     0.093 A 
ATOM     17  C   UNL     1     167.850 146.533 150.238  1.00  0.00     0.131 A 
ENDROOT
BRANCH   6  18
ATOM     18  O   UNL     1     171.253 144.930 146.526  1.00  0.00    -0.507 OA
ATOM     19  H   UNL     1     170.389 145.438 146.399  1.00  0.00     0.293 HD
ENDBRANCH   6  18
BRANCH  17  20
ATOM     20  O   UNL     1     167.338 147.137 149.087  1.00  0.00    -0.507 OA
ATOM     21  H   UNL     1     166.838 146.633 148.368  1.00  0.00     0.293 HD
ENDBRANCH  17  20
BRANCH  15  22
ATOM     22  O   UNL     1     166.717 146.101 153.728  1.00  0.00    -0.508 OA
ATOM     23  H   UNL     1     165.915 145.503 153.889  1.00  0.00     0.293 HD
ENDBRANCH  15  22
TORSDOF 3
ENDMDL
MODEL 7
REMARK VINA RESULT:    -7.390      1.493      3.735
REMARK INTER + INTRA:          -8.039
REMARK INTER:                  -8.039
REMARK INTRA:                   0.000
REMARK UNBOUND:                 0.000
REMARK SMILES Cc1cc(O)c2c(c1)C(=O)c1cc(O)cc(O)c1C2=O
REMARK SMILES IDX 1 1 2 2 8 3 7 4 6 5 4 6 3 7 19 8 20 9 18 10 11 11 9 12 10 13
REMARK SMILES IDX 12 14 13 15 15 16 16 17 5 18 17 20 14 22
REMARK H PARENT 5 19 17 21 14 23
REMARK Flexibility Score: inf
ROOT
ATOM      1  C   UNL     1     166.119 148.258 150.749  1.00  0.00     0.044 C 
ATOM      2  C   UNL     1     167.185 147.239 150.473  1.00  0.00    -0.047 A 
ATOM      3  C   UNL     1     167.883 146.647 151.532  1.00  0.00     0.016 A 
ATOM      4  C   UNL     1     168.903 145.713 151.284  1.00  0.00     0.038 A 
ATOM      5  C   UNL     1     169.230 145.366 149.954  1.00  0.00     0.076 A 
ATOM      6  C   UNL     1     168.579 146.032 148.885  1.00  0.00     0.127 A 
ATOM      7  C   UNL     1     167.553 146.943 149.157  1.00  0.00     0.050 A 
ATOM      8  C   UNL     1     170.209 144.269 149.734  1.00  0.00     0.201 C 
ATOM      9  O   UNL     1     170.122 143.550 148.703  1.00  0.00    -0.288 OA
ATOM     10  C   UNL     1     171.162 143.904 150.814  1.00  0.00     0.076 A 
ATOM     11  C   UNL     1     170.832 144.255 152.143  1.00  0.00     0.041 A 
ATOM     12  C   UNL     1     169.642 145.095 152.411  1.00  0.00     0.194 C 
ATOM     13  O   UNL     1     169.272 145.306 153.599  1.00  0.00    -0.289 OA
ATOM     14  C   UNL     1     171.639 143.808 153.204  1.00  0.00     0.059 A 
ATOM     15  C   UNL     1     172.774 143.032 152.955  1.00  0.00     0.120 A 
ATOM     16  C   UNL     1     173.124 142.717 151.642  1.00  0.00     0.093 A 
ATOM     17  C   UNL     1     172.350 143.167 150.567  1.00  0.00     0.131 A 
ENDROOT
BRANCH   6  18
ATOM     18  O   UNL     1     168.940 145.848 147.548  1.00  0.00    -0.507 OA
ATOM     19  H   UNL     1     169.532 145.094 147.229  1.00  0.00     0.293 HD
ENDBRANCH   6  18
BRANCH  17  20
ATOM     20  O   UNL     1     172.814 142.890 149.279  1.00  0.00    -0.507 OA
ATOM     21  H   UNL     1     173.530 142.206 149.079  1.00  0.00     0.293 HD
ENDBRANCH  17  20
BRANCH  15  22
ATOM     22  O   UNL     1     173.568 142.577 154.004  1.00  0.00    -0.508 OA
ATOM     23  H   UNL     1     174.244 143.180 154.459  1.00  0.00     0.293 HD
ENDBRANCH  15  22
TORSDOF 3
ENDMDL
MODEL 8
REMARK VINA RESULT:    -7.190      3.024      4.683
REMARK INTER + INTRA:          -7.820
REMARK INTER:                  -7.820
REMARK INTRA:                   0.000
REMARK UNBOUND:                 0.000
REMARK SMILES Cc1cc(O)c2c(c1)C(=O)c1cc(O)cc(O)c1C2=O
REMARK SMILES IDX 1 1 2 2 8 3 7 4 6 5 4 6 3 7 19 8 20 9 18 10 11 11 9 12 10 13
REMARK SMILES IDX 12 14 13 15 15 16 16 17 5 18 17 20 14 22
REMARK H PARENT 5 19 17 21 14 23
REMARK Flexibility Score: inf
ROOT
ATOM      1  C   UNL     1     168.211 146.506 148.867  1.00  0.00     0.044 C 
ATOM      2  C   UNL     1     168.371 146.280 150.342  1.00  0.00    -0.047 A 
ATOM      3  C   UNL     1     169.575 145.779 150.851  1.00  0.00     0.016 A 
ATOM      4  C   UNL     1     169.725 145.537 152.226  1.00  0.00     0.038 A 
ATOM      5  C   UNL     1     168.653 145.799 153.108  1.00  0.00     0.076 A 
ATOM      6  C   UNL     1     167.409 146.224 152.577  1.00  0.00     0.127 A 
ATOM      7  C   UNL     1     167.289 146.478 151.206  1.00  0.00     0.050 A 
ATOM      8  C   UNL     1     168.897 145.671 154.569  1.00  0.00     0.201 C 
ATOM      9  O   UNL     1     168.252 146.392 155.376  1.00  0.00    -0.288 OA
ATOM     10  C   UNL     1     170.025 144.838 155.058  1.00  0.00     0.076 A 
ATOM     11  C   UNL     1     171.095 144.576 154.172  1.00  0.00     0.041 A 
ATOM     12  C   UNL     1     171.002 145.001 152.756  1.00  0.00     0.194 C 
ATOM     13  O   UNL     1     172.001 144.883 151.994  1.00  0.00    -0.289 OA
ATOM     14  C   UNL     1     172.241 143.909 154.639  1.00  0.00     0.059 A 
ATOM     15  C   UNL     1     172.325 143.489 155.969  1.00  0.00     0.120 A 
ATOM     16  C   UNL     1     171.255 143.710 156.835  1.00  0.00     0.093 A 
ATOM     17  C   UNL     1     170.095 144.353 156.390  1.00  0.00     0.131 A 
ENDROOT
BRANCH   6  18
ATOM     18  O   UNL     1     166.262 146.371 153.362  1.00  0.00    -0.507 OA
ATOM     19  H   UNL     1     165.798 147.257 153.511  1.00  0.00     0.293 HD
ENDBRANCH   6  18
BRANCH  17  20
ATOM     20  O   UNL     1     169.031 144.457 157.289  1.00  0.00    -0.507 OA
ATOM     21  H   UNL     1     169.079 144.980 158.153  1.00  0.00     0.293 HD
ENDBRANCH  17  20
BRANCH  15  22
ATOM     22  O   UNL     1     173.464 142.840 156.438  1.00  0.00    -0.508 OA
ATOM     23  H   UNL     1     174.396 143.172 156.213  1.00  0.00     0.293 HD
ENDBRANCH  15  22
TORSDOF 3
ENDMDL
MODEL 9
REMARK VINA RESULT:    -7.118      2.491      3.620
REMARK INTER + INTRA:          -7.742
REMARK INTER:                  -7.742
REMARK INTRA:                   0.000
REMARK UNBOUND:                 0.000
REMARK SMILES Cc1cc(O)c2c(c1)C(=O)c1cc(O)cc(O)c1C2=O
REMARK SMILES IDX 1 1 2 2 8 3 7 4 6 5 4 6 3 7 19 8 20 9 18 10 11 11 9 12 10 13
REMARK SMILES IDX 12 14 13 15 15 16 16 17 5 18 17 20 14 22
REMARK H PARENT 5 19 17 21 14 23
REMARK Flexibility Score: inf
ROOT
ATOM      1  C   UNL     1     167.109 146.895 149.268  1.00  0.00     0.044 C 
ATOM      2  C   UNL     1     167.814 146.501 150.532  1.00  0.00    -0.047 A 
ATOM      3  C   UNL     1     169.113 145.982 150.481  1.00  0.00     0.016 A 
ATOM      4  C   UNL     1     169.771 145.584 151.657  1.00  0.00     0.038 A 
ATOM      5  C   UNL     1     169.119 145.707 152.904  1.00  0.00     0.076 A 
ATOM      6  C   UNL     1     167.773 146.152 152.940  1.00  0.00     0.127 A 
ATOM      7  C   UNL     1     167.146 146.563 151.759  1.00  0.00     0.050 A 
ATOM      8  C   UNL     1     169.898 145.415 154.136  1.00  0.00     0.201 C 
ATOM      9  O   UNL     1     169.621 146.016 155.209  1.00  0.00    -0.288 OA
ATOM     10  C   UNL     1     171.114 144.566 154.056  1.00  0.00     0.076 A 
ATOM     11  C   UNL     1     171.763 144.444 152.806  1.00  0.00     0.041 A 
ATOM     12  C   UNL     1     171.145 145.029 151.594  1.00  0.00     0.194 C 
ATOM     13  O   UNL     1     171.777 145.034 150.501  1.00  0.00    -0.289 OA
ATOM     14  C   UNL     1     172.989 143.763 152.719  1.00  0.00     0.059 A 
ATOM     15  C   UNL     1     173.566 143.191 153.856  1.00  0.00     0.120 A 
ATOM     16  C   UNL     1     172.909 143.275 155.084  1.00  0.00     0.093 A 
ATOM     17  C   UNL     1     171.677 143.930 155.193  1.00  0.00     0.131 A 
ENDROOT
BRANCH   6  18
ATOM     18  O   UNL     1     167.014 146.170 154.113  1.00  0.00    -0.507 OA
ATOM     19  H   UNL     1     166.159 145.645 154.232  1.00  0.00     0.293 HD
ENDBRANCH   6  18
BRANCH  17  20
ATOM     20  O   UNL     1     171.037 143.893 156.434  1.00  0.00    -0.507 OA
ATOM     21  H   UNL     1     170.806 143.037 156.918  1.00  0.00     0.293 HD
ENDBRANCH  17  20
BRANCH  15  22
ATOM     22  O   UNL     1     174.787 142.527 153.776  1.00  0.00    -0.508 OA
ATOM     23  H   UNL     1     175.038 141.795 154.431  1.00  0.00     0.293 HD
ENDBRANCH  15  22
TORSDOF 3
ENDMDL
