MODEL 1
REMARK VINA RESULT:    -6.055      0.000      0.000
REMARK INTER + INTRA:          -7.241
REMARK INTER:                  -6.941
REMARK INTRA:                  -0.301
REMARK UNBOUND:                -0.301
REMARK SMILES O=C1C[C@H](c2ccc(O)cc2)Oc2cc(O)cc(O)c21
REMARK SMILES IDX 3 1 4 2 12 3 13 4 14 5 15 6 17 7 18 8 20 9 2 10 1 11 5 12
REMARK SMILES IDX 6 13 11 14 7 15 10 16 8 17 9 18 19 20 16 22
REMARK H PARENT 9 19 19 21 16 23
REMARK Flexibility Score: inf
ROOT
ATOM      1  C   UNL     1      32.596   2.712 102.732  1.00  0.00     0.131 C 
ATOM      2  C   UNL     1      32.936   4.209 102.720  1.00  0.00     0.211 C 
ATOM      3  O   UNL     1      32.350   4.849 101.583  1.00  0.00    -0.484 OA
ATOM      4  C   UNL     1      32.305   4.247 100.318  1.00  0.00     0.138 A 
ATOM      5  C   UNL     1      31.987   5.030  99.206  1.00  0.00     0.093 A 
ATOM      6  C   UNL     1      31.952   4.461  97.930  1.00  0.00     0.123 A 
ATOM      7  C   UNL     1      32.205   3.098  97.771  1.00  0.00     0.093 A 
ATOM      8  C   UNL     1      32.485   2.285  98.877  1.00  0.00     0.133 A 
ATOM      9  C   UNL     1      32.571   2.868 100.169  1.00  0.00     0.102 A 
ATOM     10  C   UNL     1      32.937   2.119 101.397  1.00  0.00     0.174 C 
ATOM     11  O   UNL     1      33.568   1.031 101.347  1.00  0.00    -0.294 OA
ENDROOT
BRANCH   2  12
ATOM     12  C   UNL     1      32.459   4.873 103.989  1.00  0.00    -0.007 A 
ATOM     13  C   UNL     1      31.114   5.254 104.136  1.00  0.00     0.011 A 
ATOM     14  C   UNL     1      33.347   5.071 105.061  1.00  0.00     0.011 A 
ATOM     15  C   UNL     1      30.670   5.838 105.325  1.00  0.00     0.046 A 
ATOM     16  C   UNL     1      32.900   5.656 106.250  1.00  0.00     0.046 A 
ATOM     17  C   UNL     1      31.560   6.042 106.385  1.00  0.00     0.115 A 
BRANCH  17  18
ATOM     18  O   UNL     1      31.104   6.623 107.565  1.00  0.00    -0.508 OA
ATOM     19  H   UNL     1      30.513   7.447 107.556  1.00  0.00     0.293 HD
ENDBRANCH  17  18
ENDBRANCH   2  12
BRANCH   8  20
ATOM     20  O   UNL     1      32.633   0.915  98.646  1.00  0.00    -0.507 OA
ATOM     21  H   UNL     1      32.921   0.252  99.350  1.00  0.00     0.293 HD
ENDBRANCH   8  20
BRANCH   6  22
ATOM     22  O   UNL     1      31.661   5.242  96.813  1.00  0.00    -0.508 OA
ATOM     23  H   UNL     1      31.252   4.840  95.977  1.00  0.00     0.293 HD
ENDBRANCH   6  22
TORSDOF 4
ENDMDL
MODEL 2
REMARK VINA RESULT:    -6.034      1.647      6.630
REMARK INTER + INTRA:          -7.216
REMARK INTER:                  -6.911
REMARK INTRA:                  -0.305
REMARK UNBOUND:                -0.301
REMARK SMILES O=C1C[C@H](c2ccc(O)cc2)Oc2cc(O)cc(O)c21
REMARK SMILES IDX 3 1 4 2 12 3 13 4 14 5 15 6 17 7 18 8 20 9 2 10 1 11 5 12
REMARK SMILES IDX 6 13 11 14 7 15 10 16 8 17 9 18 19 20 16 22
REMARK H PARENT 9 19 19 21 16 23
REMARK Flexibility Score: inf
ROOT
ATOM      1  C   UNL     1      33.508   2.896 102.687  1.00  0.00     0.131 C 
ATOM      2  C   UNL     1      32.154   3.493 102.278  1.00  0.00     0.211 C 
ATOM      3  O   UNL     1      31.829   4.614 103.104  1.00  0.00    -0.484 OA
ATOM      4  C   UNL     1      32.090   4.639 104.482  1.00  0.00     0.138 A 
ATOM      5  C   UNL     1      31.493   5.628 105.267  1.00  0.00     0.093 A 
ATOM      6  C   UNL     1      31.721   5.666 106.645  1.00  0.00     0.123 A 
ATOM      7  C   UNL     1      32.573   4.731 107.234  1.00  0.00     0.093 A 
ATOM      8  C   UNL     1      33.215   3.756 106.459  1.00  0.00     0.133 A 
ATOM      9  C   UNL     1      32.948   3.682 105.067  1.00  0.00     0.102 A 
ATOM     10  C   UNL     1      33.509   2.645 104.166  1.00  0.00     0.174 C 
ATOM     11  O   UNL     1      33.936   1.545 104.605  1.00  0.00    -0.294 OA
ENDROOT
BRANCH   2  12
ATOM     12  C   UNL     1      32.171   3.909 100.827  1.00  0.00    -0.007 A 
ATOM     13  C   UNL     1      31.873   2.981  99.814  1.00  0.00     0.011 A 
ATOM     14  C   UNL     1      32.433   5.244 100.476  1.00  0.00     0.011 A 
ATOM     15  C   UNL     1      31.857   3.378  98.474  1.00  0.00     0.046 A 
ATOM     16  C   UNL     1      32.417   5.639  99.134  1.00  0.00     0.046 A 
ATOM     17  C   UNL     1      32.129   4.706  98.129  1.00  0.00     0.115 A 
BRANCH  17  18
ATOM     18  O   UNL     1      32.107   5.088  96.791  1.00  0.00    -0.508 OA
ATOM     19  H   UNL     1      32.948   5.082  96.225  1.00  0.00     0.293 HD
ENDBRANCH  17  18
ENDBRANCH   2  12
BRANCH   8  20
ATOM     20  O   UNL     1      34.125   2.918 107.108  1.00  0.00    -0.507 OA
ATOM     21  H   UNL     1      34.228   1.934 106.907  1.00  0.00     0.293 HD
ENDBRANCH   8  20
BRANCH   6  22
ATOM     22  O   UNL     1      31.109   6.635 107.438  1.00  0.00    -0.508 OA
ATOM     23  H   UNL     1      30.143   6.546 107.733  1.00  0.00     0.293 HD
ENDBRANCH   6  22
TORSDOF 4
ENDMDL
MODEL 3
REMARK VINA RESULT:    -5.738     13.392     15.427
REMARK INTER + INTRA:          -6.877
REMARK INTER:                  -6.570
REMARK INTRA:                  -0.307
REMARK UNBOUND:                -0.301
REMARK SMILES O=C1C[C@H](c2ccc(O)cc2)Oc2cc(O)cc(O)c21
REMARK SMILES IDX 3 1 4 2 12 3 13 4 14 5 15 6 17 7 18 8 20 9 2 10 1 11 5 12
REMARK SMILES IDX 6 13 11 14 7 15 10 16 8 17 9 18 19 20 16 22
REMARK H PARENT 9 19 19 21 16 23
REMARK Flexibility Score: inf
ROOT
ATOM      1  C   UNL     1      24.208  -6.179 102.231  1.00  0.00     0.131 C 
ATOM      2  C   UNL     1      22.741  -6.624 102.154  1.00  0.00     0.211 C 
ATOM      3  O   UNL     1      22.017  -6.168 103.300  1.00  0.00    -0.484 OA
ATOM      4  C   UNL     1      22.565  -6.170 104.590  1.00  0.00     0.138 A 
ATOM      5  C   UNL     1      21.718  -5.989 105.686  1.00  0.00     0.093 A 
ATOM      6  C   UNL     1      22.233  -6.004 106.985  1.00  0.00     0.123 A 
ATOM      7  C   UNL     1      23.605  -6.170 107.185  1.00  0.00     0.093 A 
ATOM      8  C   UNL     1      24.478  -6.313 106.099  1.00  0.00     0.133 A 
ATOM      9  C   UNL     1      23.953  -6.347 104.781  1.00  0.00     0.102 A 
ATOM     10  C   UNL     1      24.773  -6.571 103.564  1.00  0.00     0.174 C 
ATOM     11  O   UNL     1      25.902  -7.125 103.617  1.00  0.00    -0.294 OA
ENDROOT
BRANCH   2  12
ATOM     12  C   UNL     1      22.092  -6.106 100.893  1.00  0.00    -0.007 A 
ATOM     13  C   UNL     1      22.281  -6.769  99.668  1.00  0.00     0.011 A 
ATOM     14  C   UNL     1      21.247  -4.984 100.941  1.00  0.00     0.011 A 
ATOM     15  C   UNL     1      21.651  -6.306  98.509  1.00  0.00     0.046 A 
ATOM     16  C   UNL     1      20.618  -4.523  99.780  1.00  0.00     0.046 A 
ATOM     17  C   UNL     1      20.819  -5.183  98.561  1.00  0.00     0.115 A 
BRANCH  17  18
ATOM     18  O   UNL     1      20.196  -4.733  97.399  1.00  0.00    -0.508 OA
ATOM     19  H   UNL     1      19.501  -5.294  96.920  1.00  0.00     0.293 HD
ENDBRANCH  17  18
ENDBRANCH   2  12
BRANCH   8  20
ATOM     20  O   UNL     1      25.845  -6.379 106.379  1.00  0.00    -0.507 OA
ATOM     21  H   UNL     1      26.409  -7.204 106.243  1.00  0.00     0.293 HD
ENDBRANCH   8  20
BRANCH   6  22
ATOM     22  O   UNL     1      21.391  -5.849 108.084  1.00  0.00    -0.508 OA
ATOM     23  H   UNL     1      20.875  -4.991 108.240  1.00  0.00     0.293 HD
ENDBRANCH   6  22
TORSDOF 4
ENDMDL
MODEL 4
REMARK VINA RESULT:    -5.728     12.771     13.607
REMARK INTER + INTRA:          -6.866
REMARK INTER:                  -6.561
REMARK INTRA:                  -0.305
REMARK UNBOUND:                -0.301
REMARK SMILES O=C1C[C@H](c2ccc(O)cc2)Oc2cc(O)cc(O)c21
REMARK SMILES IDX 3 1 4 2 12 3 13 4 14 5 15 6 17 7 18 8 20 9 2 10 1 11 5 12
REMARK SMILES IDX 6 13 11 14 7 15 10 16 8 17 9 18 19 20 16 22
REMARK H PARENT 9 19 19 21 16 23
REMARK Flexibility Score: inf
ROOT
ATOM      1  C   UNL     1      21.385  -6.115 102.496  1.00  0.00     0.131 C 
ATOM      2  C   UNL     1      22.733  -6.025 103.226  1.00  0.00     0.211 C 
ATOM      3  O   UNL     1      23.427  -4.832 102.854  1.00  0.00    -0.484 OA
ATOM      4  C   UNL     1      23.437  -4.341 101.541  1.00  0.00     0.138 A 
ATOM      5  C   UNL     1      24.358  -3.349 101.195  1.00  0.00     0.093 A 
ATOM      6  C   UNL     1      24.402  -2.854  99.889  1.00  0.00     0.123 A 
ATOM      7  C   UNL     1      23.501  -3.329  98.935  1.00  0.00     0.093 A 
ATOM      8  C   UNL     1      22.541  -4.294  99.271  1.00  0.00     0.133 A 
ATOM      9  C   UNL     1      22.525  -4.836 100.583  1.00  0.00     0.102 A 
ATOM     10  C   UNL     1      21.607  -5.914 101.026  1.00  0.00     0.174 C 
ATOM     11  O   UNL     1      21.053  -6.693 100.206  1.00  0.00    -0.294 OA
ENDROOT
BRANCH   2  12
ATOM     12  C   UNL     1      22.532  -6.062 104.721  1.00  0.00    -0.007 A 
ATOM     13  C   UNL     1      23.601  -5.787 105.593  1.00  0.00     0.011 A 
ATOM     14  C   UNL     1      21.260  -6.321 105.259  1.00  0.00     0.011 A 
ATOM     15  C   UNL     1      23.402  -5.789 106.977  1.00  0.00     0.046 A 
ATOM     16  C   UNL     1      21.064  -6.322 106.644  1.00  0.00     0.046 A 
ATOM     17  C   UNL     1      22.136  -6.057 107.507  1.00  0.00     0.115 A 
BRANCH  17  18
ATOM     18  O   UNL     1      21.952  -6.054 108.886  1.00  0.00    -0.508 OA
ATOM     19  H   UNL     1      22.264  -6.826 109.464  1.00  0.00     0.293 HD
ENDBRANCH  17  18
ENDBRANCH   2  12
BRANCH   8  20
ATOM     20  O   UNL     1      21.615  -4.647  98.287  1.00  0.00    -0.507 OA
ATOM     21  H   UNL     1      21.699  -5.464  97.700  1.00  0.00     0.293 HD
ENDBRANCH   8  20
BRANCH   6  22
ATOM     22  O   UNL     1      25.335  -1.883  99.530  1.00  0.00    -0.508 OA
ATOM     23  H   UNL     1      25.232  -1.335  98.683  1.00  0.00     0.293 HD
ENDBRANCH   6  22
TORSDOF 4
ENDMDL
MODEL 5
REMARK VINA RESULT:    -5.649      2.350      6.945
REMARK INTER + INTRA:          -6.776
REMARK INTER:                  -6.467
REMARK INTRA:                  -0.309
REMARK UNBOUND:                -0.301
REMARK SMILES O=C1C[C@H](c2ccc(O)cc2)Oc2cc(O)cc(O)c21
REMARK SMILES IDX 3 1 4 2 12 3 13 4 14 5 15 6 17 7 18 8 20 9 2 10 1 11 5 12
REMARK SMILES IDX 6 13 11 14 7 15 10 16 8 17 9 18 19 20 16 22
REMARK H PARENT 9 19 19 21 16 23
REMARK Flexibility Score: inf
ROOT
ATOM      1  C   UNL     1      32.970   5.265 103.075  1.00  0.00     0.131 C 
ATOM      2  C   UNL     1      33.170   3.916 102.370  1.00  0.00     0.211 C 
ATOM      3  O   UNL     1      32.386   2.899 102.999  1.00  0.00    -0.484 OA
ATOM      4  C   UNL     1      32.231   2.817 104.390  1.00  0.00     0.138 A 
ATOM      5  C   UNL     1      31.702   1.649 104.946  1.00  0.00     0.093 A 
ATOM      6  C   UNL     1      31.553   1.533 106.330  1.00  0.00     0.123 A 
ATOM      7  C   UNL     1      31.904   2.600 107.158  1.00  0.00     0.093 A 
ATOM      8  C   UNL     1      32.397   3.796 106.620  1.00  0.00     0.133 A 
ATOM      9  C   UNL     1      32.598   3.901 105.218  1.00  0.00     0.102 A 
ATOM     10  C   UNL     1      33.186   5.087 104.548  1.00  0.00     0.174 C 
ATOM     11  O   UNL     1      33.900   5.916 105.172  1.00  0.00    -0.294 OA
ENDROOT
BRANCH   2  12
ATOM     12  C   UNL     1      32.805   4.019 100.909  1.00  0.00    -0.007 A 
ATOM     13  C   UNL     1      32.593   2.860 100.141  1.00  0.00     0.011 A 
ATOM     14  C   UNL     1      32.620   5.278 100.312  1.00  0.00     0.011 A 
ATOM     15  C   UNL     1      32.222   2.961  98.797  1.00  0.00     0.046 A 
ATOM     16  C   UNL     1      32.249   5.376  98.967  1.00  0.00     0.046 A 
ATOM     17  C   UNL     1      32.049   4.217  98.206  1.00  0.00     0.115 A 
BRANCH  17  18
ATOM     18  O   UNL     1      31.678   4.302  96.867  1.00  0.00    -0.508 OA
ATOM     19  H   UNL     1      32.357   4.501  96.141  1.00  0.00     0.293 HD
ENDBRANCH  17  18
ENDBRANCH   2  12
BRANCH   8  20
ATOM     20  O   UNL     1      32.636   4.849 107.507  1.00  0.00    -0.507 OA
ATOM     21  H   UNL     1      31.908   5.362 107.982  1.00  0.00     0.293 HD
ENDBRANCH   8  20
BRANCH   6  22
ATOM     22  O   UNL     1      31.050   0.362 106.893  1.00  0.00    -0.508 OA
ATOM     23  H   UNL     1      30.434   0.382 107.699  1.00  0.00     0.293 HD
ENDBRANCH   6  22
TORSDOF 4
ENDMDL
MODEL 6
REMARK VINA RESULT:    -5.603      3.332      6.790
REMARK INTER + INTRA:          -6.723
REMARK INTER:                  -6.424
REMARK INTRA:                  -0.298
REMARK UNBOUND:                -0.301
REMARK SMILES O=C1C[C@H](c2ccc(O)cc2)Oc2cc(O)cc(O)c21
REMARK SMILES IDX 3 1 4 2 12 3 13 4 14 5 15 6 17 7 18 8 20 9 2 10 1 11 5 12
REMARK SMILES IDX 6 13 11 14 7 15 10 16 8 17 9 18 19 20 16 22
REMARK H PARENT 9 19 19 21 16 23
REMARK Flexibility Score: inf
ROOT
ATOM      1  C   UNL     1      31.558   2.889 101.753  1.00  0.00     0.131 C 
ATOM      2  C   UNL     1      30.941   1.907 102.759  1.00  0.00     0.211 C 
ATOM      3  O   UNL     1      30.547   2.590 103.952  1.00  0.00    -0.484 OA
ATOM      4  C   UNL     1      31.315   3.613 104.526  1.00  0.00     0.138 A 
ATOM      5  C   UNL     1      31.025   4.030 105.827  1.00  0.00     0.093 A 
ATOM      6  C   UNL     1      31.785   5.035 106.430  1.00  0.00     0.123 A 
ATOM      7  C   UNL     1      32.818   5.646 105.718  1.00  0.00     0.093 A 
ATOM      8  C   UNL     1      33.100   5.272 104.398  1.00  0.00     0.133 A 
ATOM      9  C   UNL     1      32.363   4.218 103.798  1.00  0.00     0.102 A 
ATOM     10  C   UNL     1      32.627   3.688 102.437  1.00  0.00     0.174 C 
ATOM     11  O   UNL     1      33.739   3.847 101.867  1.00  0.00    -0.294 OA
ENDROOT
BRANCH   2  12
ATOM     12  C   UNL     1      29.754   1.199 102.153  1.00  0.00    -0.007 A 
ATOM     13  C   UNL     1      29.870  -0.122 101.686  1.00  0.00     0.011 A 
ATOM     14  C   UNL     1      28.502   1.836 102.098  1.00  0.00     0.011 A 
ATOM     15  C   UNL     1      28.760  -0.786 101.157  1.00  0.00     0.046 A 
ATOM     16  C   UNL     1      27.392   1.170 101.567  1.00  0.00     0.046 A 
ATOM     17  C   UNL     1      27.519  -0.143 101.095  1.00  0.00     0.115 A 
BRANCH  17  18
ATOM     18  O   UNL     1      26.420  -0.817 100.567  1.00  0.00    -0.508 OA
ATOM     19  H   UNL     1      26.460  -1.263  99.658  1.00  0.00     0.293 HD
ENDBRANCH  17  18
ENDBRANCH   2  12
BRANCH   8  20
ATOM     20  O   UNL     1      34.086   5.996 103.722  1.00  0.00    -0.507 OA
ATOM     21  H   UNL     1      34.012   6.288 102.759  1.00  0.00     0.293 HD
ENDBRANCH   8  20
BRANCH   6  22
ATOM     22  O   UNL     1      31.517   5.439 107.737  1.00  0.00    -0.508 OA
ATOM     23  H   UNL     1      30.750   6.066 107.952  1.00  0.00     0.293 HD
ENDBRANCH   6  22
TORSDOF 4
ENDMDL
MODEL 7
REMARK VINA RESULT:    -5.589     12.892     13.803
REMARK INTER + INTRA:          -6.707
REMARK INTER:                  -6.401
REMARK INTRA:                  -0.306
REMARK UNBOUND:                -0.301
REMARK SMILES O=C1C[C@H](c2ccc(O)cc2)Oc2cc(O)cc(O)c21
REMARK SMILES IDX 3 1 4 2 12 3 13 4 14 5 15 6 17 7 18 8 20 9 2 10 1 11 5 12
REMARK SMILES IDX 6 13 11 14 7 15 10 16 8 17 9 18 19 20 16 22
REMARK H PARENT 9 19 19 21 16 23
REMARK Flexibility Score: inf
ROOT
ATOM      1  C   UNL     1      21.548  -4.779 101.789  1.00  0.00     0.131 C 
ATOM      2  C   UNL     1      22.197  -6.068 102.313  1.00  0.00     0.211 C 
ATOM      3  O   UNL     1      23.497  -6.243 101.745  1.00  0.00    -0.484 OA
ATOM      4  C   UNL     1      23.783  -5.944 100.405  1.00  0.00     0.138 A 
ATOM      5  C   UNL     1      24.979  -6.404  99.849  1.00  0.00     0.093 A 
ATOM      6  C   UNL     1      25.282  -6.136  98.511  1.00  0.00     0.123 A 
ATOM      7  C   UNL     1      24.402  -5.378  97.738  1.00  0.00     0.093 A 
ATOM      8  C   UNL     1      23.217  -4.871  98.288  1.00  0.00     0.133 A 
ATOM      9  C   UNL     1      22.881  -5.182  99.631  1.00  0.00     0.102 A 
ATOM     10  C   UNL     1      21.618  -4.766 100.291  1.00  0.00     0.174 C 
ATOM     11  O   UNL     1      20.595  -4.453  99.627  1.00  0.00    -0.294 OA
ENDROOT
BRANCH   2  12
ATOM     12  C   UNL     1      22.289  -6.044 103.819  1.00  0.00    -0.007 A 
ATOM     13  C   UNL     1      21.189  -6.419 104.610  1.00  0.00     0.011 A 
ATOM     14  C   UNL     1      23.497  -5.696 104.448  1.00  0.00     0.011 A 
ATOM     15  C   UNL     1      21.290  -6.428 106.004  1.00  0.00     0.046 A 
ATOM     16  C   UNL     1      23.596  -5.705 105.844  1.00  0.00     0.046 A 
ATOM     17  C   UNL     1      22.492  -6.071 106.625  1.00  0.00     0.115 A 
BRANCH  17  18
ATOM     18  O   UNL     1      22.579  -6.086 108.014  1.00  0.00    -0.508 OA
ATOM     19  H   UNL     1      23.287  -5.552 108.506  1.00  0.00     0.293 HD
ENDBRANCH  17  18
ENDBRANCH   2  12
BRANCH   8  20
ATOM     20  O   UNL     1      22.437  -4.043  97.477  1.00  0.00    -0.507 OA
ATOM     21  H   UNL     1      22.815  -3.385  96.812  1.00  0.00     0.293 HD
ENDBRANCH   8  20
BRANCH   6  22
ATOM     22  O   UNL     1      26.461  -6.614  97.942  1.00  0.00    -0.508 OA
ATOM     23  H   UNL     1      27.065  -6.015  97.391  1.00  0.00     0.293 HD
ENDBRANCH   6  22
TORSDOF 4
ENDMDL
MODEL 8
REMARK VINA RESULT:    -5.486     10.106     10.841
REMARK INTER + INTRA:          -6.588
REMARK INTER:                  -6.280
REMARK INTRA:                  -0.308
REMARK UNBOUND:                -0.301
REMARK SMILES O=C1C[C@H](c2ccc(O)cc2)Oc2cc(O)cc(O)c21
REMARK SMILES IDX 3 1 4 2 12 3 13 4 14 5 15 6 17 7 18 8 20 9 2 10 1 11 5 12
REMARK SMILES IDX 6 13 11 14 7 15 10 16 8 17 9 18 19 20 16 22
REMARK H PARENT 9 19 19 21 16 23
REMARK Flexibility Score: inf
ROOT
ATOM      1  C   UNL     1      24.410   0.366 103.016  1.00  0.00     0.131 C 
ATOM      2  C   UNL     1      23.080   0.759 102.359  1.00  0.00     0.211 C 
ATOM      3  O   UNL     1      22.237  -0.385 102.205  1.00  0.00    -0.484 OA
ATOM      4  C   UNL     1      22.731  -1.641 101.824  1.00  0.00     0.138 A 
ATOM      5  C   UNL     1      21.831  -2.628 101.415  1.00  0.00     0.093 A 
ATOM      6  C   UNL     1      22.296  -3.883 101.013  1.00  0.00     0.123 A 
ATOM      7  C   UNL     1      23.663  -4.161 101.050  1.00  0.00     0.093 A 
ATOM      8  C   UNL     1      24.580  -3.200 101.496  1.00  0.00     0.133 A 
ATOM      9  C   UNL     1      24.117  -1.908 101.858  1.00  0.00     0.102 A 
ATOM     10  C   UNL     1      25.005  -0.791 102.269  1.00  0.00     0.174 C 
ATOM     11  O   UNL     1      26.226  -0.767 101.963  1.00  0.00    -0.294 OA
ENDROOT
BRANCH   2  12
ATOM     12  C   UNL     1      22.374   1.814 103.177  1.00  0.00    -0.007 A 
ATOM     13  C   UNL     1      21.358   1.457 104.081  1.00  0.00     0.011 A 
ATOM     14  C   UNL     1      22.762   3.161 103.081  1.00  0.00     0.011 A 
ATOM     15  C   UNL     1      20.730   2.433 104.861  1.00  0.00     0.046 A 
ATOM     16  C   UNL     1      22.132   4.136 103.862  1.00  0.00     0.046 A 
ATOM     17  C   UNL     1      21.114   3.774 104.754  1.00  0.00     0.115 A 
BRANCH  17  18
ATOM     18  O   UNL     1      20.481   4.735 105.538  1.00  0.00    -0.508 OA
ATOM     19  H   UNL     1      21.001   5.313 106.188  1.00  0.00     0.293 HD
ENDBRANCH  17  18
ENDBRANCH   2  12
BRANCH   8  20
ATOM     20  O   UNL     1      25.919  -3.588 101.594  1.00  0.00    -0.507 OA
ATOM     21  H   UNL     1      26.622  -3.367 100.904  1.00  0.00     0.293 HD
ENDBRANCH   8  20
BRANCH   6  22
ATOM     22  O   UNL     1      21.406  -4.864 100.580  1.00  0.00    -0.508 OA
ATOM     23  H   UNL     1      21.091  -5.605 101.196  1.00  0.00     0.293 HD
ENDBRANCH   6  22
TORSDOF 4
ENDMDL
MODEL 9
REMARK VINA RESULT:    -5.432      5.018      5.877
REMARK INTER + INTRA:          -6.526
REMARK INTER:                  -6.240
REMARK INTRA:                  -0.286
REMARK UNBOUND:                -0.301
REMARK SMILES O=C1C[C@H](c2ccc(O)cc2)Oc2cc(O)cc(O)c21
REMARK SMILES IDX 3 1 4 2 12 3 13 4 14 5 15 6 17 7 18 8 20 9 2 10 1 11 5 12
REMARK SMILES IDX 6 13 11 14 7 15 10 16 8 17 9 18 19 20 16 22
REMARK H PARENT 9 19 19 21 16 23
REMARK Flexibility Score: inf
ROOT
ATOM      1  C   UNL     1      29.098   1.765 104.965  1.00  0.00     0.131 C 
ATOM      2  C   UNL     1      30.114   1.591 103.828  1.00  0.00     0.211 C 
ATOM      3  O   UNL     1      29.444   1.465 102.571  1.00  0.00    -0.484 OA
ATOM      4  C   UNL     1      28.257   0.734 102.416  1.00  0.00     0.138 A 
ATOM      5  C   UNL     1      27.821   0.415 101.128  1.00  0.00     0.093 A 
ATOM      6  C   UNL     1      26.651  -0.327 100.945  1.00  0.00     0.123 A 
ATOM      7  C   UNL     1      25.900  -0.724 102.052  1.00  0.00     0.093 A 
ATOM      8  C   UNL     1      26.297  -0.380 103.351  1.00  0.00     0.133 A 
ATOM      9  C   UNL     1      27.510   0.331 103.545  1.00  0.00     0.102 A 
ATOM     10  C   UNL     1      28.067   0.680 104.876  1.00  0.00     0.174 C 
ATOM     11  O   UNL     1      27.734   0.057 105.918  1.00  0.00    -0.294 OA
ENDROOT
BRANCH   2  12
ATOM     12  C   UNL     1      31.075   2.754 103.787  1.00  0.00    -0.007 A 
ATOM     13  C   UNL     1      30.653   4.043 104.159  1.00  0.00     0.011 A 
ATOM     14  C   UNL     1      32.418   2.550 103.427  1.00  0.00     0.011 A 
ATOM     15  C   UNL     1      31.555   5.111 104.152  1.00  0.00     0.046 A 
ATOM     16  C   UNL     1      33.319   3.621 103.421  1.00  0.00     0.046 A 
ATOM     17  C   UNL     1      32.889   4.904 103.784  1.00  0.00     0.115 A 
BRANCH  17  18
ATOM     18  O   UNL     1      33.777   5.976 103.783  1.00  0.00    -0.508 OA
ATOM     19  H   UNL     1      34.527   6.043 103.105  1.00  0.00     0.293 HD
ENDBRANCH  17  18
ENDBRANCH   2  12
BRANCH   8  20
ATOM     20  O   UNL     1      25.443  -0.732 104.398  1.00  0.00    -0.507 OA
ATOM     21  H   UNL     1      25.689  -1.375 105.136  1.00  0.00     0.293 HD
ENDBRANCH   8  20
BRANCH   6  22
ATOM     22  O   UNL     1      26.223  -0.671  99.664  1.00  0.00    -0.508 OA
ATOM     23  H   UNL     1      25.342  -1.148  99.509  1.00  0.00     0.293 HD
ENDBRANCH   6  22
TORSDOF 4
ENDMDL
