MODEL 1
REMARK VINA RESULT:    -4.051      0.000      0.000
REMARK INTER + INTRA:          -5.078
REMARK INTER:                  -4.761
REMARK INTRA:                  -0.317
REMARK UNBOUND:                -0.317
REMARK SMILES O=c1cc(-c2ccc(O)c(O)c2)oc2cc(O)cc(O)c12
REMARK SMILES IDX 4 1 3 2 2 3 1 4 21 5 19 6 18 7 16 8 15 9 14 10 13 11 5 12
REMARK SMILES IDX 6 13 7 14 8 15 12 16 10 17 9 18 11 20 20 22 17 24
REMARK H PARENT 9 19 11 21 20 23 17 25
REMARK Flexibility Score: inf
ROOT
ATOM      1  C   UNL     1       7.697  -1.661  -2.500  1.00  0.00     0.138 A 
ATOM      2  C   UNL     1       7.264  -2.589  -3.457  1.00  0.00     0.100 A 
ATOM      3  C   UNL     1       7.580  -3.940  -3.303  1.00  0.00     0.197 A 
ATOM      4  O   UNL     1       7.125  -4.756  -4.144  1.00  0.00    -0.289 OA
ATOM      5  C   UNL     1       8.363  -4.356  -2.199  1.00  0.00     0.107 A 
ATOM      6  C   UNL     1       8.780  -5.700  -1.962  1.00  0.00     0.134 A 
ATOM      7  C   UNL     1       9.453  -6.014  -0.774  1.00  0.00     0.093 A 
ATOM      8  C   UNL     1       9.776  -5.024   0.154  1.00  0.00     0.123 A 
ATOM      9  C   UNL     1       9.419  -3.698  -0.093  1.00  0.00     0.094 A 
ATOM     10  C   UNL     1       8.717  -3.359  -1.252  1.00  0.00     0.146 A 
ATOM     11  O   UNL     1       8.383  -2.087  -1.444  1.00  0.00    -0.456 OA
ENDROOT
BRANCH   1  12
ATOM     12  C   UNL     1       7.389  -0.213  -2.615  1.00  0.00     0.021 A 
ATOM     13  C   UNL     1       6.514   0.231  -3.621  1.00  0.00     0.016 A 
ATOM     14  C   UNL     1       6.203   1.586  -3.746  1.00  0.00     0.051 A 
ATOM     15  C   UNL     1       6.750   2.521  -2.864  1.00  0.00     0.157 A 
ATOM     16  C   UNL     1       7.927   0.732  -1.719  1.00  0.00     0.062 A 
ATOM     17  C   UNL     1       7.614   2.093  -1.842  1.00  0.00     0.158 A 
BRANCH  15  18
ATOM     18  O   UNL     1       6.423   3.869  -3.014  1.00  0.00    -0.504 OA
ATOM     19  H   UNL     1       5.666   4.300  -2.497  1.00  0.00     0.293 HD
ENDBRANCH  15  18
BRANCH  17  20
ATOM     20  O   UNL     1       8.154   3.021  -0.952  1.00  0.00    -0.504 OA
ATOM     21  H   UNL     1       9.131   3.290  -0.994  1.00  0.00     0.293 HD
ENDBRANCH  17  20
ENDBRANCH   1  12
BRANCH   6  22
ATOM     22  O   UNL     1       8.584  -6.750  -2.863  1.00  0.00    -0.507 OA
ATOM     23  H   UNL     1       8.212  -7.657  -2.621  1.00  0.00     0.293 HD
ENDBRANCH   6  22
BRANCH   8  24
ATOM     24  O   UNL     1      10.459  -5.371   1.318  1.00  0.00    -0.508 OA
ATOM     25  H   UNL     1      10.242  -4.938   2.209  1.00  0.00     0.293 HD
ENDBRANCH   8  24
TORSDOF 5
ENDMDL
MODEL 2
REMARK VINA RESULT:    -4.044      1.220      1.505
REMARK INTER + INTRA:          -5.071
REMARK INTER:                  -4.753
REMARK INTRA:                  -0.318
REMARK UNBOUND:                -0.317
REMARK SMILES O=c1cc(-c2ccc(O)c(O)c2)oc2cc(O)cc(O)c12
REMARK SMILES IDX 4 1 3 2 2 3 1 4 21 5 19 6 18 7 16 8 15 9 14 10 13 11 5 12
REMARK SMILES IDX 6 13 7 14 8 15 12 16 10 17 9 18 11 20 20 22 17 24
REMARK H PARENT 9 19 11 21 20 23 17 25
REMARK Flexibility Score: inf
ROOT
ATOM      1  C   UNL     1       7.627  -1.114  -2.507  1.00  0.00     0.138 A 
ATOM      2  C   UNL     1       6.958  -1.580  -3.648  1.00  0.00     0.100 A 
ATOM      3  C   UNL     1       6.975  -2.943  -3.950  1.00  0.00     0.197 A 
ATOM      4  O   UNL     1       6.315  -3.338  -4.945  1.00  0.00    -0.289 OA
ATOM      5  C   UNL     1       7.695  -3.837  -3.122  1.00  0.00     0.107 A 
ATOM      6  C   UNL     1       7.816  -5.240  -3.356  1.00  0.00     0.134 A 
ATOM      7  C   UNL     1       8.456  -6.044  -2.404  1.00  0.00     0.093 A 
ATOM      8  C   UNL     1       9.030  -5.490  -1.260  1.00  0.00     0.123 A 
ATOM      9  C   UNL     1       8.963  -4.112  -1.048  1.00  0.00     0.094 A 
ATOM     10  C   UNL     1       8.303  -3.288  -1.961  1.00  0.00     0.146 A 
ATOM     11  O   UNL     1       8.249  -1.983  -1.717  1.00  0.00    -0.456 OA
ENDROOT
BRANCH   1  12
ATOM     12  C   UNL     1       7.641   0.325  -2.139  1.00  0.00     0.021 A 
ATOM     13  C   UNL     1       6.911   1.244  -2.911  1.00  0.00     0.016 A 
ATOM     14  C   UNL     1       6.902   2.600  -2.581  1.00  0.00     0.051 A 
ATOM     15  C   UNL     1       7.613   3.063  -1.470  1.00  0.00     0.157 A 
ATOM     16  C   UNL     1       8.345   0.793  -1.012  1.00  0.00     0.062 A 
ATOM     17  C   UNL     1       8.335   2.155  -0.678  1.00  0.00     0.158 A 
BRANCH  15  18
ATOM     18  O   UNL     1       7.587   4.424  -1.167  1.00  0.00    -0.504 OA
ATOM     19  H   UNL     1       8.216   5.085  -1.605  1.00  0.00     0.293 HD
ENDBRANCH  15  18
BRANCH  17  20
ATOM     20  O   UNL     1       9.036   2.609   0.438  1.00  0.00    -0.504 OA
ATOM     21  H   UNL     1       9.731   2.032   0.899  1.00  0.00     0.293 HD
ENDBRANCH  17  20
ENDBRANCH   1  12
BRANCH   6  22
ATOM     22  O   UNL     1       7.354  -5.883  -4.507  1.00  0.00    -0.507 OA
ATOM     23  H   UNL     1       7.852  -6.607  -5.003  1.00  0.00     0.293 HD
ENDBRANCH   6  22
BRANCH   8  24
ATOM     24  O   UNL     1       9.671  -6.320  -0.342  1.00  0.00    -0.508 OA
ATOM     25  H   UNL     1       9.669  -6.113   0.650  1.00  0.00     0.293 HD
ENDBRANCH   8  24
TORSDOF 5
ENDMDL
MODEL 3
REMARK VINA RESULT:    -4.009      8.614     10.166
REMARK INTER + INTRA:          -5.029
REMARK INTER:                  -4.711
REMARK INTRA:                  -0.318
REMARK UNBOUND:                -0.317
REMARK SMILES O=c1cc(-c2ccc(O)c(O)c2)oc2cc(O)cc(O)c12
REMARK SMILES IDX 4 1 3 2 2 3 1 4 21 5 19 6 18 7 16 8 15 9 14 10 13 11 5 12
REMARK SMILES IDX 6 13 7 14 8 15 12 16 10 17 9 18 11 20 20 22 17 24
REMARK H PARENT 9 19 11 21 20 23 17 25
REMARK Flexibility Score: inf
ROOT
ATOM      1  C   UNL     1       0.906   3.306  -1.174  1.00  0.00     0.138 A 
ATOM      2  C   UNL     1       0.077   2.482  -1.947  1.00  0.00     0.100 A 
ATOM      3  C   UNL     1      -1.077   1.937  -1.381  1.00  0.00     0.197 A 
ATOM      4  O   UNL     1      -1.833   1.252  -2.117  1.00  0.00    -0.289 OA
ATOM      5  C   UNL     1      -1.382   2.194  -0.022  1.00  0.00     0.107 A 
ATOM      6  C   UNL     1      -2.509   1.659   0.671  1.00  0.00     0.134 A 
ATOM      7  C   UNL     1      -2.773   2.077   1.982  1.00  0.00     0.093 A 
ATOM      8  C   UNL     1      -1.921   2.961   2.642  1.00  0.00     0.123 A 
ATOM      9  C   UNL     1      -0.788   3.450   1.991  1.00  0.00     0.094 A 
ATOM     10  C   UNL     1      -0.515   3.079   0.673  1.00  0.00     0.146 A 
ATOM     11  O   UNL     1       0.566   3.576   0.083  1.00  0.00    -0.456 OA
ENDROOT
BRANCH   1  12
ATOM     12  C   UNL     1       2.145   3.912  -1.725  1.00  0.00     0.021 A 
ATOM     13  C   UNL     1       2.521   3.632  -3.050  1.00  0.00     0.016 A 
ATOM     14  C   UNL     1       3.677   4.195  -3.594  1.00  0.00     0.051 A 
ATOM     15  C   UNL     1       4.472   5.053  -2.831  1.00  0.00     0.157 A 
ATOM     16  C   UNL     1       2.942   4.789  -0.964  1.00  0.00     0.062 A 
ATOM     17  C   UNL     1       4.103   5.356  -1.511  1.00  0.00     0.158 A 
BRANCH  15  18
ATOM     18  O   UNL     1       5.623   5.599  -3.401  1.00  0.00    -0.504 OA
ATOM     19  H   UNL     1       5.651   6.549  -3.751  1.00  0.00     0.293 HD
ENDBRANCH  15  18
BRANCH  17  20
ATOM     20  O   UNL     1       4.886   6.221  -0.748  1.00  0.00    -0.504 OA
ATOM     21  H   UNL     1       5.829   6.468  -1.027  1.00  0.00     0.293 HD
ENDBRANCH  17  20
ENDBRANCH   1  12
BRANCH   6  22
ATOM     22  O   UNL     1      -3.376   0.703   0.134  1.00  0.00    -0.507 OA
ATOM     23  H   UNL     1      -3.595   0.610  -0.847  1.00  0.00     0.293 HD
ENDBRANCH   6  22
BRANCH   8  24
ATOM     24  O   UNL     1      -2.209   3.343   3.951  1.00  0.00    -0.508 OA
ATOM     25  H   UNL     1      -2.411   2.658   4.671  1.00  0.00     0.293 HD
ENDBRANCH   8  24
TORSDOF 5
ENDMDL
MODEL 4
REMARK VINA RESULT:    -4.005      0.590      1.483
REMARK INTER + INTRA:          -5.024
REMARK INTER:                  -4.728
REMARK INTRA:                  -0.296
REMARK UNBOUND:                -0.317
REMARK SMILES O=c1cc(-c2ccc(O)c(O)c2)oc2cc(O)cc(O)c12
REMARK SMILES IDX 4 1 3 2 2 3 1 4 21 5 19 6 18 7 16 8 15 9 14 10 13 11 5 12
REMARK SMILES IDX 6 13 7 14 8 15 12 16 10 17 9 18 11 20 20 22 17 24
REMARK H PARENT 9 19 11 21 20 23 17 25
REMARK Flexibility Score: inf
ROOT
ATOM      1  C   UNL     1       7.668  -1.606  -2.496  1.00  0.00     0.138 A 
ATOM      2  C   UNL     1       7.269  -2.531  -3.470  1.00  0.00     0.100 A 
ATOM      3  C   UNL     1       7.591  -3.881  -3.314  1.00  0.00     0.197 A 
ATOM      4  O   UNL     1       7.165  -4.696  -4.173  1.00  0.00    -0.289 OA
ATOM      5  C   UNL     1       8.347  -4.298  -2.192  1.00  0.00     0.107 A 
ATOM      6  C   UNL     1       8.768  -5.640  -1.951  1.00  0.00     0.134 A 
ATOM      7  C   UNL     1       9.411  -5.955  -0.747  1.00  0.00     0.093 A 
ATOM      8  C   UNL     1       9.700  -4.968   0.195  1.00  0.00     0.123 A 
ATOM      9  C   UNL     1       9.340  -3.643  -0.054  1.00  0.00     0.094 A 
ATOM     10  C   UNL     1       8.667  -3.303  -1.230  1.00  0.00     0.146 A 
ATOM     11  O   UNL     1       8.329  -2.033  -1.424  1.00  0.00    -0.456 OA
ENDROOT
BRANCH   1  12
ATOM     12  C   UNL     1       7.352  -0.160  -2.611  1.00  0.00     0.021 A 
ATOM     13  C   UNL     1       7.932   0.749  -1.710  1.00  0.00     0.016 A 
ATOM     14  C   UNL     1       7.657   2.115  -1.803  1.00  0.00     0.051 A 
ATOM     15  C   UNL     1       6.808   2.599  -2.801  1.00  0.00     0.157 A 
ATOM     16  C   UNL     1       6.508   0.335  -3.625  1.00  0.00     0.062 A 
ATOM     17  C   UNL     1       6.232   1.707  -3.720  1.00  0.00     0.158 A 
BRANCH  15  18
ATOM     18  O   UNL     1       6.550   3.969  -2.867  1.00  0.00    -0.504 OA
ATOM     19  H   UNL     1       7.251   4.660  -2.633  1.00  0.00     0.293 HD
ENDBRANCH  15  18
BRANCH  17  20
ATOM     20  O   UNL     1       5.393   2.186  -4.725  1.00  0.00    -0.504 OA
ATOM     21  H   UNL     1       4.492   1.759  -4.912  1.00  0.00     0.293 HD
ENDBRANCH  17  20
ENDBRANCH   1  12
BRANCH   6  22
ATOM     22  O   UNL     1       8.605  -6.686  -2.863  1.00  0.00    -0.507 OA
ATOM     23  H   UNL     1       8.801  -7.657  -2.669  1.00  0.00     0.293 HD
ENDBRANCH   6  22
BRANCH   8  24
ATOM     24  O   UNL     1      10.355  -5.317   1.375  1.00  0.00    -0.508 OA
ATOM     25  H   UNL     1      10.742  -6.243   1.512  1.00  0.00     0.293 HD
ENDBRANCH   8  24
TORSDOF 5
ENDMDL
MODEL 5
REMARK VINA RESULT:    -3.986      1.127      1.931
REMARK INTER + INTRA:          -5.002
REMARK INTER:                  -4.705
REMARK INTRA:                  -0.297
REMARK UNBOUND:                -0.317
REMARK SMILES O=c1cc(-c2ccc(O)c(O)c2)oc2cc(O)cc(O)c12
REMARK SMILES IDX 4 1 3 2 2 3 1 4 21 5 19 6 18 7 16 8 15 9 14 10 13 11 5 12
REMARK SMILES IDX 6 13 7 14 8 15 12 16 10 17 9 18 11 20 20 22 17 24
REMARK H PARENT 9 19 11 21 20 23 17 25
REMARK Flexibility Score: inf
ROOT
ATOM      1  C   UNL     1       7.610  -1.058  -2.495  1.00  0.00     0.138 A 
ATOM      2  C   UNL     1       6.926  -1.527  -3.625  1.00  0.00     0.100 A 
ATOM      3  C   UNL     1       6.948  -2.889  -3.931  1.00  0.00     0.197 A 
ATOM      4  O   UNL     1       6.273  -3.287  -4.915  1.00  0.00    -0.289 OA
ATOM      5  C   UNL     1       7.689  -3.780  -3.117  1.00  0.00     0.107 A 
ATOM      6  C   UNL     1       7.817  -5.181  -3.357  1.00  0.00     0.134 A 
ATOM      7  C   UNL     1       8.480  -5.983  -2.418  1.00  0.00     0.093 A 
ATOM      8  C   UNL     1       9.068  -5.427  -1.283  1.00  0.00     0.123 A 
ATOM      9  C   UNL     1       8.995  -4.050  -1.066  1.00  0.00     0.094 A 
ATOM     10  C   UNL     1       8.312  -3.229  -1.966  1.00  0.00     0.146 A 
ATOM     11  O   UNL     1       8.252  -1.925  -1.717  1.00  0.00    -0.456 OA
ENDROOT
BRANCH   1  12
ATOM     12  C   UNL     1       7.620   0.379  -2.123  1.00  0.00     0.021 A 
ATOM     13  C   UNL     1       8.340   0.796  -0.991  1.00  0.00     0.016 A 
ATOM     14  C   UNL     1       8.370   2.143  -0.625  1.00  0.00     0.051 A 
ATOM     15  C   UNL     1       7.692   3.099  -1.386  1.00  0.00     0.157 A 
ATOM     16  C   UNL     1       6.949   1.348  -2.896  1.00  0.00     0.062 A 
ATOM     17  C   UNL     1       6.980   2.701  -2.530  1.00  0.00     0.158 A 
BRANCH  15  18
ATOM     18  O   UNL     1       7.739   4.437  -0.995  1.00  0.00    -0.504 OA
ATOM     19  H   UNL     1       8.536   5.028  -1.195  1.00  0.00     0.293 HD
ENDBRANCH  15  18
BRANCH  17  20
ATOM     20  O   UNL     1       6.311   3.651  -3.300  1.00  0.00    -0.504 OA
ATOM     21  H   UNL     1       5.587   4.241  -2.904  1.00  0.00     0.293 HD
ENDBRANCH  17  20
ENDBRANCH   1  12
BRANCH   6  22
ATOM     22  O   UNL     1       7.340  -5.825  -4.501  1.00  0.00    -0.507 OA
ATOM     23  H   UNL     1       7.843  -6.531  -5.018  1.00  0.00     0.293 HD
ENDBRANCH   6  22
BRANCH   8  24
ATOM     24  O   UNL     1       9.732  -6.254  -0.379  1.00  0.00    -0.508 OA
ATOM     25  H   UNL     1       9.711  -6.073   0.619  1.00  0.00     0.293 HD
ENDBRANCH   8  24
TORSDOF 5
ENDMDL
MODEL 6
REMARK VINA RESULT:    -3.983      1.332      6.818
REMARK INTER + INTRA:          -4.999
REMARK INTER:                  -4.681
REMARK INTRA:                  -0.318
REMARK UNBOUND:                -0.317
REMARK SMILES O=c1cc(-c2ccc(O)c(O)c2)oc2cc(O)cc(O)c12
REMARK SMILES IDX 4 1 3 2 2 3 1 4 21 5 19 6 18 7 16 8 15 9 14 10 13 11 5 12
REMARK SMILES IDX 6 13 7 14 8 15 12 16 10 17 9 18 11 20 20 22 17 24
REMARK H PARENT 9 19 11 21 20 23 17 25
REMARK Flexibility Score: inf
ROOT
ATOM      1  C   UNL     1       7.607  -1.527  -2.586  1.00  0.00     0.138 A 
ATOM      2  C   UNL     1       6.830  -1.105  -3.674  1.00  0.00     0.100 A 
ATOM      3  C   UNL     1       6.523   0.250  -3.819  1.00  0.00     0.197 A 
ATOM      4  O   UNL     1       5.878   0.606  -4.838  1.00  0.00    -0.289 OA
ATOM      5  C   UNL     1       6.971   1.179  -2.849  1.00  0.00     0.107 A 
ATOM      6  C   UNL     1       6.683   2.577  -2.872  1.00  0.00     0.134 A 
ATOM      7  C   UNL     1       7.278   3.418  -1.923  1.00  0.00     0.093 A 
ATOM      8  C   UNL     1       8.098   2.906  -0.918  1.00  0.00     0.123 A 
ATOM      9  C   UNL     1       8.343   1.533  -0.855  1.00  0.00     0.094 A 
ATOM     10  C   UNL     1       7.793   0.673  -1.807  1.00  0.00     0.146 A 
ATOM     11  O   UNL     1       8.061  -0.626  -1.721  1.00  0.00    -0.456 OA
ENDROOT
BRANCH   1  12
ATOM     12  C   UNL     1       7.963  -2.954  -2.384  1.00  0.00     0.021 A 
ATOM     13  C   UNL     1       7.523  -3.915  -3.311  1.00  0.00     0.016 A 
ATOM     14  C   UNL     1       7.851  -5.262  -3.147  1.00  0.00     0.051 A 
ATOM     15  C   UNL     1       8.630  -5.674  -2.063  1.00  0.00     0.157 A 
ATOM     16  C   UNL     1       8.760  -3.372  -1.300  1.00  0.00     0.062 A 
ATOM     17  C   UNL     1       9.091  -4.725  -1.136  1.00  0.00     0.158 A 
BRANCH  15  18
ATOM     18  O   UNL     1       8.940  -7.027  -1.924  1.00  0.00    -0.504 OA
ATOM     19  H   UNL     1       9.895  -7.363  -1.920  1.00  0.00     0.293 HD
ENDBRANCH  15  18
BRANCH  17  20
ATOM     20  O   UNL     1       9.879  -5.129  -0.058  1.00  0.00    -0.504 OA
ATOM     21  H   UNL     1       9.824  -6.070   0.316  1.00  0.00     0.293 HD
ENDBRANCH  17  20
ENDBRANCH   1  12
BRANCH   6  22
ATOM     22  O   UNL     1       5.809   3.180  -3.781  1.00  0.00    -0.507 OA
ATOM     23  H   UNL     1       4.831   2.953  -3.878  1.00  0.00     0.293 HD
ENDBRANCH   6  22
BRANCH   8  24
ATOM     24  O   UNL     1       8.660   3.772   0.018  1.00  0.00    -0.508 OA
ATOM     25  H   UNL     1       8.944   3.448   0.935  1.00  0.00     0.293 HD
ENDBRANCH   8  24
TORSDOF 5
ENDMDL
MODEL 7
REMARK VINA RESULT:    -3.962      1.106      2.622
REMARK INTER + INTRA:          -4.974
REMARK INTER:                  -4.677
REMARK INTRA:                  -0.297
REMARK UNBOUND:                -0.317
REMARK SMILES O=c1cc(-c2ccc(O)c(O)c2)oc2cc(O)cc(O)c12
REMARK SMILES IDX 4 1 3 2 2 3 1 4 21 5 19 6 18 7 16 8 15 9 14 10 13 11 5 12
REMARK SMILES IDX 6 13 7 14 8 15 12 16 10 17 9 18 11 20 20 22 17 24
REMARK H PARENT 9 19 11 21 20 23 17 25
REMARK Flexibility Score: inf
ROOT
ATOM      1  C   UNL     1       7.928  -1.429  -2.085  1.00  0.00     0.138 A 
ATOM      2  C   UNL     1       8.753  -1.609  -0.966  1.00  0.00     0.100 A 
ATOM      3  C   UNL     1       9.185  -2.893  -0.626  1.00  0.00     0.197 A 
ATOM      4  O   UNL     1       9.974  -3.015   0.346  1.00  0.00    -0.289 OA
ATOM      5  C   UNL     1       8.760  -4.004  -1.393  1.00  0.00     0.107 A 
ATOM      6  C   UNL     1       9.104  -5.361  -1.115  1.00  0.00     0.134 A 
ATOM      7  C   UNL     1       8.721  -6.366  -2.013  1.00  0.00     0.093 A 
ATOM      8  C   UNL     1       7.958  -6.072  -3.142  1.00  0.00     0.123 A 
ATOM      9  C   UNL     1       7.571  -4.755  -3.395  1.00  0.00     0.094 A 
ATOM     10  C   UNL     1       7.966  -3.726  -2.538  1.00  0.00     0.146 A 
ATOM     11  O   UNL     1       7.589  -2.484  -2.821  1.00  0.00    -0.456 OA
ENDROOT
BRANCH   1  12
ATOM     12  C   UNL     1       7.440  -0.087  -2.492  1.00  0.00     0.021 A 
ATOM     13  C   UNL     1       6.593   0.032  -3.606  1.00  0.00     0.016 A 
ATOM     14  C   UNL     1       6.114   1.282  -4.005  1.00  0.00     0.051 A 
ATOM     15  C   UNL     1       6.463   2.433  -3.293  1.00  0.00     0.157 A 
ATOM     16  C   UNL     1       7.777   1.074  -1.768  1.00  0.00     0.062 A 
ATOM     17  C   UNL     1       7.295   2.329  -2.167  1.00  0.00     0.158 A 
BRANCH  15  18
ATOM     18  O   UNL     1       5.971   3.668  -3.715  1.00  0.00    -0.504 OA
ATOM     19  H   UNL     1       6.583   4.432  -3.970  1.00  0.00     0.293 HD
ENDBRANCH  15  18
BRANCH  17  20
ATOM     20  O   UNL     1       7.638   3.472  -1.445  1.00  0.00    -0.504 OA
ATOM     21  H   UNL     1       6.935   4.036  -0.979  1.00  0.00     0.293 HD
ENDBRANCH  17  20
ENDBRANCH   1  12
BRANCH   6  22
ATOM     22  O   UNL     1       9.791  -5.774   0.029  1.00  0.00    -0.507 OA
ATOM     23  H   UNL     1      10.720  -6.168   0.034  1.00  0.00     0.293 HD
ENDBRANCH   6  22
BRANCH   8  24
ATOM     24  O   UNL     1       7.583  -7.101  -4.005  1.00  0.00    -0.508 OA
ATOM     25  H   UNL     1       8.214  -7.451  -4.717  1.00  0.00     0.293 HD
ENDBRANCH   8  24
TORSDOF 5
ENDMDL
MODEL 8
REMARK VINA RESULT:    -3.909      1.686      3.697
REMARK INTER + INTRA:          -4.912
REMARK INTER:                  -4.594
REMARK INTRA:                  -0.318
REMARK UNBOUND:                -0.317
REMARK SMILES O=c1cc(-c2ccc(O)c(O)c2)oc2cc(O)cc(O)c12
REMARK SMILES IDX 4 1 3 2 2 3 1 4 21 5 19 6 18 7 16 8 15 9 14 10 13 11 5 12
REMARK SMILES IDX 6 13 7 14 8 15 12 16 10 17 9 18 11 20 20 22 17 24
REMARK H PARENT 9 19 11 21 20 23 17 25
REMARK Flexibility Score: inf
ROOT
ATOM      1  C   UNL     1       7.622  -1.324  -2.511  1.00  0.00     0.138 A 
ATOM      2  C   UNL     1       8.375  -2.262  -1.790  1.00  0.00     0.100 A 
ATOM      3  C   UNL     1       8.333  -3.609  -2.155  1.00  0.00     0.197 A 
ATOM      4  O   UNL     1       9.067  -4.416  -1.529  1.00  0.00    -0.289 OA
ATOM      5  C   UNL     1       7.505  -4.021  -3.227  1.00  0.00     0.107 A 
ATOM      6  C   UNL     1       7.352  -5.372  -3.660  1.00  0.00     0.134 A 
ATOM      7  C   UNL     1       6.596  -5.647  -4.807  1.00  0.00     0.093 A 
ATOM      8  C   UNL     1       5.940  -4.629  -5.499  1.00  0.00     0.123 A 
ATOM      9  C   UNL     1       6.040  -3.310  -5.052  1.00  0.00     0.094 A 
ATOM     10  C   UNL     1       6.814  -3.000  -3.933  1.00  0.00     0.146 A 
ATOM     11  O   UNL     1       6.896  -1.731  -3.548  1.00  0.00    -0.456 OA
ENDROOT
BRANCH   1  12
ATOM     12  C   UNL     1       7.629   0.120  -2.166  1.00  0.00     0.021 A 
ATOM     13  C   UNL     1       8.383   0.565  -1.067  1.00  0.00     0.016 A 
ATOM     14  C   UNL     1       8.413   1.919  -0.726  1.00  0.00     0.051 A 
ATOM     15  C   UNL     1       7.700   2.854  -1.482  1.00  0.00     0.157 A 
ATOM     16  C   UNL     1       6.923   1.068  -2.933  1.00  0.00     0.062 A 
ATOM     17  C   UNL     1       6.954   2.428  -2.593  1.00  0.00     0.158 A 
BRANCH  15  18
ATOM     18  O   UNL     1       7.747   4.199  -1.116  1.00  0.00    -0.504 OA
ATOM     19  H   UNL     1       7.037   4.861  -1.407  1.00  0.00     0.293 HD
ENDBRANCH  15  18
BRANCH  17  20
ATOM     20  O   UNL     1       6.250   3.358  -3.357  1.00  0.00    -0.504 OA
ATOM     21  H   UNL     1       6.713   3.937  -4.049  1.00  0.00     0.293 HD
ENDBRANCH  17  20
ENDBRANCH   1  12
BRANCH   6  22
ATOM     22  O   UNL     1       7.894  -6.473  -2.991  1.00  0.00    -0.507 OA
ATOM     23  H   UNL     1       8.054  -7.379  -3.407  1.00  0.00     0.293 HD
ENDBRANCH   6  22
BRANCH   8  24
ATOM     24  O   UNL     1       5.185  -4.942  -6.627  1.00  0.00    -0.508 OA
ATOM     25  H   UNL     1       5.492  -4.683  -7.558  1.00  0.00     0.293 HD
ENDBRANCH   8  24
TORSDOF 5
ENDMDL
MODEL 9
REMARK VINA RESULT:    -3.870      1.981      7.435
REMARK INTER + INTRA:          -4.866
REMARK INTER:                  -4.548
REMARK INTRA:                  -0.318
REMARK UNBOUND:                -0.317
REMARK SMILES O=c1cc(-c2ccc(O)c(O)c2)oc2cc(O)cc(O)c12
REMARK SMILES IDX 4 1 3 2 2 3 1 4 21 5 19 6 18 7 16 8 15 9 14 10 13 11 5 12
REMARK SMILES IDX 6 13 7 14 8 15 12 16 10 17 9 18 11 20 20 22 17 24
REMARK H PARENT 9 19 11 21 20 23 17 25
REMARK Flexibility Score: inf
ROOT
ATOM      1  C   UNL     1       7.651  -1.069  -2.468  1.00  0.00     0.138 A 
ATOM      2  C   UNL     1       8.410  -0.609  -1.383  1.00  0.00     0.100 A 
ATOM      3  C   UNL     1       8.400   0.749  -1.060  1.00  0.00     0.197 A 
ATOM      4  O   UNL     1       9.041   1.122  -0.044  1.00  0.00    -0.289 OA
ATOM      5  C   UNL     1       7.651   1.654  -1.850  1.00  0.00     0.107 A 
ATOM      6  C   UNL     1       7.599   3.065  -1.639  1.00  0.00     0.134 A 
ATOM      7  C   UNL     1       6.731   3.846  -2.412  1.00  0.00     0.093 A 
ATOM      8  C   UNL     1       5.959   3.278  -3.426  1.00  0.00     0.123 A 
ATOM      9  C   UNL     1       6.042   1.907  -3.675  1.00  0.00     0.094 A 
ATOM     10  C   UNL     1       6.872   1.096  -2.899  1.00  0.00     0.146 A 
ATOM     11  O   UNL     1       6.913  -0.206  -3.159  1.00  0.00    -0.456 OA
ENDROOT
BRANCH   1  12
ATOM     12  C   UNL     1       7.625  -2.502  -2.856  1.00  0.00     0.021 A 
ATOM     13  C   UNL     1       8.347  -3.438  -2.095  1.00  0.00     0.016 A 
ATOM     14  C   UNL     1       8.333  -4.792  -2.434  1.00  0.00     0.051 A 
ATOM     15  C   UNL     1       7.592  -5.239  -3.531  1.00  0.00     0.157 A 
ATOM     16  C   UNL     1       6.868  -2.959  -3.952  1.00  0.00     0.062 A 
ATOM     17  C   UNL     1       6.852  -4.320  -4.293  1.00  0.00     0.158 A 
BRANCH  15  18
ATOM     18  O   UNL     1       7.598  -6.598  -3.847  1.00  0.00    -0.504 OA
ATOM     19  H   UNL     1       6.909  -7.010  -4.464  1.00  0.00     0.293 HD
ENDBRANCH  15  18
BRANCH  17  20
ATOM     20  O   UNL     1       6.102  -4.761  -5.382  1.00  0.00    -0.504 OA
ATOM     21  H   UNL     1       5.871  -5.741  -5.505  1.00  0.00     0.293 HD
ENDBRANCH  17  20
ENDBRANCH   1  12
BRANCH   6  22
ATOM     22  O   UNL     1       8.391   3.746  -0.711  1.00  0.00    -0.507 OA
ATOM     23  H   UNL     1       8.514   4.747  -0.681  1.00  0.00     0.293 HD
ENDBRANCH   6  22
BRANCH   8  24
ATOM     24  O   UNL     1       5.118   4.089  -4.184  1.00  0.00    -0.508 OA
ATOM     25  H   UNL     1       5.457   4.590  -4.998  1.00  0.00     0.293 HD
ENDBRANCH   8  24
TORSDOF 5
ENDMDL
