MODEL 1
REMARK VINA RESULT:    -4.255      0.000      0.000
REMARK INTER + INTRA:          -5.024
REMARK INTER:                  -4.876
REMARK INTRA:                  -0.148
REMARK UNBOUND:                -0.148
REMARK SMILES O=C([O-])C=Cc1ccc(O)cc1
REMARK SMILES IDX 6 1 7 2 12 3 8 4 11 5 9 6 5 7 4 8 2 9 1 10 3 11 10 12
REMARK H PARENT 10 13
REMARK Flexibility Score: inf
ROOT
ATOM      1  C   UNL     1      20.797 -44.307   8.314  1.00  0.00    -0.025 A 
ATOM      2  C   UNL     1      22.065 -44.773   7.909  1.00  0.00     0.012 A 
ATOM      3  C   UNL     1      20.672 -42.977   8.751  1.00  0.00     0.012 A 
ATOM      4  C   UNL     1      23.170 -43.918   7.922  1.00  0.00     0.047 A 
ATOM      5  C   UNL     1      21.780 -42.125   8.761  1.00  0.00     0.047 A 
ATOM      6  C   UNL     1      23.030 -42.590   8.345  1.00  0.00     0.115 A 
ENDROOT
BRANCH   1   7
ATOM      7  C   UNL     1      19.594 -45.176   8.331  1.00  0.00     0.010 C 
ATOM      8  C   UNL     1      18.365 -44.753   8.003  1.00  0.00     0.025 C 
BRANCH   8   9
ATOM      9  C   UNL     1      17.198 -45.648   8.047  1.00  0.00     0.064 C 
ATOM     10  O   UNL     1      17.372 -46.895   8.083  1.00  0.00    -0.545 OA
ATOM     11  O   UNL     1      15.903 -45.141   8.052  1.00  0.00    -0.545 OA
ENDBRANCH   8   9
ENDBRANCH   1   7
BRANCH   6  12
ATOM     12  O   UNL     1      24.125 -41.728   8.360  1.00  0.00    -0.508 OA
ATOM     13  H   UNL     1      24.518 -41.357   7.503  1.00  0.00     0.293 HD
ENDBRANCH   6  12
TORSDOF 3
ENDMDL
MODEL 2
REMARK VINA RESULT:    -4.223      0.125      1.683
REMARK INTER + INTRA:          -4.988
REMARK INTER:                  -4.847
REMARK INTRA:                  -0.141
REMARK UNBOUND:                -0.148
REMARK SMILES O=C([O-])C=Cc1ccc(O)cc1
REMARK SMILES IDX 6 1 7 2 12 3 8 4 11 5 9 6 5 7 4 8 2 9 1 10 3 11 10 12
REMARK H PARENT 10 13
REMARK Flexibility Score: inf
ROOT
ATOM      1  C   UNL     1      20.720 -44.284   8.373  1.00  0.00    -0.025 A 
ATOM      2  C   UNL     1      20.617 -42.928   8.747  1.00  0.00     0.012 A 
ATOM      3  C   UNL     1      21.970 -44.783   7.971  1.00  0.00     0.012 A 
ATOM      4  C   UNL     1      21.747 -42.105   8.739  1.00  0.00     0.047 A 
ATOM      5  C   UNL     1      23.098 -43.957   7.966  1.00  0.00     0.047 A 
ATOM      6  C   UNL     1      22.992 -42.619   8.351  1.00  0.00     0.115 A 
ENDROOT
BRANCH   1   7
ATOM      7  C   UNL     1      19.550 -45.198   8.351  1.00  0.00     0.010 C 
ATOM      8  C   UNL     1      18.300 -44.800   8.078  1.00  0.00     0.025 C 
BRANCH   8   9
ATOM      9  C   UNL     1      17.168 -45.740   8.080  1.00  0.00     0.064 C 
ATOM     10  O   UNL     1      15.994 -45.299   8.193  1.00  0.00    -0.545 OA
ATOM     11  O   UNL     1      17.371 -47.110   7.954  1.00  0.00    -0.545 OA
ENDBRANCH   8   9
ENDBRANCH   1   7
BRANCH   6  12
ATOM     12  O   UNL     1      24.124 -41.807   8.342  1.00  0.00    -0.508 OA
ATOM     13  H   UNL     1      24.088 -40.852   8.007  1.00  0.00     0.293 HD
ENDBRANCH   6  12
TORSDOF 3
ENDMDL
MODEL 3
REMARK VINA RESULT:    -4.198      2.438      5.901
REMARK INTER + INTRA:          -4.960
REMARK INTER:                  -4.824
REMARK INTRA:                  -0.136
REMARK UNBOUND:                -0.148
REMARK SMILES O=C([O-])C=Cc1ccc(O)cc1
REMARK SMILES IDX 6 1 7 2 12 3 8 4 11 5 9 6 5 7 4 8 2 9 1 10 3 11 10 12
REMARK H PARENT 10 13
REMARK Flexibility Score: inf
ROOT
ATOM      1  C   UNL     1      19.296 -46.086   7.270  1.00  0.00    -0.025 A 
ATOM      2  C   UNL     1      19.419 -46.892   6.119  1.00  0.00     0.012 A 
ATOM      3  C   UNL     1      18.616 -46.599   8.388  1.00  0.00     0.012 A 
ATOM      4  C   UNL     1      18.893 -48.187   6.104  1.00  0.00     0.047 A 
ATOM      5  C   UNL     1      18.093 -47.896   8.368  1.00  0.00     0.047 A 
ATOM      6  C   UNL     1      18.231 -48.694   7.230  1.00  0.00     0.115 A 
ENDROOT
BRANCH   1   7
ATOM      7  C   UNL     1      19.825 -44.700   7.336  1.00  0.00     0.010 C 
ATOM      8  C   UNL     1      20.948 -44.362   7.983  1.00  0.00     0.025 C 
BRANCH   8   9
ATOM      9  C   UNL     1      21.429 -42.972   8.031  1.00  0.00     0.064 C 
ATOM     10  O   UNL     1      20.711 -42.085   8.564  1.00  0.00    -0.545 OA
ATOM     11  O   UNL     1      22.665 -42.620   7.500  1.00  0.00    -0.545 OA
ENDBRANCH   8   9
ENDBRANCH   1   7
BRANCH   6  12
ATOM     12  O   UNL     1      17.705 -49.984   7.225  1.00  0.00    -0.508 OA
ATOM     13  H   UNL     1      16.874 -50.218   7.756  1.00  0.00     0.293 HD
ENDBRANCH   6  12
TORSDOF 3
ENDMDL
MODEL 4
REMARK VINA RESULT:    -3.964      1.090      2.049
REMARK INTER + INTRA:          -4.691
REMARK INTER:                  -4.538
REMARK INTRA:                  -0.153
REMARK UNBOUND:                -0.148
REMARK SMILES O=C([O-])C=Cc1ccc(O)cc1
REMARK SMILES IDX 6 1 7 2 12 3 8 4 11 5 9 6 5 7 4 8 2 9 1 10 3 11 10 12
REMARK H PARENT 10 13
REMARK Flexibility Score: inf
ROOT
ATOM      1  C   UNL     1      20.599 -44.360   8.342  1.00  0.00    -0.025 A 
ATOM      2  C   UNL     1      20.448 -43.015   8.737  1.00  0.00     0.012 A 
ATOM      3  C   UNL     1      21.868 -44.809   7.937  1.00  0.00     0.012 A 
ATOM      4  C   UNL     1      21.549 -42.153   8.747  1.00  0.00     0.047 A 
ATOM      5  C   UNL     1      22.966 -43.944   7.950  1.00  0.00     0.047 A 
ATOM      6  C   UNL     1      22.812 -42.617   8.356  1.00  0.00     0.115 A 
ENDROOT
BRANCH   1   7
ATOM      7  C   UNL     1      19.462 -45.314   8.300  1.00  0.00     0.010 C 
ATOM      8  C   UNL     1      19.487 -46.473   7.629  1.00  0.00     0.025 C 
BRANCH   8   9
ATOM      9  C   UNL     1      18.330 -47.383   7.607  1.00  0.00     0.064 C 
ATOM     10  O   UNL     1      17.471 -47.317   8.525  1.00  0.00    -0.545 OA
ATOM     11  O   UNL     1      18.167 -48.312   6.586  1.00  0.00    -0.545 OA
ENDBRANCH   8   9
ENDBRANCH   1   7
BRANCH   6  12
ATOM     12  O   UNL     1      23.915 -41.766   8.365  1.00  0.00    -0.508 OA
ATOM     13  H   UNL     1      24.157 -41.220   9.184  1.00  0.00     0.293 HD
ENDBRANCH   6  12
TORSDOF 3
ENDMDL
MODEL 5
REMARK VINA RESULT:    -3.932      4.102      6.080
REMARK INTER + INTRA:          -4.654
REMARK INTER:                  -4.518
REMARK INTRA:                  -0.136
REMARK UNBOUND:                -0.148
REMARK SMILES O=C([O-])C=Cc1ccc(O)cc1
REMARK SMILES IDX 6 1 7 2 12 3 8 4 11 5 9 6 5 7 4 8 2 9 1 10 3 11 10 12
REMARK H PARENT 10 13
REMARK Flexibility Score: inf
ROOT
ATOM      1  C   UNL     1      19.526 -47.226   6.143  1.00  0.00    -0.025 A 
ATOM      2  C   UNL     1      19.699 -45.828   6.061  1.00  0.00     0.012 A 
ATOM      3  C   UNL     1      18.560 -47.739   7.025  1.00  0.00     0.012 A 
ATOM      4  C   UNL     1      18.904 -44.972   6.828  1.00  0.00     0.047 A 
ATOM      5  C   UNL     1      17.766 -46.878   7.788  1.00  0.00     0.047 A 
ATOM      6  C   UNL     1      17.932 -45.494   7.691  1.00  0.00     0.115 A 
ENDROOT
BRANCH   1   7
ATOM      7  C   UNL     1      20.352 -48.180   5.361  1.00  0.00     0.010 C 
ATOM      8  C   UNL     1      21.690 -48.230   5.421  1.00  0.00     0.025 C 
BRANCH   8   9
ATOM      9  C   UNL     1      22.468 -49.186   4.618  1.00  0.00     0.064 C 
ATOM     10  O   UNL     1      22.304 -50.423   4.792  1.00  0.00    -0.545 OA
ATOM     11  O   UNL     1      23.381 -48.748   3.666  1.00  0.00    -0.545 OA
ENDBRANCH   8   9
ENDBRANCH   1   7
BRANCH   6  12
ATOM     12  O   UNL     1      17.133 -44.649   8.458  1.00  0.00    -0.508 OA
ATOM     13  H   UNL     1      16.122 -44.713   8.437  1.00  0.00     0.293 HD
ENDBRANCH   6  12
TORSDOF 3
ENDMDL
MODEL 6
REMARK VINA RESULT:    -3.922      1.616      2.064
REMARK INTER + INTRA:          -4.643
REMARK INTER:                  -4.503
REMARK INTRA:                  -0.140
REMARK UNBOUND:                -0.148
REMARK SMILES O=C([O-])C=Cc1ccc(O)cc1
REMARK SMILES IDX 6 1 7 2 12 3 8 4 11 5 9 6 5 7 4 8 2 9 1 10 3 11 10 12
REMARK H PARENT 10 13
REMARK Flexibility Score: inf
ROOT
ATOM      1  C   UNL     1      21.923 -44.494   7.856  1.00  0.00    -0.025 A 
ATOM      2  C   UNL     1      23.320 -44.459   7.665  1.00  0.00     0.012 A 
ATOM      3  C   UNL     1      21.288 -43.375   8.420  1.00  0.00     0.012 A 
ATOM      4  C   UNL     1      24.052 -43.319   8.010  1.00  0.00     0.047 A 
ATOM      5  C   UNL     1      22.024 -42.236   8.763  1.00  0.00     0.047 A 
ATOM      6  C   UNL     1      23.405 -42.203   8.557  1.00  0.00     0.115 A 
ENDROOT
BRANCH   1   7
ATOM      7  C   UNL     1      21.100 -45.682   7.519  1.00  0.00     0.010 C 
ATOM      8  C   UNL     1      20.014 -45.638   6.734  1.00  0.00     0.025 C 
BRANCH   8   9
ATOM      9  C   UNL     1      19.221 -46.842   6.436  1.00  0.00     0.064 C 
ATOM     10  O   UNL     1      18.224 -47.121   7.152  1.00  0.00    -0.545 OA
ATOM     11  O   UNL     1      19.553 -47.675   5.374  1.00  0.00    -0.545 OA
ENDBRANCH   8   9
ENDBRANCH   1   7
BRANCH   6  12
ATOM     12  O   UNL     1      24.125 -41.061   8.903  1.00  0.00    -0.508 OA
ATOM     13  H   UNL     1      23.739 -40.360   9.524  1.00  0.00     0.293 HD
ENDBRANCH   6  12
TORSDOF 3
ENDMDL
MODEL 7
REMARK VINA RESULT:    -3.896      4.186      6.130
REMARK INTER + INTRA:          -4.613
REMARK INTER:                  -4.470
REMARK INTRA:                  -0.143
REMARK UNBOUND:                -0.148
REMARK SMILES O=C([O-])C=Cc1ccc(O)cc1
REMARK SMILES IDX 6 1 7 2 12 3 8 4 11 5 9 6 5 7 4 8 2 9 1 10 3 11 10 12
REMARK H PARENT 10 13
REMARK Flexibility Score: inf
ROOT
ATOM      1  C   UNL     1      19.584 -47.420   6.189  1.00  0.00    -0.025 A 
ATOM      2  C   UNL     1      18.568 -47.887   7.049  1.00  0.00     0.012 A 
ATOM      3  C   UNL     1      19.770 -46.034   6.052  1.00  0.00     0.012 A 
ATOM      4  C   UNL     1      17.781 -46.985   7.769  1.00  0.00     0.047 A 
ATOM      5  C   UNL     1      18.981 -45.135   6.775  1.00  0.00     0.047 A 
ATOM      6  C   UNL     1      17.987 -45.605   7.636  1.00  0.00     0.115 A 
ENDROOT
BRANCH   1   7
ATOM      7  C   UNL     1      20.440 -48.334   5.392  1.00  0.00     0.010 C 
ATOM      8  C   UNL     1      21.774 -48.231   5.321  1.00  0.00     0.025 C 
BRANCH   8   9
ATOM      9  C   UNL     1      22.582 -49.154   4.508  1.00  0.00     0.064 C 
ATOM     10  O   UNL     1      22.394 -50.395   4.605  1.00  0.00    -0.545 OA
ATOM     11  O   UNL     1      23.549 -48.678   3.629  1.00  0.00    -0.545 OA
ENDBRANCH   8   9
ENDBRANCH   1   7
BRANCH   6  12
ATOM     12  O   UNL     1      17.208 -44.697   8.351  1.00  0.00    -0.508 OA
ATOM     13  H   UNL     1      17.016 -44.827   9.337  1.00  0.00     0.293 HD
ENDBRANCH   6  12
TORSDOF 3
ENDMDL
MODEL 8
REMARK VINA RESULT:    -3.722      2.990      5.575
REMARK INTER + INTRA:          -4.414
REMARK INTER:                  -4.262
REMARK INTRA:                  -0.151
REMARK UNBOUND:                -0.148
REMARK SMILES O=C([O-])C=Cc1ccc(O)cc1
REMARK SMILES IDX 6 1 7 2 12 3 8 4 11 5 9 6 5 7 4 8 2 9 1 10 3 11 10 12
REMARK H PARENT 10 13
REMARK Flexibility Score: inf
ROOT
ATOM      1  C   UNL     1      21.056 -45.829   6.865  1.00  0.00    -0.025 A 
ATOM      2  C   UNL     1      19.951 -46.371   6.175  1.00  0.00     0.012 A 
ATOM      3  C   UNL     1      22.266 -46.542   6.873  1.00  0.00     0.012 A 
ATOM      4  C   UNL     1      20.071 -47.586   5.493  1.00  0.00     0.047 A 
ATOM      5  C   UNL     1      22.381 -47.756   6.188  1.00  0.00     0.047 A 
ATOM      6  C   UNL     1      21.288 -48.280   5.495  1.00  0.00     0.115 A 
ENDROOT
BRANCH   1   7
ATOM      7  C   UNL     1      20.980 -44.550   7.614  1.00  0.00     0.010 C 
ATOM      8  C   UNL     1      22.040 -43.770   7.866  1.00  0.00     0.025 C 
BRANCH   8   9
ATOM      9  C   UNL     1      21.919 -42.515   8.625  1.00  0.00     0.064 C 
ATOM     10  O   UNL     1      20.777 -42.056   8.888  1.00  0.00    -0.545 OA
ATOM     11  O   UNL     1      23.047 -41.829   9.062  1.00  0.00    -0.545 OA
ENDBRANCH   8   9
ENDBRANCH   1   7
BRANCH   6  12
ATOM     12  O   UNL     1      21.418 -49.490   4.817  1.00  0.00    -0.508 OA
ATOM     13  H   UNL     1      20.824 -49.721   4.029  1.00  0.00     0.293 HD
ENDBRANCH   6  12
TORSDOF 3
ENDMDL
MODEL 9
REMARK VINA RESULT:    -3.539      4.452      5.462
REMARK INTER + INTRA:          -4.204
REMARK INTER:                  -4.061
REMARK INTRA:                  -0.144
REMARK UNBOUND:                -0.148
REMARK SMILES O=C([O-])C=Cc1ccc(O)cc1
REMARK SMILES IDX 6 1 7 2 12 3 8 4 11 5 9 6 5 7 4 8 2 9 1 10 3 11 10 12
REMARK H PARENT 10 13
REMARK Flexibility Score: inf
ROOT
ATOM      1  C   UNL     1      21.725 -47.262   5.734  1.00  0.00    -0.025 A 
ATOM      2  C   UNL     1      23.046 -46.990   5.322  1.00  0.00     0.012 A 
ATOM      3  C   UNL     1      21.156 -48.505   5.410  1.00  0.00     0.012 A 
ATOM      4  C   UNL     1      23.781 -47.953   4.624  1.00  0.00     0.047 A 
ATOM      5  C   UNL     1      21.895 -49.465   4.712  1.00  0.00     0.047 A 
ATOM      6  C   UNL     1      23.208 -49.195   4.320  1.00  0.00     0.115 A 
ENDROOT
BRANCH   1   7
ATOM      7  C   UNL     1      20.897 -46.271   6.466  1.00  0.00     0.010 C 
ATOM      8  C   UNL     1      19.639 -45.957   6.128  1.00  0.00     0.025 C 
BRANCH   8   9
ATOM      9  C   UNL     1      18.859 -44.958   6.876  1.00  0.00     0.064 C 
ATOM     10  O   UNL     1      19.216 -43.751   6.859  1.00  0.00    -0.545 OA
ATOM     11  O   UNL     1      17.731 -45.325   7.601  1.00  0.00    -0.545 OA
ENDBRANCH   8   9
ENDBRANCH   1   7
BRANCH   6  12
ATOM     12  O   UNL     1      23.932 -50.162   3.626  1.00  0.00    -0.508 OA
ATOM     13  H   UNL     1      24.273 -49.995   2.687  1.00  0.00     0.293 HD
ENDBRANCH   6  12
TORSDOF 3
ENDMDL
