MODEL 1
REMARK VINA RESULT:    -2.984      0.000      0.000
REMARK INTER + INTRA:          -5.914
REMARK INTER:                  -4.554
REMARK INTRA:                  -1.360
REMARK UNBOUND:                -1.360
REMARK SMILES CCCCCCCCCC=CC(=O)[O-]
REMARK SMILES IDX 7 1 8 2 9 3 10 4 11 5 12 6 13 7 14 8 6 9 5 10 4 11 3 12 2 13
REMARK SMILES IDX 1 14
REMARK H PARENT
REMARK Flexibility Score: inf
ROOT
ATOM      1  C   UNL     1      -5.003  23.108   6.633  1.00  0.00     0.000 C 
ENDROOT
BRANCH   1   2
ATOM      2  C   UNL     1      -5.955  22.246   7.477  1.00  0.00     0.004 C 
BRANCH   2   3
ATOM      3  C   UNL     1      -6.591  23.027   8.637  1.00  0.00     0.027 C 
BRANCH   3   4
ATOM      4  C   UNL     1      -6.428  22.295   9.938  1.00  0.00    -0.025 C 
ATOM      5  C   UNL     1      -7.050  22.700  11.049  1.00  0.00     0.020 C 
BRANCH   5   6
ATOM      6  C   UNL     1      -6.909  21.987  12.327  1.00  0.00     0.064 C 
ATOM      7  O   UNL     1      -6.293  20.890  12.363  1.00  0.00    -0.545 OA
ATOM      8  O   UNL     1      -7.445  22.507  13.501  1.00  0.00    -0.545 OA
ENDBRANCH   5   6
ENDBRANCH   3   4
ENDBRANCH   2   3
ENDBRANCH   1   2
BRANCH   1   9
ATOM      9  C   UNL     1      -3.594  23.202   7.244  1.00  0.00     0.000 C 
BRANCH   9  10
ATOM     10  C   UNL     1      -3.172  24.655   7.518  1.00  0.00     0.000 C 
BRANCH  10  11
ATOM     11  C   UNL     1      -3.422  25.077   8.976  1.00  0.00    -0.000 C 
BRANCH  11  12
ATOM     12  C   UNL     1      -3.105  23.943   9.973  1.00  0.00    -0.000 C 
BRANCH  12  13
ATOM     13  C   UNL     1      -3.597  24.225  11.403  1.00  0.00    -0.003 C 
ATOM     14  C   UNL     1      -4.483  25.464  11.498  1.00  0.00     0.004 C 
ENDBRANCH  12  13
ENDBRANCH  11  12
ENDBRANCH  10  11
ENDBRANCH   9  10
ENDBRANCH   1   9
TORSDOF 9
ENDMDL
MODEL 2
REMARK VINA RESULT:    -2.955      3.126      6.159
REMARK INTER + INTRA:          -5.870
REMARK INTER:                  -4.873
REMARK INTRA:                  -0.997
REMARK UNBOUND:                -1.360
REMARK SMILES CCCCCCCCCC=CC(=O)[O-]
REMARK SMILES IDX 7 1 8 2 9 3 10 4 11 5 12 6 13 7 14 8 6 9 5 10 4 11 3 12 2 13
REMARK SMILES IDX 1 14
REMARK H PARENT
REMARK Flexibility Score: inf
ROOT
ATOM      1  C   UNL     1      -8.520  21.810  11.487  1.00  0.00     0.000 C 
ENDROOT
BRANCH   1   2
ATOM      2  C   UNL     1      -7.025  21.834  11.838  1.00  0.00     0.004 C 
BRANCH   2   3
ATOM      3  C   UNL     1      -6.169  22.489  10.743  1.00  0.00     0.027 C 
BRANCH   3   4
ATOM      4  C   UNL     1      -5.112  23.374  11.338  1.00  0.00    -0.025 C 
ATOM      5  C   UNL     1      -4.062  23.786  10.621  1.00  0.00     0.020 C 
BRANCH   5   6
ATOM      6  C   UNL     1      -3.025  24.662  11.186  1.00  0.00     0.064 C 
ATOM      7  O   UNL     1      -3.308  25.419  12.151  1.00  0.00    -0.545 OA
ATOM      8  O   UNL     1      -1.732  24.665  10.672  1.00  0.00    -0.545 OA
ENDBRANCH   5   6
ENDBRANCH   3   4
ENDBRANCH   2   3
ENDBRANCH   1   2
BRANCH   1   9
ATOM      9  C   UNL     1      -9.328  20.875  12.404  1.00  0.00     0.000 C 
BRANCH   9  10
ATOM     10  C   UNL     1      -8.642  20.656  13.764  1.00  0.00     0.000 C 
BRANCH  10  11
ATOM     11  C   UNL     1      -9.456  21.233  14.934  1.00  0.00    -0.000 C 
BRANCH  11  12
ATOM     12  C   UNL     1      -9.405  22.775  14.975  1.00  0.00    -0.000 C 
BRANCH  12  13
ATOM     13  C   UNL     1      -7.981  23.340  15.104  1.00  0.00    -0.003 C 
ATOM     14  C   UNL     1      -7.712  24.509  14.159  1.00  0.00     0.004 C 
ENDBRANCH  12  13
ENDBRANCH  11  12
ENDBRANCH  10  11
ENDBRANCH   9  10
ENDBRANCH   1   9
TORSDOF 9
ENDMDL
MODEL 3
REMARK VINA RESULT:    -2.917      2.335      4.678
REMARK INTER + INTRA:          -5.812
REMARK INTER:                  -5.007
REMARK INTRA:                  -0.804
REMARK UNBOUND:                -1.360
REMARK SMILES CCCCCCCCCC=CC(=O)[O-]
REMARK SMILES IDX 7 1 8 2 9 3 10 4 11 5 12 6 13 7 14 8 6 9 5 10 4 11 3 12 2 13
REMARK SMILES IDX 1 14
REMARK H PARENT
REMARK Flexibility Score: inf
ROOT
ATOM      1  C   UNL     1      -6.404  22.041   8.163  1.00  0.00     0.000 C 
ENDROOT
BRANCH   1   2
ATOM      2  C   UNL     1      -6.024  22.891   6.941  1.00  0.00     0.004 C 
BRANCH   2   3
ATOM      3  C   UNL     1      -4.725  23.685   7.152  1.00  0.00     0.027 C 
BRANCH   3   4
ATOM      4  C   UNL     1      -4.381  23.782   8.610  1.00  0.00    -0.025 C 
ATOM      5  C   UNL     1      -3.249  24.362   9.022  1.00  0.00     0.020 C 
BRANCH   5   6
ATOM      6  C   UNL     1      -2.903  24.475  10.447  1.00  0.00     0.064 C 
ATOM      7  O   UNL     1      -1.713  24.708  10.781  1.00  0.00    -0.545 OA
ATOM      8  O   UNL     1      -3.874  24.331  11.433  1.00  0.00    -0.545 OA
ENDBRANCH   5   6
ENDBRANCH   3   4
ENDBRANCH   2   3
ENDBRANCH   1   2
BRANCH   1   9
ATOM      9  C   UNL     1      -7.816  22.358   8.687  1.00  0.00     0.000 C 
BRANCH   9  10
ATOM     10  C   UNL     1      -7.857  22.475  10.220  1.00  0.00     0.000 C 
BRANCH  10  11
ATOM     11  C   UNL     1      -6.539  22.036  10.881  1.00  0.00    -0.000 C 
BRANCH  11  12
ATOM     12  C   UNL     1      -6.759  21.471  12.300  1.00  0.00    -0.000 C 
BRANCH  12  13
ATOM     13  C   UNL     1      -8.210  21.599  12.794  1.00  0.00    -0.003 C 
ATOM     14  C   UNL     1      -8.732  20.325  13.455  1.00  0.00     0.004 C 
ENDBRANCH  12  13
ENDBRANCH  11  12
ENDBRANCH  10  11
ENDBRANCH   9  10
ENDBRANCH   1   9
TORSDOF 9
ENDMDL
MODEL 4
REMARK VINA RESULT:    -2.915      3.054      5.772
REMARK INTER + INTRA:          -5.809
REMARK INTER:                  -4.914
REMARK INTRA:                  -0.894
REMARK UNBOUND:                -1.360
REMARK SMILES CCCCCCCCCC=CC(=O)[O-]
REMARK SMILES IDX 7 1 8 2 9 3 10 4 11 5 12 6 13 7 14 8 6 9 5 10 4 11 3 12 2 13
REMARK SMILES IDX 1 14
REMARK H PARENT
REMARK Flexibility Score: inf
ROOT
ATOM      1  C   UNL     1      -7.877  22.693   9.707  1.00  0.00     0.000 C 
ENDROOT
BRANCH   1   2
ATOM      2  C   UNL     1      -6.587  22.107  10.301  1.00  0.00     0.004 C 
BRANCH   2   3
ATOM      3  C   UNL     1      -6.041  22.941  11.470  1.00  0.00     0.027 C 
BRANCH   3   4
ATOM      4  C   UNL     1      -4.717  23.558  11.122  1.00  0.00    -0.025 C 
ATOM      5  C   UNL     1      -4.348  23.750   9.853  1.00  0.00     0.020 C 
BRANCH   5   6
ATOM      6  C   UNL     1      -3.060  24.364   9.497  1.00  0.00     0.064 C 
ATOM      7  O   UNL     1      -2.233  24.643  10.403  1.00  0.00    -0.545 OA
ATOM      8  O   UNL     1      -2.741  24.642   8.171  1.00  0.00    -0.545 OA
ENDBRANCH   5   6
ENDBRANCH   3   4
ENDBRANCH   2   3
ENDBRANCH   1   2
BRANCH   1   9
ATOM      9  C   UNL     1      -9.102  21.795   9.951  1.00  0.00     0.000 C 
BRANCH   9  10
ATOM     10  C   UNL     1      -9.681  21.969  11.365  1.00  0.00     0.000 C 
BRANCH  10  11
ATOM     11  C   UNL     1      -9.636  20.668  12.185  1.00  0.00    -0.000 C 
BRANCH  11  12
ATOM     12  C   UNL     1      -8.490  20.672  13.219  1.00  0.00    -0.000 C 
BRANCH  12  13
ATOM     13  C   UNL     1      -8.834  21.421  14.517  1.00  0.00    -0.003 C 
ATOM     14  C   UNL     1      -8.208  22.811  14.590  1.00  0.00     0.004 C 
ENDBRANCH  12  13
ENDBRANCH  11  12
ENDBRANCH  10  11
ENDBRANCH   9  10
ENDBRANCH   1   9
TORSDOF 9
ENDMDL
MODEL 5
REMARK VINA RESULT:    -2.887      3.111      6.277
REMARK INTER + INTRA:          -5.767
REMARK INTER:                  -4.199
REMARK INTRA:                  -1.567
REMARK UNBOUND:                -1.360
REMARK SMILES CCCCCCCCCC=CC(=O)[O-]
REMARK SMILES IDX 7 1 8 2 9 3 10 4 11 5 12 6 13 7 14 8 6 9 5 10 4 11 3 12 2 13
REMARK SMILES IDX 1 14
REMARK H PARENT
REMARK Flexibility Score: inf
ROOT
ATOM      1  C   UNL     1     -10.168  21.312  13.402  1.00  0.00     0.000 C 
ENDROOT
BRANCH   1   2
ATOM      2  C   UNL     1      -9.093  21.315  12.304  1.00  0.00     0.004 C 
BRANCH   2   3
ATOM      3  C   UNL     1      -7.718  20.862  12.818  1.00  0.00     0.027 C 
BRANCH   3   4
ATOM      4  C   UNL     1      -6.641  21.823  12.404  1.00  0.00    -0.025 C 
ATOM      5  C   UNL     1      -6.543  22.260  11.145  1.00  0.00     0.020 C 
BRANCH   5   6
ATOM      6  C   UNL     1      -5.501  23.209  10.726  1.00  0.00     0.064 C 
ATOM      7  O   UNL     1      -4.355  23.143  11.242  1.00  0.00    -0.545 OA
ATOM      8  O   UNL     1      -5.762  24.182   9.766  1.00  0.00    -0.545 OA
ENDBRANCH   5   6
ENDBRANCH   3   4
ENDBRANCH   2   3
ENDBRANCH   1   2
BRANCH   1   9
ATOM      9  C   UNL     1      -9.565  21.235  14.816  1.00  0.00     0.000 C 
BRANCH   9  10
ATOM     10  C   UNL     1      -9.560  22.601  15.524  1.00  0.00     0.000 C 
BRANCH  10  11
ATOM     11  C   UNL     1      -8.138  23.145  15.744  1.00  0.00    -0.000 C 
BRANCH  11  12
ATOM     12  C   UNL     1      -7.931  24.520  15.074  1.00  0.00    -0.000 C 
BRANCH  12  13
ATOM     13  C   UNL     1      -8.855  24.762  13.869  1.00  0.00    -0.003 C 
ATOM     14  C   UNL     1      -8.110  25.268  12.636  1.00  0.00     0.004 C 
ENDBRANCH  12  13
ENDBRANCH  11  12
ENDBRANCH  10  11
ENDBRANCH   9  10
ENDBRANCH   1   9
TORSDOF 9
ENDMDL
MODEL 6
REMARK VINA RESULT:    -2.874      3.217      6.192
REMARK INTER + INTRA:          -5.746
REMARK INTER:                  -4.907
REMARK INTRA:                  -0.839
REMARK UNBOUND:                -1.360
REMARK SMILES CCCCCCCCCC=CC(=O)[O-]
REMARK SMILES IDX 7 1 8 2 9 3 10 4 11 5 12 6 13 7 14 8 6 9 5 10 4 11 3 12 2 13
REMARK SMILES IDX 1 14
REMARK H PARENT
REMARK Flexibility Score: inf
ROOT
ATOM      1  C   UNL     1      -6.572  22.564  11.447  1.00  0.00     0.000 C 
ENDROOT
BRANCH   1   2
ATOM      2  C   UNL     1      -6.631  22.089   9.987  1.00  0.00     0.004 C 
BRANCH   2   3
ATOM      3  C   UNL     1      -6.749  23.252   8.990  1.00  0.00     0.027 C 
BRANCH   3   4
ATOM      4  C   UNL     1      -5.514  24.106   9.004  1.00  0.00    -0.025 C 
ATOM      5  C   UNL     1      -4.319  23.608   8.674  1.00  0.00     0.020 C 
BRANCH   5   6
ATOM      6  C   UNL     1      -3.102  24.434   8.671  1.00  0.00     0.064 C 
ATOM      7  O   UNL     1      -2.665  24.894   7.584  1.00  0.00    -0.545 OA
ATOM      8  O   UNL     1      -2.426  24.717   9.854  1.00  0.00    -0.545 OA
ENDBRANCH   5   6
ENDBRANCH   3   4
ENDBRANCH   2   3
ENDBRANCH   1   2
BRANCH   1   9
ATOM      9  C   UNL     1      -6.767  21.413  12.450  1.00  0.00     0.000 C 
BRANCH   9  10
ATOM     10  C   UNL     1      -8.099  21.520  13.210  1.00  0.00     0.000 C 
BRANCH  10  11
ATOM     11  C   UNL     1      -8.855  20.182  13.267  1.00  0.00    -0.000 C 
BRANCH  11  12
ATOM     12  C   UNL     1     -10.153  20.210  12.432  1.00  0.00    -0.000 C 
BRANCH  12  13
ATOM     13  C   UNL     1     -10.232  21.397  11.458  1.00  0.00    -0.003 C 
ATOM     14  C   UNL     1     -10.206  20.971   9.992  1.00  0.00     0.004 C 
ENDBRANCH  12  13
ENDBRANCH  11  12
ENDBRANCH  10  11
ENDBRANCH   9  10
ENDBRANCH   1   9
TORSDOF 9
ENDMDL
MODEL 7
REMARK VINA RESULT:    -2.864      3.732      6.676
REMARK INTER + INTRA:          -5.731
REMARK INTER:                  -4.602
REMARK INTRA:                  -1.129
REMARK UNBOUND:                -1.360
REMARK SMILES CCCCCCCCCC=CC(=O)[O-]
REMARK SMILES IDX 7 1 8 2 9 3 10 4 11 5 12 6 13 7 14 8 6 9 5 10 4 11 3 12 2 13
REMARK SMILES IDX 1 14
REMARK H PARENT
REMARK Flexibility Score: inf
ROOT
ATOM      1  C   UNL     1     -10.252  22.362  13.736  1.00  0.00     0.000 C 
ENDROOT
BRANCH   1   2
ATOM      2  C   UNL     1      -9.836  21.010  14.336  1.00  0.00     0.004 C 
BRANCH   2   3
ATOM      3  C   UNL     1      -8.741  20.310  13.514  1.00  0.00     0.027 C 
BRANCH   3   4
ATOM      4  C   UNL     1      -8.187  21.224  12.460  1.00  0.00    -0.025 C 
ATOM      5  C   UNL     1      -6.872  21.417  12.324  1.00  0.00     0.020 C 
BRANCH   5   6
ATOM      6  C   UNL     1      -6.314  22.299  11.289  1.00  0.00     0.064 C 
ATOM      7  O   UNL     1      -5.199  22.852  11.478  1.00  0.00    -0.545 OA
ATOM      8  O   UNL     1      -7.000  22.533  10.101  1.00  0.00    -0.545 OA
ENDBRANCH   5   6
ENDBRANCH   3   4
ENDBRANCH   2   3
ENDBRANCH   1   2
BRANCH   1   9
ATOM      9  C   UNL     1     -10.357  23.471  14.798  1.00  0.00     0.000 C 
BRANCH   9  10
ATOM     10  C   UNL     1      -9.311  24.578  14.591  1.00  0.00     0.000 C 
BRANCH  10  11
ATOM     11  C   UNL     1      -7.876  24.093  14.860  1.00  0.00    -0.000 C 
BRANCH  11  12
ATOM     12  C   UNL     1      -7.742  23.412  16.238  1.00  0.00    -0.000 C 
BRANCH  12  13
ATOM     13  C   UNL     1      -7.115  24.316  17.313  1.00  0.00    -0.003 C 
ATOM     14  C   UNL     1      -8.153  25.003  18.197  1.00  0.00     0.004 C 
ENDBRANCH  12  13
ENDBRANCH  11  12
ENDBRANCH  10  11
ENDBRANCH   9  10
ENDBRANCH   1   9
TORSDOF 9
ENDMDL
MODEL 8
REMARK VINA RESULT:    -2.759      3.029      5.654
REMARK INTER + INTRA:          -5.571
REMARK INTER:                  -4.905
REMARK INTRA:                  -0.666
REMARK UNBOUND:                -1.360
REMARK SMILES CCCCCCCCCC=CC(=O)[O-]
REMARK SMILES IDX 7 1 8 2 9 3 10 4 11 5 12 6 13 7 14 8 6 9 5 10 4 11 3 12 2 13
REMARK SMILES IDX 1 14
REMARK H PARENT
REMARK Flexibility Score: inf
ROOT
ATOM      1  C   UNL     1      -6.909  22.679  11.485  1.00  0.00     0.000 C 
ENDROOT
BRANCH   1   2
ATOM      2  C   UNL     1      -6.894  22.466   9.963  1.00  0.00     0.004 C 
BRANCH   2   3
ATOM      3  C   UNL     1      -5.701  23.154   9.280  1.00  0.00     0.027 C 
BRANCH   3   4
ATOM      4  C   UNL     1      -4.865  23.904  10.277  1.00  0.00    -0.025 C 
ATOM      5  C   UNL     1      -3.532  23.921  10.196  1.00  0.00     0.020 C 
BRANCH   5   6
ATOM      6  C   UNL     1      -2.700  24.661  11.158  1.00  0.00     0.064 C 
ATOM      7  O   UNL     1      -1.447  24.622  11.055  1.00  0.00    -0.545 OA
ATOM      8  O   UNL     1      -3.279  25.405  12.181  1.00  0.00    -0.545 OA
ENDBRANCH   5   6
ENDBRANCH   3   4
ENDBRANCH   2   3
ENDBRANCH   1   2
BRANCH   1   9
ATOM      9  C   UNL     1      -6.778  21.360  12.266  1.00  0.00     0.000 C 
BRANCH   9  10
ATOM     10  C   UNL     1      -7.994  21.093  13.170  1.00  0.00     0.000 C 
BRANCH  10  11
ATOM     11  C   UNL     1      -8.864  22.346  13.373  1.00  0.00    -0.000 C 
BRANCH  11  12
ATOM     12  C   UNL     1      -9.003  22.722  14.863  1.00  0.00    -0.000 C 
BRANCH  12  13
ATOM     13  C   UNL     1      -7.976  23.766  15.333  1.00  0.00    -0.003 C 
ATOM     14  C   UNL     1      -7.581  23.601  16.798  1.00  0.00     0.004 C 
ENDBRANCH  12  13
ENDBRANCH  11  12
ENDBRANCH  10  11
ENDBRANCH   9  10
ENDBRANCH   1   9
TORSDOF 9
ENDMDL
MODEL 9
REMARK VINA RESULT:    -2.683      2.503      4.066
REMARK INTER + INTRA:          -5.454
REMARK INTER:                  -3.959
REMARK INTRA:                  -1.495
REMARK UNBOUND:                -1.360
REMARK SMILES CCCCCCCCCC=CC(=O)[O-]
REMARK SMILES IDX 7 1 8 2 9 3 10 4 11 5 12 6 13 7 14 8 6 9 5 10 4 11 3 12 2 13
REMARK SMILES IDX 1 14
REMARK H PARENT
REMARK Flexibility Score: inf
ROOT
ATOM      1  C   UNL     1      -7.433  23.130   8.798  1.00  0.00     0.000 C 
ENDROOT
BRANCH   1   2
ATOM      2  C   UNL     1      -7.201  23.481  10.276  1.00  0.00     0.004 C 
BRANCH   2   3
ATOM      3  C   UNL     1      -5.980  22.762  10.871  1.00  0.00     0.027 C 
BRANCH   3   4
ATOM      4  C   UNL     1      -4.921  23.743  11.284  1.00  0.00    -0.025 C 
ATOM      5  C   UNL     1      -3.663  23.638  10.845  1.00  0.00     0.020 C 
BRANCH   5   6
ATOM      6  C   UNL     1      -2.618  24.597  11.230  1.00  0.00     0.064 C 
ATOM      7  O   UNL     1      -2.387  24.809  12.449  1.00  0.00    -0.545 OA
ATOM      8  O   UNL     1      -1.878  25.276  10.267  1.00  0.00    -0.545 OA
ENDBRANCH   5   6
ENDBRANCH   3   4
ENDBRANCH   2   3
ENDBRANCH   1   2
BRANCH   1   9
ATOM      9  C   UNL     1      -6.390  22.136   8.257  1.00  0.00     0.000 C 
BRANCH   9  10
ATOM     10  C   UNL     1      -6.178  22.279   6.741  1.00  0.00     0.000 C 
BRANCH  10  11
ATOM     11  C   UNL     1      -4.708  22.542   6.373  1.00  0.00    -0.000 C 
BRANCH  11  12
ATOM     12  C   UNL     1      -4.025  23.512   7.359  1.00  0.00    -0.000 C 
BRANCH  12  13
ATOM     13  C   UNL     1      -4.240  24.995   7.013  1.00  0.00    -0.003 C 
ATOM     14  C   UNL     1      -4.893  25.786   8.143  1.00  0.00     0.004 C 
ENDBRANCH  12  13
ENDBRANCH  11  12
ENDBRANCH  10  11
ENDBRANCH   9  10
ENDBRANCH   1   9
TORSDOF 9
ENDMDL
