MODEL 1
REMARK VINA RESULT:     3.049      0.000      0.000
REMARK INTER + INTRA:           3.573
REMARK INTER:                   3.583
REMARK INTRA:                  -0.010
REMARK UNBOUND:                -0.010
REMARK SMILES CC1(C)CC[C@@]2(C(=O)[O-])CC[C@@]3(C)C(=CC[C@@H]4[C@@]5(C)CC[C@H](O)[C@](C)(CO)[C@H]5CC[C@@]43C)[C@H]2C1
REMARK SMILES IDX 6 1 5 2 10 3 33 4 4 5 11 6 14 7 34 8 2 9 12 10 15 11 1 12
REMARK SMILES IDX 3 13 13 14 31 15 16 16 17 17 30 18 32 19 18 20 29 21 28 22
REMARK SMILES IDX 20 23 19 24 24 25 21 26 22 27 25 28 7 29 8 30 9 31 26 32
REMARK SMILES IDX 27 33 23 35
REMARK H PARENT 27 34 23 36
REMARK Flexibility Score: inf
ROOT
ATOM      1  C   UNL     1     -19.165   5.174 -16.469  1.00  0.00     0.017 C 
ATOM      2  C   UNL     1     -20.476   4.331 -16.447  1.00  0.00     0.014 C 
ATOM      3  C   UNL     1     -18.241   4.683 -15.300  1.00  0.00     0.014 C 
ATOM      4  C   UNL     1     -18.483   5.038 -17.886  1.00  0.00     0.028 C 
ATOM      5  C   UNL     1     -21.465   4.707 -17.559  1.00  0.00     0.007 C 
ATOM      6  C   UNL     1     -16.811   4.351 -15.738  1.00  0.00     0.013 C 
ATOM      7  C   UNL     1     -17.653   3.744 -18.045  1.00  0.00    -0.064 C 
ATOM      8  C   UNL     1     -19.501   5.380 -19.020  1.00  0.00     0.015 C 
ATOM      9  C   UNL     1     -20.847   4.603 -18.973  1.00  0.00    -0.035 C 
ATOM     10  C   UNL     1     -16.750   3.285 -16.884  1.00  0.00    -0.006 C 
ATOM     11  C   UNL     1     -17.444   3.178 -19.259  1.00  0.00    -0.027 C 
ATOM     12  C   UNL     1     -21.824   5.253 -19.980  1.00  0.00     0.011 C 
ATOM     13  C   UNL     1     -20.677   3.123 -19.386  1.00  0.00     0.011 C 
ATOM     14  C   UNL     1     -17.332   1.961 -16.306  1.00  0.00     0.017 C 
ATOM     15  C   UNL     1     -15.242   3.107 -17.435  1.00  0.00    -0.020 C 
ATOM     16  C   UNL     1     -16.549   1.989 -19.442  1.00  0.00     0.032 C 
ATOM     17  C   UNL     1     -15.178   2.151 -18.719  1.00  0.00     0.006 C 
ATOM     18  C   UNL     1     -14.283   2.595 -16.317  1.00  0.00     0.008 C 
ATOM     19  C   UNL     1     -14.696   4.515 -17.881  1.00  0.00     0.012 C 
ATOM     20  C   UNL     1     -14.354   0.792 -18.586  1.00  0.00    -0.025 C 
ATOM     21  C   UNL     1     -12.913   2.191 -16.857  1.00  0.00     0.005 C 
ATOM     22  C   UNL     1     -12.929   1.042 -17.913  1.00  0.00     0.006 C 
ATOM     23  C   UNL     1     -14.198   0.173 -20.018  1.00  0.00     0.010 C 
ATOM     24  C   UNL     1     -15.115  -0.284 -17.744  1.00  0.00     0.012 C 
ATOM     25  C   UNL     1     -11.690   1.090 -18.906  1.00  0.00     0.020 C 
ATOM     26  C   UNL     1     -13.046  -0.821 -20.125  1.00  0.00     0.033 C 
ATOM     27  C   UNL     1     -11.665  -0.215 -19.800  1.00  0.00     0.123 C 
ATOM     28  C   UNL     1     -11.707   2.341 -19.837  1.00  0.00     0.017 C 
ENDROOT
BRANCH   1  29
ATOM     29  C   UNL     1     -19.495   6.641 -16.188  1.00  0.00     0.048 C 
ATOM     30  O   UNL     1     -19.898   7.000 -15.050  1.00  0.00    -0.550 OA
ATOM     31  O   UNL     1     -19.491   7.580 -17.215  1.00  0.00    -0.550 OA
ENDBRANCH   1  29
BRANCH  25  32
ATOM     32  C   UNL     1     -10.342   1.142 -18.101  1.00  0.00     0.165 C 
BRANCH  32  33
ATOM     33  O   UNL     1      -9.218   1.218 -18.938  1.00  0.00    -0.396 OA
ATOM     34  H   UNL     1      -9.476   1.802 -19.698  1.00  0.00     0.210 HD
ENDBRANCH  32  33
ENDBRANCH  25  32
BRANCH  27  35
ATOM     35  O   UNL     1     -10.904  -1.231 -19.182  1.00  0.00    -0.392 OA
ATOM     36  H   UNL     1     -10.167  -1.485 -19.805  1.00  0.00     0.210 HD
ENDBRANCH  27  35
TORSDOF 4
ENDMDL
MODEL 2
REMARK VINA RESULT:     5.881      1.814      8.765
REMARK INTER + INTRA:           6.902
REMARK INTER:                   6.762
REMARK INTRA:                   0.140
REMARK UNBOUND:                -0.010
REMARK SMILES CC1(C)CC[C@@]2(C(=O)[O-])CC[C@@]3(C)C(=CC[C@@H]4[C@@]5(C)CC[C@H](O)[C@](C)(CO)[C@H]5CC[C@@]43C)[C@H]2C1
REMARK SMILES IDX 6 1 5 2 10 3 33 4 4 5 11 6 14 7 34 8 2 9 12 10 15 11 1 12
REMARK SMILES IDX 3 13 13 14 31 15 16 16 17 17 30 18 32 19 18 20 29 21 28 22
REMARK SMILES IDX 20 23 19 24 24 25 21 26 22 27 25 28 7 29 8 30 9 31 26 32
REMARK SMILES IDX 27 33 23 35
REMARK H PARENT 27 34 23 36
REMARK Flexibility Score: inf
ROOT
ATOM      1  C   UNL     1     -10.987  -0.595 -18.627  1.00  0.00     0.017 C 
ATOM      2  C   UNL     1      -9.810  -0.106 -17.729  1.00  0.00     0.014 C 
ATOM      3  C   UNL     1     -11.979  -1.421 -17.737  1.00  0.00     0.014 C 
ATOM      4  C   UNL     1     -11.673   0.652 -19.311  1.00  0.00     0.028 C 
ATOM      5  C   UNL     1      -8.771   0.733 -18.485  1.00  0.00     0.007 C 
ATOM      6  C   UNL     1     -13.439  -0.972 -17.855  1.00  0.00     0.013 C 
ATOM      7  C   UNL     1     -12.678   1.379 -18.390  1.00  0.00    -0.064 C 
ATOM      8  C   UNL     1     -10.609   1.530 -20.045  1.00  0.00     0.015 C 
ATOM      9  C   UNL     1      -9.388   1.966 -19.186  1.00  0.00    -0.035 C 
ATOM     10  C   UNL     1     -13.645   0.545 -17.528  1.00  0.00    -0.006 C 
ATOM     11  C   UNL     1     -12.958   2.697 -18.544  1.00  0.00    -0.027 C 
ATOM     12  C   UNL     1      -8.322   2.577 -20.124  1.00  0.00     0.011 C 
ATOM     13  C   UNL     1      -9.766   3.050 -18.150  1.00  0.00     0.011 C 
ATOM     14  C   UNL     1     -13.263   0.745 -16.032  1.00  0.00     0.017 C 
ATOM     15  C   UNL     1     -15.159   1.009 -17.846  1.00  0.00    -0.020 C 
ATOM     16  C   UNL     1     -14.014   3.389 -17.734  1.00  0.00     0.032 C 
ATOM     17  C   UNL     1     -15.352   2.591 -17.683  1.00  0.00     0.006 C 
ATOM     18  C   UNL     1     -16.189   0.235 -16.967  1.00  0.00     0.008 C 
ATOM     19  C   UNL     1     -15.495   0.656 -19.343  1.00  0.00     0.012 C 
ATOM     20  C   UNL     1     -16.363   3.099 -16.559  1.00  0.00    -0.025 C 
ATOM     21  C   UNL     1     -17.600   0.812 -17.068  1.00  0.00     0.005 C 
ATOM     22  C   UNL     1     -17.741   2.299 -16.615  1.00  0.00     0.006 C 
ATOM     23  C   UNL     1     -16.597   4.636 -16.770  1.00  0.00     0.010 C 
ATOM     24  C   UNL     1     -15.770   2.960 -15.119  1.00  0.00     0.012 C 
ATOM     25  C   UNL     1     -18.954   3.050 -17.313  1.00  0.00     0.020 C 
ATOM     26  C   UNL     1     -17.879   5.147 -16.121  1.00  0.00     0.033 C 
ATOM     27  C   UNL     1     -19.161   4.472 -16.651  1.00  0.00     0.123 C 
ATOM     28  C   UNL     1     -18.752   3.232 -18.849  1.00  0.00     0.017 C 
ENDROOT
BRANCH   1  29
ATOM     29  C   UNL     1     -10.452  -1.547 -19.699  1.00  0.00     0.048 C 
ATOM     30  O   UNL     1     -11.162  -2.498 -20.121  1.00  0.00    -0.550 OA
ATOM     31  O   UNL     1      -9.130  -1.467 -20.125  1.00  0.00    -0.550 OA
ENDBRANCH   1  29
BRANCH  25  32
ATOM     32  C   UNL     1     -20.286   2.239 -17.124  1.00  0.00     0.165 C 
BRANCH  32  33
ATOM     33  O   UNL     1     -21.402   2.904 -17.655  1.00  0.00    -0.396 OA
ATOM     34  H   UNL     1     -21.196   3.072 -18.611  1.00  0.00     0.210 HD
ENDBRANCH  32  33
ENDBRANCH  25  32
BRANCH  27  35
ATOM     35  O   UNL     1     -20.064   4.394 -15.568  1.00  0.00    -0.392 OA
ATOM     36  H   UNL     1     -20.979   4.251 -15.941  1.00  0.00     0.210 HD
ENDBRANCH  27  35
TORSDOF 4
ENDMDL
