MODEL 1
REMARK VINA RESULT:    -4.331      0.000      0.000
REMARK INTER + INTRA:          -5.013
REMARK INTER:                  -4.964
REMARK INTRA:                  -0.049
REMARK UNBOUND:                -0.049
REMARK SMILES CC(C)[C@H]([NH3+])C(=O)[O-]
REMARK SMILES IDX 4 1 5 2 6 6 7 7 8 8 2 9 1 10 3 11
REMARK H PARENT 5 3 5 4 5 5
REMARK Flexibility Score: inf
ROOT
ATOM      1  C   UNL     1      -9.929   4.718 -18.261  1.00  0.00     0.230 C 
ENDROOT
BRANCH   1   2
ATOM      2  N   UNL     1      -8.684   5.418 -17.912  1.00  0.00    -0.350 N 
ATOM      3  H   UNL     1      -7.878   5.001 -18.433  1.00  0.00     0.345 HD
ATOM      4  H   UNL     1      -8.481   5.309 -16.893  1.00  0.00     0.345 HD
ATOM      5  H   UNL     1      -8.752   6.435 -18.149  1.00  0.00     0.345 HD
ENDBRANCH   1   2
BRANCH   1   6
ATOM      6  C   UNL     1     -10.253   3.714 -17.183  1.00  0.00     0.099 C 
ATOM      7  O   UNL     1      -9.331   3.205 -16.492  1.00  0.00    -0.544 OA
ATOM      8  O   UNL     1     -11.572   3.344 -16.943  1.00  0.00    -0.544 OA
ENDBRANCH   1   6
BRANCH   1   9
ATOM      9  C   UNL     1      -9.833   4.021 -19.653  1.00  0.00     0.047 C 
ATOM     10  C   UNL     1      -8.556   4.425 -20.410  1.00  0.00     0.014 C 
ATOM     11  C   UNL     1     -11.059   4.345 -20.524  1.00  0.00     0.014 C 
ENDBRANCH   1   9
TORSDOF 3
ENDMDL
MODEL 2
REMARK VINA RESULT:    -4.301      1.517      2.164
REMARK INTER + INTRA:          -4.979
REMARK INTER:                  -4.920
REMARK INTRA:                  -0.059
REMARK UNBOUND:                -0.049
REMARK SMILES CC(C)[C@H]([NH3+])C(=O)[O-]
REMARK SMILES IDX 4 1 5 2 6 6 7 7 8 8 2 9 1 10 3 11
REMARK H PARENT 5 3 5 4 5 5
REMARK Flexibility Score: inf
ROOT
ATOM      1  C   UNL     1     -10.389   3.843 -18.727  1.00  0.00     0.230 C 
ENDROOT
BRANCH   1   2
ATOM      2  N   UNL     1     -11.646   4.375 -19.275  1.00  0.00    -0.350 N 
ATOM      3  H   UNL     1     -11.504   4.691 -20.262  1.00  0.00     0.345 HD
ATOM      4  H   UNL     1     -11.955   5.209 -18.726  1.00  0.00     0.345 HD
ATOM      5  H   UNL     1     -12.396   3.645 -19.256  1.00  0.00     0.345 HD
ENDBRANCH   1   2
BRANCH   1   6
ATOM      6  C   UNL     1     -10.531   3.670 -17.235  1.00  0.00     0.099 C 
ATOM      7  O   UNL     1     -11.673   3.583 -16.713  1.00  0.00    -0.544 OA
ATOM      8  O   UNL     1      -9.401   3.603 -16.428  1.00  0.00    -0.544 OA
ENDBRANCH   1   6
BRANCH   1   9
ATOM      9  C   UNL     1      -9.175   4.762 -19.063  1.00  0.00     0.047 C 
ATOM     10  C   UNL     1      -9.568   6.250 -19.075  1.00  0.00     0.014 C 
ATOM     11  C   UNL     1      -8.556   4.394 -20.423  1.00  0.00     0.014 C 
ENDBRANCH   1   9
TORSDOF 3
ENDMDL
MODEL 3
REMARK VINA RESULT:    -4.207      2.394      3.383
REMARK INTER + INTRA:          -4.870
REMARK INTER:                  -4.828
REMARK INTRA:                  -0.042
REMARK UNBOUND:                -0.049
REMARK SMILES CC(C)[C@H]([NH3+])C(=O)[O-]
REMARK SMILES IDX 4 1 5 2 6 6 7 7 8 8 2 9 1 10 3 11
REMARK H PARENT 5 3 5 4 5 5
REMARK Flexibility Score: inf
ROOT
ATOM      1  C   UNL     1      -9.487   4.745 -18.766  1.00  0.00     0.230 C 
ENDROOT
BRANCH   1   2
ATOM      2  N   UNL     1     -10.221   6.019 -18.731  1.00  0.00    -0.350 N 
ATOM      3  H   UNL     1      -9.553   6.817 -18.624  1.00  0.00     0.345 HD
ATOM      4  H   UNL     1     -10.864   6.043 -17.908  1.00  0.00     0.345 HD
ATOM      5  H   UNL     1     -10.772   6.153 -19.611  1.00  0.00     0.345 HD
ENDBRANCH   1   2
BRANCH   1   6
ATOM      6  C   UNL     1      -9.386   4.268 -20.193  1.00  0.00     0.099 C 
ATOM      7  O   UNL     1      -8.264   3.985 -20.689  1.00  0.00    -0.544 OA
ATOM      8  O   UNL     1     -10.532   4.134 -20.970  1.00  0.00    -0.544 OA
ENDBRANCH   1   6
BRANCH   1   9
ATOM      9  C   UNL     1     -10.162   3.662 -17.869  1.00  0.00     0.047 C 
ATOM     10  C   UNL     1     -11.648   3.970 -17.618  1.00  0.00     0.014 C 
ATOM     11  C   UNL     1      -9.440   3.531 -16.516  1.00  0.00     0.014 C 
ENDBRANCH   1   9
TORSDOF 3
ENDMDL
MODEL 4
REMARK VINA RESULT:    -4.069      1.674      2.101
REMARK INTER + INTRA:          -4.713
REMARK INTER:                  -4.677
REMARK INTRA:                  -0.035
REMARK UNBOUND:                -0.049
REMARK SMILES CC(C)[C@H]([NH3+])C(=O)[O-]
REMARK SMILES IDX 4 1 5 2 6 6 7 7 8 8 2 9 1 10 3 11
REMARK H PARENT 5 3 5 4 5 5
REMARK Flexibility Score: inf
ROOT
ATOM      1  C   UNL     1      -9.806   3.951 -18.226  1.00  0.00     0.230 C 
ENDROOT
BRANCH   1   2
ATOM      2  N   UNL     1     -11.193   4.415 -18.078  1.00  0.00    -0.350 N 
ATOM      3  H   UNL     1     -11.315   4.897 -17.157  1.00  0.00     0.345 HD
ATOM      4  H   UNL     1     -11.849   3.602 -18.089  1.00  0.00     0.345 HD
ATOM      5  H   UNL     1     -11.445   5.079 -18.846  1.00  0.00     0.345 HD
ENDBRANCH   1   2
BRANCH   1   6
ATOM      6  C   UNL     1      -9.178   3.815 -16.861  1.00  0.00     0.099 C 
ATOM      7  O   UNL     1      -9.372   2.778 -16.174  1.00  0.00    -0.544 OA
ATOM      8  O   UNL     1      -8.379   4.834 -16.353  1.00  0.00    -0.544 OA
ENDBRANCH   1   6
BRANCH   1   9
ATOM      9  C   UNL     1      -8.966   4.909 -19.126  1.00  0.00     0.047 C 
ATOM     10  C   UNL     1      -9.621   6.295 -19.255  1.00  0.00     0.014 C 
ATOM     11  C   UNL     1      -8.760   4.317 -20.531  1.00  0.00     0.014 C 
ENDBRANCH   1   9
TORSDOF 3
ENDMDL
MODEL 5
REMARK VINA RESULT:    -4.030      1.676      2.109
REMARK INTER + INTRA:          -4.668
REMARK INTER:                  -4.610
REMARK INTRA:                  -0.058
REMARK UNBOUND:                -0.049
REMARK SMILES CC(C)[C@H]([NH3+])C(=O)[O-]
REMARK SMILES IDX 4 1 5 2 6 6 7 7 8 8 2 9 1 10 3 11
REMARK H PARENT 5 3 5 4 5 5
REMARK Flexibility Score: inf
ROOT
ATOM      1  C   UNL     1     -10.532   4.401 -17.857  1.00  0.00     0.230 C 
ENDROOT
BRANCH   1   2
ATOM      2  N   UNL     1      -9.596   3.379 -17.367  1.00  0.00    -0.350 N 
ATOM      3  H   UNL     1      -9.817   2.452 -17.798  1.00  0.00     0.345 HD
ATOM      4  H   UNL     1      -9.692   3.268 -16.332  1.00  0.00     0.345 HD
ATOM      5  H   UNL     1      -8.609   3.637 -17.601  1.00  0.00     0.345 HD
ENDBRANCH   1   2
BRANCH   1   6
ATOM      6  C   UNL     1     -11.919   3.812 -17.927  1.00  0.00     0.099 C 
ATOM      7  O   UNL     1     -12.520   3.478 -16.872  1.00  0.00    -0.544 OA
ATOM      8  O   UNL     1     -12.545   3.638 -19.156  1.00  0.00    -0.544 OA
ENDBRANCH   1   6
BRANCH   1   9
ATOM      9  C   UNL     1     -10.102   4.963 -19.247  1.00  0.00     0.047 C 
ATOM     10  C   UNL     1      -8.995   4.111 -19.893  1.00  0.00     0.014 C 
ATOM     11  C   UNL     1      -9.615   6.419 -19.133  1.00  0.00     0.014 C 
ENDBRANCH   1   9
TORSDOF 3
ENDMDL
MODEL 6
REMARK VINA RESULT:    -4.006      2.592      3.326
REMARK INTER + INTRA:          -4.640
REMARK INTER:                  -4.592
REMARK INTRA:                  -0.048
REMARK UNBOUND:                -0.049
REMARK SMILES CC(C)[C@H]([NH3+])C(=O)[O-]
REMARK SMILES IDX 4 1 5 2 6 6 7 7 8 8 2 9 1 10 3 11
REMARK H PARENT 5 3 5 4 5 5
REMARK Flexibility Score: inf
ROOT
ATOM      1  C   UNL     1      -8.749   3.386 -16.566  1.00  0.00     0.230 C 
ENDROOT
BRANCH   1   2
ATOM      2  N   UNL     1      -9.153   2.171 -15.844  1.00  0.00    -0.350 N 
ATOM      3  H   UNL     1      -8.756   2.178 -14.876  1.00  0.00     0.345 HD
ATOM      4  H   UNL     1      -8.775   1.323 -16.325  1.00  0.00     0.345 HD
ATOM      5  H   UNL     1     -10.195   2.105 -15.784  1.00  0.00     0.345 HD
ENDBRANCH   1   2
BRANCH   1   6
ATOM      6  C   UNL     1      -8.087   4.340 -15.603  1.00  0.00     0.099 C 
ATOM      7  O   UNL     1      -7.657   5.453 -16.007  1.00  0.00    -0.544 OA
ATOM      8  O   UNL     1      -7.949   3.999 -14.262  1.00  0.00    -0.544 OA
ENDBRANCH   1   6
BRANCH   1   9
ATOM      9  C   UNL     1      -9.958   4.069 -17.275  1.00  0.00     0.047 C 
ATOM     10  C   UNL     1     -11.289   3.376 -16.935  1.00  0.00     0.014 C 
ATOM     11  C   UNL     1      -9.774   4.083 -18.803  1.00  0.00     0.014 C 
ENDBRANCH   1   9
TORSDOF 3
ENDMDL
MODEL 7
REMARK VINA RESULT:    -3.889      5.195      6.283
REMARK INTER + INTRA:          -4.507
REMARK INTER:                  -4.452
REMARK INTRA:                  -0.054
REMARK UNBOUND:                -0.049
REMARK SMILES CC(C)[C@H]([NH3+])C(=O)[O-]
REMARK SMILES IDX 4 1 5 2 6 6 7 7 8 8 2 9 1 10 3 11
REMARK H PARENT 5 3 5 4 5 5
REMARK Flexibility Score: inf
ROOT
ATOM      1  C   UNL     1     -13.893   4.764 -21.819  1.00  0.00     0.230 C 
ENDROOT
BRANCH   1   2
ATOM      2  N   UNL     1     -15.249   4.823 -21.255  1.00  0.00    -0.350 N 
ATOM      3  H   UNL     1     -15.433   5.774 -20.859  1.00  0.00     0.345 HD
ATOM      4  H   UNL     1     -15.344   4.140 -20.470  1.00  0.00     0.345 HD
ATOM      5  H   UNL     1     -15.965   4.616 -21.989  1.00  0.00     0.345 HD
ENDBRANCH   1   2
BRANCH   1   6
ATOM      6  C   UNL     1     -13.983   4.499 -23.302  1.00  0.00     0.099 C 
ATOM      7  O   UNL     1     -14.631   5.280 -24.047  1.00  0.00    -0.544 OA
ATOM      8  O   UNL     1     -13.348   3.393 -23.856  1.00  0.00    -0.544 OA
ENDBRANCH   1   6
BRANCH   1   9
ATOM      9  C   UNL     1     -13.019   3.678 -21.118  1.00  0.00     0.047 C 
ATOM     10  C   UNL     1     -13.632   3.225 -19.781  1.00  0.00     0.014 C 
ATOM     11  C   UNL     1     -11.589   4.189 -20.869  1.00  0.00     0.014 C 
ENDBRANCH   1   9
TORSDOF 3
ENDMDL
MODEL 8
REMARK VINA RESULT:    -3.883      2.389      3.173
REMARK INTER + INTRA:          -4.499
REMARK INTER:                  -4.469
REMARK INTRA:                  -0.030
REMARK UNBOUND:                -0.049
REMARK SMILES CC(C)[C@H]([NH3+])C(=O)[O-]
REMARK SMILES IDX 4 1 5 2 6 6 7 7 8 8 2 9 1 10 3 11
REMARK H PARENT 5 3 5 4 5 5
REMARK Flexibility Score: inf
ROOT
ATOM      1  C   UNL     1     -11.353   4.382 -18.513  1.00  0.00     0.230 C 
ENDROOT
BRANCH   1   2
ATOM      2  N   UNL     1     -11.343   4.702 -19.948  1.00  0.00    -0.350 N 
ATOM      3  H   UNL     1     -10.614   5.425 -20.149  1.00  0.00     0.345 HD
ATOM      4  H   UNL     1     -12.263   5.105 -20.235  1.00  0.00     0.345 HD
ATOM      5  H   UNL     1     -11.141   3.848 -20.516  1.00  0.00     0.345 HD
ENDBRANCH   1   2
BRANCH   1   6
ATOM      6  C   UNL     1     -10.024   3.781 -18.127  1.00  0.00     0.099 C 
ATOM      7  O   UNL     1      -9.133   3.602 -18.998  1.00  0.00    -0.544 OA
ATOM      8  O   UNL     1      -9.774   3.422 -16.808  1.00  0.00    -0.544 OA
ENDBRANCH   1   6
BRANCH   1   9
ATOM      9  C   UNL     1     -12.523   3.419 -18.142  1.00  0.00     0.047 C 
ATOM     10  C   UNL     1     -13.565   3.322 -19.269  1.00  0.00     0.014 C 
ATOM     11  C   UNL     1     -13.222   3.865 -16.845  1.00  0.00     0.014 C 
ENDBRANCH   1   9
TORSDOF 3
ENDMDL
MODEL 9
REMARK VINA RESULT:    -3.769      7.843      8.833
REMARK INTER + INTRA:          -4.369
REMARK INTER:                  -4.321
REMARK INTRA:                  -0.049
REMARK UNBOUND:                -0.049
REMARK SMILES CC(C)[C@H]([NH3+])C(=O)[O-]
REMARK SMILES IDX 4 1 5 2 6 6 7 7 8 8 2 9 1 10 3 11
REMARK H PARENT 5 3 5 4 5 5
REMARK Flexibility Score: inf
ROOT
ATOM      1  C   UNL     1     -12.844   1.848 -26.060  1.00  0.00     0.230 C 
ENDROOT
BRANCH   1   2
ATOM      2  N   UNL     1     -11.976   0.741 -25.630  1.00  0.00    -0.350 N 
ATOM      3  H   UNL     1     -10.974   0.979 -25.814  1.00  0.00     0.345 HD
ATOM      4  H   UNL     1     -12.193  -0.122 -26.178  1.00  0.00     0.345 HD
ATOM      5  H   UNL     1     -12.099   0.548 -24.609  1.00  0.00     0.345 HD
ENDBRANCH   1   2
BRANCH   1   6
ATOM      6  C   UNL     1     -12.273   2.473 -27.308  1.00  0.00     0.099 C 
ATOM      7  O   UNL     1     -11.077   2.253 -27.637  1.00  0.00    -0.544 OA
ATOM      8  O   UNL     1     -13.063   3.293 -28.105  1.00  0.00    -0.544 OA
ENDBRANCH   1   6
BRANCH   1   9
ATOM      9  C   UNL     1     -13.019   2.917 -24.938  1.00  0.00     0.047 C 
ATOM     10  C   UNL     1     -11.816   2.944 -23.978  1.00  0.00     0.014 C 
ATOM     11  C   UNL     1     -14.304   2.671 -24.128  1.00  0.00     0.014 C 
ENDBRANCH   1   9
TORSDOF 3
ENDMDL
