MODEL 1
REMARK VINA RESULT:    -4.142      0.000      0.000
REMARK INTER + INTRA:          -4.472
REMARK INTER:                  -5.111
REMARK INTRA:                   0.639
REMARK UNBOUND:                 0.639
REMARK SMILES C=C1[C@@H]2CC[C@H]3[C@@H]2C(C)(C)CCC[C@@]13C
REMARK SMILES IDX 14 1 6 2 7 3 3 4 2 5 1 6 4 7 5 8 15 9 8 10 9 11 10 12 11 13
REMARK SMILES IDX 13 15 12 16
REMARK H PARENT
REMARK Flexibility Score: 80.00
ROOT
ATOM      1  C   UNL     1     135.569 138.651 132.020  1.00  0.00    -0.008 C 
ATOM      2  C   UNL     1     136.080 139.162 130.623  1.00  0.00     0.003 C 
ATOM      3  C   UNL     1     137.461 139.752 130.950  1.00  0.00     0.006 C 
ATOM      4  C   UNL     1     136.912 140.699 132.018  1.00  0.00     0.019 C 
ATOM      5  C   UNL     1     136.125 139.757 132.886  1.00  0.00    -0.068 C 
ATOM      6  C   UNL     1     135.896 139.934 134.194  1.00  0.00     0.009 C 
ATOM      7  C   UNL     1     135.872 141.503 131.213  1.00  0.00     0.008 C 
ATOM      8  C   UNL     1     135.340 140.463 130.205  1.00  0.00     0.005 C 
ATOM      9  C   UNL     1     134.022 138.601 132.123  1.00  0.00     0.016 C 
ENDROOT
BRANCH   3  10
ATOM     10  C   UNL     1     138.646 138.764 131.349  1.00  0.00    -0.032 C 
ATOM     11  C   UNL     1     139.115 138.870 132.828  1.00  0.00     0.011 C 
ATOM     12  C   UNL     1     139.893 139.181 130.516  1.00  0.00     0.011 C 
BRANCH  10  13
ATOM     13  C   UNL     1     138.361 137.275 130.968  1.00  0.00     0.007 CG0
ATOM     14  G   UNL     1     137.065 136.568 131.444  1.00  0.00     0.000 G0
ENDBRANCH  10  13
ENDBRANCH   3  10
BRANCH   1  15
ATOM     15  C   UNL     1     136.164 137.263 132.443  1.00  0.00     0.011 C 
BRANCH  15  16
ATOM     16  C   UNL     1     137.069 136.555 131.425  1.00  0.00     0.001 CG0
ATOM     17  G   UNL     1     138.369 137.261 130.959  1.00  0.00     0.000 G0
ENDBRANCH  15  16
ENDBRANCH   1  15
TORSDOF 0
ENDMDL
MODEL 2
REMARK VINA RESULT:    -4.099      2.211      4.054
REMARK INTER + INTRA:          -4.419
REMARK INTER:                  -5.087
REMARK INTRA:                   0.669
REMARK UNBOUND:                 0.639
REMARK SMILES C=C1[C@@H]2CC[C@H]3[C@@H]2C(C)(C)CCC[C@@]13C
REMARK SMILES IDX 14 1 6 2 7 3 3 4 2 5 1 6 4 7 5 8 15 9 8 10 9 11 10 12 11 13
REMARK SMILES IDX 13 15 12 16
REMARK H PARENT
REMARK Flexibility Score: 80.00
ROOT
ATOM      1  C   UNL     1     135.104 135.454 131.858  1.00  0.00    -0.008 C 
ATOM      2  C   UNL     1     134.515 135.962 130.491  1.00  0.00     0.003 C 
ATOM      3  C   UNL     1     133.984 137.361 130.836  1.00  0.00     0.006 C 
ATOM      4  C   UNL     1     133.095 136.850 131.972  1.00  0.00     0.019 C 
ATOM      5  C   UNL     1     134.072 136.049 132.787  1.00  0.00    -0.068 C 
ATOM      6  C   UNL     1     133.976 135.840 134.106  1.00  0.00     0.009 C 
ATOM      7  C   UNL     1     132.213 135.823 131.236  1.00  0.00     0.008 C 
ATOM      8  C   UNL     1     133.171 135.251 130.169  1.00  0.00     0.005 C 
ATOM      9  C   UNL     1     135.120 133.907 131.979  1.00  0.00     0.016 C 
ENDROOT
BRANCH   3  10
ATOM     10  C   UNL     1     135.026 138.524 131.153  1.00  0.00    -0.032 C 
ATOM     11  C   UNL     1     135.034 139.010 132.631  1.00  0.00     0.011 C 
ATOM     12  C   UNL     1     134.584 139.773 130.338  1.00  0.00     0.011 C 
BRANCH  10  13
ATOM     13  C   UNL     1     136.478 138.198 130.674  1.00  0.00     0.007 CG0
ATOM     14  G   UNL     1     137.183 136.887 131.111  1.00  0.00     0.000 G0
ENDBRANCH  10  13
ENDBRANCH   3  10
BRANCH   1  15
ATOM     15  C   UNL     1     136.532 136.017 132.180  1.00  0.00     0.011 C 
BRANCH  15  16
ATOM     16  C   UNL     1     137.189 136.899 131.110  1.00  0.00     0.001 CG0
ATOM     17  G   UNL     1     136.474 138.204 130.671  1.00  0.00     0.000 G0
ENDBRANCH  15  16
ENDBRANCH   1  15
TORSDOF 0
ENDMDL
MODEL 3
REMARK VINA RESULT:    -4.068      2.761      5.641
REMARK INTER + INTRA:          -4.380
REMARK INTER:                  -5.053
REMARK INTRA:                   0.672
REMARK UNBOUND:                 0.639
REMARK SMILES C=C1[C@@H]2CC[C@H]3[C@@H]2C(C)(C)CCC[C@@]13C
REMARK SMILES IDX 14 1 6 2 7 3 3 4 2 5 1 6 4 7 5 8 15 9 8 10 9 11 10 12 11 13
REMARK SMILES IDX 13 15 12 16
REMARK H PARENT
REMARK Flexibility Score: 80.00
ROOT
ATOM      1  C   UNL     1     138.286 135.141 131.853  1.00  0.00    -0.008 C 
ATOM      2  C   UNL     1     137.696 134.572 130.511  1.00  0.00     0.003 C 
ATOM      3  C   UNL     1     136.308 134.061 130.927  1.00  0.00     0.006 C 
ATOM      4  C   UNL     1     136.864 133.154 132.027  1.00  0.00     0.019 C 
ATOM      5  C   UNL     1     137.724 134.111 132.805  1.00  0.00    -0.068 C 
ATOM      6  C   UNL     1     138.001 134.001 134.111  1.00  0.00     0.009 C 
ATOM      7  C   UNL     1     137.836 132.262 131.230  1.00  0.00     0.008 C 
ATOM      8  C   UNL     1     138.366 133.219 130.142  1.00  0.00     0.005 C 
ATOM      9  C   UNL     1     139.837 135.131 131.891  1.00  0.00     0.016 C 
ENDROOT
BRANCH   3  10
ATOM     10  C   UNL     1     135.181 135.119 131.314  1.00  0.00    -0.032 C 
ATOM     11  C   UNL     1     134.778 135.124 132.816  1.00  0.00     0.011 C 
ATOM     12  C   UNL     1     133.882 134.702 130.566  1.00  0.00     0.011 C 
BRANCH  10  13
ATOM     13  C   UNL     1     135.504 136.569 130.826  1.00  0.00     0.007 CG0
ATOM     14  G   UNL     1     136.841 137.256 131.210  1.00  0.00     0.000 G0
ENDBRANCH  10  13
ENDBRANCH   3  10
BRANCH   1  15
ATOM     15  C   UNL     1     137.765 136.575 132.217  1.00  0.00     0.011 C 
BRANCH  15  16
ATOM     16  C   UNL     1     136.838 137.255 131.200  1.00  0.00     0.001 CG0
ATOM     17  G   UNL     1     135.498 136.569 130.829  1.00  0.00     0.000 G0
ENDBRANCH  15  16
ENDBRANCH   1  15
TORSDOF 0
ENDMDL
MODEL 4
REMARK VINA RESULT:    -4.046      2.091      3.937
REMARK INTER + INTRA:          -4.353
REMARK INTER:                  -5.002
REMARK INTRA:                   0.649
REMARK UNBOUND:                 0.639
REMARK SMILES C=C1[C@@H]2CC[C@H]3[C@@H]2C(C)(C)CCC[C@@]13C
REMARK SMILES IDX 14 1 6 2 7 3 3 4 2 5 1 6 4 7 5 8 15 9 8 10 9 11 10 12 11 13
REMARK SMILES IDX 13 15 12 16
REMARK H PARENT
REMARK Flexibility Score: 80.00
ROOT
ATOM      1  C   UNL     1     138.541 138.292 132.050  1.00  0.00    -0.008 C 
ATOM      2  C   UNL     1     139.066 137.723 130.682  1.00  0.00     0.003 C 
ATOM      3  C   UNL     1     139.631 136.347 131.067  1.00  0.00     0.006 C 
ATOM      4  C   UNL     1     140.569 136.921 132.129  1.00  0.00     0.019 C 
ATOM      5  C   UNL     1     139.625 137.753 132.954  1.00  0.00    -0.068 C 
ATOM      6  C   UNL     1     139.785 138.027 134.255  1.00  0.00     0.009 C 
ATOM      7  C   UNL     1     141.401 137.919 131.301  1.00  0.00     0.008 C 
ATOM      8  C   UNL     1     140.384 138.430 130.258  1.00  0.00     0.005 C 
ATOM      9  C   UNL     1     138.513 139.843 132.097  1.00  0.00     0.016 C 
ENDROOT
BRANCH   3  10
ATOM     10  C   UNL     1     138.620 135.191 131.493  1.00  0.00    -0.032 C 
ATOM     11  C   UNL     1     138.693 134.778 132.990  1.00  0.00     0.011 C 
ATOM     12  C   UNL     1     139.034 133.908 130.716  1.00  0.00     0.011 C 
BRANCH  10  13
ATOM     13  C   UNL     1     137.141 135.481 131.074  1.00  0.00     0.007 CG0
ATOM     14  G   UNL     1     136.443 136.802 131.490  1.00  0.00     0.000 G0
ENDBRANCH  10  13
ENDBRANCH   3  10
BRANCH   1  15
ATOM     15  C   UNL     1     137.138 137.732 132.473  1.00  0.00     0.011 C 
BRANCH  15  16
ATOM     16  C   UNL     1     136.436 136.796 131.479  1.00  0.00     0.001 CG0
ATOM     17  G   UNL     1     137.136 135.473 131.072  1.00  0.00     0.000 G0
ENDBRANCH  15  16
ENDBRANCH   1  15
TORSDOF 0
ENDMDL
MODEL 5
REMARK VINA RESULT:    -3.785      3.081      4.930
REMARK INTER + INTRA:          -4.031
REMARK INTER:                  -4.684
REMARK INTRA:                   0.653
REMARK UNBOUND:                 0.639
REMARK SMILES C=C1[C@@H]2CC[C@H]3[C@@H]2C(C)(C)CCC[C@@]13C
REMARK SMILES IDX 14 1 6 2 7 3 3 4 2 5 1 6 4 7 5 8 15 9 8 10 9 11 10 12 11 13
REMARK SMILES IDX 13 15 12 16
REMARK H PARENT
REMARK Flexibility Score: 80.00
ROOT
ATOM      1  C   UNL     1     137.917 134.216 131.878  1.00  0.00    -0.008 C 
ATOM      2  C   UNL     1     139.343 134.140 131.220  1.00  0.00     0.003 C 
ATOM      3  C   UNL     1     139.550 135.558 130.668  1.00  0.00     0.006 C 
ATOM      4  C   UNL     1     138.264 135.529 129.841  1.00  0.00     0.019 C 
ATOM      5  C   UNL     1     137.247 135.121 130.872  1.00  0.00    -0.068 C 
ATOM      6  C   UNL     1     135.949 135.449 130.836  1.00  0.00     0.009 C 
ATOM      7  C   UNL     1     138.493 134.289 128.956  1.00  0.00     0.008 C 
ATOM      8  C   UNL     1     139.293 133.350 129.883  1.00  0.00     0.005 C 
ATOM      9  C   UNL     1     137.199 132.842 131.940  1.00  0.00     0.016 C 
ENDROOT
BRANCH   3  10
ATOM     10  C   UNL     1     139.767 136.760 131.692  1.00  0.00    -0.032 C 
ATOM     11  C   UNL     1     138.603 137.790 131.746  1.00  0.00     0.011 C 
ATOM     12  C   UNL     1     140.988 137.581 131.186  1.00  0.00     0.011 C 
BRANCH  10  13
ATOM     13  C   UNL     1     140.146 136.281 133.132  1.00  0.00     0.007 CG0
ATOM     14  G   UNL     1     139.265 135.248 133.882  1.00  0.00     0.000 G0
ENDBRANCH  10  13
ENDBRANCH   3  10
BRANCH   1  15
ATOM     15  C   UNL     1     137.911 134.871 133.304  1.00  0.00     0.011 C 
BRANCH  15  16
ATOM     16  C   UNL     1     139.273 135.262 133.894  1.00  0.00     0.001 CG0
ATOM     17  G   UNL     1     140.147 136.298 133.141  1.00  0.00     0.000 G0
ENDBRANCH  15  16
ENDBRANCH   1  15
TORSDOF 0
ENDMDL
MODEL 6
REMARK VINA RESULT:    -3.780      1.913      3.822
REMARK INTER + INTRA:          -4.025
REMARK INTER:                  -4.677
REMARK INTRA:                   0.652
REMARK UNBOUND:                 0.639
REMARK SMILES C=C1[C@@H]2CC[C@H]3[C@@H]2C(C)(C)CCC[C@@]13C
REMARK SMILES IDX 14 1 6 2 7 3 3 4 2 5 1 6 4 7 5 8 15 9 8 10 9 11 10 12 11 13
REMARK SMILES IDX 13 15 12 16
REMARK H PARENT
REMARK Flexibility Score: 80.00
ROOT
ATOM      1  C   UNL     1     135.834 139.958 131.485  1.00  0.00    -0.008 C 
ATOM      2  C   UNL     1     134.428 139.692 130.832  1.00  0.00     0.003 C 
ATOM      3  C   UNL     1     134.525 138.228 130.377  1.00  0.00     0.006 C 
ATOM      4  C   UNL     1     135.783 138.469 129.541  1.00  0.00     0.019 C 
ATOM      5  C   UNL     1     136.685 139.147 130.536  1.00  0.00    -0.068 C 
ATOM      6  C   UNL     1     138.023 139.095 130.514  1.00  0.00     0.009 C 
ATOM      7  C   UNL     1     135.308 139.573 128.578  1.00  0.00     0.008 C 
ATOM      8  C   UNL     1     134.322 140.384 129.445  1.00  0.00     0.005 C 
ATOM      9  C   UNL     1     136.250 141.453 131.450  1.00  0.00     0.016 C 
ENDROOT
BRANCH   3  10
ATOM     10  C   UNL     1     134.555 137.078 131.480  1.00  0.00    -0.032 C 
ATOM     11  C   UNL     1     135.909 136.320 131.597  1.00  0.00     0.011 C 
ATOM     12  C   UNL     1     133.538 135.987 131.037  1.00  0.00     0.011 C 
BRANCH  10  13
ATOM     13  C   UNL     1     134.073 137.561 132.887  1.00  0.00     0.007 CG0
ATOM     14  G   UNL     1     134.719 138.795 133.567  1.00  0.00     0.000 G0
ENDBRANCH  10  13
ENDBRANCH   3  10
BRANCH   1  15
ATOM     15  C   UNL     1     135.966 139.415 132.950  1.00  0.00     0.011 C 
BRANCH  15  16
ATOM     16  C   UNL     1     134.709 138.793 133.576  1.00  0.00     0.001 CG0
ATOM     17  G   UNL     1     134.063 137.560 132.894  1.00  0.00     0.000 G0
ENDBRANCH  15  16
ENDBRANCH   1  15
TORSDOF 0
ENDMDL
MODEL 7
REMARK VINA RESULT:    -3.742      2.821      5.334
REMARK INTER + INTRA:          -3.978
REMARK INTER:                  -4.648
REMARK INTRA:                   0.670
REMARK UNBOUND:                 0.639
REMARK SMILES C=C1[C@@H]2CC[C@H]3[C@@H]2C(C)(C)CCC[C@@]13C
REMARK SMILES IDX 14 1 6 2 7 3 3 4 2 5 1 6 4 7 5 8 15 9 8 10 9 11 10 12 11 13
REMARK SMILES IDX 13 15 12 16
REMARK H PARENT
REMARK Flexibility Score: 80.00
ROOT
ATOM      1  C   UNL     1     136.215 136.017 132.413  1.00  0.00    -0.008 C 
ATOM      2  C   UNL     1     136.566 135.098 131.186  1.00  0.00     0.003 C 
ATOM      3  C   UNL     1     135.207 134.494 130.801  1.00  0.00     0.006 C 
ATOM      4  C   UNL     1     134.952 133.930 132.200  1.00  0.00     0.019 C 
ATOM      5  C   UNL     1     135.168 135.143 133.062  1.00  0.00    -0.068 C 
ATOM      6  C   UNL     1     134.581 135.353 134.248  1.00  0.00     0.009 C 
ATOM      7  C   UNL     1     136.191 133.037 132.405  1.00  0.00     0.008 C 
ATOM      8  C   UNL     1     137.296 133.808 131.651  1.00  0.00     0.005 C 
ATOM      9  C   UNL     1     137.414 136.237 133.373  1.00  0.00     0.016 C 
ENDROOT
BRANCH   3  10
ATOM     10  C   UNL     1     134.100 135.437 130.150  1.00  0.00    -0.032 C 
ATOM     11  C   UNL     1     132.860 135.708 131.050  1.00  0.00     0.011 C 
ATOM     12  C   UNL     1     133.525 134.688 128.914  1.00  0.00     0.011 C 
BRANCH  10  13
ATOM     13  C   UNL     1     134.682 136.780 129.599  1.00  0.00     0.007 CG0
ATOM     14  G   UNL     1     135.520 137.715 130.509  1.00  0.00     0.000 G0
ENDBRANCH  10  13
ENDBRANCH   3  10
BRANCH   1  15
ATOM     15  C   UNL     1     135.608 137.406 132.011  1.00  0.00     0.011 C 
BRANCH  15  16
ATOM     16  C   UNL     1     135.518 137.717 130.511  1.00  0.00     0.001 CG0
ATOM     17  G   UNL     1     134.694 136.773 129.597  1.00  0.00     0.000 G0
ENDBRANCH  15  16
ENDBRANCH   1  15
TORSDOF 0
ENDMDL
MODEL 8
REMARK VINA RESULT:    -3.653      1.742      4.207
REMARK INTER + INTRA:          -3.868
REMARK INTER:                  -4.525
REMARK INTRA:                   0.656
REMARK UNBOUND:                 0.639
REMARK SMILES C=C1[C@@H]2CC[C@H]3[C@@H]2C(C)(C)CCC[C@@]13C
REMARK SMILES IDX 14 1 6 2 7 3 3 4 2 5 1 6 4 7 5 8 15 9 8 10 9 11 10 12 11 13
REMARK SMILES IDX 13 15 12 16
REMARK H PARENT
REMARK Flexibility Score: 80.00
ROOT
ATOM      1  C   UNL     1     138.777 137.110 130.311  1.00  0.00    -0.008 C 
ATOM      2  C   UNL     1     139.295 136.818 131.767  1.00  0.00     0.003 C 
ATOM      3  C   UNL     1     139.413 138.219 132.385  1.00  0.00     0.006 C 
ATOM      4  C   UNL     1     140.333 138.737 131.277  1.00  0.00     0.019 C 
ATOM      5  C   UNL     1     139.554 138.378 130.041  1.00  0.00    -0.068 C 
ATOM      6  C   UNL     1     139.619 139.038 128.878  1.00  0.00     0.009 C 
ATOM      7  C   UNL     1     141.500 137.733 131.350  1.00  0.00     0.008 C 
ATOM      8  C   UNL     1     140.797 136.419 131.750  1.00  0.00     0.005 C 
ATOM      9  C   UNL     1     139.164 136.006 129.292  1.00  0.00     0.016 C 
ENDROOT
BRANCH   3  10
ATOM     10  C   UNL     1     138.082 139.034 132.708  1.00  0.00    -0.032 C 
ATOM     11  C   UNL     1     137.851 140.288 131.818  1.00  0.00     0.011 C 
ATOM     12  C   UNL     1     138.229 139.603 134.149  1.00  0.00     0.011 C 
BRANCH  10  13
ATOM     13  C   UNL     1     136.802 138.136 132.736  1.00  0.00     0.007 CG0
ATOM     14  G   UNL     1     136.443 137.228 131.530  1.00  0.00     0.000 G0
ENDBRANCH  10  13
ENDBRANCH   3  10
BRANCH   1  15
ATOM     15  C   UNL     1     137.234 137.377 130.229  1.00  0.00     0.011 C 
BRANCH  15  16
ATOM     16  C   UNL     1     136.433 137.228 131.529  1.00  0.00     0.001 CG0
ATOM     17  G   UNL     1     136.789 138.132 132.738  1.00  0.00     0.000 G0
ENDBRANCH  15  16
ENDBRANCH   1  15
TORSDOF 0
ENDMDL
MODEL 9
REMARK VINA RESULT:    -3.633      3.128      4.742
REMARK INTER + INTRA:          -3.844
REMARK INTER:                  -4.497
REMARK INTRA:                   0.653
REMARK UNBOUND:                 0.639
REMARK SMILES C=C1[C@@H]2CC[C@H]3[C@@H]2C(C)(C)CCC[C@@]13C
REMARK SMILES IDX 14 1 6 2 7 3 3 4 2 5 1 6 4 7 5 8 15 9 8 10 9 11 10 12 11 13
REMARK SMILES IDX 13 15 12 16
REMARK H PARENT
REMARK Flexibility Score: 80.00
ROOT
ATOM      1  C   UNL     1     134.048 135.783 131.469  1.00  0.00    -0.008 C 
ATOM      2  C   UNL     1     134.118 134.380 130.762  1.00  0.00     0.003 C 
ATOM      3  C   UNL     1     135.511 134.383 130.115  1.00  0.00     0.006 C 
ATOM      4  C   UNL     1     135.257 135.678 129.342  1.00  0.00     0.019 C 
ATOM      5  C   UNL     1     134.788 136.598 130.434  1.00  0.00    -0.068 C 
ATOM      6  C   UNL     1     134.937 137.929 130.429  1.00  0.00     0.009 C 
ATOM      7  C   UNL     1     134.001 135.310 128.528  1.00  0.00     0.008 C 
ATOM      8  C   UNL     1     133.241 134.363 129.480  1.00  0.00     0.005 C 
ATOM      9  C   UNL     1     132.598 136.308 131.644  1.00  0.00     0.016 C 
ENDROOT
BRANCH   3  10
ATOM     10  C   UNL     1     136.797 134.299 131.053  1.00  0.00    -0.032 C 
ATOM     11  C   UNL     1     137.665 135.589 131.088  1.00  0.00     0.011 C 
ATOM     12  C   UNL     1     137.737 133.216 130.449  1.00  0.00     0.011 C 
BRANCH  10  13
ATOM     13  C   UNL     1     136.470 133.816 132.504  1.00  0.00     0.007 CG0
ATOM     14  G   UNL     1     135.396 134.538 133.358  1.00  0.00     0.000 G0
ENDBRANCH  10  13
ENDBRANCH   3  10
BRANCH   1  15
ATOM     15  C   UNL     1     134.791 135.835 132.850  1.00  0.00     0.011 C 
BRANCH  15  16
ATOM     16  C   UNL     1     135.398 134.521 133.361  1.00  0.00     0.001 CG0
ATOM     17  G   UNL     1     136.475 133.808 132.503  1.00  0.00     0.000 G0
ENDBRANCH  15  16
ENDBRANCH   1  15
TORSDOF 0
ENDMDL
