MODEL 1
REMARK VINA RESULT:    -6.365      0.000      0.000
REMARK INTER + INTRA:          -8.468
REMARK INTER:                  -7.854
REMARK INTRA:                  -0.615
REMARK UNBOUND:                -0.615
REMARK SMILES COc1ccc(-c2cc3cc(O)c(OC)cc3o2)c(O)c1
REMARK SMILES IDX 7 1 8 2 9 3 10 4 11 5 13 6 16 7 17 8 18 9 6 10 3 11 21 12
REMARK SMILES IDX 4 13 19 14 5 15 2 16 1 17 20 18 12 20 14 22 15 23
REMARK H PARENT 20 19 12 21
REMARK Flexibility Score: inf
ROOT
ATOM      1  C   UNL     1      40.828  52.110  33.439  1.00  0.00     0.139 A 
ATOM      2  C   UNL     1      41.738  51.747  34.434  1.00  0.00     0.060 A 
ATOM      3  C   UNL     1      42.329  52.932  34.806  1.00  0.00     0.025 A 
ATOM      4  C   UNL     1      43.308  53.201  35.754  1.00  0.00     0.062 A 
ATOM      5  C   UNL     1      43.724  54.537  35.916  1.00  0.00     0.158 A 
ATOM      6  C   UNL     1      43.150  55.571  35.123  1.00  0.00     0.164 A 
ATOM      7  C   UNL     1      42.154  55.247  34.167  1.00  0.00     0.098 A 
ATOM      8  C   UNL     1      41.772  53.916  34.040  1.00  0.00     0.138 A 
ATOM      9  O   UNL     1      40.878  53.414  33.225  1.00  0.00    -0.456 OA
ENDROOT
BRANCH   1  10
ATOM     10  C   UNL     1      39.951  51.179  32.693  1.00  0.00     0.059 A 
ATOM     11  C   UNL     1      38.401  49.385  31.157  1.00  0.00     0.122 A 
ATOM     12  C   UNL     1      37.967  50.697  31.366  1.00  0.00     0.093 A 
ATOM     13  C   UNL     1      39.613  48.966  31.733  1.00  0.00     0.047 A 
ATOM     14  C   UNL     1      38.714  51.593  32.140  1.00  0.00     0.130 A 
ATOM     15  C   UNL     1      40.377  49.855  32.490  1.00  0.00     0.020 A 
BRANCH  11  16
ATOM     16  O   UNL     1      37.604  48.533  30.380  1.00  0.00    -0.497 OA
ATOM     17  C   UNL     1      37.235  48.785  29.028  1.00  0.00     0.278 C 
ENDBRANCH  11  16
BRANCH  14  18
ATOM     18  O   UNL     1      38.181  52.864  32.358  1.00  0.00    -0.507 OA
ATOM     19  H   UNL     1      37.857  53.186  33.260  1.00  0.00     0.293 HD
ENDBRANCH  14  18
ENDBRANCH   1  10
BRANCH   5  20
ATOM     20  O   UNL     1      44.705  54.822  36.864  1.00  0.00    -0.504 OA
ATOM     21  H   UNL     1      44.691  54.418  37.793  1.00  0.00     0.293 HD
ENDBRANCH   5  20
BRANCH   6  22
ATOM     22  O   UNL     1      43.591  56.890  35.312  1.00  0.00    -0.493 OA
ATOM     23  C   UNL     1      42.917  57.857  36.110  1.00  0.00     0.278 C 
ENDBRANCH   6  22
TORSDOF 5
ENDMDL
MODEL 2
REMARK VINA RESULT:    -6.130      2.166      8.260
REMARK INTER + INTRA:          -8.178
REMARK INTER:                  -7.573
REMARK INTRA:                  -0.605
REMARK UNBOUND:                -0.615
REMARK SMILES COc1ccc(-c2cc3cc(O)c(OC)cc3o2)c(O)c1
REMARK SMILES IDX 7 1 8 2 9 3 10 4 11 5 13 6 16 7 17 8 18 9 6 10 3 11 21 12
REMARK SMILES IDX 4 13 19 14 5 15 2 16 1 17 20 18 12 20 14 22 15 23
REMARK H PARENT 20 19 12 21
REMARK Flexibility Score: inf
ROOT
ATOM      1  C   UNL     1      43.018  54.541  35.464  1.00  0.00     0.139 A 
ATOM      2  C   UNL     1      43.321  53.195  35.252  1.00  0.00     0.060 A 
ATOM      3  C   UNL     1      42.267  52.721  34.507  1.00  0.00     0.025 A 
ATOM      4  C   UNL     1      42.014  51.455  33.992  1.00  0.00     0.062 A 
ATOM      5  C   UNL     1      40.829  51.265  33.254  1.00  0.00     0.158 A 
ATOM      6  C   UNL     1      39.926  52.347  33.051  1.00  0.00     0.164 A 
ATOM      7  C   UNL     1      40.227  53.621  33.595  1.00  0.00     0.098 A 
ATOM      8  C   UNL     1      41.408  53.765  34.316  1.00  0.00     0.138 A 
ATOM      9  O   UNL     1      41.865  54.847  34.895  1.00  0.00    -0.456 OA
ENDROOT
BRANCH   1  10
ATOM     10  C   UNL     1      43.839  55.497  36.242  1.00  0.00     0.059 A 
ATOM     11  C   UNL     1      45.336  57.258  37.866  1.00  0.00     0.122 A 
ATOM     12  C   UNL     1      44.448  57.759  36.908  1.00  0.00     0.093 A 
ATOM     13  C   UNL     1      45.484  55.867  38.001  1.00  0.00     0.047 A 
ATOM     14  C   UNL     1      43.714  56.899  36.083  1.00  0.00     0.130 A 
ATOM     15  C   UNL     1      44.742  54.999  37.198  1.00  0.00     0.020 A 
BRANCH  11  16
ATOM     16  O   UNL     1      46.050  58.171  38.656  1.00  0.00    -0.497 OA
ATOM     17  C   UNL     1      45.805  58.403  40.039  1.00  0.00     0.278 C 
ENDBRANCH  11  16
BRANCH  14  18
ATOM     18  O   UNL     1      42.901  57.475  35.106  1.00  0.00    -0.507 OA
ATOM     19  H   UNL     1      42.143  56.985  34.652  1.00  0.00     0.293 HD
ENDBRANCH  14  18
ENDBRANCH   1  10
BRANCH   5  20
ATOM     20  O   UNL     1      40.562  50.000  32.732  1.00  0.00    -0.504 OA
ATOM     21  H   UNL     1      41.221  49.234  32.812  1.00  0.00     0.293 HD
ENDBRANCH   5  20
BRANCH   6  22
ATOM     22  O   UNL     1      38.756  52.118  32.311  1.00  0.00    -0.493 OA
ATOM     23  C   UNL     1      37.464  51.944  32.882  1.00  0.00     0.278 C 
ENDBRANCH   6  22
TORSDOF 5
ENDMDL
MODEL 3
REMARK VINA RESULT:    -6.080      1.255      1.993
REMARK INTER + INTRA:          -8.116
REMARK INTER:                  -7.765
REMARK INTRA:                  -0.351
REMARK UNBOUND:                -0.615
REMARK SMILES COc1ccc(-c2cc3cc(O)c(OC)cc3o2)c(O)c1
REMARK SMILES IDX 7 1 8 2 9 3 10 4 11 5 13 6 16 7 17 8 18 9 6 10 3 11 21 12
REMARK SMILES IDX 4 13 19 14 5 15 2 16 1 17 20 18 12 20 14 22 15 23
REMARK H PARENT 20 19 12 21
REMARK Flexibility Score: inf
ROOT
ATOM      1  C   UNL     1      41.206  52.535  33.866  1.00  0.00     0.139 A 
ATOM      2  C   UNL     1      41.141  53.903  33.592  1.00  0.00     0.060 A 
ATOM      3  C   UNL     1      42.077  54.464  34.429  1.00  0.00     0.025 A 
ATOM      4  C   UNL     1      42.465  55.787  34.603  1.00  0.00     0.062 A 
ATOM      5  C   UNL     1      43.469  56.063  35.552  1.00  0.00     0.158 A 
ATOM      6  C   UNL     1      44.059  55.008  36.304  1.00  0.00     0.164 A 
ATOM      7  C   UNL     1      43.631  53.674  36.091  1.00  0.00     0.098 A 
ATOM      8  C   UNL     1      42.638  53.445  35.145  1.00  0.00     0.138 A 
ATOM      9  O   UNL     1      42.108  52.297  34.802  1.00  0.00    -0.456 OA
ENDROOT
BRANCH   1  10
ATOM     10  C   UNL     1      40.369  51.490  33.234  1.00  0.00     0.059 A 
ATOM     11  C   UNL     1      38.815  49.558  31.880  1.00  0.00     0.122 A 
ATOM     12  C   UNL     1      38.214  50.453  32.772  1.00  0.00     0.093 A 
ATOM     13  C   UNL     1      40.203  49.624  31.677  1.00  0.00     0.047 A 
ATOM     14  C   UNL     1      38.974  51.403  33.464  1.00  0.00     0.130 A 
ATOM     15  C   UNL     1      40.969  50.580  32.347  1.00  0.00     0.020 A 
BRANCH  11  16
ATOM     16  O   UNL     1      38.001  48.623  31.224  1.00  0.00    -0.497 OA
ATOM     17  C   UNL     1      37.208  48.910  30.077  1.00  0.00     0.278 C 
ENDBRANCH  11  16
BRANCH  14  18
ATOM     18  O   UNL     1      38.312  52.215  34.387  1.00  0.00    -0.507 OA
ATOM     19  H   UNL     1      37.884  51.864  35.233  1.00  0.00     0.293 HD
ENDBRANCH  14  18
ENDBRANCH   1  10
BRANCH   5  20
ATOM     20  O   UNL     1      43.868  57.386  35.737  1.00  0.00    -0.504 OA
ATOM     21  H   UNL     1      43.903  57.815  36.655  1.00  0.00     0.293 HD
ENDBRANCH   5  20
BRANCH   6  22
ATOM     22  O   UNL     1      45.056  55.324  37.240  1.00  0.00    -0.493 OA
ATOM     23  C   UNL     1      44.807  55.632  38.607  1.00  0.00     0.278 C 
ENDBRANCH   6  22
TORSDOF 5
ENDMDL
MODEL 4
REMARK VINA RESULT:    -6.076      1.358      7.669
REMARK INTER + INTRA:          -8.111
REMARK INTER:                  -7.496
REMARK INTRA:                  -0.615
REMARK UNBOUND:                -0.615
REMARK SMILES COc1ccc(-c2cc3cc(O)c(OC)cc3o2)c(O)c1
REMARK SMILES IDX 7 1 8 2 9 3 10 4 11 5 13 6 16 7 17 8 18 9 6 10 3 11 21 12
REMARK SMILES IDX 4 13 19 14 5 15 2 16 1 17 20 18 12 20 14 22 15 23
REMARK H PARENT 20 19 12 21
REMARK Flexibility Score: inf
ROOT
ATOM      1  C   UNL     1      41.496  53.002  33.830  1.00  0.00     0.139 A 
ATOM      2  C   UNL     1      41.736  51.628  33.781  1.00  0.00     0.060 A 
ATOM      3  C   UNL     1      40.655  51.115  33.103  1.00  0.00     0.025 A 
ATOM      4  C   UNL     1      40.341  49.810  32.746  1.00  0.00     0.062 A 
ATOM      5  C   UNL     1      39.141  49.586  32.042  1.00  0.00     0.158 A 
ATOM      6  C   UNL     1      38.285  50.675  31.713  1.00  0.00     0.164 A 
ATOM      7  C   UNL     1      38.648  51.991  32.098  1.00  0.00     0.098 A 
ATOM      8  C   UNL     1      39.841  52.167  32.791  1.00  0.00     0.138 A 
ATOM      9  O   UNL     1      40.352  53.289  33.233  1.00  0.00    -0.456 OA
ENDROOT
BRANCH   1  10
ATOM     10  C   UNL     1      42.366  54.007  34.483  1.00  0.00     0.059 A 
ATOM     11  C   UNL     1      43.929  55.911  35.865  1.00  0.00     0.122 A 
ATOM     12  C   UNL     1      43.281  56.255  34.675  1.00  0.00     0.093 A 
ATOM     13  C   UNL     1      43.804  54.601  36.358  1.00  0.00     0.047 A 
ATOM     14  C   UNL     1      42.518  55.318  33.969  1.00  0.00     0.130 A 
ATOM     15  C   UNL     1      43.030  53.662  35.673  1.00  0.00     0.020 A 
BRANCH  11  16
ATOM     16  O   UNL     1      44.686  56.892  36.522  1.00  0.00    -0.497 OA
ATOM     17  C   UNL     1      45.855  56.627  37.289  1.00  0.00     0.278 C 
ENDBRANCH  11  16
BRANCH  14  18
ATOM     18  O   UNL     1      41.958  55.719  32.755  1.00  0.00    -0.507 OA
ATOM     19  H   UNL     1      41.468  55.091  32.133  1.00  0.00     0.293 HD
ENDBRANCH  14  18
ENDBRANCH   1  10
BRANCH   5  20
ATOM     20  O   UNL     1      38.813  48.281  31.678  1.00  0.00    -0.504 OA
ATOM     21  H   UNL     1      37.970  48.062  31.159  1.00  0.00     0.293 HD
ENDBRANCH   5  20
BRANCH   6  22
ATOM     22  O   UNL     1      37.099  50.412  31.011  1.00  0.00    -0.493 OA
ATOM     23  C   UNL     1      36.955  50.531  29.600  1.00  0.00     0.278 C 
ENDBRANCH   6  22
TORSDOF 5
ENDMDL
MODEL 5
REMARK VINA RESULT:    -6.005      2.520      4.351
REMARK INTER + INTRA:          -8.024
REMARK INTER:                  -7.417
REMARK INTRA:                  -0.606
REMARK UNBOUND:                -0.615
REMARK SMILES COc1ccc(-c2cc3cc(O)c(OC)cc3o2)c(O)c1
REMARK SMILES IDX 7 1 8 2 9 3 10 4 11 5 13 6 16 7 17 8 18 9 6 10 3 11 21 12
REMARK SMILES IDX 4 13 19 14 5 15 2 16 1 17 20 18 12 20 14 22 15 23
REMARK H PARENT 20 19 12 21
REMARK Flexibility Score: inf
ROOT
ATOM      1  C   UNL     1      43.029  54.523  36.069  1.00  0.00     0.139 A 
ATOM      2  C   UNL     1      44.414  54.650  36.187  1.00  0.00     0.060 A 
ATOM      3  C   UNL     1      44.589  55.747  36.998  1.00  0.00     0.025 A 
ATOM      4  C   UNL     1      45.746  56.354  37.471  1.00  0.00     0.062 A 
ATOM      5  C   UNL     1      45.610  57.484  38.300  1.00  0.00     0.158 A 
ATOM      6  C   UNL     1      44.318  57.980  38.636  1.00  0.00     0.164 A 
ATOM      7  C   UNL     1      43.166  57.327  38.129  1.00  0.00     0.098 A 
ATOM      8  C   UNL     1      43.345  56.214  37.315  1.00  0.00     0.138 A 
ATOM      9  O   UNL     1      42.420  55.477  36.752  1.00  0.00    -0.456 OA
ENDROOT
BRANCH   1  10
ATOM     10  C   UNL     1      42.323  53.495  35.269  1.00  0.00     0.059 A 
ATOM     11  C   UNL     1      41.124  51.502  33.668  1.00  0.00     0.122 A 
ATOM     12  C   UNL     1      40.690  52.829  33.590  1.00  0.00     0.093 A 
ATOM     13  C   UNL     1      42.155  51.170  34.563  1.00  0.00     0.047 A 
ATOM     14  C   UNL     1      41.262  53.824  34.390  1.00  0.00     0.130 A 
ATOM     15  C   UNL     1      42.747  52.158  35.352  1.00  0.00     0.020 A 
BRANCH  11  16
ATOM     16  O   UNL     1      40.505  50.548  32.846  1.00  0.00    -0.497 OA
ATOM     17  C   UNL     1      39.115  50.244  32.872  1.00  0.00     0.278 C 
ENDBRANCH  11  16
BRANCH  14  18
ATOM     18  O   UNL     1      40.729  55.112  34.304  1.00  0.00    -0.507 OA
ATOM     19  H   UNL     1      41.267  55.920  34.024  1.00  0.00     0.293 HD
ENDBRANCH  14  18
ENDBRANCH   1  10
BRANCH   5  20
ATOM     20  O   UNL     1      46.762  58.103  38.781  1.00  0.00    -0.504 OA
ATOM     21  H   UNL     1      46.983  59.070  38.570  1.00  0.00     0.293 HD
ENDBRANCH   5  20
BRANCH   6  22
ATOM     22  O   UNL     1      44.223  59.109  39.464  1.00  0.00    -0.493 OA
ATOM     23  C   UNL     1      44.025  59.059  40.872  1.00  0.00     0.278 C 
ENDBRANCH   6  22
TORSDOF 5
ENDMDL
MODEL 6
REMARK VINA RESULT:    -5.866      3.281      9.352
REMARK INTER + INTRA:          -7.853
REMARK INTER:                  -7.455
REMARK INTRA:                  -0.398
REMARK UNBOUND:                -0.615
REMARK SMILES COc1ccc(-c2cc3cc(O)c(OC)cc3o2)c(O)c1
REMARK SMILES IDX 7 1 8 2 9 3 10 4 11 5 13 6 16 7 17 8 18 9 6 10 3 11 21 12
REMARK SMILES IDX 4 13 19 14 5 15 2 16 1 17 20 18 12 20 14 22 15 23
REMARK H PARENT 20 19 12 21
REMARK Flexibility Score: inf
ROOT
ATOM      1  C   UNL     1      43.826  55.807  37.124  1.00  0.00     0.139 A 
ATOM      2  C   UNL     1      44.130  54.486  36.793  1.00  0.00     0.060 A 
ATOM      3  C   UNL     1      43.200  54.150  35.837  1.00  0.00     0.025 A 
ATOM      4  C   UNL     1      43.006  52.968  35.133  1.00  0.00     0.062 A 
ATOM      5  C   UNL     1      41.951  52.918  34.201  1.00  0.00     0.158 A 
ATOM      6  C   UNL     1      41.116  54.052  33.997  1.00  0.00     0.164 A 
ATOM      7  C   UNL     1      41.352  55.237  34.740  1.00  0.00     0.098 A 
ATOM      8  C   UNL     1      42.405  55.244  35.649  1.00  0.00     0.138 A 
ATOM      9  O   UNL     1      42.785  56.227  36.425  1.00  0.00    -0.456 OA
ENDROOT
BRANCH   1  10
ATOM     10  C   UNL     1      44.531  56.627  38.136  1.00  0.00     0.059 A 
ATOM     11  C   UNL     1      45.737  58.283  40.081  1.00  0.00     0.122 A 
ATOM     12  C   UNL     1      46.280  58.187  38.796  1.00  0.00     0.093 A 
ATOM     13  C   UNL     1      44.591  57.534  40.396  1.00  0.00     0.047 A 
ATOM     14  C   UNL     1      45.705  57.356  37.828  1.00  0.00     0.130 A 
ATOM     15  C   UNL     1      43.996  56.717  39.433  1.00  0.00     0.020 A 
BRANCH  11  16
ATOM     16  O   UNL     1      46.365  59.125  41.010  1.00  0.00    -0.497 OA
ATOM     17  C   UNL     1      46.625  58.776  42.366  1.00  0.00     0.278 C 
ENDBRANCH  11  16
BRANCH  14  18
ATOM     18  O   UNL     1      46.345  57.262  36.590  1.00  0.00    -0.507 OA
ATOM     19  H   UNL     1      45.913  57.533  35.718  1.00  0.00     0.293 HD
ENDBRANCH  14  18
ENDBRANCH   1  10
BRANCH   5  20
ATOM     20  O   UNL     1      41.745  51.738  33.487  1.00  0.00    -0.504 OA
ATOM     21  H   UNL     1      41.235  50.954  33.877  1.00  0.00     0.293 HD
ENDBRANCH   5  20
BRANCH   6  22
ATOM     22  O   UNL     1      40.075  53.964  33.060  1.00  0.00    -0.493 OA
ATOM     23  C   UNL     1      38.744  54.412  33.291  1.00  0.00     0.278 C 
ENDBRANCH   6  22
TORSDOF 5
ENDMDL
MODEL 7
REMARK VINA RESULT:    -5.827      9.401     12.418
REMARK INTER + INTRA:          -7.804
REMARK INTER:                  -7.406
REMARK INTRA:                  -0.398
REMARK UNBOUND:                -0.615
REMARK SMILES COc1ccc(-c2cc3cc(O)c(OC)cc3o2)c(O)c1
REMARK SMILES IDX 7 1 8 2 9 3 10 4 11 5 13 6 16 7 17 8 18 9 6 10 3 11 21 12
REMARK SMILES IDX 4 13 19 14 5 15 2 16 1 17 20 18 12 20 14 22 15 23
REMARK H PARENT 20 19 12 21
REMARK Flexibility Score: inf
ROOT
ATOM      1  C   UNL     1      46.836  44.889  34.138  1.00  0.00     0.139 A 
ATOM      2  C   UNL     1      46.228  44.220  33.073  1.00  0.00     0.060 A 
ATOM      3  C   UNL     1      46.237  42.897  33.451  1.00  0.00     0.025 A 
ATOM      4  C   UNL     1      45.765  41.763  32.801  1.00  0.00     0.062 A 
ATOM      5  C   UNL     1      45.916  40.520  33.446  1.00  0.00     0.158 A 
ATOM      6  C   UNL     1      46.537  40.442  34.725  1.00  0.00     0.164 A 
ATOM      7  C   UNL     1      47.003  41.628  35.349  1.00  0.00     0.098 A 
ATOM      8  C   UNL     1      46.833  42.834  34.678  1.00  0.00     0.138 A 
ATOM      9  O   UNL     1      47.190  44.029  35.078  1.00  0.00    -0.456 OA
ENDROOT
BRANCH   1  10
ATOM     10  C   UNL     1      47.090  46.346  34.207  1.00  0.00     0.059 A 
ATOM     11  C   UNL     1      47.725  49.091  34.408  1.00  0.00     0.122 A 
ATOM     12  C   UNL     1      46.615  48.569  35.079  1.00  0.00     0.093 A 
ATOM     13  C   UNL     1      48.514  48.234  33.621  1.00  0.00     0.047 A 
ATOM     14  C   UNL     1      46.276  47.216  34.974  1.00  0.00     0.130 A 
ATOM     15  C   UNL     1      48.198  46.877  33.525  1.00  0.00     0.020 A 
BRANCH  11  16
ATOM     16  O   UNL     1      48.007  50.458  34.545  1.00  0.00    -0.497 OA
ATOM     17  C   UNL     1      49.234  50.981  35.041  1.00  0.00     0.278 C 
ENDBRANCH  11  16
BRANCH  14  18
ATOM     18  O   UNL     1      45.115  46.785  35.618  1.00  0.00    -0.507 OA
ATOM     19  H   UNL     1      44.205  47.194  35.459  1.00  0.00     0.293 HD
ENDBRANCH  14  18
ENDBRANCH   1  10
BRANCH   5  20
ATOM     20  O   UNL     1      45.448  39.373  32.806  1.00  0.00    -0.504 OA
ATOM     21  H   UNL     1      45.149  38.553  33.321  1.00  0.00     0.293 HD
ENDBRANCH   5  20
BRANCH   6  22
ATOM     22  O   UNL     1      46.670  39.186  35.335  1.00  0.00    -0.493 OA
ATOM     23  C   UNL     1      47.126  38.982  36.668  1.00  0.00     0.278 C 
ENDBRANCH   6  22
TORSDOF 5
ENDMDL
MODEL 8
REMARK VINA RESULT:    -5.724      1.704      8.062
REMARK INTER + INTRA:          -7.676
REMARK INTER:                  -7.067
REMARK INTRA:                  -0.610
REMARK UNBOUND:                -0.615
REMARK SMILES COc1ccc(-c2cc3cc(O)c(OC)cc3o2)c(O)c1
REMARK SMILES IDX 7 1 8 2 9 3 10 4 11 5 13 6 16 7 17 8 18 9 6 10 3 11 21 12
REMARK SMILES IDX 4 13 19 14 5 15 2 16 1 17 20 18 12 20 14 22 15 23
REMARK H PARENT 20 19 12 21
REMARK Flexibility Score: inf
ROOT
ATOM      1  C   UNL     1      41.628  53.649  34.768  1.00  0.00     0.139 A 
ATOM      2  C   UNL     1      40.410  54.079  34.238  1.00  0.00     0.060 A 
ATOM      3  C   UNL     1      39.969  53.016  33.486  1.00  0.00     0.025 A 
ATOM      4  C   UNL     1      38.815  52.854  32.728  1.00  0.00     0.062 A 
ATOM      5  C   UNL     1      38.632  51.631  32.054  1.00  0.00     0.158 A 
ATOM      6  C   UNL     1      39.608  50.599  32.155  1.00  0.00     0.164 A 
ATOM      7  C   UNL     1      40.769  50.810  32.941  1.00  0.00     0.098 A 
ATOM      8  C   UNL     1      40.911  52.032  33.590  1.00  0.00     0.138 A 
ATOM      9  O   UNL     1      41.899  52.422  34.356  1.00  0.00    -0.456 OA
ENDROOT
BRANCH   1  10
ATOM     10  C   UNL     1      42.520  54.448  35.638  1.00  0.00     0.059 A 
ATOM     11  C   UNL     1      44.175  56.110  37.211  1.00  0.00     0.122 A 
ATOM     12  C   UNL     1      44.727  55.069  36.459  1.00  0.00     0.093 A 
ATOM     13  C   UNL     1      42.785  56.311  37.185  1.00  0.00     0.047 A 
ATOM     14  C   UNL     1      43.918  54.225  35.690  1.00  0.00     0.130 A 
ATOM     15  C   UNL     1      41.969  55.489  36.406  1.00  0.00     0.020 A 
BRANCH  11  16
ATOM     16  O   UNL     1      45.038  56.916  37.970  1.00  0.00    -0.497 OA
ATOM     17  C   UNL     1      46.314  57.366  37.530  1.00  0.00     0.278 C 
ENDBRANCH  11  16
BRANCH  14  18
ATOM     18  O   UNL     1      44.535  53.167  35.021  1.00  0.00    -0.507 OA
ATOM     19  H   UNL     1      45.349  52.683  35.373  1.00  0.00     0.293 HD
ENDBRANCH  14  18
ENDBRANCH   1  10
BRANCH   5  20
ATOM     20  O   UNL     1      37.480  51.455  31.290  1.00  0.00    -0.504 OA
ATOM     21  H   UNL     1      36.636  51.993  31.454  1.00  0.00     0.293 HD
ENDBRANCH   5  20
BRANCH   6  22
ATOM     22  O   UNL     1      39.390  49.395  31.469  1.00  0.00    -0.493 OA
ATOM     23  C   UNL     1      38.853  48.217  32.061  1.00  0.00     0.278 C 
ENDBRANCH   6  22
TORSDOF 5
ENDMDL
MODEL 9
REMARK VINA RESULT:    -5.688      9.110     12.527
REMARK INTER + INTRA:          -7.632
REMARK INTER:                  -7.094
REMARK INTRA:                  -0.538
REMARK UNBOUND:                -0.615
REMARK SMILES COc1ccc(-c2cc3cc(O)c(OC)cc3o2)c(O)c1
REMARK SMILES IDX 7 1 8 2 9 3 10 4 11 5 13 6 16 7 17 8 18 9 6 10 3 11 21 12
REMARK SMILES IDX 4 13 19 14 5 15 2 16 1 17 20 18 12 20 14 22 15 23
REMARK H PARENT 20 19 12 21
REMARK Flexibility Score: inf
ROOT
ATOM      1  C   UNL     1      46.699  44.608  33.649  1.00  0.00     0.139 A 
ATOM      2  C   UNL     1      46.601  43.539  34.542  1.00  0.00     0.060 A 
ATOM      3  C   UNL     1      46.306  42.456  33.749  1.00  0.00     0.025 A 
ATOM      4  C   UNL     1      46.096  41.121  34.073  1.00  0.00     0.062 A 
ATOM      5  C   UNL     1      45.805  40.223  33.028  1.00  0.00     0.158 A 
ATOM      6  C   UNL     1      45.730  40.684  31.683  1.00  0.00     0.164 A 
ATOM      7  C   UNL     1      45.952  42.055  31.400  1.00  0.00     0.098 A 
ATOM      8  C   UNL     1      46.237  42.907  32.462  1.00  0.00     0.138 A 
ATOM      9  O   UNL     1      46.471  44.195  32.414  1.00  0.00    -0.456 OA
ENDROOT
BRANCH   1  10
ATOM     10  C   UNL     1      46.982  46.014  34.016  1.00  0.00     0.059 A 
ATOM     11  C   UNL     1      47.368  48.738  34.656  1.00  0.00     0.122 A 
ATOM     12  C   UNL     1      48.222  48.094  33.756  1.00  0.00     0.093 A 
ATOM     13  C   UNL     1      46.323  48.010  35.248  1.00  0.00     0.047 A 
ATOM     14  C   UNL     1      48.055  46.740  33.443  1.00  0.00     0.130 A 
ATOM     15  C   UNL     1      46.134  46.664  34.929  1.00  0.00     0.020 A 
BRANCH  11  16
ATOM     16  O   UNL     1      47.593  50.094  34.936  1.00  0.00    -0.497 OA
ATOM     17  C   UNL     1      48.867  50.726  34.885  1.00  0.00     0.278 C 
ENDBRANCH  11  16
BRANCH  14  18
ATOM     18  O   UNL     1      48.989  46.151  32.588  1.00  0.00    -0.507 OA
ATOM     19  H   UNL     1      49.426  45.258  32.770  1.00  0.00     0.293 HD
ENDBRANCH  14  18
ENDBRANCH   1  10
BRANCH   5  20
ATOM     20  O   UNL     1      45.592  38.881  33.338  1.00  0.00    -0.504 OA
ATOM     21  H   UNL     1      45.945  38.130  32.756  1.00  0.00     0.293 HD
ENDBRANCH   5  20
BRANCH   6  22
ATOM     22  O   UNL     1      45.438  39.759  30.668  1.00  0.00    -0.493 OA
ATOM     23  C   UNL     1      44.669  40.054  29.508  1.00  0.00     0.278 C 
ENDBRANCH   6  22
TORSDOF 5
ENDMDL
