MODEL 1
REMARK VINA RESULT:    -5.139      0.000      0.000
REMARK INTER + INTRA:          -5.290
REMARK INTER:                  -5.290
REMARK INTRA:                   0.000
REMARK UNBOUND:                 0.000
REMARK SMILES Nc1ncnc2nc[nH]c12
REMARK SMILES IDX 8 1 7 2 6 3 5 4 4 5 3 6 2 7 10 8 9 9 1 11
REMARK H PARENT 9 10 1 12 1 13
REMARK Flexibility Score: inf
ROOT
ATOM      1  C   UNL     1     -18.728 -14.496 -12.043  1.00  0.00     0.199 A 
ATOM      2  N   UNL     1     -19.627 -14.641 -11.032  1.00  0.00    -0.217 NA
ATOM      3  C   UNL     1     -20.773 -14.860 -11.699  1.00  0.00     0.182 A 
ATOM      4  N   UNL     1     -21.996 -15.071 -11.156  1.00  0.00    -0.215 NA
ATOM      5  C   UNL     1     -23.050 -15.276 -12.003  1.00  0.00     0.226 A 
ATOM      6  N   UNL     1     -22.864 -15.267 -13.362  1.00  0.00    -0.217 NA
ATOM      7  C   UNL     1     -21.631 -15.054 -13.910  1.00  0.00     0.152 A 
ATOM      8  C   UNL     1     -20.568 -14.847 -13.036  1.00  0.00     0.127 A 
ATOM      9  N   UNL     1     -19.272 -14.617 -13.280  1.00  0.00    -0.340 N 
ATOM     10  H   UNL     1     -18.784 -14.545 -14.199  1.00  0.00     0.168 HD
ENDROOT
BRANCH   7  11
ATOM     11  N   UNL     1     -21.461 -15.049 -15.329  1.00  0.00    -0.382 N 
ATOM     12  H   UNL     1     -21.481 -14.160 -15.876  1.00  0.00     0.158 HD
ATOM     13  H   UNL     1     -21.316 -15.948 -15.840  1.00  0.00     0.158 HD
ENDBRANCH   7  11
TORSDOF 1
ENDMDL
MODEL 2
REMARK VINA RESULT:    -5.103      0.959      3.001
REMARK INTER + INTRA:          -5.253
REMARK INTER:                  -5.253
REMARK INTRA:                   0.000
REMARK UNBOUND:                 0.000
REMARK SMILES Nc1ncnc2nc[nH]c12
REMARK SMILES IDX 8 1 7 2 6 3 5 4 4 5 3 6 2 7 10 8 9 9 1 11
REMARK H PARENT 9 10 1 12 1 13
REMARK Flexibility Score: inf
ROOT
ATOM      1  C   UNL     1     -22.375 -15.715 -14.021  1.00  0.00     0.199 A 
ATOM      2  N   UNL     1     -22.890 -15.486 -12.782  1.00  0.00    -0.217 NA
ATOM      3  C   UNL     1     -21.803 -15.123 -12.083  1.00  0.00     0.182 A 
ATOM      4  N   UNL     1     -21.762 -14.782 -10.772  1.00  0.00    -0.215 NA
ATOM      5  C   UNL     1     -20.553 -14.438 -10.233  1.00  0.00     0.226 A 
ATOM      6  N   UNL     1     -19.420 -14.442 -11.005  1.00  0.00    -0.217 NA
ATOM      7  C   UNL     1     -19.460 -14.786 -12.327  1.00  0.00     0.152 A 
ATOM      8  C   UNL     1     -20.698 -15.133 -12.861  1.00  0.00     0.127 A 
ATOM      9  N   UNL     1     -21.036 -15.506 -14.102  1.00  0.00    -0.340 N 
ATOM     10  H   UNL     1     -20.425 -15.616 -14.940  1.00  0.00     0.168 HD
ENDROOT
BRANCH   7  11
ATOM     11  N   UNL     1     -18.266 -14.781 -13.112  1.00  0.00    -0.382 N 
ATOM     12  H   UNL     1     -18.028 -13.978 -13.735  1.00  0.00     0.158 HD
ATOM     13  H   UNL     1     -17.611 -15.593 -13.071  1.00  0.00     0.158 HD
ENDBRANCH   7  11
TORSDOF 1
ENDMDL
MODEL 3
REMARK VINA RESULT:    -4.668      7.011      8.043
REMARK INTER + INTRA:          -4.804
REMARK INTER:                  -4.804
REMARK INTRA:                   0.000
REMARK UNBOUND:                 0.000
REMARK SMILES Nc1ncnc2nc[nH]c12
REMARK SMILES IDX 8 1 7 2 6 3 5 4 4 5 3 6 2 7 10 8 9 9 1 11
REMARK H PARENT 9 10 1 12 1 13
REMARK Flexibility Score: inf
ROOT
ATOM      1  C   UNL     1     -24.798 -19.266 -13.822  1.00  0.00     0.199 A 
ATOM      2  N   UNL     1     -25.036 -19.770 -12.581  1.00  0.00    -0.217 NA
ATOM      3  C   UNL     1     -25.002 -21.095 -12.800  1.00  0.00     0.182 A 
ATOM      4  N   UNL     1     -25.183 -22.071 -11.878  1.00  0.00    -0.215 NA
ATOM      5  C   UNL     1     -25.111 -23.372 -12.294  1.00  0.00     0.226 A 
ATOM      6  N   UNL     1     -24.862 -23.670 -13.609  1.00  0.00    -0.217 NA
ATOM      7  C   UNL     1     -24.680 -22.686 -14.540  1.00  0.00     0.152 A 
ATOM      8  C   UNL     1     -24.755 -21.367 -14.101  1.00  0.00     0.127 A 
ATOM      9  N   UNL     1     -24.621 -20.217 -14.773  1.00  0.00    -0.340 N 
ATOM     10  H   UNL     1     -24.427 -20.073 -15.788  1.00  0.00     0.168 HD
ENDROOT
BRANCH   7  11
ATOM     11  N   UNL     1     -24.420 -23.020 -15.904  1.00  0.00    -0.382 N 
ATOM     12  H   UNL     1     -23.832 -22.408 -16.512  1.00  0.00     0.158 HD
ATOM     13  H   UNL     1     -24.824 -23.891 -16.315  1.00  0.00     0.158 HD
ENDBRANCH   7  11
TORSDOF 1
ENDMDL
MODEL 4
REMARK VINA RESULT:    -4.665      7.534      8.497
REMARK INTER + INTRA:          -4.801
REMARK INTER:                  -4.801
REMARK INTRA:                   0.000
REMARK UNBOUND:                 0.000
REMARK SMILES Nc1ncnc2nc[nH]c12
REMARK SMILES IDX 8 1 7 2 6 3 5 4 4 5 3 6 2 7 10 8 9 9 1 11
REMARK H PARENT 9 10 1 12 1 13
REMARK Flexibility Score: inf
ROOT
ATOM      1  C   UNL     1     -24.258 -24.139 -11.455  1.00  0.00     0.199 A 
ATOM      2  N   UNL     1     -24.407 -22.889 -10.938  1.00  0.00    -0.217 NA
ATOM      3  C   UNL     1     -24.539 -22.137 -12.043  1.00  0.00     0.182 A 
ATOM      4  N   UNL     1     -24.717 -20.795 -12.091  1.00  0.00    -0.215 NA
ATOM      5  C   UNL     1     -24.833 -20.203 -13.319  1.00  0.00     0.226 A 
ATOM      6  N   UNL     1     -24.769 -20.955 -14.463  1.00  0.00    -0.217 NA
ATOM      7  C   UNL     1     -24.590 -22.309 -14.416  1.00  0.00     0.152 A 
ATOM      8  C   UNL     1     -24.475 -22.897 -13.160  1.00  0.00     0.127 A 
ATOM      9  N   UNL     1     -24.296 -24.178 -12.811  1.00  0.00    -0.340 N 
ATOM     10  H   UNL     1     -24.205 -25.015 -13.426  1.00  0.00     0.168 HD
ENDROOT
BRANCH   7  11
ATOM     11  N   UNL     1     -24.528 -23.073 -15.622  1.00  0.00    -0.382 N 
ATOM     12  H   UNL     1     -23.664 -23.096 -16.208  1.00  0.00     0.158 HD
ATOM     13  H   UNL     1     -25.359 -23.621 -15.936  1.00  0.00     0.158 HD
ENDBRANCH   7  11
TORSDOF 1
ENDMDL
MODEL 5
REMARK VINA RESULT:    -4.637      1.566      2.712
REMARK INTER + INTRA:          -4.773
REMARK INTER:                  -4.773
REMARK INTRA:                   0.000
REMARK UNBOUND:                 0.000
REMARK SMILES Nc1ncnc2nc[nH]c12
REMARK SMILES IDX 8 1 7 2 6 3 5 4 4 5 3 6 2 7 10 8 9 9 1 11
REMARK H PARENT 9 10 1 12 1 13
REMARK Flexibility Score: inf
ROOT
ATOM      1  C   UNL     1     -21.136 -14.406  -9.844  1.00  0.00     0.199 A 
ATOM      2  N   UNL     1     -22.304 -14.074 -10.457  1.00  0.00    -0.217 NA
ATOM      3  C   UNL     1     -21.903 -13.806 -11.710  1.00  0.00     0.182 A 
ATOM      4  N   UNL     1     -22.688 -13.420 -12.745  1.00  0.00    -0.215 NA
ATOM      5  C   UNL     1     -22.094 -13.193 -13.956  1.00  0.00     0.226 A 
ATOM      6  N   UNL     1     -20.741 -13.353 -14.108  1.00  0.00    -0.217 NA
ATOM      7  C   UNL     1     -19.948 -13.742 -13.065  1.00  0.00     0.152 A 
ATOM      8  C   UNL     1     -20.567 -13.971 -11.840  1.00  0.00     0.127 A 
ATOM      9  N   UNL     1     -20.055 -14.353 -10.663  1.00  0.00    -0.340 N 
ATOM     10  H   UNL     1     -19.062 -14.563 -10.421  1.00  0.00     0.168 HD
ENDROOT
BRANCH   7  11
ATOM     11  N   UNL     1     -18.540 -13.904 -13.248  1.00  0.00    -0.382 N 
ATOM     12  H   UNL     1     -17.878 -13.862 -12.441  1.00  0.00     0.158 HD
ATOM     13  H   UNL     1     -18.153 -14.067 -14.204  1.00  0.00     0.158 HD
ENDBRANCH   7  11
TORSDOF 1
ENDMDL
MODEL 6
REMARK VINA RESULT:    -4.561      8.227      9.377
REMARK INTER + INTRA:          -4.694
REMARK INTER:                  -4.694
REMARK INTRA:                   0.000
REMARK UNBOUND:                 0.000
REMARK SMILES Nc1ncnc2nc[nH]c12
REMARK SMILES IDX 8 1 7 2 6 3 5 4 4 5 3 6 2 7 10 8 9 9 1 11
REMARK H PARENT 9 10 1 12 1 13
REMARK Flexibility Score: inf
ROOT
ATOM      1  C   UNL     1     -26.451 -23.211 -11.272  1.00  0.00     0.199 A 
ATOM      2  N   UNL     1     -25.721 -22.068 -11.158  1.00  0.00    -0.217 NA
ATOM      3  C   UNL     1     -24.670 -22.320 -11.956  1.00  0.00     0.182 A 
ATOM      4  N   UNL     1     -23.626 -21.493 -12.202  1.00  0.00    -0.215 NA
ATOM      5  C   UNL     1     -22.644 -21.929 -13.049  1.00  0.00     0.226 A 
ATOM      6  N   UNL     1     -22.723 -23.169 -13.627  1.00  0.00    -0.217 NA
ATOM      7  C   UNL     1     -23.776 -24.005 -13.380  1.00  0.00     0.152 A 
ATOM      8  C   UNL     1     -24.768 -23.547 -12.516  1.00  0.00     0.127 A 
ATOM      9  N   UNL     1     -25.895 -24.134 -12.096  1.00  0.00    -0.340 N 
ATOM     10  H   UNL     1     -26.268 -25.078 -12.337  1.00  0.00     0.168 HD
ENDROOT
BRANCH   7  11
ATOM     11  N   UNL     1     -23.838 -25.292 -13.995  1.00  0.00    -0.382 N 
ATOM     12  H   UNL     1     -24.344 -25.441 -14.896  1.00  0.00     0.158 HD
ATOM     13  H   UNL     1     -23.373 -26.110 -13.543  1.00  0.00     0.158 HD
ENDBRANCH   7  11
TORSDOF 1
ENDMDL
MODEL 7
REMARK VINA RESULT:    -4.530      2.007      2.542
REMARK INTER + INTRA:          -4.663
REMARK INTER:                  -4.663
REMARK INTRA:                   0.000
REMARK UNBOUND:                 0.000
REMARK SMILES Nc1ncnc2nc[nH]c12
REMARK SMILES IDX 8 1 7 2 6 3 5 4 4 5 3 6 2 7 10 8 9 9 1 11
REMARK H PARENT 9 10 1 12 1 13
REMARK Flexibility Score: inf
ROOT
ATOM      1  C   UNL     1     -20.539 -15.093 -13.095  1.00  0.00     0.199 A 
ATOM      2  N   UNL     1     -21.308 -14.157 -12.476  1.00  0.00    -0.217 NA
ATOM      3  C   UNL     1     -22.244 -13.897 -13.404  1.00  0.00     0.182 A 
ATOM      4  N   UNL     1     -23.271 -13.021 -13.292  1.00  0.00    -0.215 NA
ATOM      5  C   UNL     1     -24.128 -12.893 -14.351  1.00  0.00     0.226 A 
ATOM      6  N   UNL     1     -23.944 -13.636 -15.489  1.00  0.00    -0.217 NA
ATOM      7  C   UNL     1     -22.909 -14.521 -15.602  1.00  0.00     0.152 A 
ATOM      8  C   UNL     1     -22.046 -14.640 -14.516  1.00  0.00     0.127 A 
ATOM      9  N   UNL     1     -20.964 -15.410 -14.344  1.00  0.00    -0.340 N 
ATOM     10  H   UNL     1     -20.539 -16.096 -15.005  1.00  0.00     0.168 HD
ENDROOT
BRANCH   7  11
ATOM     11  N   UNL     1     -22.738 -15.285 -16.797  1.00  0.00    -0.382 N 
ATOM     12  H   UNL     1     -22.223 -16.194 -16.793  1.00  0.00     0.158 HD
ATOM     13  H   UNL     1     -23.130 -14.938 -17.700  1.00  0.00     0.158 HD
ENDBRANCH   7  11
TORSDOF 1
ENDMDL
MODEL 8
REMARK VINA RESULT:    -4.487      7.464      8.581
REMARK INTER + INTRA:          -4.618
REMARK INTER:                  -4.618
REMARK INTRA:                   0.000
REMARK UNBOUND:                 0.000
REMARK SMILES Nc1ncnc2nc[nH]c12
REMARK SMILES IDX 8 1 7 2 6 3 5 4 4 5 3 6 2 7 10 8 9 9 1 11
REMARK H PARENT 9 10 1 12 1 13
REMARK Flexibility Score: inf
ROOT
ATOM      1  C   UNL     1     -24.398 -23.573 -15.480  1.00  0.00     0.199 A 
ATOM      2  N   UNL     1     -24.062 -24.222 -14.332  1.00  0.00    -0.217 NA
ATOM      3  C   UNL     1     -24.150 -23.245 -13.415  1.00  0.00     0.182 A 
ATOM      4  N   UNL     1     -23.912 -23.360 -12.086  1.00  0.00    -0.215 NA
ATOM      5  C   UNL     1     -24.055 -22.245 -11.307  1.00  0.00     0.226 A 
ATOM      6  N   UNL     1     -24.428 -21.049 -11.864  1.00  0.00    -0.217 NA
ATOM      7  C   UNL     1     -24.668 -20.932 -13.204  1.00  0.00     0.152 A 
ATOM      8  C   UNL     1     -24.519 -22.075 -13.984  1.00  0.00     0.127 A 
ATOM      9  N   UNL     1     -24.684 -22.259 -15.300  1.00  0.00    -0.340 N 
ATOM     10  H   UNL     1     -24.964 -21.564 -16.026  1.00  0.00     0.168 HD
ENDROOT
BRANCH   7  11
ATOM     11  N   UNL     1     -25.057 -19.676 -13.762  1.00  0.00    -0.382 N 
ATOM     12  H   UNL     1     -25.709 -19.034 -13.257  1.00  0.00     0.158 HD
ATOM     13  H   UNL     1     -24.691 -19.382 -14.694  1.00  0.00     0.158 HD
ENDBRANCH   7  11
TORSDOF 1
ENDMDL
MODEL 9
REMARK VINA RESULT:    -4.449      8.048      9.253
REMARK INTER + INTRA:          -4.579
REMARK INTER:                  -4.579
REMARK INTRA:                   0.000
REMARK UNBOUND:                 0.000
REMARK SMILES Nc1ncnc2nc[nH]c12
REMARK SMILES IDX 8 1 7 2 6 3 5 4 4 5 3 6 2 7 10 8 9 9 1 11
REMARK H PARENT 9 10 1 12 1 13
REMARK Flexibility Score: inf
ROOT
ATOM      1  C   UNL     1     -24.015 -24.604 -14.674  1.00  0.00     0.199 A 
ATOM      2  N   UNL     1     -24.375 -23.356 -15.080  1.00  0.00    -0.217 NA
ATOM      3  C   UNL     1     -24.423 -22.681 -13.920  1.00  0.00     0.182 A 
ATOM      4  N   UNL     1     -24.739 -21.373 -13.759  1.00  0.00    -0.215 NA
ATOM      5  C   UNL     1     -24.734 -20.860 -12.491  1.00  0.00     0.226 A 
ATOM      6  N   UNL     1     -24.416 -21.655 -11.419  1.00  0.00    -0.217 NA
ATOM      7  C   UNL     1     -24.098 -22.974 -11.581  1.00  0.00     0.152 A 
ATOM      8  C   UNL     1     -24.107 -23.482 -12.877  1.00  0.00     0.127 A 
ATOM      9  N   UNL     1     -23.843 -24.713 -13.332  1.00  0.00    -0.340 N 
ATOM     10  H   UNL     1     -23.569 -25.563 -12.793  1.00  0.00     0.168 HD
ENDROOT
BRANCH   7  11
ATOM     11  N   UNL     1     -23.770 -23.783 -10.450  1.00  0.00    -0.382 N 
ATOM     12  H   UNL     1     -24.414 -23.861  -9.631  1.00  0.00     0.158 HD
ATOM     13  H   UNL     1     -22.869 -24.310 -10.428  1.00  0.00     0.158 HD
ENDBRANCH   7  11
TORSDOF 1
ENDMDL
