MODEL 1
REMARK VINA RESULT:    19.762      0.000      0.000
REMARK INTER + INTRA:          23.395
REMARK INTER:                  23.806
REMARK INTRA:                  -0.411
REMARK UNBOUND:                -0.411
REMARK SMILES O=c1c(O)c(-c2ccc(O)cc2O)oc2cc(O)cc(O)c12
REMARK SMILES IDX 5 1 3 2 2 3 1 4 22 5 20 6 19 7 17 8 16 9 15 10 14 11 6 12
REMARK SMILES IDX 8 13 7 14 9 15 11 16 12 17 10 18 13 20 4 22 21 24 18 26
REMARK H PARENT 10 19 13 21 4 23 21 25 18 27
REMARK Flexibility Score: inf
ROOT
ATOM      1  C   UNL     1      -6.269   4.988  15.291  1.00  0.00     0.184 A 
ATOM      2  C   UNL     1      -6.459   4.327  16.516  1.00  0.00     0.208 A 
ATOM      3  C   UNL     1      -5.717   3.168  16.787  1.00  0.00     0.238 A 
ATOM      4  O   UNL     1      -5.933   2.550  17.863  1.00  0.00    -0.285 OA
ATOM      5  C   UNL     1      -4.779   2.693  15.839  1.00  0.00     0.111 A 
ATOM      6  C   UNL     1      -3.943   1.551  16.026  1.00  0.00     0.134 A 
ATOM      7  C   UNL     1      -3.144   1.100  14.967  1.00  0.00     0.093 A 
ATOM      8  C   UNL     1      -3.101   1.785  13.754  1.00  0.00     0.123 A 
ATOM      9  C   UNL     1      -3.869   2.937  13.581  1.00  0.00     0.094 A 
ATOM     10  C   UNL     1      -4.704   3.392  14.605  1.00  0.00     0.146 A 
ATOM     11  O   UNL     1      -5.427   4.485  14.396  1.00  0.00    -0.451 OA
ENDROOT
BRANCH   1  12
ATOM     12  C   UNL     1      -7.001   6.229  14.950  1.00  0.00     0.063 A 
ATOM     13  C   UNL     1      -7.108   8.660  14.866  1.00  0.00     0.047 A 
ATOM     14  C   UNL     1      -6.432   7.488  15.213  1.00  0.00     0.020 A 
ATOM     15  C   UNL     1      -8.360   8.591  14.242  1.00  0.00     0.119 A 
ATOM     16  C   UNL     1      -8.928   7.345  13.964  1.00  0.00     0.093 A 
ATOM     17  C   UNL     1      -8.257   6.164  14.310  1.00  0.00     0.130 A 
BRANCH  15  18
ATOM     18  O   UNL     1      -9.043   9.754  13.892  1.00  0.00    -0.508 OA
ATOM     19  H   UNL     1      -9.710  10.186  14.521  1.00  0.00     0.293 HD
ENDBRANCH  15  18
BRANCH  17  20
ATOM     20  O   UNL     1      -8.840   4.927  14.032  1.00  0.00    -0.507 OA
ATOM     21  H   UNL     1      -9.362   4.416  14.735  1.00  0.00     0.293 HD
ENDBRANCH  17  20
ENDBRANCH   1  12
BRANCH   2  22
ATOM     22  O   UNL     1      -7.401   4.807  17.432  1.00  0.00    -0.502 OA
ATOM     23  H   UNL     1      -8.258   5.262  17.141  1.00  0.00     0.293 HD
ENDBRANCH   2  22
BRANCH   6  24
ATOM     24  O   UNL     1      -3.841   0.847  17.229  1.00  0.00    -0.507 OA
ATOM     25  H   UNL     1      -3.922  -0.154  17.318  1.00  0.00     0.293 HD
ENDBRANCH   6  24
BRANCH   8  26
ATOM     26  O   UNL     1      -2.284   1.316  12.728  1.00  0.00    -0.508 OA
ATOM     27  H   UNL     1      -2.423   1.601  11.767  1.00  0.00     0.293 HD
ENDBRANCH   8  26
TORSDOF 6
ENDMDL
MODEL 2
REMARK VINA RESULT:    20.508      1.466      6.784
REMARK INTER + INTRA:          24.293
REMARK INTER:                  24.711
REMARK INTRA:                  -0.418
REMARK UNBOUND:                -0.411
REMARK SMILES O=c1c(O)c(-c2ccc(O)cc2O)oc2cc(O)cc(O)c12
REMARK SMILES IDX 5 1 3 2 2 3 1 4 22 5 20 6 19 7 17 8 16 9 15 10 14 11 6 12
REMARK SMILES IDX 8 13 7 14 9 15 11 16 12 17 10 18 13 20 4 22 21 24 18 26
REMARK H PARENT 10 19 13 21 4 23 21 25 18 27
REMARK Flexibility Score: inf
ROOT
ATOM      1  C   UNL     1      -5.821   4.121  15.080  1.00  0.00     0.184 A 
ATOM      2  C   UNL     1      -6.984   3.929  14.317  1.00  0.00     0.208 A 
ATOM      3  C   UNL     1      -7.838   5.019  14.090  1.00  0.00     0.238 A 
ATOM      4  O   UNL     1      -8.907   4.827  13.453  1.00  0.00    -0.285 OA
ATOM      5  C   UNL     1      -7.508   6.293  14.612  1.00  0.00     0.111 A 
ATOM      6  C   UNL     1      -8.279   7.477  14.410  1.00  0.00     0.134 A 
ATOM      7  C   UNL     1      -7.925   8.654  15.081  1.00  0.00     0.093 A 
ATOM      8  C   UNL     1      -6.793   8.708  15.893  1.00  0.00     0.123 A 
ATOM      9  C   UNL     1      -5.998   7.572  16.050  1.00  0.00     0.094 A 
ATOM     10  C   UNL     1      -6.345   6.373  15.423  1.00  0.00     0.146 A 
ATOM     11  O   UNL     1      -5.569   5.312  15.608  1.00  0.00    -0.451 OA
ENDROOT
BRANCH   1  12
ATOM     12  C   UNL     1      -4.864   3.019  15.338  1.00  0.00     0.063 A 
ATOM     13  C   UNL     1      -2.861   1.779  14.725  1.00  0.00     0.047 A 
ATOM     14  C   UNL     1      -3.780   2.798  14.468  1.00  0.00     0.020 A 
ATOM     15  C   UNL     1      -3.005   0.971  15.860  1.00  0.00     0.119 A 
ATOM     16  C   UNL     1      -4.070   1.191  16.736  1.00  0.00     0.093 A 
ATOM     17  C   UNL     1      -4.998   2.211  16.485  1.00  0.00     0.130 A 
BRANCH  15  18
ATOM     18  O   UNL     1      -2.094  -0.049  16.124  1.00  0.00    -0.508 OA
ATOM     19  H   UNL     1      -1.717  -0.195  17.053  1.00  0.00     0.293 HD
ENDBRANCH  15  18
BRANCH  17  20
ATOM     20  O   UNL     1      -6.062   2.415  17.367  1.00  0.00    -0.507 OA
ATOM     21  H   UNL     1      -6.591   1.640  17.749  1.00  0.00     0.293 HD
ENDBRANCH  17  20
ENDBRANCH   1  12
BRANCH   2  22
ATOM     22  O   UNL     1      -7.296   2.658  13.822  1.00  0.00    -0.502 OA
ATOM     23  H   UNL     1      -6.714   2.182  13.143  1.00  0.00     0.293 HD
ENDBRANCH   2  22
BRANCH   6  24
ATOM     24  O   UNL     1      -9.377   7.556  13.548  1.00  0.00    -0.507 OA
ATOM     25  H   UNL     1     -10.302   7.852  13.820  1.00  0.00     0.293 HD
ENDBRANCH   6  24
BRANCH   8  26
ATOM     26  O   UNL     1      -6.462   9.901  16.533  1.00  0.00    -0.508 OA
ATOM     27  H   UNL     1      -7.173  10.520  16.901  1.00  0.00     0.293 HD
ENDBRANCH   8  26
TORSDOF 6
ENDMDL
MODEL 3
REMARK VINA RESULT:    20.560      1.474      6.785
REMARK INTER + INTRA:          24.356
REMARK INTER:                  24.774
REMARK INTRA:                  -0.419
REMARK UNBOUND:                -0.411
REMARK SMILES O=c1c(O)c(-c2ccc(O)cc2O)oc2cc(O)cc(O)c12
REMARK SMILES IDX 5 1 3 2 2 3 1 4 22 5 20 6 19 7 17 8 16 9 15 10 14 11 6 12
REMARK SMILES IDX 8 13 7 14 9 15 11 16 12 17 10 18 13 20 4 22 21 24 18 26
REMARK H PARENT 10 19 13 21 4 23 21 25 18 27
REMARK Flexibility Score: inf
ROOT
ATOM      1  C   UNL     1      -5.785   4.104  15.065  1.00  0.00     0.184 A 
ATOM      2  C   UNL     1      -6.950   3.909  14.304  1.00  0.00     0.208 A 
ATOM      3  C   UNL     1      -7.811   4.994  14.087  1.00  0.00     0.238 A 
ATOM      4  O   UNL     1      -8.882   4.799  13.451  1.00  0.00    -0.285 OA
ATOM      5  C   UNL     1      -7.489   6.267  14.615  1.00  0.00     0.111 A 
ATOM      6  C   UNL     1      -8.269   7.447  14.423  1.00  0.00     0.134 A 
ATOM      7  C   UNL     1      -7.921   8.623  15.100  1.00  0.00     0.093 A 
ATOM      8  C   UNL     1      -6.787   8.680  15.909  1.00  0.00     0.123 A 
ATOM      9  C   UNL     1      -5.984   7.549  16.057  1.00  0.00     0.094 A 
ATOM     10  C   UNL     1      -6.325   6.351  15.424  1.00  0.00     0.146 A 
ATOM     11  O   UNL     1      -5.540   5.295  15.600  1.00  0.00    -0.451 OA
ENDROOT
BRANCH   1  12
ATOM     12  C   UNL     1      -4.820   3.008  15.314  1.00  0.00     0.063 A 
ATOM     13  C   UNL     1      -2.823   1.771  14.674  1.00  0.00     0.047 A 
ATOM     14  C   UNL     1      -3.751   2.786  14.427  1.00  0.00     0.020 A 
ATOM     15  C   UNL     1      -2.945   0.970  15.817  1.00  0.00     0.119 A 
ATOM     16  C   UNL     1      -3.996   1.192  16.710  1.00  0.00     0.093 A 
ATOM     17  C   UNL     1      -4.932   2.207  16.469  1.00  0.00     0.130 A 
BRANCH  15  18
ATOM     18  O   UNL     1      -2.026  -0.045  16.073  1.00  0.00    -0.508 OA
ATOM     19  H   UNL     1      -1.075   0.001  15.725  1.00  0.00     0.293 HD
ENDBRANCH  15  18
BRANCH  17  20
ATOM     20  O   UNL     1      -5.981   2.413  17.367  1.00  0.00    -0.507 OA
ATOM     21  H   UNL     1      -5.829   2.844  18.271  1.00  0.00     0.293 HD
ENDBRANCH  17  20
ENDBRANCH   1  12
BRANCH   2  22
ATOM     22  O   UNL     1      -7.254   2.639  13.803  1.00  0.00    -0.502 OA
ATOM     23  H   UNL     1      -8.200   2.277  13.779  1.00  0.00     0.293 HD
ENDBRANCH   2  22
BRANCH   6  24
ATOM     24  O   UNL     1      -9.370   7.524  13.565  1.00  0.00    -0.507 OA
ATOM     25  H   UNL     1      -9.323   7.784  12.591  1.00  0.00     0.293 HD
ENDBRANCH   6  24
BRANCH   8  26
ATOM     26  O   UNL     1      -6.462   9.871  16.555  1.00  0.00    -0.508 OA
ATOM     27  H   UNL     1      -7.130  10.353  17.144  1.00  0.00     0.293 HD
ENDBRANCH   8  26
TORSDOF 6
ENDMDL
MODEL 4
REMARK VINA RESULT:    21.633      0.747      1.444
REMARK INTER + INTRA:          25.648
REMARK INTER:                  26.047
REMARK INTRA:                  -0.399
REMARK UNBOUND:                -0.411
REMARK SMILES O=c1c(O)c(-c2ccc(O)cc2O)oc2cc(O)cc(O)c12
REMARK SMILES IDX 5 1 3 2 2 3 1 4 22 5 20 6 19 7 17 8 16 9 15 10 14 11 6 12
REMARK SMILES IDX 8 13 7 14 9 15 11 16 12 17 10 18 13 20 4 22 21 24 18 26
REMARK H PARENT 10 19 13 21 4 23 21 25 18 27
REMARK Flexibility Score: inf
ROOT
ATOM      1  C   UNL     1      -6.412   4.921  15.214  1.00  0.00     0.184 A 
ATOM      2  C   UNL     1      -6.593   4.293  16.458  1.00  0.00     0.208 A 
ATOM      3  C   UNL     1      -5.810   3.173  16.776  1.00  0.00     0.238 A 
ATOM      4  O   UNL     1      -6.017   2.581  17.869  1.00  0.00    -0.285 OA
ATOM      5  C   UNL     1      -4.842   2.705  15.855  1.00  0.00     0.111 A 
ATOM      6  C   UNL     1      -3.966   1.603  16.089  1.00  0.00     0.134 A 
ATOM      7  C   UNL     1      -3.136   1.149  15.056  1.00  0.00     0.093 A 
ATOM      8  C   UNL     1      -3.103   1.796  13.822  1.00  0.00     0.123 A 
ATOM      9  C   UNL     1      -3.912   2.911  13.602  1.00  0.00     0.094 A 
ATOM     10  C   UNL     1      -4.777   3.366  14.600  1.00  0.00     0.146 A 
ATOM     11  O   UNL     1      -5.539   4.423  14.346  1.00  0.00    -0.451 OA
ENDROOT
BRANCH   1  12
ATOM     12  C   UNL     1      -7.187   6.121  14.824  1.00  0.00     0.063 A 
ATOM     13  C   UNL     1      -9.200   7.119  13.885  1.00  0.00     0.047 A 
ATOM     14  C   UNL     1      -8.455   5.988  14.228  1.00  0.00     0.020 A 
ATOM     15  C   UNL     1      -8.694   8.399  14.141  1.00  0.00     0.119 A 
ATOM     16  C   UNL     1      -7.441   8.542  14.744  1.00  0.00     0.093 A 
ATOM     17  C   UNL     1      -6.686   7.412  15.090  1.00  0.00     0.130 A 
BRANCH  15  18
ATOM     18  O   UNL     1      -9.428   9.533  13.802  1.00  0.00    -0.508 OA
ATOM     19  H   UNL     1      -8.996  10.329  13.350  1.00  0.00     0.293 HD
ENDBRANCH  15  18
BRANCH  17  20
ATOM     20  O   UNL     1      -5.434   7.570  15.686  1.00  0.00    -0.507 OA
ATOM     21  H   UNL     1      -5.025   8.486  15.828  1.00  0.00     0.293 HD
ENDBRANCH  17  20
ENDBRANCH   1  12
BRANCH   2  22
ATOM     22  O   UNL     1      -7.565   4.765  17.346  1.00  0.00    -0.502 OA
ATOM     23  H   UNL     1      -7.329   5.162  18.247  1.00  0.00     0.293 HD
ENDBRANCH   2  22
BRANCH   6  24
ATOM     24  O   UNL     1      -3.853   0.942  17.316  1.00  0.00    -0.507 OA
ATOM     25  H   UNL     1      -3.120   0.292  17.554  1.00  0.00     0.293 HD
ENDBRANCH   6  24
BRANCH   8  26
ATOM     26  O   UNL     1      -2.254   1.327  12.822  1.00  0.00    -0.508 OA
ATOM     27  H   UNL     1      -2.307   0.373  12.486  1.00  0.00     0.293 HD
ENDBRANCH   8  26
TORSDOF 6
ENDMDL
MODEL 5
REMARK VINA RESULT:    22.099      1.571      6.810
REMARK INTER + INTRA:          26.210
REMARK INTER:                  26.603
REMARK INTRA:                  -0.393
REMARK UNBOUND:                -0.411
REMARK SMILES O=c1c(O)c(-c2ccc(O)cc2O)oc2cc(O)cc(O)c12
REMARK SMILES IDX 5 1 3 2 2 3 1 4 22 5 20 6 19 7 17 8 16 9 15 10 14 11 6 12
REMARK SMILES IDX 8 13 7 14 9 15 11 16 12 17 10 18 13 20 4 22 21 24 18 26
REMARK H PARENT 10 19 13 21 4 23 21 25 18 27
REMARK Flexibility Score: inf
ROOT
ATOM      1  C   UNL     1      -5.729   4.043  15.121  1.00  0.00     0.184 A 
ATOM      2  C   UNL     1      -6.891   3.826  14.363  1.00  0.00     0.208 A 
ATOM      3  C   UNL     1      -7.762   4.901  14.128  1.00  0.00     0.238 A 
ATOM      4  O   UNL     1      -8.830   4.687  13.496  1.00  0.00    -0.285 OA
ATOM      5  C   UNL     1      -7.450   6.185  14.636  1.00  0.00     0.111 A 
ATOM      6  C   UNL     1      -8.239   7.355  14.424  1.00  0.00     0.134 A 
ATOM      7  C   UNL     1      -7.901   8.544  15.082  1.00  0.00     0.093 A 
ATOM      8  C   UNL     1      -6.767   8.624  15.889  1.00  0.00     0.123 A 
ATOM      9  C   UNL     1      -5.955   7.501  16.056  1.00  0.00     0.094 A 
ATOM     10  C   UNL     1      -6.286   6.291  15.442  1.00  0.00     0.146 A 
ATOM     11  O   UNL     1      -5.494   5.244  15.636  1.00  0.00    -0.451 OA
ENDROOT
BRANCH   1  12
ATOM     12  C   UNL     1      -4.755   2.959  15.387  1.00  0.00     0.063 A 
ATOM     13  C   UNL     1      -3.953   1.144  16.798  1.00  0.00     0.047 A 
ATOM     14  C   UNL     1      -4.853   2.186  16.558  1.00  0.00     0.020 A 
ATOM     15  C   UNL     1      -2.948   0.854  15.866  1.00  0.00     0.119 A 
ATOM     16  C   UNL     1      -2.851   1.608  14.694  1.00  0.00     0.093 A 
ATOM     17  C   UNL     1      -3.749   2.656  14.446  1.00  0.00     0.130 A 
BRANCH  15  18
ATOM     18  O   UNL     1      -2.046  -0.182  16.096  1.00  0.00    -0.508 OA
ATOM     19  H   UNL     1      -1.533  -0.616  15.338  1.00  0.00     0.293 HD
ENDBRANCH  15  18
BRANCH  17  20
ATOM     20  O   UNL     1      -3.636   3.405  13.274  1.00  0.00    -0.507 OA
ATOM     21  H   UNL     1      -4.250   3.249  12.483  1.00  0.00     0.293 HD
ENDBRANCH  17  20
ENDBRANCH   1  12
BRANCH   2  22
ATOM     22  O   UNL     1      -7.186   2.546  13.883  1.00  0.00    -0.502 OA
ATOM     23  H   UNL     1      -7.045   1.711  14.439  1.00  0.00     0.293 HD
ENDBRANCH   2  22
BRANCH   6  24
ATOM     24  O   UNL     1      -9.341   7.409  13.564  1.00  0.00    -0.507 OA
ATOM     25  H   UNL     1      -9.820   8.255  13.297  1.00  0.00     0.293 HD
ENDBRANCH   6  24
BRANCH   8  26
ATOM     26  O   UNL     1      -6.452   9.828  16.516  1.00  0.00    -0.508 OA
ATOM     27  H   UNL     1      -5.611   9.933  17.069  1.00  0.00     0.293 HD
ENDBRANCH   8  26
TORSDOF 6
ENDMDL
