MODEL 1
REMARK VINA RESULT:    -5.324      0.000      0.000
REMARK INTER + INTRA:          -5.324
REMARK INTER:                  -5.324
REMARK INTRA:                   0.000
REMARK UNBOUND:                 0.000
REMARK SMILES O=c1ccc2ccccc2o1
REMARK SMILES IDX 7 1 8 2 9 3 10 4 5 5 6 6 4 7 3 8 2 9 1 10 11 11
REMARK H PARENT
REMARK Flexibility Score: inf
ROOT
ATOM      1  C   UNL     1      -8.030 -18.430  -7.580  1.00  0.00     0.001 A 
ATOM      2  C   UNL     1      -7.606 -19.630  -6.999  1.00  0.00     0.004 A 
ATOM      3  C   UNL     1      -8.516 -20.440  -6.311  1.00  0.00     0.048 A 
ATOM      4  C   UNL     1      -9.857 -20.051  -6.203  1.00  0.00     0.138 A 
ATOM      5  C   UNL     1     -10.285 -18.839  -6.790  1.00  0.00     0.018 A 
ATOM      6  C   UNL     1      -9.368 -18.033  -7.477  1.00  0.00     0.012 A 
ATOM      7  C   UNL     1     -11.630 -18.478  -6.666  1.00  0.00     0.019 A 
ATOM      8  C   UNL     1     -12.503 -19.316  -5.971  1.00  0.00     0.094 A 
ATOM      9  C   UNL     1     -12.007 -20.501  -5.416  1.00  0.00     0.336 A 
ATOM     10  O   UNL     1     -12.780 -21.270  -4.787  1.00  0.00    -0.246 OA
ATOM     11  O   UNL     1     -10.722 -20.822  -5.549  1.00  0.00    -0.423 OA
ENDROOT
TORSDOF 0
ENDMDL
MODEL 2
REMARK VINA RESULT:    -5.209     14.411     14.909
REMARK INTER + INTRA:          -5.209
REMARK INTER:                  -5.209
REMARK INTRA:                   0.000
REMARK UNBOUND:                 0.000
REMARK SMILES O=c1ccc2ccccc2o1
REMARK SMILES IDX 7 1 8 2 9 3 10 4 5 5 6 6 4 7 3 8 2 9 1 10 11 11
REMARK H PARENT
REMARK Flexibility Score: inf
ROOT
ATOM      1  C   UNL     1     -17.423 -11.458 -16.172  1.00  0.00     0.001 A 
ATOM      2  C   UNL     1     -17.928 -10.969 -14.962  1.00  0.00     0.004 A 
ATOM      3  C   UNL     1     -17.214 -10.007 -14.239  1.00  0.00     0.048 A 
ATOM      4  C   UNL     1     -15.992  -9.529 -14.727  1.00  0.00     0.138 A 
ATOM      5  C   UNL     1     -15.482 -10.023 -15.948  1.00  0.00     0.018 A 
ATOM      6  C   UNL     1     -16.202 -10.987 -16.667  1.00  0.00     0.012 A 
ATOM      7  C   UNL     1     -14.260  -9.526 -16.410  1.00  0.00     0.019 A 
ATOM      8  C   UNL     1     -13.582  -8.567 -15.657  1.00  0.00     0.094 A 
ATOM      9  C   UNL     1     -14.148  -8.125 -14.456  1.00  0.00     0.336 A 
ATOM     10  O   UNL     1     -13.552  -7.259 -13.763  1.00  0.00    -0.246 OA
ATOM     11  O   UNL     1     -15.314  -8.613 -14.039  1.00  0.00    -0.423 OA
ENDROOT
TORSDOF 0
ENDMDL
MODEL 3
REMARK VINA RESULT:    -5.192     13.826     14.255
REMARK INTER + INTRA:          -5.192
REMARK INTER:                  -5.192
REMARK INTRA:                   0.000
REMARK UNBOUND:                 0.000
REMARK SMILES O=c1ccc2ccccc2o1
REMARK SMILES IDX 7 1 8 2 9 3 10 4 5 5 6 6 4 7 3 8 2 9 1 10 11 11
REMARK H PARENT
REMARK Flexibility Score: inf
ROOT
ATOM      1  C   UNL     1     -13.220  -9.509 -15.513  1.00  0.00     0.001 A 
ATOM      2  C   UNL     1     -13.676  -9.000 -14.292  1.00  0.00     0.004 A 
ATOM      3  C   UNL     1     -15.004  -9.198 -13.899  1.00  0.00     0.048 A 
ATOM      4  C   UNL     1     -15.882  -9.908 -14.728  1.00  0.00     0.138 A 
ATOM      5  C   UNL     1     -15.421 -10.421 -15.961  1.00  0.00     0.018 A 
ATOM      6  C   UNL     1     -14.089 -10.218 -16.348  1.00  0.00     0.012 A 
ATOM      7  C   UNL     1     -16.320 -11.125 -16.766  1.00  0.00     0.019 A 
ATOM      8  C   UNL     1     -17.636 -11.299 -16.335  1.00  0.00     0.094 A 
ATOM      9  C   UNL     1     -18.020 -10.762 -15.101  1.00  0.00     0.336 A 
ATOM     10  O   UNL     1     -19.203 -10.909 -14.695  1.00  0.00    -0.246 OA
ATOM     11  O   UNL     1     -17.145 -10.096 -14.353  1.00  0.00    -0.423 OA
ENDROOT
TORSDOF 0
ENDMDL
MODEL 4
REMARK VINA RESULT:    -5.155      1.521      3.806
REMARK INTER + INTRA:          -5.155
REMARK INTER:                  -5.155
REMARK INTRA:                   0.000
REMARK UNBOUND:                 0.000
REMARK SMILES O=c1ccc2ccccc2o1
REMARK SMILES IDX 7 1 8 2 9 3 10 4 5 5 6 6 4 7 3 8 2 9 1 10 11 11
REMARK H PARENT
REMARK Flexibility Score: inf
ROOT
ATOM      1  C   UNL     1     -12.743 -19.291  -6.015  1.00  0.00     0.001 A 
ATOM      2  C   UNL     1     -12.288 -20.437  -5.353  1.00  0.00     0.004 A 
ATOM      3  C   UNL     1     -10.939 -20.800  -5.420  1.00  0.00     0.048 A 
ATOM      4  C   UNL     1     -10.038 -20.016  -6.150  1.00  0.00     0.138 A 
ATOM      5  C   UNL     1     -10.497 -18.859  -6.819  1.00  0.00     0.018 A 
ATOM      6  C   UNL     1     -11.850 -18.501  -6.747  1.00  0.00     0.012 A 
ATOM      7  C   UNL     1      -9.573 -18.095  -7.539  1.00  0.00     0.019 A 
ATOM      8  C   UNL     1      -8.238 -18.495  -7.579  1.00  0.00     0.094 A 
ATOM      9  C   UNL     1      -7.856 -19.653  -6.892  1.00  0.00     0.336 A 
ATOM     10  O   UNL     1      -6.654 -20.029  -6.917  1.00  0.00    -0.246 OA
ATOM     11  O   UNL     1      -8.754 -20.362  -6.214  1.00  0.00    -0.423 OA
ENDROOT
TORSDOF 0
ENDMDL
MODEL 5
REMARK VINA RESULT:    -5.076      2.443      3.155
REMARK INTER + INTRA:          -5.076
REMARK INTER:                  -5.076
REMARK INTRA:                   0.000
REMARK UNBOUND:                 0.000
REMARK SMILES O=c1ccc2ccccc2o1
REMARK SMILES IDX 7 1 8 2 9 3 10 4 5 5 6 6 4 7 3 8 2 9 1 10 11 11
REMARK H PARENT
REMARK Flexibility Score: inf
ROOT
ATOM      1  C   UNL     1      -9.704 -20.353  -5.537  1.00  0.00     0.001 A 
ATOM      2  C   UNL     1      -9.273 -20.092  -6.842  1.00  0.00     0.004 A 
ATOM      3  C   UNL     1     -10.197 -20.040  -7.892  1.00  0.00     0.048 A 
ATOM      4  C   UNL     1     -11.558 -20.248  -7.638  1.00  0.00     0.138 A 
ATOM      5  C   UNL     1     -11.993 -20.513  -6.320  1.00  0.00     0.018 A 
ATOM      6  C   UNL     1     -11.062 -20.563  -5.273  1.00  0.00     0.012 A 
ATOM      7  C   UNL     1     -13.358 -20.716  -6.098  1.00  0.00     0.019 A 
ATOM      8  C   UNL     1     -14.244 -20.655  -7.174  1.00  0.00     0.094 A 
ATOM      9  C   UNL     1     -13.739 -20.389  -8.453  1.00  0.00     0.336 A 
ATOM     10  O   UNL     1     -14.524 -20.330  -9.436  1.00  0.00    -0.246 OA
ATOM     11  O   UNL     1     -12.436 -20.199  -8.637  1.00  0.00    -0.423 OA
ENDROOT
TORSDOF 0
ENDMDL
MODEL 6
REMARK VINA RESULT:    -5.076      1.094      2.088
REMARK INTER + INTRA:          -5.076
REMARK INTER:                  -5.076
REMARK INTRA:                   0.000
REMARK UNBOUND:                 0.000
REMARK SMILES O=c1ccc2ccccc2o1
REMARK SMILES IDX 7 1 8 2 9 3 10 4 5 5 6 6 4 7 3 8 2 9 1 10 11 11
REMARK H PARENT
REMARK Flexibility Score: inf
ROOT
ATOM      1  C   UNL     1      -7.569 -19.531  -6.892  1.00  0.00     0.001 A 
ATOM      2  C   UNL     1      -8.217 -18.522  -7.613  1.00  0.00     0.004 A 
ATOM      3  C   UNL     1      -9.605 -18.372  -7.522  1.00  0.00     0.048 A 
ATOM      4  C   UNL     1     -10.351 -19.233  -6.707  1.00  0.00     0.138 A 
ATOM      5  C   UNL     1      -9.696 -20.251  -5.979  1.00  0.00     0.018 A 
ATOM      6  C   UNL     1      -8.305 -20.396  -6.075  1.00  0.00     0.012 A 
ATOM      7  C   UNL     1     -10.467 -21.094  -5.173  1.00  0.00     0.019 A 
ATOM      8  C   UNL     1     -11.848 -20.909  -5.112  1.00  0.00     0.094 A 
ATOM      9  C   UNL     1     -12.427 -19.878  -5.862  1.00  0.00     0.336 A 
ATOM     10  O   UNL     1     -13.672 -19.696  -5.819  1.00  0.00    -0.246 OA
ATOM     11  O   UNL     1     -11.671 -19.089  -6.621  1.00  0.00    -0.423 OA
ENDROOT
TORSDOF 0
ENDMDL
MODEL 7
REMARK VINA RESULT:    -5.074      2.508      4.283
REMARK INTER + INTRA:          -5.074
REMARK INTER:                  -5.074
REMARK INTRA:                   0.000
REMARK UNBOUND:                 0.000
REMARK SMILES O=c1ccc2ccccc2o1
REMARK SMILES IDX 7 1 8 2 9 3 10 4 5 5 6 6 4 7 3 8 2 9 1 10 11 11
REMARK H PARENT
REMARK Flexibility Score: inf
ROOT
ATOM      1  C   UNL     1     -14.298 -20.893  -7.883  1.00  0.00     0.001 A 
ATOM      2  C   UNL     1     -13.442 -21.495  -8.812  1.00  0.00     0.004 A 
ATOM      3  C   UNL     1     -12.113 -21.072  -8.922  1.00  0.00     0.048 A 
ATOM      4  C   UNL     1     -11.635 -20.043  -8.101  1.00  0.00     0.138 A 
ATOM      5  C   UNL     1     -12.499 -19.435  -7.164  1.00  0.00     0.018 A 
ATOM      6  C   UNL     1     -13.830 -19.864  -7.059  1.00  0.00     0.012 A 
ATOM      7  C   UNL     1     -11.993 -18.411  -6.358  1.00  0.00     0.019 A 
ATOM      8  C   UNL     1     -10.662 -18.020  -6.502  1.00  0.00     0.094 A 
ATOM      9  C   UNL     1      -9.865 -18.669  -7.453  1.00  0.00     0.336 A 
ATOM     10  O   UNL     1      -8.660 -18.331  -7.597  1.00  0.00    -0.246 OA
ATOM     11  O   UNL     1     -10.370 -19.641  -8.207  1.00  0.00    -0.423 OA
ENDROOT
TORSDOF 0
ENDMDL
MODEL 8
REMARK VINA RESULT:    -5.053     13.996     14.671
REMARK INTER + INTRA:          -5.053
REMARK INTER:                  -5.053
REMARK INTRA:                   0.000
REMARK UNBOUND:                 0.000
REMARK SMILES O=c1ccc2ccccc2o1
REMARK SMILES IDX 7 1 8 2 9 3 10 4 5 5 6 6 4 7 3 8 2 9 1 10 11 11
REMARK H PARENT
REMARK Flexibility Score: inf
ROOT
ATOM      1  C   UNL     1     -17.672 -10.574 -14.683  1.00  0.00     0.001 A 
ATOM      2  C   UNL     1     -17.471 -11.085 -15.970  1.00  0.00     0.004 A 
ATOM      3  C   UNL     1     -16.238 -10.919 -16.609  1.00  0.00     0.048 A 
ATOM      4  C   UNL     1     -15.199 -10.241 -15.961  1.00  0.00     0.138 A 
ATOM      5  C   UNL     1     -15.401  -9.724 -14.662  1.00  0.00     0.018 A 
ATOM      6  C   UNL     1     -16.640  -9.894 -14.027  1.00  0.00     0.012 A 
ATOM      7  C   UNL     1     -14.345  -9.052 -14.041  1.00  0.00     0.019 A 
ATOM      8  C   UNL     1     -13.132  -8.909 -14.715  1.00  0.00     0.094 A 
ATOM      9  C   UNL     1     -13.005  -9.448 -16.001  1.00  0.00     0.336 A 
ATOM     10  O   UNL     1     -11.918  -9.330 -16.625  1.00  0.00    -0.246 OA
ATOM     11  O   UNL     1     -14.026 -10.083 -16.570  1.00  0.00    -0.423 OA
ENDROOT
TORSDOF 0
ENDMDL
MODEL 9
REMARK VINA RESULT:    -5.052     13.775     14.139
REMARK INTER + INTRA:          -5.052
REMARK INTER:                  -5.052
REMARK INTRA:                   0.000
REMARK UNBOUND:                 0.000
REMARK SMILES O=c1ccc2ccccc2o1
REMARK SMILES IDX 7 1 8 2 9 3 10 4 5 5 6 6 4 7 3 8 2 9 1 10 11 11
REMARK H PARENT
REMARK Flexibility Score: inf
ROOT
ATOM      1  C   UNL     1     -13.148  -9.040 -14.252  1.00  0.00     0.001 A 
ATOM      2  C   UNL     1     -12.765  -9.590 -15.480  1.00  0.00     0.004 A 
ATOM      3  C   UNL     1     -13.702 -10.257 -16.276  1.00  0.00     0.048 A 
ATOM      4  C   UNL     1     -15.030 -10.374 -15.845  1.00  0.00     0.138 A 
ATOM      5  C   UNL     1     -15.416  -9.819 -14.605  1.00  0.00     0.018 A 
ATOM      6  C   UNL     1     -14.472  -9.153 -13.812  1.00  0.00     0.012 A 
ATOM      7  C   UNL     1     -16.748  -9.953 -14.202  1.00  0.00     0.019 A 
ATOM      8  C   UNL     1     -17.649 -10.625 -15.027  1.00  0.00     0.094 A 
ATOM      9  C   UNL     1     -17.194 -11.150 -16.242  1.00  0.00     0.336 A 
ATOM     10  O   UNL     1     -17.993 -11.760 -17.001  1.00  0.00    -0.246 OA
ATOM     11  O   UNL     1     -15.921 -11.009 -16.603  1.00  0.00    -0.423 OA
ENDROOT
TORSDOF 0
ENDMDL
