MODEL 1
REMARK VINA RESULT:    -3.935      0.000      0.000
REMARK INTER + INTRA:         -10.481
REMARK INTER:                  -8.536
REMARK INTRA:                  -1.945
REMARK UNBOUND:                -1.945
REMARK SMILES CCCCCCCCCCCCCCCCCCCCCC(=O)[O-]
REMARK SMILES IDX 12 1 11 2 10 3 9 4 8 5 7 6 6 7 5 8 4 9 3 10 2 11 1 12 13 13
REMARK SMILES IDX 14 14 15 15 16 16 17 17 18 18 19 19 20 20 21 21 22 22 23 23
REMARK SMILES IDX 24 24
REMARK H PARENT
REMARK Flexibility Score: inf
ROOT
ATOM      1  C   UNL     1       3.040  20.102  33.169  1.00  0.00     0.000 C 
ENDROOT
BRANCH   1   2
ATOM      2  C   UNL     1       2.499  18.674  33.005  1.00  0.00     0.000 C 
BRANCH   2   3
ATOM      3  C   UNL     1       2.050  18.049  34.337  1.00  0.00     0.000 C 
BRANCH   3   4
ATOM      4  C   UNL     1       3.164  17.334  35.125  1.00  0.00    -0.000 C 
BRANCH   4   5
ATOM      5  C   UNL     1       4.411  16.997  34.279  1.00  0.00    -0.000 C 
BRANCH   5   6
ATOM      6  C   UNL     1       5.716  17.112  35.087  1.00  0.00    -0.000 C 
BRANCH   6   7
ATOM      7  C   UNL     1       6.692  18.138  34.493  1.00  0.00    -0.000 C 
BRANCH   7   8
ATOM      8  C   UNL     1       6.627  18.198  32.959  1.00  0.00    -0.000 C 
BRANCH   8   9
ATOM      9  C   UNL     1       7.644  17.233  32.330  1.00  0.00    -0.000 C 
BRANCH   9  10
ATOM     10  C   UNL     1       7.001  15.927  31.830  1.00  0.00    -0.000 C 
BRANCH  10  11
ATOM     11  C   UNL     1       7.946  15.001  31.045  1.00  0.00    -0.003 C 
ATOM     12  C   UNL     1       7.266  13.719  30.565  1.00  0.00     0.004 C 
ENDBRANCH  10  11
ENDBRANCH   9  10
ENDBRANCH   8   9
ENDBRANCH   7   8
ENDBRANCH   6   7
ENDBRANCH   5   6
ENDBRANCH   4   5
ENDBRANCH   3   4
ENDBRANCH   2   3
ENDBRANCH   1   2
BRANCH   1  13
ATOM     13  C   UNL     1       2.864  20.594  34.613  1.00  0.00     0.000 C 
BRANCH  13  14
ATOM     14  C   UNL     1       1.836  21.733  34.738  1.00  0.00     0.000 C 
BRANCH  14  15
ATOM     15  C   UNL     1       0.390  21.281  35.023  1.00  0.00     0.000 C 
BRANCH  15  16
ATOM     16  C   UNL     1      -0.666  21.809  34.036  1.00  0.00     0.000 C 
BRANCH  16  17
ATOM     17  C   UNL     1      -0.116  21.977  32.609  1.00  0.00     0.000 C 
BRANCH  17  18
ATOM     18  C   UNL     1      -0.318  20.714  31.753  1.00  0.00     0.000 C 
BRANCH  18  19
ATOM     19  C   UNL     1      -0.877  21.035  30.357  1.00  0.00     0.000 C 
BRANCH  19  20
ATOM     20  C   UNL     1      -1.557  19.823  29.700  1.00  0.00     0.006 C 
BRANCH  20  21
ATOM     21  C   UNL     1      -2.601  20.226  28.651  1.00  0.00     0.053 C 
BRANCH  21  22
ATOM     22  C   UNL     1      -2.175  19.772  27.290  1.00  0.00     0.041 C 
ATOM     23  O   UNL     1      -1.121  20.226  26.771  1.00  0.00    -0.550 OA
ATOM     24  O   UNL     1      -2.966  18.883  26.574  1.00  0.00    -0.550 OA
ENDBRANCH  21  22
ENDBRANCH  20  21
ENDBRANCH  19  20
ENDBRANCH  18  19
ENDBRANCH  17  18
ENDBRANCH  16  17
ENDBRANCH  15  16
ENDBRANCH  14  15
ENDBRANCH  13  14
ENDBRANCH   1  13
TORSDOF 20
ENDMDL
MODEL 2
REMARK VINA RESULT:    -3.826      3.445      8.806
REMARK INTER + INTRA:         -10.243
REMARK INTER:                  -9.105
REMARK INTRA:                  -1.139
REMARK UNBOUND:                -1.945
REMARK SMILES CCCCCCCCCCCCCCCCCCCCCC(=O)[O-]
REMARK SMILES IDX 12 1 11 2 10 3 9 4 8 5 7 6 6 7 5 8 4 9 3 10 2 11 1 12 13 13
REMARK SMILES IDX 14 14 15 15 16 16 17 17 18 18 19 19 20 20 21 21 22 22 23 23
REMARK SMILES IDX 24 24
REMARK H PARENT
REMARK Flexibility Score: inf
ROOT
ATOM      1  C   UNL     1       0.230  22.262  34.944  1.00  0.00     0.000 C 
ENDROOT
BRANCH   1   2
ATOM      2  C   UNL     1      -0.130  22.603  33.490  1.00  0.00     0.000 C 
BRANCH   2   3
ATOM      3  C   UNL     1      -0.778  21.425  32.743  1.00  0.00     0.000 C 
BRANCH   3   4
ATOM      4  C   UNL     1      -0.492  21.379  31.231  1.00  0.00    -0.000 C 
BRANCH   4   5
ATOM      5  C   UNL     1      -0.606  19.968  30.615  1.00  0.00    -0.000 C 
BRANCH   5   6
ATOM      6  C   UNL     1      -1.421  19.962  29.310  1.00  0.00    -0.000 C 
BRANCH   6   7
ATOM      7  C   UNL     1      -1.805  18.544  28.858  1.00  0.00    -0.000 C 
BRANCH   7   8
ATOM      8  C   UNL     1      -2.788  18.546  27.677  1.00  0.00    -0.000 C 
BRANCH   8   9
ATOM      9  C   UNL     1      -3.661  19.809  27.694  1.00  0.00    -0.000 C 
BRANCH   9  10
ATOM     10  C   UNL     1      -3.360  20.763  26.524  1.00  0.00    -0.000 C 
BRANCH  10  11
ATOM     11  C   UNL     1      -1.973  21.427  26.571  1.00  0.00    -0.003 C 
ATOM     12  C   UNL     1      -1.126  21.132  25.333  1.00  0.00     0.004 C 
ENDBRANCH  10  11
ENDBRANCH   9  10
ENDBRANCH   8   9
ENDBRANCH   7   8
ENDBRANCH   6   7
ENDBRANCH   5   6
ENDBRANCH   4   5
ENDBRANCH   3   4
ENDBRANCH   2   3
ENDBRANCH   1   2
BRANCH   1  13
ATOM     13  C   UNL     1       1.753  22.171  35.125  1.00  0.00     0.000 C 
BRANCH  13  14
ATOM     14  C   UNL     1       2.293  20.739  34.955  1.00  0.00     0.000 C 
BRANCH  14  15
ATOM     15  C   UNL     1       2.538  20.301  33.498  1.00  0.00     0.000 C 
BRANCH  15  16
ATOM     16  C   UNL     1       3.391  19.030  33.333  1.00  0.00     0.000 C 
BRANCH  16  17
ATOM     17  C   UNL     1       3.134  17.992  34.438  1.00  0.00     0.000 C 
BRANCH  17  18
ATOM     18  C   UNL     1       4.434  17.346  34.947  1.00  0.00     0.000 C 
BRANCH  18  19
ATOM     19  C   UNL     1       5.689  18.068  34.428  1.00  0.00     0.000 C 
BRANCH  19  20
ATOM     20  C   UNL     1       6.706  17.104  33.795  1.00  0.00     0.006 C 
BRANCH  20  21
ATOM     21  C   UNL     1       6.145  16.373  32.569  1.00  0.00     0.053 C 
BRANCH  21  22
ATOM     22  C   UNL     1       7.259  15.859  31.713  1.00  0.00     0.041 C 
ATOM     23  O   UNL     1       8.309  16.538  31.564  1.00  0.00    -0.550 OA
ATOM     24  O   UNL     1       7.119  14.651  31.041  1.00  0.00    -0.550 OA
ENDBRANCH  21  22
ENDBRANCH  20  21
ENDBRANCH  19  20
ENDBRANCH  18  19
ENDBRANCH  17  18
ENDBRANCH  16  17
ENDBRANCH  15  16
ENDBRANCH  14  15
ENDBRANCH  13  14
ENDBRANCH   1  13
TORSDOF 20
ENDMDL
MODEL 3
REMARK VINA RESULT:    -3.776      3.317      8.762
REMARK INTER + INTRA:         -10.137
REMARK INTER:                  -8.868
REMARK INTRA:                  -1.268
REMARK UNBOUND:                -1.945
REMARK SMILES CCCCCCCCCCCCCCCCCCCCCC(=O)[O-]
REMARK SMILES IDX 12 1 11 2 10 3 9 4 8 5 7 6 6 7 5 8 4 9 3 10 2 11 1 12 13 13
REMARK SMILES IDX 14 14 15 15 16 16 17 17 18 18 19 19 20 20 21 21 22 22 23 23
REMARK SMILES IDX 24 24
REMARK H PARENT
REMARK Flexibility Score: inf
ROOT
ATOM      1  C   UNL     1       2.216  20.175  33.819  1.00  0.00     0.000 C 
ENDROOT
BRANCH   1   2
ATOM      2  C   UNL     1       1.032  20.117  34.797  1.00  0.00     0.000 C 
BRANCH   2   3
ATOM      3  C   UNL     1      -0.084  21.114  34.442  1.00  0.00     0.000 C 
BRANCH   3   4
ATOM      4  C   UNL     1       0.263  22.101  33.312  1.00  0.00    -0.000 C 
BRANCH   4   5
ATOM      5  C   UNL     1      -0.670  22.001  32.085  1.00  0.00    -0.000 C 
BRANCH   5   6
ATOM      6  C   UNL     1      -0.351  20.780  31.204  1.00  0.00    -0.000 C 
BRANCH   6   7
ATOM      7  C   UNL     1      -1.538  20.358  30.325  1.00  0.00    -0.000 C 
BRANCH   7   8
ATOM      8  C   UNL     1      -1.100  19.598  29.063  1.00  0.00    -0.000 C 
BRANCH   8   9
ATOM      9  C   UNL     1      -2.225  18.684  28.558  1.00  0.00    -0.000 C 
BRANCH   9  10
ATOM     10  C   UNL     1      -2.831  19.158  27.224  1.00  0.00    -0.000 C 
BRANCH  10  11
ATOM     11  C   UNL     1      -2.590  20.642  26.896  1.00  0.00    -0.003 C 
ATOM     12  C   UNL     1      -1.373  20.867  26.000  1.00  0.00     0.004 C 
ENDBRANCH  10  11
ENDBRANCH   9  10
ENDBRANCH   8   9
ENDBRANCH   7   8
ENDBRANCH   6   7
ENDBRANCH   5   6
ENDBRANCH   4   5
ENDBRANCH   3   4
ENDBRANCH   2   3
ENDBRANCH   1   2
BRANCH   1  13
ATOM     13  C   UNL     1       2.283  18.902  32.963  1.00  0.00     0.000 C 
BRANCH  13  14
ATOM     14  C   UNL     1       3.522  18.040  33.265  1.00  0.00     0.000 C 
BRANCH  14  15
ATOM     15  C   UNL     1       3.906  17.945  34.755  1.00  0.00     0.000 C 
BRANCH  15  16
ATOM     16  C   UNL     1       5.260  18.580  35.123  1.00  0.00     0.000 C 
BRANCH  16  17
ATOM     17  C   UNL     1       6.335  18.355  34.046  1.00  0.00     0.000 C 
BRANCH  17  18
ATOM     18  C   UNL     1       6.863  16.911  34.040  1.00  0.00     0.000 C 
BRANCH  18  19
ATOM     19  C   UNL     1       6.473  16.148  32.763  1.00  0.00     0.000 C 
BRANCH  19  20
ATOM     20  C   UNL     1       7.514  16.300  31.642  1.00  0.00     0.006 C 
BRANCH  20  21
ATOM     21  C   UNL     1       8.212  14.979  31.296  1.00  0.00     0.053 C 
BRANCH  21  22
ATOM     22  C   UNL     1       7.247  14.032  30.656  1.00  0.00     0.041 C 
ATOM     23  O   UNL     1       7.101  12.869  31.115  1.00  0.00    -0.550 OA
ATOM     24  O   UNL     1       6.544  14.417  29.522  1.00  0.00    -0.550 OA
ENDBRANCH  21  22
ENDBRANCH  20  21
ENDBRANCH  19  20
ENDBRANCH  18  19
ENDBRANCH  17  18
ENDBRANCH  16  17
ENDBRANCH  15  16
ENDBRANCH  14  15
ENDBRANCH  13  14
ENDBRANCH   1  13
TORSDOF 20
ENDMDL
MODEL 4
REMARK VINA RESULT:    -3.691      1.154      2.477
REMARK INTER + INTRA:          -9.951
REMARK INTER:                  -8.590
REMARK INTRA:                  -1.361
REMARK UNBOUND:                -1.945
REMARK SMILES CCCCCCCCCCCCCCCCCCCCCC(=O)[O-]
REMARK SMILES IDX 12 1 11 2 10 3 9 4 8 5 7 6 6 7 5 8 4 9 3 10 2 11 1 12 13 13
REMARK SMILES IDX 14 14 15 15 16 16 17 17 18 18 19 19 20 20 21 21 22 22 23 23
REMARK SMILES IDX 24 24
REMARK H PARENT
REMARK Flexibility Score: inf
ROOT
ATOM      1  C   UNL     1       0.503  21.533  34.906  1.00  0.00     0.000 C 
ENDROOT
BRANCH   1   2
ATOM      2  C   UNL     1       2.004  21.270  35.097  1.00  0.00     0.000 C 
BRANCH   2   3
ATOM      3  C   UNL     1       2.534  20.149  34.187  1.00  0.00     0.000 C 
BRANCH   3   4
ATOM      4  C   UNL     1       2.052  18.733  34.554  1.00  0.00    -0.000 C 
BRANCH   4   5
ATOM      5  C   UNL     1       3.137  17.644  34.401  1.00  0.00    -0.000 C 
BRANCH   5   6
ATOM      6  C   UNL     1       4.518  18.120  34.885  1.00  0.00    -0.000 C 
BRANCH   6   7
ATOM      7  C   UNL     1       5.594  18.024  33.792  1.00  0.00    -0.000 C 
BRANCH   7   8
ATOM      8  C   UNL     1       6.173  16.607  33.655  1.00  0.00    -0.000 C 
BRANCH   8   9
ATOM      9  C   UNL     1       6.281  16.202  32.177  1.00  0.00    -0.000 C 
BRANCH   9  10
ATOM     10  C   UNL     1       7.689  15.715  31.790  1.00  0.00    -0.000 C 
BRANCH  10  11
ATOM     11  C   UNL     1       7.735  14.764  30.582  1.00  0.00    -0.003 C 
ATOM     12  C   UNL     1       7.005  13.444  30.831  1.00  0.00     0.004 C 
ENDBRANCH  10  11
ENDBRANCH   9  10
ENDBRANCH   8   9
ENDBRANCH   7   8
ENDBRANCH   6   7
ENDBRANCH   5   6
ENDBRANCH   4   5
ENDBRANCH   3   4
ENDBRANCH   2   3
ENDBRANCH   1   2
BRANCH   1  13
ATOM     13  C   UNL     1       0.270  22.746  33.993  1.00  0.00     0.000 C 
BRANCH  13  14
ATOM     14  C   UNL     1      -0.710  22.451  32.843  1.00  0.00     0.000 C 
BRANCH  14  15
ATOM     15  C   UNL     1      -0.650  21.016  32.283  1.00  0.00     0.000 C 
BRANCH  15  16
ATOM     16  C   UNL     1      -0.365  20.914  30.774  1.00  0.00     0.000 C 
BRANCH  16  17
ATOM     17  C   UNL     1      -1.429  20.098  30.021  1.00  0.00     0.000 C 
BRANCH  17  18
ATOM     18  C   UNL     1      -0.821  18.908  29.258  1.00  0.00     0.000 C 
BRANCH  18  19
ATOM     19  C   UNL     1      -1.881  18.094  28.498  1.00  0.00     0.000 C 
BRANCH  19  20
ATOM     20  C   UNL     1      -3.143  18.914  28.183  1.00  0.00     0.006 C 
BRANCH  20  21
ATOM     21  C   UNL     1      -3.221  19.341  26.712  1.00  0.00     0.053 C 
BRANCH  21  22
ATOM     22  C   UNL     1      -2.564  20.671  26.519  1.00  0.00     0.041 C 
ATOM     23  O   UNL     1      -3.222  21.732  26.683  1.00  0.00    -0.550 OA
ATOM     24  O   UNL     1      -1.238  20.739  26.112  1.00  0.00    -0.550 OA
ENDBRANCH  21  22
ENDBRANCH  20  21
ENDBRANCH  19  20
ENDBRANCH  18  19
ENDBRANCH  17  18
ENDBRANCH  16  17
ENDBRANCH  15  16
ENDBRANCH  14  15
ENDBRANCH  13  14
ENDBRANCH   1  13
TORSDOF 20
ENDMDL
MODEL 5
REMARK VINA RESULT:    -3.669     12.673     16.577
REMARK INTER + INTRA:          -9.903
REMARK INTER:                  -9.197
REMARK INTRA:                  -0.706
REMARK UNBOUND:                -1.945
REMARK SMILES CCCCCCCCCCCCCCCCCCCCCC(=O)[O-]
REMARK SMILES IDX 12 1 11 2 10 3 9 4 8 5 7 6 6 7 5 8 4 9 3 10 2 11 1 12 13 13
REMARK SMILES IDX 14 14 15 15 16 16 17 17 18 18 19 19 20 20 21 21 22 22 23 23
REMARK SMILES IDX 24 24
REMARK H PARENT
REMARK Flexibility Score: inf
ROOT
ATOM      1  C   UNL     1       6.954  11.593  15.413  1.00  0.00     0.000 C 
ENDROOT
BRANCH   1   2
ATOM      2  C   UNL     1       8.231  11.470  16.258  1.00  0.00     0.000 C 
BRANCH   2   3
ATOM      3  C   UNL     1       8.174  12.300  17.551  1.00  0.00     0.000 C 
BRANCH   3   4
ATOM      4  C   UNL     1       9.417  12.182  18.453  1.00  0.00    -0.000 C 
BRANCH   4   5
ATOM      5  C   UNL     1       9.743  13.469  19.241  1.00  0.00    -0.000 C 
BRANCH   5   6
ATOM      6  C   UNL     1       8.478  14.265  19.613  1.00  0.00    -0.000 C 
BRANCH   6   7
ATOM      7  C   UNL     1       8.637  15.049  20.924  1.00  0.00    -0.000 C 
BRANCH   7   8
ATOM      8  C   UNL     1       9.482  14.297  21.965  1.00  0.00    -0.000 C 
BRANCH   8   9
ATOM      9  C   UNL     1       9.570  15.093  23.275  1.00  0.00    -0.000 C 
BRANCH   9  10
ATOM     10  C   UNL     1       8.520  14.657  24.314  1.00  0.00    -0.000 C 
BRANCH  10  11
ATOM     11  C   UNL     1       7.061  14.944  23.918  1.00  0.00    -0.003 C 
ATOM     12  C   UNL     1       6.150  15.182  25.122  1.00  0.00     0.004 C 
ENDBRANCH  10  11
ENDBRANCH   9  10
ENDBRANCH   8   9
ENDBRANCH   7   8
ENDBRANCH   6   7
ENDBRANCH   5   6
ENDBRANCH   4   5
ENDBRANCH   3   4
ENDBRANCH   2   3
ENDBRANCH   1   2
BRANCH   1  13
ATOM     13  C   UNL     1       6.198  10.258  15.364  1.00  0.00     0.000 C 
BRANCH  13  14
ATOM     14  C   UNL     1       4.819  10.324  16.047  1.00  0.00     0.000 C 
BRANCH  14  15
ATOM     15  C   UNL     1       3.730   9.440  15.408  1.00  0.00     0.000 C 
BRANCH  15  16
ATOM     16  C   UNL     1       2.494   9.186  16.291  1.00  0.00     0.000 C 
BRANCH  16  17
ATOM     17  C   UNL     1       1.439   8.305  15.599  1.00  0.00     0.000 C 
BRANCH  17  18
ATOM     18  C   UNL     1       0.083   8.340  16.325  1.00  0.00     0.000 C 
BRANCH  18  19
ATOM     19  C   UNL     1      -0.126   9.643  17.116  1.00  0.00     0.000 C 
BRANCH  19  20
ATOM     20  C   UNL     1      -0.838   9.412  18.458  1.00  0.00     0.006 C 
BRANCH  20  21
ATOM     21  C   UNL     1      -1.598  10.652  18.947  1.00  0.00     0.053 C 
BRANCH  21  22
ATOM     22  C   UNL     1      -2.940  10.264  19.481  1.00  0.00     0.041 C 
ATOM     23  O   UNL     1      -3.982  10.821  19.045  1.00  0.00    -0.550 OA
ATOM     24  O   UNL     1      -3.039   9.318  20.494  1.00  0.00    -0.550 OA
ENDBRANCH  21  22
ENDBRANCH  20  21
ENDBRANCH  19  20
ENDBRANCH  18  19
ENDBRANCH  17  18
ENDBRANCH  16  17
ENDBRANCH  15  16
ENDBRANCH  14  15
ENDBRANCH  13  14
ENDBRANCH   1  13
TORSDOF 20
ENDMDL
MODEL 6
REMARK VINA RESULT:    -3.522      3.510      8.615
REMARK INTER + INTRA:          -9.584
REMARK INTER:                  -7.652
REMARK INTRA:                  -1.932
REMARK UNBOUND:                -1.945
REMARK SMILES CCCCCCCCCCCCCCCCCCCCCC(=O)[O-]
REMARK SMILES IDX 12 1 11 2 10 3 9 4 8 5 7 6 6 7 5 8 4 9 3 10 2 11 1 12 13 13
REMARK SMILES IDX 14 14 15 15 16 16 17 17 18 18 19 19 20 20 21 21 22 22 23 23
REMARK SMILES IDX 24 24
REMARK H PARENT
REMARK Flexibility Score: inf
ROOT
ATOM      1  C   UNL     1       0.389  22.178  32.704  1.00  0.00     0.000 C 
ENDROOT
BRANCH   1   2
ATOM      2  C   UNL     1      -0.869  21.803  31.907  1.00  0.00     0.000 C 
BRANCH   2   3
ATOM      3  C   UNL     1      -0.842  20.351  31.398  1.00  0.00     0.000 C 
BRANCH   3   4
ATOM      4  C   UNL     1      -0.460  20.191  29.915  1.00  0.00    -0.000 C 
BRANCH   4   5
ATOM      5  C   UNL     1      -1.668  20.211  28.953  1.00  0.00    -0.000 C 
BRANCH   5   6
ATOM      6  C   UNL     1      -1.267  20.593  27.517  1.00  0.00    -0.000 C 
BRANCH   6   7
ATOM      7  C   UNL     1      -2.461  20.593  26.549  1.00  0.00    -0.000 C 
BRANCH   7   8
ATOM      8  C   UNL     1      -3.805  20.400  27.269  1.00  0.00    -0.000 C 
BRANCH   8   9
ATOM      9  C   UNL     1      -4.382  19.005  26.984  1.00  0.00    -0.000 C 
BRANCH   9  10
ATOM     10  C   UNL     1      -3.296  17.962  26.663  1.00  0.00    -0.000 C 
BRANCH  10  11
ATOM     11  C   UNL     1      -3.190  16.807  27.674  1.00  0.00    -0.003 C 
ATOM     12  C   UNL     1      -1.954  16.907  28.568  1.00  0.00     0.004 C 
ENDBRANCH  10  11
ENDBRANCH   9  10
ENDBRANCH   8   9
ENDBRANCH   7   8
ENDBRANCH   6   7
ENDBRANCH   5   6
ENDBRANCH   4   5
ENDBRANCH   3   4
ENDBRANCH   2   3
ENDBRANCH   1   2
BRANCH   1  13
ATOM     13  C   UNL     1       0.054  22.404  34.186  1.00  0.00     0.000 C 
BRANCH  13  14
ATOM     14  C   UNL     1       0.819  21.453  35.125  1.00  0.00     0.000 C 
BRANCH  14  15
ATOM     15  C   UNL     1       0.454  19.962  34.985  1.00  0.00     0.000 C 
BRANCH  15  16
ATOM     16  C   UNL     1       1.645  19.019  34.734  1.00  0.00     0.000 C 
BRANCH  16  17
ATOM     17  C   UNL     1       2.014  18.909  33.245  1.00  0.00     0.000 C 
BRANCH  17  18
ATOM     18  C   UNL     1       3.253  19.746  32.886  1.00  0.00     0.000 C 
BRANCH  18  19
ATOM     19  C   UNL     1       4.285  19.785  34.027  1.00  0.00     0.000 C 
BRANCH  19  20
ATOM     20  C   UNL     1       5.052  18.461  34.175  1.00  0.00     0.006 C 
BRANCH  20  21
ATOM     21  C   UNL     1       5.433  17.842  32.825  1.00  0.00     0.053 C 
BRANCH  21  22
ATOM     22  C   UNL     1       6.412  16.727  33.020  1.00  0.00     0.041 C 
ATOM     23  O   UNL     1       7.034  16.613  34.108  1.00  0.00    -0.550 OA
ATOM     24  O   UNL     1       6.671  15.841  31.982  1.00  0.00    -0.550 OA
ENDBRANCH  21  22
ENDBRANCH  20  21
ENDBRANCH  19  20
ENDBRANCH  18  19
ENDBRANCH  17  18
ENDBRANCH  16  17
ENDBRANCH  15  16
ENDBRANCH  14  15
ENDBRANCH  13  14
ENDBRANCH   1  13
TORSDOF 20
ENDMDL
MODEL 7
REMARK VINA RESULT:    -3.488      3.636      8.812
REMARK INTER + INTRA:          -9.511
REMARK INTER:                  -9.275
REMARK INTRA:                  -0.236
REMARK UNBOUND:                -1.945
REMARK SMILES CCCCCCCCCCCCCCCCCCCCCC(=O)[O-]
REMARK SMILES IDX 12 1 11 2 10 3 9 4 8 5 7 6 6 7 5 8 4 9 3 10 2 11 1 12 13 13
REMARK SMILES IDX 14 14 15 15 16 16 17 17 18 18 19 19 20 20 21 21 22 22 23 23
REMARK SMILES IDX 24 24
REMARK H PARENT
REMARK Flexibility Score: inf
ROOT
ATOM      1  C   UNL     1       0.232  21.462  32.067  1.00  0.00     0.000 C 
ENDROOT
BRANCH   1   2
ATOM      2  C   UNL     1      -0.539  20.317  31.395  1.00  0.00     0.000 C 
BRANCH   2   3
ATOM      3  C   UNL     1      -1.087  20.699  30.009  1.00  0.00     0.000 C 
BRANCH   3   4
ATOM      4  C   UNL     1      -1.978  19.632  29.347  1.00  0.00    -0.000 C 
BRANCH   4   5
ATOM      5  C   UNL     1      -1.204  18.390  28.853  1.00  0.00    -0.000 C 
BRANCH   5   6
ATOM      6  C   UNL     1      -2.133  17.201  28.553  1.00  0.00    -0.000 C 
BRANCH   6   7
ATOM      7  C   UNL     1      -3.054  17.458  27.350  1.00  0.00    -0.000 C 
BRANCH   7   8
ATOM      8  C   UNL     1      -3.808  18.793  27.457  1.00  0.00    -0.000 C 
BRANCH   8   9
ATOM      9  C   UNL     1      -3.511  19.687  26.243  1.00  0.00    -0.000 C 
BRANCH   9  10
ATOM     10  C   UNL     1      -2.760  20.977  26.617  1.00  0.00    -0.000 C 
BRANCH  10  11
ATOM     11  C   UNL     1      -1.272  20.996  26.226  1.00  0.00    -0.003 C 
ATOM     12  C   UNL     1      -0.975  21.923  25.048  1.00  0.00     0.004 C 
ENDBRANCH  10  11
ENDBRANCH   9  10
ENDBRANCH   8   9
ENDBRANCH   7   8
ENDBRANCH   6   7
ENDBRANCH   5   6
ENDBRANCH   4   5
ENDBRANCH   3   4
ENDBRANCH   2   3
ENDBRANCH   1   2
BRANCH   1  13
ATOM     13  C   UNL     1      -0.724  22.404  32.815  1.00  0.00     0.000 C 
BRANCH  13  14
ATOM     14  C   UNL     1      -0.115  22.973  34.109  1.00  0.00     0.000 C 
BRANCH  14  15
ATOM     15  C   UNL     1       0.367  21.918  35.125  1.00  0.00     0.000 C 
BRANCH  15  16
ATOM     16  C   UNL     1       1.880  21.636  35.106  1.00  0.00     0.000 C 
BRANCH  16  17
ATOM     17  C   UNL     1       2.206  20.143  34.932  1.00  0.00     0.000 C 
BRANCH  17  18
ATOM     18  C   UNL     1       3.060  19.874  33.681  1.00  0.00     0.000 C 
BRANCH  18  19
ATOM     19  C   UNL     1       4.489  19.423  34.031  1.00  0.00     0.000 C 
BRANCH  19  20
ATOM     20  C   UNL     1       4.609  17.897  34.171  1.00  0.00     0.006 C 
BRANCH  20  21
ATOM     21  C   UNL     1       5.159  17.228  32.905  1.00  0.00     0.053 C 
BRANCH  21  22
ATOM     22  C   UNL     1       6.465  16.558  33.194  1.00  0.00     0.041 C 
ATOM     23  O   UNL     1       7.145  16.064  32.256  1.00  0.00    -0.550 OA
ATOM     24  O   UNL     1       6.909  16.437  34.504  1.00  0.00    -0.550 OA
ENDBRANCH  21  22
ENDBRANCH  20  21
ENDBRANCH  19  20
ENDBRANCH  18  19
ENDBRANCH  17  18
ENDBRANCH  16  17
ENDBRANCH  15  16
ENDBRANCH  14  15
ENDBRANCH  13  14
ENDBRANCH   1  13
TORSDOF 20
ENDMDL
MODEL 8
REMARK VINA RESULT:    -3.404      4.877      9.303
REMARK INTER + INTRA:          -9.329
REMARK INTER:                  -7.745
REMARK INTRA:                  -1.583
REMARK UNBOUND:                -1.945
REMARK SMILES CCCCCCCCCCCCCCCCCCCCCC(=O)[O-]
REMARK SMILES IDX 12 1 11 2 10 3 9 4 8 5 7 6 6 7 5 8 4 9 3 10 2 11 1 12 13 13
REMARK SMILES IDX 14 14 15 15 16 16 17 17 18 18 19 19 20 20 21 21 22 22 23 23
REMARK SMILES IDX 24 24
REMARK H PARENT
REMARK Flexibility Score: inf
ROOT
ATOM      1  C   UNL     1       7.792  13.666  28.741  1.00  0.00     0.000 C 
ENDROOT
BRANCH   1   2
ATOM      2  C   UNL     1       9.183  14.275  28.504  1.00  0.00     0.000 C 
BRANCH   2   3
ATOM      3  C   UNL     1       9.951  13.584  27.365  1.00  0.00     0.000 C 
BRANCH   3   4
ATOM      4  C   UNL     1      11.448  13.935  27.286  1.00  0.00    -0.000 C 
BRANCH   4   5
ATOM      5  C   UNL     1      12.167  13.335  26.058  1.00  0.00    -0.000 C 
BRANCH   5   6
ATOM      6  C   UNL     1      12.578  14.409  25.036  1.00  0.00    -0.000 C 
BRANCH   6   7
ATOM      7  C   UNL     1      11.807  14.292  23.712  1.00  0.00    -0.000 C 
BRANCH   7   8
ATOM      8  C   UNL     1      10.648  15.296  23.611  1.00  0.00    -0.000 C 
BRANCH   8   9
ATOM      9  C   UNL     1       9.306  14.567  23.453  1.00  0.00    -0.000 C 
BRANCH   9  10
ATOM     10  C   UNL     1       8.267  14.986  24.509  1.00  0.00    -0.000 C 
BRANCH  10  11
ATOM     11  C   UNL     1       6.820  14.569  24.195  1.00  0.00    -0.003 C 
ATOM     12  C   UNL     1       5.783  15.361  24.991  1.00  0.00     0.004 C 
ENDBRANCH  10  11
ENDBRANCH   9  10
ENDBRANCH   8   9
ENDBRANCH   7   8
ENDBRANCH   6   7
ENDBRANCH   5   6
ENDBRANCH   4   5
ENDBRANCH   3   4
ENDBRANCH   2   3
ENDBRANCH   1   2
BRANCH   1  13
ATOM     13  C   UNL     1       7.316  13.926  30.177  1.00  0.00     0.000 C 
BRANCH  13  14
ATOM     14  C   UNL     1       8.342  14.709  31.017  1.00  0.00     0.000 C 
BRANCH  14  15
ATOM     15  C   UNL     1       7.870  16.093  31.504  1.00  0.00     0.000 C 
BRANCH  15  16
ATOM     16  C   UNL     1       6.466  16.119  32.136  1.00  0.00     0.000 C 
BRANCH  16  17
ATOM     17  C   UNL     1       6.493  16.481  33.631  1.00  0.00     0.000 C 
BRANCH  17  18
ATOM     18  C   UNL     1       5.255  17.289  34.058  1.00  0.00     0.000 C 
BRANCH  18  19
ATOM     19  C   UNL     1       5.605  18.731  34.460  1.00  0.00     0.000 C 
BRANCH  19  20
ATOM     20  C   UNL     1       4.440  19.708  34.235  1.00  0.00     0.006 C 
BRANCH  20  21
ATOM     21  C   UNL     1       3.778  19.535  32.861  1.00  0.00     0.053 C 
BRANCH  21  22
ATOM     22  C   UNL     1       2.293  19.437  33.006  1.00  0.00     0.041 C 
ATOM     23  O   UNL     1       1.776  18.447  33.588  1.00  0.00    -0.550 OA
ATOM     24  O   UNL     1       1.475  20.416  32.457  1.00  0.00    -0.550 OA
ENDBRANCH  21  22
ENDBRANCH  20  21
ENDBRANCH  19  20
ENDBRANCH  18  19
ENDBRANCH  17  18
ENDBRANCH  16  17
ENDBRANCH  15  16
ENDBRANCH  14  15
ENDBRANCH  13  14
ENDBRANCH   1  13
TORSDOF 20
ENDMDL
MODEL 9
REMARK VINA RESULT:    -3.385      4.849     10.470
REMARK INTER + INTRA:          -9.288
REMARK INTER:                  -8.098
REMARK INTRA:                  -1.190
REMARK UNBOUND:                -1.945
REMARK SMILES CCCCCCCCCCCCCCCCCCCCCC(=O)[O-]
REMARK SMILES IDX 12 1 11 2 10 3 9 4 8 5 7 6 6 7 5 8 4 9 3 10 2 11 1 12 13 13
REMARK SMILES IDX 14 14 15 15 16 16 17 17 18 18 19 19 20 20 21 21 22 22 23 23
REMARK SMILES IDX 24 24
REMARK H PARENT
REMARK Flexibility Score: inf
ROOT
ATOM      1  C   UNL     1       7.892  14.142  29.392  1.00  0.00     0.000 C 
ENDROOT
BRANCH   1   2
ATOM      2  C   UNL     1       7.675  14.257  30.908  1.00  0.00     0.000 C 
BRANCH   2   3
ATOM      3  C   UNL     1       7.727  15.710  31.410  1.00  0.00     0.000 C 
BRANCH   3   4
ATOM      4  C   UNL     1       6.603  16.099  32.388  1.00  0.00    -0.000 C 
BRANCH   4   5
ATOM      5  C   UNL     1       6.656  17.573  32.847  1.00  0.00    -0.000 C 
BRANCH   5   6
ATOM      6  C   UNL     1       5.290  18.272  32.733  1.00  0.00    -0.000 C 
BRANCH   6   7
ATOM      7  C   UNL     1       4.387  18.007  33.947  1.00  0.00    -0.000 C 
BRANCH   7   8
ATOM      8  C   UNL     1       2.986  18.619  33.787  1.00  0.00    -0.000 C 
BRANCH   8   9
ATOM      9  C   UNL     1       3.013  19.794  32.798  1.00  0.00    -0.000 C 
BRANCH   9  10
ATOM     10  C   UNL     1       1.625  20.124  32.220  1.00  0.00    -0.000 C 
BRANCH  10  11
ATOM     11  C   UNL     1       0.679  20.856  33.188  1.00  0.00    -0.003 C 
ATOM     12  C   UNL     1      -0.251  21.844  32.483  1.00  0.00     0.004 C 
ENDBRANCH  10  11
ENDBRANCH   9  10
ENDBRANCH   8   9
ENDBRANCH   7   8
ENDBRANCH   6   7
ENDBRANCH   5   6
ENDBRANCH   4   5
ENDBRANCH   3   4
ENDBRANCH   2   3
ENDBRANCH   1   2
BRANCH   1  13
ATOM     13  C   UNL     1       9.355  14.426  29.023  1.00  0.00     0.000 C 
BRANCH  13  14
ATOM     14  C   UNL     1       9.756  13.835  27.659  1.00  0.00     0.000 C 
BRANCH  14  15
ATOM     15  C   UNL     1      11.266  13.859  27.354  1.00  0.00     0.000 C 
BRANCH  15  16
ATOM     16  C   UNL     1      11.658  13.357  25.952  1.00  0.00     0.000 C 
BRANCH  16  17
ATOM     17  C   UNL     1      12.000  14.502  24.983  1.00  0.00     0.000 C 
BRANCH  17  18
ATOM     18  C   UNL     1      11.286  14.354  23.629  1.00  0.00     0.000 C 
BRANCH  18  19
ATOM     19  C   UNL     1      10.002  15.198  23.547  1.00  0.00     0.000 C 
BRANCH  19  20
ATOM     20  C   UNL     1       8.742  14.393  23.904  1.00  0.00     0.006 C 
BRANCH  20  21
ATOM     21  C   UNL     1       7.866  15.097  24.948  1.00  0.00     0.053 C 
BRANCH  21  22
ATOM     22  C   UNL     1       6.417  14.914  24.622  1.00  0.00     0.041 C 
ATOM     23  O   UNL     1       5.570  15.766  24.997  1.00  0.00    -0.550 OA
ATOM     24  O   UNL     1       5.996  13.778  23.942  1.00  0.00    -0.550 OA
ENDBRANCH  21  22
ENDBRANCH  20  21
ENDBRANCH  19  20
ENDBRANCH  18  19
ENDBRANCH  17  18
ENDBRANCH  16  17
ENDBRANCH  15  16
ENDBRANCH  14  15
ENDBRANCH  13  14
ENDBRANCH   1  13
TORSDOF 20
ENDMDL
