MODEL 1
REMARK VINA RESULT:    -4.337      0.000      0.000
REMARK INTER + INTRA:         -16.014
REMARK INTER:                 -11.436
REMARK INTRA:                  -4.578
REMARK UNBOUND:                -4.578
REMARK SMILES CCCCCCCCCCCCCCCCCCCCCCCCCCCCCC(=O)[O-]
REMARK SMILES IDX 16 1 17 2 18 3 19 4 20 5 21 6 22 7 23 8 24 9 25 10 26 11
REMARK SMILES IDX 27 12 28 13 29 14 30 15 31 16 32 17 15 18 14 19 13 20 12 21
REMARK SMILES IDX 11 22 10 23 9 24 8 25 7 26 6 27 5 28 4 29 3 30 2 31 1 32
REMARK H PARENT
REMARK Flexibility Score: inf
ROOT
ATOM      1  C   UNL     1      -1.936   2.992  -7.684  1.00  0.00     0.000 C 
ENDROOT
BRANCH   1   2
ATOM      2  C   UNL     1      -2.705   3.076  -6.357  1.00  0.00     0.000 C 
BRANCH   2   3
ATOM      3  C   UNL     1      -1.942   2.556  -5.121  1.00  0.00     0.000 C 
BRANCH   3   4
ATOM      4  C   UNL     1      -2.232   3.309  -3.806  1.00  0.00     0.000 C 
BRANCH   4   5
ATOM      5  C   UNL     1      -2.575   2.415  -2.594  1.00  0.00     0.000 C 
BRANCH   5   6
ATOM      6  C   UNL     1      -3.982   2.633  -2.011  1.00  0.00     0.000 C 
BRANCH   6   7
ATOM      7  C   UNL     1      -4.941   3.310  -3.005  1.00  0.00     0.000 C 
BRANCH   7   8
ATOM      8  C   UNL     1      -6.232   2.502  -3.212  1.00  0.00     0.000 C 
BRANCH   8   9
ATOM      9  C   UNL     1      -5.950   1.012  -3.480  1.00  0.00     0.000 C 
BRANCH   9  10
ATOM     10  C   UNL     1      -5.280   0.767  -4.849  1.00  0.00     0.000 C 
BRANCH  10  11
ATOM     11  C   UNL     1      -4.445  -0.523  -4.913  1.00  0.00     0.000 C 
BRANCH  11  12
ATOM     12  C   UNL     1      -3.683  -0.817  -3.610  1.00  0.00     0.000 C 
BRANCH  12  13
ATOM     13  C   UNL     1      -3.916  -2.248  -3.092  1.00  0.00     0.006 C 
BRANCH  13  14
ATOM     14  C   UNL     1      -4.292  -3.257  -4.191  1.00  0.00     0.053 C 
BRANCH  14  15
ATOM     15  C   UNL     1      -3.138  -4.113  -4.616  1.00  0.00     0.041 C 
ATOM     16  O   UNL     1      -1.954  -3.737  -4.403  1.00  0.00    -0.550 OA
ATOM     17  O   UNL     1      -3.369  -5.303  -5.298  1.00  0.00    -0.550 OA
ENDBRANCH  14  15
ENDBRANCH  13  14
ENDBRANCH  12  13
ENDBRANCH  11  12
ENDBRANCH  10  11
ENDBRANCH   9  10
ENDBRANCH   8   9
ENDBRANCH   7   8
ENDBRANCH   6   7
ENDBRANCH   5   6
ENDBRANCH   4   5
ENDBRANCH   3   4
ENDBRANCH   2   3
ENDBRANCH   1   2
BRANCH   1  18
ATOM     18  C   UNL     1      -1.123   4.259  -7.987  1.00  0.00     0.000 C 
BRANCH  18  19
ATOM     19  C   UNL     1       0.388   4.085  -7.713  1.00  0.00     0.000 C 
BRANCH  19  20
ATOM     20  C   UNL     1       0.940   5.002  -6.605  1.00  0.00     0.000 C 
BRANCH  20  21
ATOM     21  C   UNL     1      -0.114   5.835  -5.853  1.00  0.00     0.000 C 
BRANCH  21  22
ATOM     22  C   UNL     1       0.130   5.934  -4.330  1.00  0.00     0.000 C 
BRANCH  22  23
ATOM     23  C   UNL     1       1.400   5.189  -3.892  1.00  0.00     0.000 C 
BRANCH  23  24
ATOM     24  C   UNL     1       1.065   4.006  -2.973  1.00  0.00    -0.000 C 
BRANCH  24  25
ATOM     25  C   UNL     1       1.471   2.646  -3.574  1.00  0.00    -0.000 C 
BRANCH  25  26
ATOM     26  C   UNL     1       2.907   2.187  -3.249  1.00  0.00    -0.000 C 
BRANCH  26  27
ATOM     27  C   UNL     1       3.712   1.807  -4.500  1.00  0.00    -0.000 C 
BRANCH  27  28
ATOM     28  C   UNL     1       3.595   2.886  -5.590  1.00  0.00    -0.000 C 
BRANCH  28  29
ATOM     29  C   UNL     1       4.488   2.603  -6.810  1.00  0.00    -0.000 C 
BRANCH  29  30
ATOM     30  C   UNL     1       4.299   1.215  -7.448  1.00  0.00    -0.000 C 
BRANCH  30  31
ATOM     31  C   UNL     1       4.576   1.202  -8.958  1.00  0.00    -0.003 C 
ATOM     32  C   UNL     1       5.581   2.285  -9.342  1.00  0.00     0.004 C 
ENDBRANCH  30  31
ENDBRANCH  29  30
ENDBRANCH  28  29
ENDBRANCH  27  28
ENDBRANCH  26  27
ENDBRANCH  25  26
ENDBRANCH  24  25
ENDBRANCH  23  24
ENDBRANCH  22  23
ENDBRANCH  21  22
ENDBRANCH  20  21
ENDBRANCH  19  20
ENDBRANCH  18  19
ENDBRANCH   1  18
TORSDOF 28
ENDMDL
MODEL 2
REMARK VINA RESULT:    -4.254      1.817      3.852
REMARK INTER + INTRA:         -15.794
REMARK INTER:                 -11.361
REMARK INTRA:                  -4.433
REMARK UNBOUND:                -4.578
REMARK SMILES CCCCCCCCCCCCCCCCCCCCCCCCCCCCCC(=O)[O-]
REMARK SMILES IDX 16 1 17 2 18 3 19 4 20 5 21 6 22 7 23 8 24 9 25 10 26 11
REMARK SMILES IDX 27 12 28 13 29 14 30 15 31 16 32 17 15 18 14 19 13 20 12 21
REMARK SMILES IDX 11 22 10 23 9 24 8 25 7 26 6 27 5 28 4 29 3 30 2 31 1 32
REMARK H PARENT
REMARK Flexibility Score: inf
ROOT
ATOM      1  C   UNL     1       0.358   3.190  -3.062  1.00  0.00     0.000 C 
ENDROOT
BRANCH   1   2
ATOM      2  C   UNL     1      -0.432   4.211  -3.896  1.00  0.00     0.000 C 
BRANCH   2   3
ATOM      3  C   UNL     1       0.037   4.367  -5.358  1.00  0.00     0.000 C 
BRANCH   3   4
ATOM      4  C   UNL     1      -0.757   3.542  -6.392  1.00  0.00     0.000 C 
BRANCH   4   5
ATOM      5  C   UNL     1      -1.893   2.672  -5.812  1.00  0.00     0.000 C 
BRANCH   5   6
ATOM      6  C   UNL     1      -3.159   2.602  -6.685  1.00  0.00     0.000 C 
BRANCH   6   7
ATOM      7  C   UNL     1      -4.269   3.551  -6.203  1.00  0.00     0.000 C 
BRANCH   7   8
ATOM      8  C   UNL     1      -3.935   4.195  -4.847  1.00  0.00     0.000 C 
BRANCH   8   9
ATOM      9  C   UNL     1      -5.088   4.054  -3.836  1.00  0.00     0.000 C 
BRANCH   9  10
ATOM     10  C   UNL     1      -4.894   2.864  -2.872  1.00  0.00     0.000 C 
BRANCH  10  11
ATOM     11  C   UNL     1      -3.421   2.554  -2.551  1.00  0.00     0.000 C 
BRANCH  11  12
ATOM     12  C   UNL     1      -2.988   1.148  -2.997  1.00  0.00     0.000 C 
BRANCH  12  13
ATOM     13  C   UNL     1      -4.167   0.287  -3.486  1.00  0.00     0.006 C 
BRANCH  13  14
ATOM     14  C   UNL     1      -3.911  -1.228  -3.401  1.00  0.00     0.053 C 
BRANCH  14  15
ATOM     15  C   UNL     1      -4.149  -1.933  -4.703  1.00  0.00     0.041 C 
ATOM     16  O   UNL     1      -3.718  -3.103  -4.880  1.00  0.00    -0.550 OA
ATOM     17  O   UNL     1      -4.801  -1.274  -5.740  1.00  0.00    -0.550 OA
ENDBRANCH  14  15
ENDBRANCH  13  14
ENDBRANCH  12  13
ENDBRANCH  11  12
ENDBRANCH  10  11
ENDBRANCH   9  10
ENDBRANCH   8   9
ENDBRANCH   7   8
ENDBRANCH   6   7
ENDBRANCH   5   6
ENDBRANCH   4   5
ENDBRANCH   3   4
ENDBRANCH   2   3
ENDBRANCH   1   2
BRANCH   1  18
ATOM     18  C   UNL     1       1.873   3.261  -3.305  1.00  0.00     0.000 C 
BRANCH  18  19
ATOM     19  C   UNL     1       2.529   1.866  -3.420  1.00  0.00     0.000 C 
BRANCH  19  20
ATOM     20  C   UNL     1       4.028   1.899  -3.776  1.00  0.00     0.000 C 
BRANCH  20  21
ATOM     21  C   UNL     1       4.959   2.415  -2.663  1.00  0.00     0.000 C 
BRANCH  21  22
ATOM     22  C   UNL     1       5.718   3.711  -3.027  1.00  0.00     0.000 C 
BRANCH  22  23
ATOM     23  C   UNL     1       5.531   4.104  -4.500  1.00  0.00     0.000 C 
BRANCH  23  24
ATOM     24  C   UNL     1       4.899   5.497  -4.630  1.00  0.00    -0.000 C 
BRANCH  24  25
ATOM     25  C   UNL     1       3.610   5.494  -5.476  1.00  0.00    -0.000 C 
BRANCH  25  26
ATOM     26  C   UNL     1       3.746   4.869  -6.879  1.00  0.00    -0.000 C 
BRANCH  26  27
ATOM     27  C   UNL     1       2.991   3.540  -7.019  1.00  0.00    -0.000 C 
BRANCH  27  28
ATOM     28  C   UNL     1       3.533   2.709  -8.195  1.00  0.00    -0.000 C 
BRANCH  28  29
ATOM     29  C   UNL     1       4.694   1.785  -7.789  1.00  0.00    -0.000 C 
BRANCH  29  30
ATOM     30  C   UNL     1       5.953   1.896  -8.668  1.00  0.00    -0.000 C 
BRANCH  30  31
ATOM     31  C   UNL     1       6.629   3.272  -8.583  1.00  0.00    -0.003 C 
ATOM     32  C   UNL     1       7.658   3.449  -9.697  1.00  0.00     0.004 C 
ENDBRANCH  30  31
ENDBRANCH  29  30
ENDBRANCH  28  29
ENDBRANCH  27  28
ENDBRANCH  26  27
ENDBRANCH  25  26
ENDBRANCH  24  25
ENDBRANCH  23  24
ENDBRANCH  22  23
ENDBRANCH  21  22
ENDBRANCH  20  21
ENDBRANCH  19  20
ENDBRANCH  18  19
ENDBRANCH   1  18
TORSDOF 28
ENDMDL
MODEL 3
REMARK VINA RESULT:    -4.200      2.577      8.344
REMARK INTER + INTRA:         -15.653
REMARK INTER:                 -10.433
REMARK INTRA:                  -5.220
REMARK UNBOUND:                -4.578
REMARK SMILES CCCCCCCCCCCCCCCCCCCCCCCCCCCCCC(=O)[O-]
REMARK SMILES IDX 16 1 17 2 18 3 19 4 20 5 21 6 22 7 23 8 24 9 25 10 26 11
REMARK SMILES IDX 27 12 28 13 29 14 30 15 31 16 32 17 15 18 14 19 13 20 12 21
REMARK SMILES IDX 11 22 10 23 9 24 8 25 7 26 6 27 5 28 4 29 3 30 2 31 1 32
REMARK H PARENT
REMARK Flexibility Score: inf
ROOT
ATOM      1  C   UNL     1       1.837   6.043  -3.532  1.00  0.00     0.000 C 
ENDROOT
BRANCH   1   2
ATOM      2  C   UNL     1       0.582   5.156  -3.512  1.00  0.00     0.000 C 
BRANCH   2   3
ATOM      3  C   UNL     1       0.774   3.762  -2.879  1.00  0.00     0.000 C 
BRANCH   3   4
ATOM      4  C   UNL     1       1.414   2.705  -3.803  1.00  0.00     0.000 C 
BRANCH   4   5
ATOM      5  C   UNL     1       2.584   1.909  -3.186  1.00  0.00     0.000 C 
BRANCH   5   6
ATOM      6  C   UNL     1       3.752   1.631  -4.149  1.00  0.00     0.000 C 
BRANCH   6   7
ATOM      7  C   UNL     1       4.004   2.789  -5.130  1.00  0.00     0.000 C 
BRANCH   7   8
ATOM      8  C   UNL     1       4.946   3.853  -4.544  1.00  0.00     0.000 C 
BRANCH   8   9
ATOM      9  C   UNL     1       5.183   5.021  -5.519  1.00  0.00     0.000 C 
BRANCH   9  10
ATOM     10  C   UNL     1       6.491   4.870  -6.325  1.00  0.00     0.000 C 
BRANCH  10  11
ATOM     11  C   UNL     1       6.322   5.099  -7.837  1.00  0.00     0.000 C 
BRANCH  11  12
ATOM     12  C   UNL     1       5.139   4.324  -8.438  1.00  0.00     0.000 C 
BRANCH  12  13
ATOM     13  C   UNL     1       5.585   3.151  -9.330  1.00  0.00     0.006 C 
BRANCH  13  14
ATOM     14  C   UNL     1       5.669   1.803  -8.594  1.00  0.00     0.053 C 
BRANCH  14  15
ATOM     15  C   UNL     1       4.421   0.985  -8.730  1.00  0.00     0.041 C 
ATOM     16  O   UNL     1       4.192   0.035  -7.934  1.00  0.00    -0.550 OA
ATOM     17  O   UNL     1       3.536   1.237  -9.773  1.00  0.00    -0.550 OA
ENDBRANCH  14  15
ENDBRANCH  13  14
ENDBRANCH  12  13
ENDBRANCH  11  12
ENDBRANCH  10  11
ENDBRANCH   9  10
ENDBRANCH   8   9
ENDBRANCH   7   8
ENDBRANCH   6   7
ENDBRANCH   5   6
ENDBRANCH   4   5
ENDBRANCH   3   4
ENDBRANCH   2   3
ENDBRANCH   1   2
BRANCH   1  18
ATOM     18  C   UNL     1       2.088   6.697  -4.899  1.00  0.00     0.000 C 
BRANCH  18  19
ATOM     19  C   UNL     1       1.105   6.209  -5.988  1.00  0.00     0.000 C 
BRANCH  19  20
ATOM     20  C   UNL     1       1.741   5.287  -7.047  1.00  0.00     0.000 C 
BRANCH  20  21
ATOM     21  C   UNL     1       1.167   3.860  -7.109  1.00  0.00     0.000 C 
BRANCH  21  22
ATOM     22  C   UNL     1      -0.320   3.796  -7.526  1.00  0.00     0.000 C 
BRANCH  22  23
ATOM     23  C   UNL     1      -1.239   3.417  -6.356  1.00  0.00     0.000 C 
BRANCH  23  24
ATOM     24  C   UNL     1      -2.240   4.539  -6.046  1.00  0.00    -0.000 C 
BRANCH  24  25
ATOM     25  C   UNL     1      -2.695   4.548  -4.573  1.00  0.00    -0.000 C 
BRANCH  25  26
ATOM     26  C   UNL     1      -4.147   4.086  -4.332  1.00  0.00    -0.000 C 
BRANCH  26  27
ATOM     27  C   UNL     1      -4.271   3.071  -3.187  1.00  0.00    -0.000 C 
BRANCH  27  28
ATOM     28  C   UNL     1      -2.895   2.726  -2.594  1.00  0.00    -0.000 C 
BRANCH  28  29
ATOM     29  C   UNL     1      -2.416   1.314  -2.975  1.00  0.00    -0.000 C 
BRANCH  29  30
ATOM     30  C   UNL     1      -3.333   0.557  -3.952  1.00  0.00    -0.000 C 
BRANCH  30  31
ATOM     31  C   UNL     1      -4.052  -0.635  -3.304  1.00  0.00    -0.003 C 
ATOM     32  C   UNL     1      -3.903  -1.895  -4.153  1.00  0.00     0.004 C 
ENDBRANCH  30  31
ENDBRANCH  29  30
ENDBRANCH  28  29
ENDBRANCH  27  28
ENDBRANCH  26  27
ENDBRANCH  25  26
ENDBRANCH  24  25
ENDBRANCH  23  24
ENDBRANCH  22  23
ENDBRANCH  21  22
ENDBRANCH  20  21
ENDBRANCH  19  20
ENDBRANCH  18  19
ENDBRANCH   1  18
TORSDOF 28
ENDMDL
MODEL 4
REMARK VINA RESULT:    -4.181      1.564      3.053
REMARK INTER + INTRA:         -15.602
REMARK INTER:                 -12.194
REMARK INTRA:                  -3.408
REMARK UNBOUND:                -4.578
REMARK SMILES CCCCCCCCCCCCCCCCCCCCCCCCCCCCCC(=O)[O-]
REMARK SMILES IDX 16 1 17 2 18 3 19 4 20 5 21 6 22 7 23 8 24 9 25 10 26 11
REMARK SMILES IDX 27 12 28 13 29 14 30 15 31 16 32 17 15 18 14 19 13 20 12 21
REMARK SMILES IDX 11 22 10 23 9 24 8 25 7 26 6 27 5 28 4 29 3 30 2 31 1 32
REMARK H PARENT
REMARK Flexibility Score: inf
ROOT
ATOM      1  C   UNL     1      -0.518   3.373  -5.383  1.00  0.00     0.000 C 
ENDROOT
BRANCH   1   2
ATOM      2  C   UNL     1      -1.884   3.442  -6.083  1.00  0.00     0.000 C 
BRANCH   2   3
ATOM      3  C   UNL     1      -2.507   4.851  -6.172  1.00  0.00     0.000 C 
BRANCH   3   4
ATOM      4  C   UNL     1      -3.795   5.051  -5.347  1.00  0.00     0.000 C 
BRANCH   4   5
ATOM      5  C   UNL     1      -4.536   3.755  -4.954  1.00  0.00     0.000 C 
BRANCH   5   6
ATOM      6  C   UNL     1      -5.320   3.837  -3.631  1.00  0.00     0.000 C 
BRANCH   6   7
ATOM      7  C   UNL     1      -4.842   2.811  -2.590  1.00  0.00     0.000 C 
BRANCH   7   8
ATOM      8  C   UNL     1      -3.313   2.659  -2.582  1.00  0.00     0.000 C 
BRANCH   8   9
ATOM      9  C   UNL     1      -2.864   1.257  -3.033  1.00  0.00     0.000 C 
BRANCH   9  10
ATOM     10  C   UNL     1      -4.048   0.347  -3.422  1.00  0.00     0.000 C 
BRANCH  10  11
ATOM     11  C   UNL     1      -3.661  -1.129  -3.620  1.00  0.00     0.000 C 
BRANCH  11  12
ATOM     12  C   UNL     1      -4.477  -1.826  -4.721  1.00  0.00     0.000 C 
BRANCH  12  13
ATOM     13  C   UNL     1      -3.823  -3.130  -5.213  1.00  0.00     0.006 C 
BRANCH  13  14
ATOM     14  C   UNL     1      -2.744  -3.684  -4.267  1.00  0.00     0.053 C 
BRANCH  14  15
ATOM     15  C   UNL     1      -1.888  -4.733  -4.910  1.00  0.00     0.041 C 
ATOM     16  O   UNL     1      -0.974  -4.405  -5.713  1.00  0.00    -0.550 OA
ATOM     17  O   UNL     1      -2.137  -6.079  -4.663  1.00  0.00    -0.550 OA
ENDBRANCH  14  15
ENDBRANCH  13  14
ENDBRANCH  12  13
ENDBRANCH  11  12
ENDBRANCH  10  11
ENDBRANCH   9  10
ENDBRANCH   8   9
ENDBRANCH   7   8
ENDBRANCH   6   7
ENDBRANCH   5   6
ENDBRANCH   4   5
ENDBRANCH   3   4
ENDBRANCH   2   3
ENDBRANCH   1   2
BRANCH   1  18
ATOM     18  C   UNL     1      -0.542   3.956  -3.962  1.00  0.00     0.000 C 
BRANCH  18  19
ATOM     19  C   UNL     1       0.544   3.350  -3.045  1.00  0.00     0.000 C 
BRANCH  19  20
ATOM     20  C   UNL     1       1.855   2.990  -3.769  1.00  0.00     0.000 C 
BRANCH  20  21
ATOM     21  C   UNL     1       2.688   1.875  -3.111  1.00  0.00     0.000 C 
BRANCH  21  22
ATOM     22  C   UNL     1       4.134   1.769  -3.647  1.00  0.00     0.000 C 
BRANCH  22  23
ATOM     23  C   UNL     1       5.174   2.234  -2.617  1.00  0.00     0.000 C 
BRANCH  23  24
ATOM     24  C   UNL     1       5.552   3.706  -2.830  1.00  0.00    -0.000 C 
BRANCH  24  25
ATOM     25  C   UNL     1       5.480   4.136  -4.308  1.00  0.00    -0.000 C 
BRANCH  25  26
ATOM     26  C   UNL     1       4.537   5.322  -4.602  1.00  0.00    -0.000 C 
BRANCH  26  27
ATOM     27  C   UNL     1       3.765   5.162  -5.919  1.00  0.00    -0.000 C 
BRANCH  27  28
ATOM     28  C   UNL     1       4.485   4.197  -6.876  1.00  0.00    -0.000 C 
BRANCH  28  29
ATOM     29  C   UNL     1       3.600   3.017  -7.314  1.00  0.00    -0.000 C 
BRANCH  29  30
ATOM     30  C   UNL     1       4.269   1.634  -7.229  1.00  0.00    -0.000 C 
BRANCH  30  31
ATOM     31  C   UNL     1       4.448   0.965  -8.599  1.00  0.00    -0.003 C 
ATOM     32  C   UNL     1       5.100   1.919  -9.596  1.00  0.00     0.004 C 
ENDBRANCH  30  31
ENDBRANCH  29  30
ENDBRANCH  28  29
ENDBRANCH  27  28
ENDBRANCH  26  27
ENDBRANCH  25  26
ENDBRANCH  24  25
ENDBRANCH  23  24
ENDBRANCH  22  23
ENDBRANCH  21  22
ENDBRANCH  20  21
ENDBRANCH  19  20
ENDBRANCH  18  19
ENDBRANCH   1  18
TORSDOF 28
ENDMDL
MODEL 5
REMARK VINA RESULT:    -4.122      2.849      8.412
REMARK INTER + INTRA:         -15.447
REMARK INTER:                 -10.431
REMARK INTRA:                  -5.016
REMARK UNBOUND:                -4.578
REMARK SMILES CCCCCCCCCCCCCCCCCCCCCCCCCCCCCC(=O)[O-]
REMARK SMILES IDX 16 1 17 2 18 3 19 4 20 5 21 6 22 7 23 8 24 9 25 10 26 11
REMARK SMILES IDX 27 12 28 13 29 14 30 15 31 16 32 17 15 18 14 19 13 20 12 21
REMARK SMILES IDX 11 22 10 23 9 24 8 25 7 26 6 27 5 28 4 29 3 30 2 31 1 32
REMARK H PARENT
REMARK Flexibility Score: inf
ROOT
ATOM      1  C   UNL     1       0.725   3.458  -3.118  1.00  0.00     0.000 C 
ENDROOT
BRANCH   1   2
ATOM      2  C   UNL     1       1.839   2.742  -3.897  1.00  0.00     0.000 C 
BRANCH   2   3
ATOM      3  C   UNL     1       2.756   1.836  -3.049  1.00  0.00     0.000 C 
BRANCH   3   4
ATOM      4  C   UNL     1       4.235   1.808  -3.486  1.00  0.00     0.000 C 
BRANCH   4   5
ATOM      5  C   UNL     1       4.887   3.191  -3.701  1.00  0.00     0.000 C 
BRANCH   5   6
ATOM      6  C   UNL     1       5.009   4.050  -2.429  1.00  0.00     0.000 C 
BRANCH   6   7
ATOM      7  C   UNL     1       4.095   5.286  -2.454  1.00  0.00     0.000 C 
BRANCH   7   8
ATOM      8  C   UNL     1       4.254   6.101  -3.747  1.00  0.00     0.000 C 
BRANCH   8   9
ATOM      9  C   UNL     1       2.929   6.232  -4.521  1.00  0.00     0.000 C 
BRANCH   9  10
ATOM     10  C   UNL     1       2.963   5.520  -5.889  1.00  0.00     0.000 C 
BRANCH  10  11
ATOM     11  C   UNL     1       4.313   5.636  -6.620  1.00  0.00     0.000 C 
BRANCH  11  12
ATOM     12  C   UNL     1       4.738   4.333  -7.316  1.00  0.00     0.000 C 
BRANCH  12  13
ATOM     13  C   UNL     1       3.682   3.220  -7.196  1.00  0.00     0.006 C 
BRANCH  13  14
ATOM     14  C   UNL     1       4.271   1.798  -7.179  1.00  0.00     0.053 C 
BRANCH  14  15
ATOM     15  C   UNL     1       4.280   1.154  -8.532  1.00  0.00     0.041 C 
ATOM     16  O   UNL     1       4.791   0.014  -8.690  1.00  0.00    -0.550 OA
ATOM     17  O   UNL     1       3.771   1.839  -9.630  1.00  0.00    -0.550 OA
ENDBRANCH  14  15
ENDBRANCH  13  14
ENDBRANCH  12  13
ENDBRANCH  11  12
ENDBRANCH  10  11
ENDBRANCH   9  10
ENDBRANCH   8   9
ENDBRANCH   7   8
ENDBRANCH   6   7
ENDBRANCH   5   6
ENDBRANCH   4   5
ENDBRANCH   3   4
ENDBRANCH   2   3
ENDBRANCH   1   2
BRANCH   1  18
ATOM     18  C   UNL     1      -0.680   2.956  -3.482  1.00  0.00     0.000 C 
BRANCH  18  19
ATOM     19  C   UNL     1      -1.532   2.600  -2.242  1.00  0.00     0.000 C 
BRANCH  19  20
ATOM     20  C   UNL     1      -2.935   2.058  -2.574  1.00  0.00     0.000 C 
BRANCH  20  21
ATOM     21  C   UNL     1      -2.980   0.956  -3.649  1.00  0.00     0.000 C 
BRANCH  21  22
ATOM     22  C   UNL     1      -3.842  -0.267  -3.262  1.00  0.00     0.000 C 
BRANCH  22  23
ATOM     23  C   UNL     1      -4.940  -0.559  -4.295  1.00  0.00     0.000 C 
BRANCH  23  24
ATOM     24  C   UNL     1      -5.511   0.737  -4.884  1.00  0.00    -0.000 C 
BRANCH  24  25
ATOM     25  C   UNL     1      -6.464   1.467  -3.916  1.00  0.00    -0.000 C 
BRANCH  25  26
ATOM     26  C   UNL     1      -6.175   2.969  -3.718  1.00  0.00    -0.000 C 
BRANCH  26  27
ATOM     27  C   UNL     1      -5.593   3.639  -4.970  1.00  0.00    -0.000 C 
BRANCH  27  28
ATOM     28  C   UNL     1      -4.428   4.578  -4.612  1.00  0.00    -0.000 C 
BRANCH  28  29
ATOM     29  C   UNL     1      -3.251   4.472  -5.598  1.00  0.00    -0.000 C 
BRANCH  29  30
ATOM     30  C   UNL     1      -3.198   3.168  -6.413  1.00  0.00    -0.000 C 
BRANCH  30  31
ATOM     31  C   UNL     1      -1.885   2.995  -7.190  1.00  0.00    -0.003 C 
ATOM     32  C   UNL     1      -0.846   4.023  -6.751  1.00  0.00     0.004 C 
ENDBRANCH  30  31
ENDBRANCH  29  30
ENDBRANCH  28  29
ENDBRANCH  27  28
ENDBRANCH  26  27
ENDBRANCH  25  26
ENDBRANCH  24  25
ENDBRANCH  23  24
ENDBRANCH  22  23
ENDBRANCH  21  22
ENDBRANCH  20  21
ENDBRANCH  19  20
ENDBRANCH  18  19
ENDBRANCH   1  18
TORSDOF 28
ENDMDL
MODEL 6
REMARK VINA RESULT:    -4.117      3.246      8.498
REMARK INTER + INTRA:         -15.434
REMARK INTER:                 -10.144
REMARK INTRA:                  -5.290
REMARK UNBOUND:                -4.578
REMARK SMILES CCCCCCCCCCCCCCCCCCCCCCCCCCCCCC(=O)[O-]
REMARK SMILES IDX 16 1 17 2 18 3 19 4 20 5 21 6 22 7 23 8 24 9 25 10 26 11
REMARK SMILES IDX 27 12 28 13 29 14 30 15 31 16 32 17 15 18 14 19 13 20 12 21
REMARK SMILES IDX 11 22 10 23 9 24 8 25 7 26 6 27 5 28 4 29 3 30 2 31 1 32
REMARK H PARENT
REMARK Flexibility Score: inf
ROOT
ATOM      1  C   UNL     1       0.247   3.902  -3.789  1.00  0.00     0.000 C 
ENDROOT
BRANCH   1   2
ATOM      2  C   UNL     1      -0.021   3.449  -5.232  1.00  0.00     0.000 C 
BRANCH   2   3
ATOM      3  C   UNL     1       0.721   4.253  -6.321  1.00  0.00     0.000 C 
BRANCH   3   4
ATOM      4  C   UNL     1       0.445   3.802  -7.771  1.00  0.00     0.000 C 
BRANCH   4   5
ATOM      5  C   UNL     1       1.509   4.224  -8.807  1.00  0.00     0.000 C 
BRANCH   5   6
ATOM      6  C   UNL     1       2.041   3.077  -9.686  1.00  0.00     0.000 C 
BRANCH   6   7
ATOM      7  C   UNL     1       3.504   2.718  -9.374  1.00  0.00     0.000 C 
BRANCH   7   8
ATOM      8  C   UNL     1       4.308   3.931  -8.880  1.00  0.00     0.000 C 
BRANCH   8   9
ATOM      9  C   UNL     1       4.939   3.688  -7.497  1.00  0.00     0.000 C 
BRANCH   9  10
ATOM     10  C   UNL     1       4.398   2.417  -6.809  1.00  0.00     0.000 C 
BRANCH  10  11
ATOM     11  C   UNL     1       3.619   2.694  -5.511  1.00  0.00     0.000 C 
BRANCH  11  12
ATOM     12  C   UNL     1       3.710   1.545  -4.494  1.00  0.00     0.000 C 
BRANCH  12  13
ATOM     13  C   UNL     1       3.280   1.967  -3.077  1.00  0.00     0.006 C 
BRANCH  13  14
ATOM     14  C   UNL     1       3.769   3.367  -2.666  1.00  0.00     0.053 C 
BRANCH  14  15
ATOM     15  C   UNL     1       5.044   3.332  -1.880  1.00  0.00     0.041 C 
ATOM     16  O   UNL     1       5.640   2.239  -1.682  1.00  0.00    -0.550 OA
ATOM     17  O   UNL     1       5.546   4.501  -1.318  1.00  0.00    -0.550 OA
ENDBRANCH  14  15
ENDBRANCH  13  14
ENDBRANCH  12  13
ENDBRANCH  11  12
ENDBRANCH  10  11
ENDBRANCH   9  10
ENDBRANCH   8   9
ENDBRANCH   7   8
ENDBRANCH   6   7
ENDBRANCH   5   6
ENDBRANCH   4   5
ENDBRANCH   3   4
ENDBRANCH   2   3
ENDBRANCH   1   2
BRANCH   1  18
ATOM     18  C   UNL     1      -0.443   3.013  -2.744  1.00  0.00     0.000 C 
BRANCH  18  19
ATOM     19  C   UNL     1      -1.661   2.250  -3.313  1.00  0.00     0.000 C 
BRANCH  19  20
ATOM     20  C   UNL     1      -2.974   2.491  -2.542  1.00  0.00     0.000 C 
BRANCH  20  21
ATOM     21  C   UNL     1      -4.223   1.819  -3.141  1.00  0.00     0.000 C 
BRANCH  21  22
ATOM     22  C   UNL     1      -4.093   0.289  -3.316  1.00  0.00     0.000 C 
BRANCH  22  23
ATOM     23  C   UNL     1      -4.242  -0.148  -4.780  1.00  0.00     0.000 C 
BRANCH  23  24
ATOM     24  C   UNL     1      -5.032   0.886  -5.593  1.00  0.00    -0.000 C 
BRANCH  24  25
ATOM     25  C   UNL     1      -4.323   1.293  -6.900  1.00  0.00    -0.000 C 
BRANCH  25  26
ATOM     26  C   UNL     1      -3.132   2.258  -6.727  1.00  0.00    -0.000 C 
BRANCH  26  27
ATOM     27  C   UNL     1      -3.157   3.426  -7.723  1.00  0.00    -0.000 C 
BRANCH  27  28
ATOM     28  C   UNL     1      -3.906   4.639  -7.144  1.00  0.00    -0.000 C 
BRANCH  28  29
ATOM     29  C   UNL     1      -4.050   4.578  -5.614  1.00  0.00    -0.000 C 
BRANCH  29  30
ATOM     30  C   UNL     1      -3.047   5.443  -4.830  1.00  0.00    -0.000 C 
BRANCH  30  31
ATOM     31  C   UNL     1      -2.247   6.400  -5.726  1.00  0.00    -0.003 C 
ATOM     32  C   UNL     1      -1.448   7.397  -4.891  1.00  0.00     0.004 C 
ENDBRANCH  30  31
ENDBRANCH  29  30
ENDBRANCH  28  29
ENDBRANCH  27  28
ENDBRANCH  26  27
ENDBRANCH  25  26
ENDBRANCH  24  25
ENDBRANCH  23  24
ENDBRANCH  22  23
ENDBRANCH  21  22
ENDBRANCH  20  21
ENDBRANCH  19  20
ENDBRANCH  18  19
ENDBRANCH   1  18
TORSDOF 28
ENDMDL
MODEL 7
REMARK VINA RESULT:    -4.101      3.355      9.046
REMARK INTER + INTRA:         -15.391
REMARK INTER:                 -10.125
REMARK INTRA:                  -5.266
REMARK UNBOUND:                -4.578
REMARK SMILES CCCCCCCCCCCCCCCCCCCCCCCCCCCCCC(=O)[O-]
REMARK SMILES IDX 16 1 17 2 18 3 19 4 20 5 21 6 22 7 23 8 24 9 25 10 26 11
REMARK SMILES IDX 27 12 28 13 29 14 30 15 31 16 32 17 15 18 14 19 13 20 12 21
REMARK SMILES IDX 11 22 10 23 9 24 8 25 7 26 6 27 5 28 4 29 3 30 2 31 1 32
REMARK H PARENT
REMARK Flexibility Score: inf
ROOT
ATOM      1  C   UNL     1       0.410   3.354  -3.046  1.00  0.00     0.000 C 
ENDROOT
BRANCH   1   2
ATOM      2  C   UNL     1       1.940   3.288  -3.172  1.00  0.00     0.000 C 
BRANCH   2   3
ATOM      3  C   UNL     1       2.550   1.877  -3.034  1.00  0.00     0.000 C 
BRANCH   3   4
ATOM      4  C   UNL     1       3.763   1.595  -3.946  1.00  0.00     0.000 C 
BRANCH   4   5
ATOM      5  C   UNL     1       4.121   2.724  -4.937  1.00  0.00     0.000 C 
BRANCH   5   6
ATOM      6  C   UNL     1       3.917   2.368  -6.420  1.00  0.00     0.000 C 
BRANCH   6   7
ATOM      7  C   UNL     1       3.398   3.553  -7.252  1.00  0.00     0.000 C 
BRANCH   7   8
ATOM      8  C   UNL     1       2.056   4.088  -6.728  1.00  0.00     0.000 C 
BRANCH   8   9
ATOM      9  C   UNL     1       2.152   5.554  -6.269  1.00  0.00     0.000 C 
BRANCH   9  10
ATOM     10  C   UNL     1       3.513   6.199  -6.609  1.00  0.00     0.000 C 
BRANCH  10  11
ATOM     11  C   UNL     1       4.216   6.844  -5.403  1.00  0.00     0.000 C 
BRANCH  11  12
ATOM     12  C   UNL     1       3.797   6.230  -4.058  1.00  0.00     0.000 C 
BRANCH  12  13
ATOM     13  C   UNL     1       5.000   5.816  -3.190  1.00  0.00     0.006 C 
BRANCH  13  14
ATOM     14  C   UNL     1       4.613   5.057  -1.909  1.00  0.00     0.053 C 
BRANCH  14  15
ATOM     15  C   UNL     1       5.584   3.968  -1.562  1.00  0.00     0.041 C 
ATOM     16  O   UNL     1       5.191   2.935  -0.956  1.00  0.00    -0.550 OA
ATOM     17  O   UNL     1       6.934   4.120  -1.858  1.00  0.00    -0.550 OA
ENDBRANCH  14  15
ENDBRANCH  13  14
ENDBRANCH  12  13
ENDBRANCH  11  12
ENDBRANCH  10  11
ENDBRANCH   9  10
ENDBRANCH   8   9
ENDBRANCH   7   8
ENDBRANCH   6   7
ENDBRANCH   5   6
ENDBRANCH   4   5
ENDBRANCH   3   4
ENDBRANCH   2   3
ENDBRANCH   1   2
BRANCH   1  18
ATOM     18  C   UNL     1      -0.313   3.051  -4.367  1.00  0.00     0.000 C 
BRANCH  18  19
ATOM     19  C   UNL     1      -1.325   4.149  -4.764  1.00  0.00     0.000 C 
BRANCH  19  20
ATOM     20  C   UNL     1      -1.914   3.986  -6.178  1.00  0.00     0.000 C 
BRANCH  20  21
ATOM     21  C   UNL     1      -2.460   2.584  -6.507  1.00  0.00     0.000 C 
BRANCH  21  22
ATOM     22  C   UNL     1      -4.002   2.509  -6.579  1.00  0.00     0.000 C 
BRANCH  22  23
ATOM     23  C   UNL     1      -4.506   1.084  -6.846  1.00  0.00     0.000 C 
BRANCH  23  24
ATOM     24  C   UNL     1      -5.815   0.805  -6.094  1.00  0.00    -0.000 C 
BRANCH  24  25
ATOM     25  C   UNL     1      -5.754  -0.475  -5.236  1.00  0.00    -0.000 C 
BRANCH  25  26
ATOM     26  C   UNL     1      -4.348  -0.861  -4.732  1.00  0.00    -0.000 C 
BRANCH  26  27
ATOM     27  C   UNL     1      -4.052  -0.335  -3.320  1.00  0.00    -0.000 C 
BRANCH  27  28
ATOM     28  C   UNL     1      -2.993   0.780  -3.350  1.00  0.00    -0.000 C 
BRANCH  28  29
ATOM     29  C   UNL     1      -3.515   2.116  -2.791  1.00  0.00    -0.000 C 
BRANCH  29  30
ATOM     30  C   UNL     1      -5.043   2.296  -2.855  1.00  0.00    -0.000 C 
BRANCH  30  31
ATOM     31  C   UNL     1      -5.466   3.680  -3.366  1.00  0.00    -0.003 C 
ATOM     32  C   UNL     1      -6.668   4.210  -2.589  1.00  0.00     0.004 C 
ENDBRANCH  30  31
ENDBRANCH  29  30
ENDBRANCH  28  29
ENDBRANCH  27  28
ENDBRANCH  26  27
ENDBRANCH  25  26
ENDBRANCH  24  25
ENDBRANCH  23  24
ENDBRANCH  22  23
ENDBRANCH  21  22
ENDBRANCH  20  21
ENDBRANCH  19  20
ENDBRANCH  18  19
ENDBRANCH   1  18
TORSDOF 28
ENDMDL
MODEL 8
REMARK VINA RESULT:    -4.081      2.031      4.829
REMARK INTER + INTRA:         -15.340
REMARK INTER:                  -9.818
REMARK INTRA:                  -5.522
REMARK UNBOUND:                -4.578
REMARK SMILES CCCCCCCCCCCCCCCCCCCCCCCCCCCCCC(=O)[O-]
REMARK SMILES IDX 16 1 17 2 18 3 19 4 20 5 21 6 22 7 23 8 24 9 25 10 26 11
REMARK SMILES IDX 27 12 28 13 29 14 30 15 31 16 32 17 15 18 14 19 13 20 12 21
REMARK SMILES IDX 11 22 10 23 9 24 8 25 7 26 6 27 5 28 4 29 3 30 2 31 1 32
REMARK H PARENT
REMARK Flexibility Score: inf
ROOT
ATOM      1  C   UNL     1       1.154   2.934  -3.374  1.00  0.00     0.000 C 
ENDROOT
BRANCH   1   2
ATOM      2  C   UNL     1       0.755   4.374  -3.017  1.00  0.00     0.000 C 
BRANCH   2   3
ATOM      3  C   UNL     1       1.167   5.444  -4.049  1.00  0.00     0.000 C 
BRANCH   3   4
ATOM      4  C   UNL     1      -0.001   6.234  -4.676  1.00  0.00     0.000 C 
BRANCH   4   5
ATOM      5  C   UNL     1       0.200   6.652  -6.149  1.00  0.00     0.000 C 
BRANCH   5   6
ATOM      6  C   UNL     1      -0.813   6.043  -7.135  1.00  0.00     0.000 C 
BRANCH   6   7
ATOM      7  C   UNL     1      -0.221   4.889  -7.961  1.00  0.00     0.000 C 
BRANCH   7   8
ATOM      8  C   UNL     1      -1.034   3.592  -7.815  1.00  0.00     0.000 C 
BRANCH   8   9
ATOM      9  C   UNL     1      -1.141   3.133  -6.350  1.00  0.00     0.000 C 
BRANCH   9  10
ATOM     10  C   UNL     1      -2.596   2.853  -5.916  1.00  0.00     0.000 C 
BRANCH  10  11
ATOM     11  C   UNL     1      -2.981   3.495  -4.572  1.00  0.00     0.000 C 
BRANCH  11  12
ATOM     12  C   UNL     1      -2.419   2.738  -3.357  1.00  0.00     0.000 C 
BRANCH  12  13
ATOM     13  C   UNL     1      -3.441   1.770  -2.733  1.00  0.00     0.006 C 
BRANCH  13  14
ATOM     14  C   UNL     1      -3.393   0.348  -3.319  1.00  0.00     0.053 C 
BRANCH  14  15
ATOM     15  C   UNL     1      -4.657  -0.032  -4.029  1.00  0.00     0.041 C 
ATOM     16  O   UNL     1      -5.313   0.834  -4.668  1.00  0.00    -0.550 OA
ATOM     17  O   UNL     1      -5.140  -1.333  -3.939  1.00  0.00    -0.550 OA
ENDBRANCH  14  15
ENDBRANCH  13  14
ENDBRANCH  12  13
ENDBRANCH  11  12
ENDBRANCH  10  11
ENDBRANCH   9  10
ENDBRANCH   8   9
ENDBRANCH   7   8
ENDBRANCH   6   7
ENDBRANCH   5   6
ENDBRANCH   4   5
ENDBRANCH   3   4
ENDBRANCH   2   3
ENDBRANCH   1   2
BRANCH   1  18
ATOM     18  C   UNL     1       2.233   2.863  -4.464  1.00  0.00     0.000 C 
BRANCH  18  19
ATOM     19  C   UNL     1       3.375   1.880  -4.118  1.00  0.00     0.000 C 
BRANCH  19  20
ATOM     20  C   UNL     1       3.892   1.996  -2.671  1.00  0.00     0.000 C 
BRANCH  20  21
ATOM     21  C   UNL     1       5.127   2.896  -2.482  1.00  0.00     0.000 C 
BRANCH  21  22
ATOM     22  C   UNL     1       4.791   4.388  -2.262  1.00  0.00     0.000 C 
BRANCH  22  23
ATOM     23  C   UNL     1       4.921   5.213  -3.551  1.00  0.00     0.000 C 
BRANCH  23  24
ATOM     24  C   UNL     1       5.902   4.560  -4.534  1.00  0.00    -0.000 C 
BRANCH  24  25
ATOM     25  C   UNL     1       5.355   4.493  -5.974  1.00  0.00    -0.000 C 
BRANCH  25  26
ATOM     26  C   UNL     1       4.326   5.584  -6.338  1.00  0.00    -0.000 C 
BRANCH  26  27
ATOM     27  C   UNL     1       3.400   5.174  -7.491  1.00  0.00    -0.000 C 
BRANCH  27  28
ATOM     28  C   UNL     1       3.141   3.658  -7.489  1.00  0.00    -0.000 C 
BRANCH  28  29
ATOM     29  C   UNL     1       3.363   3.011  -8.867  1.00  0.00    -0.000 C 
BRANCH  29  30
ATOM     30  C   UNL     1       4.837   2.812  -9.263  1.00  0.00    -0.000 C 
BRANCH  30  31
ATOM     31  C   UNL     1       5.449   1.527  -8.688  1.00  0.00    -0.003 C 
ATOM     32  C   UNL     1       4.438   0.384  -8.699  1.00  0.00     0.004 C 
ENDBRANCH  30  31
ENDBRANCH  29  30
ENDBRANCH  28  29
ENDBRANCH  27  28
ENDBRANCH  26  27
ENDBRANCH  25  26
ENDBRANCH  24  25
ENDBRANCH  23  24
ENDBRANCH  22  23
ENDBRANCH  21  22
ENDBRANCH  20  21
ENDBRANCH  19  20
ENDBRANCH  18  19
ENDBRANCH   1  18
TORSDOF 28
ENDMDL
MODEL 9
REMARK VINA RESULT:    -4.081      1.291      3.532
REMARK INTER + INTRA:         -15.338
REMARK INTER:                 -10.761
REMARK INTRA:                  -4.577
REMARK UNBOUND:                -4.578
REMARK SMILES CCCCCCCCCCCCCCCCCCCCCCCCCCCCCC(=O)[O-]
REMARK SMILES IDX 16 1 17 2 18 3 19 4 20 5 21 6 22 7 23 8 24 9 25 10 26 11
REMARK SMILES IDX 27 12 28 13 29 14 30 15 31 16 32 17 15 18 14 19 13 20 12 21
REMARK SMILES IDX 11 22 10 23 9 24 8 25 7 26 6 27 5 28 4 29 3 30 2 31 1 32
REMARK H PARENT
REMARK Flexibility Score: inf
ROOT
ATOM      1  C   UNL     1      -1.200   5.213  -7.622  1.00  0.00     0.000 C 
ENDROOT
BRANCH   1   2
ATOM      2  C   UNL     1      -2.310   5.382  -6.573  1.00  0.00     0.000 C 
BRANCH   2   3
ATOM      3  C   UNL     1      -3.212   4.147  -6.367  1.00  0.00     0.000 C 
BRANCH   3   4
ATOM      4  C   UNL     1      -2.470   2.795  -6.316  1.00  0.00     0.000 C 
BRANCH   4   5
ATOM      5  C   UNL     1      -1.580   2.576  -5.073  1.00  0.00     0.000 C 
BRANCH   5   6
ATOM      6  C   UNL     1      -1.999   3.384  -3.832  1.00  0.00     0.000 C 
BRANCH   6   7
ATOM      7  C   UNL     1      -1.985   2.545  -2.543  1.00  0.00     0.000 C 
BRANCH   7   8
ATOM      8  C   UNL     1      -3.355   2.527  -1.846  1.00  0.00     0.000 C 
BRANCH   8   9
ATOM      9  C   UNL     1      -4.517   2.717  -2.839  1.00  0.00     0.000 C 
BRANCH   9  10
ATOM     10  C   UNL     1      -5.260   1.400  -3.148  1.00  0.00     0.000 C 
BRANCH  10  11
ATOM     11  C   UNL     1      -4.498   0.461  -4.099  1.00  0.00     0.000 C 
BRANCH  11  12
ATOM     12  C   UNL     1      -3.685  -0.616  -3.363  1.00  0.00     0.000 C 
BRANCH  12  13
ATOM     13  C   UNL     1      -4.064  -2.046  -3.789  1.00  0.00     0.006 C 
BRANCH  13  14
ATOM     14  C   UNL     1      -2.887  -3.036  -3.771  1.00  0.00     0.053 C 
BRANCH  14  15
ATOM     15  C   UNL     1      -2.769  -3.826  -5.040  1.00  0.00     0.041 C 
ATOM     16  O   UNL     1      -3.565  -3.618  -5.994  1.00  0.00    -0.550 OA
ATOM     17  O   UNL     1      -1.813  -4.830  -5.146  1.00  0.00    -0.550 OA
ENDBRANCH  14  15
ENDBRANCH  13  14
ENDBRANCH  12  13
ENDBRANCH  11  12
ENDBRANCH  10  11
ENDBRANCH   9  10
ENDBRANCH   8   9
ENDBRANCH   7   8
ENDBRANCH   6   7
ENDBRANCH   5   6
ENDBRANCH   4   5
ENDBRANCH   3   4
ENDBRANCH   2   3
ENDBRANCH   1   2
BRANCH   1  18
ATOM     18  C   UNL     1       0.210   5.254  -7.014  1.00  0.00     0.000 C 
BRANCH  18  19
ATOM     19  C   UNL     1       1.069   4.029  -7.403  1.00  0.00     0.000 C 
BRANCH  19  20
ATOM     20  C   UNL     1       2.217   4.347  -8.380  1.00  0.00     0.000 C 
BRANCH  20  21
ATOM     21  C   UNL     1       2.909   3.121  -9.004  1.00  0.00     0.000 C 
BRANCH  21  22
ATOM     22  C   UNL     1       3.896   2.404  -8.055  1.00  0.00     0.000 C 
BRANCH  22  23
ATOM     23  C   UNL     1       4.842   3.383  -7.345  1.00  0.00     0.000 C 
BRANCH  23  24
ATOM     24  C   UNL     1       4.708   3.281  -5.820  1.00  0.00    -0.000 C 
BRANCH  24  25
ATOM     25  C   UNL     1       3.775   2.138  -5.374  1.00  0.00    -0.000 C 
BRANCH  25  26
ATOM     26  C   UNL     1       3.939   1.689  -3.907  1.00  0.00    -0.000 C 
BRANCH  26  27
ATOM     27  C   UNL     1       2.712   2.006  -3.042  1.00  0.00    -0.000 C 
BRANCH  27  28
ATOM     28  C   UNL     1       1.664   2.810  -3.830  1.00  0.00    -0.000 C 
BRANCH  28  29
ATOM     29  C   UNL     1       1.463   4.233  -3.279  1.00  0.00    -0.000 C 
BRANCH  29  30
ATOM     30  C   UNL     1       2.313   5.321  -3.960  1.00  0.00    -0.000 C 
BRANCH  30  31
ATOM     31  C   UNL     1       3.215   6.082  -2.978  1.00  0.00    -0.003 C 
ATOM     32  C   UNL     1       4.457   5.268  -2.626  1.00  0.00     0.004 C 
ENDBRANCH  30  31
ENDBRANCH  29  30
ENDBRANCH  28  29
ENDBRANCH  27  28
ENDBRANCH  26  27
ENDBRANCH  25  26
ENDBRANCH  24  25
ENDBRANCH  23  24
ENDBRANCH  22  23
ENDBRANCH  21  22
ENDBRANCH  20  21
ENDBRANCH  19  20
ENDBRANCH  18  19
ENDBRANCH   1  18
TORSDOF 28
ENDMDL
