MODEL 1
REMARK VINA RESULT:    -4.928      0.000      0.000
REMARK INTER + INTRA:          -7.805
REMARK INTER:                  -6.945
REMARK INTRA:                  -0.860
REMARK UNBOUND:                -0.860
REMARK SMILES CCCCCCCCC(=O)[O-]
REMARK SMILES IDX 6 1 7 2 8 3 9 4 10 5 11 6 5 7 4 8 3 9 2 10 1 11
REMARK H PARENT
REMARK Flexibility Score: inf
ROOT
ATOM      1  C   UNL     1     -22.441  37.126   9.044  1.00  0.00     0.000 C 
ENDROOT
BRANCH   1   2
ATOM      2  C   UNL     1     -21.634  35.839   8.817  1.00  0.00     0.006 C 
BRANCH   2   3
ATOM      3  C   UNL     1     -20.148  36.152   8.621  1.00  0.00     0.053 C 
BRANCH   3   4
ATOM      4  C   UNL     1     -19.804  36.171   7.165  1.00  0.00     0.041 C 
ATOM      5  O   UNL     1     -18.842  36.870   6.749  1.00  0.00    -0.550 OA
ATOM      6  O   UNL     1     -20.576  35.455   6.259  1.00  0.00    -0.550 OA
ENDBRANCH   3   4
ENDBRANCH   2   3
ENDBRANCH   1   2
BRANCH   1   7
ATOM      7  C   UNL     1     -23.515  37.353   7.968  1.00  0.00     0.000 C 
BRANCH   7   8
ATOM      8  C   UNL     1     -22.958  38.058   6.718  1.00  0.00    -0.000 C 
BRANCH   8   9
ATOM      9  C   UNL     1     -22.040  39.240   7.067  1.00  0.00    -0.000 C 
BRANCH   9  10
ATOM     10  C   UNL     1     -21.088  39.610   5.919  1.00  0.00    -0.003 C 
ATOM     11  C   UNL     1     -21.229  38.635   4.753  1.00  0.00     0.004 C 
ENDBRANCH   9  10
ENDBRANCH   8   9
ENDBRANCH   7   8
ENDBRANCH   1   7
TORSDOF 7
ENDMDL
MODEL 2
REMARK VINA RESULT:    -4.917      2.420      4.140
REMARK INTER + INTRA:          -7.789
REMARK INTER:                  -7.118
REMARK INTRA:                  -0.671
REMARK UNBOUND:                -0.860
REMARK SMILES CCCCCCCCC(=O)[O-]
REMARK SMILES IDX 6 1 7 2 8 3 9 4 10 5 11 6 5 7 4 8 3 9 2 10 1 11
REMARK H PARENT
REMARK Flexibility Score: inf
ROOT
ATOM      1  C   UNL     1     -23.124  38.056   7.245  1.00  0.00     0.000 C 
ENDROOT
BRANCH   1   2
ATOM      2  C   UNL     1     -22.411  38.312   5.909  1.00  0.00     0.006 C 
BRANCH   2   3
ATOM      3  C   UNL     1     -21.229  39.268   6.094  1.00  0.00     0.053 C 
BRANCH   3   4
ATOM      4  C   UNL     1     -21.269  40.356   5.069  1.00  0.00     0.041 C 
ATOM      5  O   UNL     1     -22.346  40.631   4.477  1.00  0.00    -0.550 OA
ATOM      6  O   UNL     1     -20.105  41.035   4.729  1.00  0.00    -0.550 OA
ENDBRANCH   3   4
ENDBRANCH   2   3
ENDBRANCH   1   2
BRANCH   1   7
ATOM      7  C   UNL     1     -23.383  36.563   7.505  1.00  0.00     0.000 C 
BRANCH   7   8
ATOM      8  C   UNL     1     -22.082  35.749   7.618  1.00  0.00    -0.000 C 
BRANCH   8   9
ATOM      9  C   UNL     1     -21.445  35.845   9.014  1.00  0.00    -0.000 C 
BRANCH   9  10
ATOM     10  C   UNL     1     -19.962  36.242   8.964  1.00  0.00    -0.003 C 
ATOM     11  C   UNL     1     -19.433  36.211   7.532  1.00  0.00     0.004 C 
ENDBRANCH   9  10
ENDBRANCH   8   9
ENDBRANCH   7   8
ENDBRANCH   1   7
TORSDOF 7
ENDMDL
MODEL 3
REMARK VINA RESULT:    -4.826      2.555      4.236
REMARK INTER + INTRA:          -7.661
REMARK INTER:                  -6.992
REMARK INTRA:                  -0.669
REMARK UNBOUND:                -0.860
REMARK SMILES CCCCCCCCC(=O)[O-]
REMARK SMILES IDX 6 1 7 2 8 3 9 4 10 5 11 6 5 7 4 8 3 9 2 10 1 11
REMARK H PARENT
REMARK Flexibility Score: inf
ROOT
ATOM      1  C   UNL     1     -22.496  37.877   6.254  1.00  0.00     0.000 C 
ENDROOT
BRANCH   1   2
ATOM      2  C   UNL     1     -21.519  38.168   5.106  1.00  0.00     0.006 C 
BRANCH   2   3
ATOM      3  C   UNL     1     -20.509  39.249   5.507  1.00  0.00     0.053 C 
BRANCH   3   4
ATOM      4  C   UNL     1     -20.717  40.487   4.695  1.00  0.00     0.041 C 
ATOM      5  O   UNL     1     -19.816  41.365   4.633  1.00  0.00    -0.550 OA
ATOM      6  O   UNL     1     -21.926  40.697   4.044  1.00  0.00    -0.550 OA
ENDBRANCH   3   4
ENDBRANCH   2   3
ENDBRANCH   1   2
BRANCH   1   7
ATOM      7  C   UNL     1     -22.882  36.392   6.345  1.00  0.00     0.000 C 
BRANCH   7   8
ATOM      8  C   UNL     1     -21.755  35.523   6.931  1.00  0.00    -0.000 C 
BRANCH   8   9
ATOM      9  C   UNL     1     -21.584  35.720   8.446  1.00  0.00    -0.000 C 
BRANCH   9  10
ATOM     10  C   UNL     1     -20.179  36.215   8.825  1.00  0.00    -0.003 C 
ATOM     11  C   UNL     1     -19.256  36.229   7.610  1.00  0.00     0.004 C 
ENDBRANCH   9  10
ENDBRANCH   8   9
ENDBRANCH   7   8
ENDBRANCH   1   7
TORSDOF 7
ENDMDL
MODEL 4
REMARK VINA RESULT:    -4.720      2.213      4.031
REMARK INTER + INTRA:          -7.512
REMARK INTER:                  -6.729
REMARK INTRA:                  -0.783
REMARK UNBOUND:                -0.860
REMARK SMILES CCCCCCCCC(=O)[O-]
REMARK SMILES IDX 6 1 7 2 8 3 9 4 10 5 11 6 5 7 4 8 3 9 2 10 1 11
REMARK H PARENT
REMARK Flexibility Score: inf
ROOT
ATOM      1  C   UNL     1     -20.026  36.362   6.593  1.00  0.00     0.000 C 
ENDROOT
BRANCH   1   2
ATOM      2  C   UNL     1     -20.077  37.823   6.124  1.00  0.00     0.006 C 
BRANCH   2   3
ATOM      3  C   UNL     1     -21.328  38.084   5.279  1.00  0.00     0.053 C 
BRANCH   3   4
ATOM      4  C   UNL     1     -21.851  39.462   5.529  1.00  0.00     0.041 C 
ATOM      5  O   UNL     1     -22.056  40.248   4.565  1.00  0.00    -0.550 OA
ATOM      6  O   UNL     1     -22.068  39.899   6.830  1.00  0.00    -0.550 OA
ENDBRANCH   3   4
ENDBRANCH   2   3
ENDBRANCH   1   2
BRANCH   1   7
ATOM      7  C   UNL     1     -20.022  36.228   8.124  1.00  0.00     0.000 C 
BRANCH   7   8
ATOM      8  C   UNL     1     -21.410  35.879   8.690  1.00  0.00    -0.000 C 
BRANCH   8   9
ATOM      9  C   UNL     1     -22.155  37.111   9.229  1.00  0.00    -0.000 C 
BRANCH   9  10
ATOM     10  C   UNL     1     -23.501  37.344   8.527  1.00  0.00    -0.003 C 
ATOM     11  C   UNL     1     -23.713  36.340   7.398  1.00  0.00     0.004 C 
ENDBRANCH   9  10
ENDBRANCH   8   9
ENDBRANCH   7   8
ENDBRANCH   1   7
TORSDOF 7
ENDMDL
MODEL 5
REMARK VINA RESULT:    -4.670     13.048     14.129
REMARK INTER + INTRA:          -7.441
REMARK INTER:                  -6.659
REMARK INTRA:                  -0.782
REMARK UNBOUND:                -0.860
REMARK SMILES CCCCCCCCC(=O)[O-]
REMARK SMILES IDX 6 1 7 2 8 3 9 4 10 5 11 6 5 7 4 8 3 9 2 10 1 11
REMARK H PARENT
REMARK Flexibility Score: inf
ROOT
ATOM      1  C   UNL     1     -18.408  42.290  -6.830  1.00  0.00     0.000 C 
ENDROOT
BRANCH   1   2
ATOM      2  C   UNL     1     -19.078  40.927  -6.602  1.00  0.00     0.006 C 
BRANCH   2   3
ATOM      3  C   UNL     1     -20.096  41.001  -5.459  1.00  0.00     0.053 C 
BRANCH   3   4
ATOM      4  C   UNL     1     -21.490  41.033  -5.999  1.00  0.00     0.041 C 
ATOM      5  O   UNL     1     -22.185  42.079  -5.899  1.00  0.00    -0.550 OA
ATOM      6  O   UNL     1     -22.040  39.893  -6.571  1.00  0.00    -0.550 OA
ENDBRANCH   3   4
ENDBRANCH   2   3
ENDBRANCH   1   2
BRANCH   1   7
ATOM      7  C   UNL     1     -18.544  43.229  -5.620  1.00  0.00     0.000 C 
BRANCH   7   8
ATOM      8  C   UNL     1     -17.202  43.470  -4.906  1.00  0.00    -0.000 C 
BRANCH   8   9
ATOM      9  C   UNL     1     -16.969  42.494  -3.742  1.00  0.00    -0.000 C 
BRANCH   9  10
ATOM     10  C   UNL     1     -15.955  41.391  -4.085  1.00  0.00    -0.003 C 
ATOM     11  C   UNL     1     -16.605  40.012  -4.029  1.00  0.00     0.004 C 
ENDBRANCH   9  10
ENDBRANCH   8   9
ENDBRANCH   7   8
ENDBRANCH   1   7
TORSDOF 7
ENDMDL
MODEL 6
REMARK VINA RESULT:    -4.572      1.850      2.366
REMARK INTER + INTRA:          -7.303
REMARK INTER:                  -6.830
REMARK INTRA:                  -0.473
REMARK UNBOUND:                -0.860
REMARK SMILES CCCCCCCCC(=O)[O-]
REMARK SMILES IDX 6 1 7 2 8 3 9 4 10 5 11 6 5 7 4 8 3 9 2 10 1 11
REMARK H PARENT
REMARK Flexibility Score: inf
ROOT
ATOM      1  C   UNL     1     -22.756  36.997   6.146  1.00  0.00     0.000 C 
ENDROOT
BRANCH   1   2
ATOM      2  C   UNL     1     -21.389  36.400   6.511  1.00  0.00     0.006 C 
BRANCH   2   3
ATOM      3  C   UNL     1     -21.508  35.455   7.711  1.00  0.00     0.053 C 
BRANCH   3   4
ATOM      4  C   UNL     1     -20.954  36.098   8.942  1.00  0.00     0.041 C 
ATOM      5  O   UNL     1     -19.709  36.128   9.138  1.00  0.00    -0.550 OA
ATOM      6  O   UNL     1     -21.813  36.624   9.899  1.00  0.00    -0.550 OA
ENDBRANCH   3   4
ENDBRANCH   2   3
ENDBRANCH   1   2
BRANCH   1   7
ATOM      7  C   UNL     1     -23.133  38.202   7.022  1.00  0.00     0.000 C 
BRANCH   7   8
ATOM      8  C   UNL     1     -22.036  39.281   7.046  1.00  0.00    -0.000 C 
BRANCH   8   9
ATOM      9  C   UNL     1     -21.901  40.017   5.703  1.00  0.00    -0.000 C 
BRANCH   9  10
ATOM     10  C   UNL     1     -20.458  40.025   5.174  1.00  0.00    -0.003 C 
ATOM     11  C   UNL     1     -20.116  41.367   4.533  1.00  0.00     0.004 C 
ENDBRANCH   9  10
ENDBRANCH   8   9
ENDBRANCH   7   8
ENDBRANCH   1   7
TORSDOF 7
ENDMDL
MODEL 7
REMARK VINA RESULT:    -4.563     12.801     14.020
REMARK INTER + INTRA:          -7.290
REMARK INTER:                  -6.727
REMARK INTRA:                  -0.562
REMARK UNBOUND:                -0.860
REMARK SMILES CCCCCCCCC(=O)[O-]
REMARK SMILES IDX 6 1 7 2 8 3 9 4 10 5 11 6 5 7 4 8 3 9 2 10 1 11
REMARK H PARENT
REMARK Flexibility Score: inf
ROOT
ATOM      1  C   UNL     1     -18.919  40.839  -6.614  1.00  0.00     0.000 C 
ENDROOT
BRANCH   1   2
ATOM      2  C   UNL     1     -19.921  40.814  -5.451  1.00  0.00     0.006 C 
BRANCH   2   3
ATOM      3  C   UNL     1     -21.173  41.628  -5.789  1.00  0.00     0.053 C 
BRANCH   3   4
ATOM      4  C   UNL     1     -22.178  40.774  -6.495  1.00  0.00     0.041 C 
ATOM      5  O   UNL     1     -22.408  39.602  -6.094  1.00  0.00    -0.550 OA
ATOM      6  O   UNL     1     -22.827  41.254  -7.625  1.00  0.00    -0.550 OA
ENDBRANCH   3   4
ENDBRANCH   2   3
ENDBRANCH   1   2
BRANCH   1   7
ATOM      7  C   UNL     1     -17.465  40.645  -6.152  1.00  0.00     0.000 C 
BRANCH   7   8
ATOM      8  C   UNL     1     -17.368  40.179  -4.689  1.00  0.00    -0.000 C 
BRANCH   8   9
ATOM      9  C   UNL     1     -16.217  40.857  -3.928  1.00  0.00    -0.000 C 
BRANCH   9  10
ATOM     10  C   UNL     1     -16.348  42.388  -3.896  1.00  0.00    -0.003 C 
ATOM     11  C   UNL     1     -17.665  42.813  -3.254  1.00  0.00     0.004 C 
ENDBRANCH   9  10
ENDBRANCH   8   9
ENDBRANCH   7   8
ENDBRANCH   1   7
TORSDOF 7
ENDMDL
MODEL 8
REMARK VINA RESULT:    -4.535      2.318      3.373
REMARK INTER + INTRA:          -7.251
REMARK INTER:                  -6.685
REMARK INTRA:                  -0.566
REMARK UNBOUND:                -0.860
REMARK SMILES CCCCCCCCC(=O)[O-]
REMARK SMILES IDX 6 1 7 2 8 3 9 4 10 5 11 6 5 7 4 8 3 9 2 10 1 11
REMARK H PARENT
REMARK Flexibility Score: inf
ROOT
ATOM      1  C   UNL     1     -20.933  35.952   6.209  1.00  0.00     0.000 C 
ENDROOT
BRANCH   1   2
ATOM      2  C   UNL     1     -21.703  35.745   7.521  1.00  0.00     0.006 C 
BRANCH   2   3
ATOM      3  C   UNL     1     -23.132  36.284   7.408  1.00  0.00     0.053 C 
BRANCH   3   4
ATOM      4  C   UNL     1     -23.357  37.384   8.395  1.00  0.00     0.041 C 
ATOM      5  O   UNL     1     -22.387  38.073   8.809  1.00  0.00    -0.550 OA
ATOM      6  O   UNL     1     -24.631  37.619   8.896  1.00  0.00    -0.550 OA
ENDBRANCH   3   4
ENDBRANCH   2   3
ENDBRANCH   1   2
BRANCH   1   7
ATOM      7  C   UNL     1     -19.762  36.938   6.355  1.00  0.00     0.000 C 
BRANCH   7   8
ATOM      8  C   UNL     1     -20.155  38.380   5.989  1.00  0.00    -0.000 C 
BRANCH   8   9
ATOM      9  C   UNL     1     -21.218  38.439   4.880  1.00  0.00    -0.000 C 
BRANCH   9  10
ATOM     10  C   UNL     1     -21.515  39.874   4.418  1.00  0.00    -0.003 C 
ATOM     11  C   UNL     1     -20.371  40.816   4.785  1.00  0.00     0.004 C 
ENDBRANCH   9  10
ENDBRANCH   8   9
ENDBRANCH   7   8
ENDBRANCH   1   7
TORSDOF 7
ENDMDL
MODEL 9
REMARK VINA RESULT:    -4.499     13.235     14.209
REMARK INTER + INTRA:          -7.200
REMARK INTER:                  -6.865
REMARK INTRA:                  -0.335
REMARK UNBOUND:                -0.860
REMARK SMILES CCCCCCCCC(=O)[O-]
REMARK SMILES IDX 6 1 7 2 8 3 9 4 10 5 11 6 5 7 4 8 3 9 2 10 1 11
REMARK H PARENT
REMARK Flexibility Score: inf
ROOT
ATOM      1  C   UNL     1     -19.719  41.027  -5.283  1.00  0.00     0.000 C 
ENDROOT
BRANCH   1   2
ATOM      2  C   UNL     1     -21.104  41.010  -5.945  1.00  0.00     0.006 C 
BRANCH   2   3
ATOM      3  C   UNL     1     -21.766  42.389  -5.865  1.00  0.00     0.053 C 
BRANCH   3   4
ATOM      4  C   UNL     1     -23.212  42.298  -6.234  1.00  0.00     0.041 C 
ATOM      5  O   UNL     1     -23.929  43.334  -6.251  1.00  0.00    -0.550 OA
ATOM      6  O   UNL     1     -23.783  41.063  -6.513  1.00  0.00    -0.550 OA
ENDBRANCH   3   4
ENDBRANCH   2   3
ENDBRANCH   1   2
BRANCH   1   7
ATOM      7  C   UNL     1     -18.570  40.992  -6.304  1.00  0.00     0.000 C 
BRANCH   7   8
ATOM      8  C   UNL     1     -17.339  40.231  -5.782  1.00  0.00    -0.000 C 
BRANCH   8   9
ATOM      9  C   UNL     1     -17.176  40.346  -4.258  1.00  0.00    -0.000 C 
BRANCH   9  10
ATOM     10  C   UNL     1     -15.938  41.162  -3.854  1.00  0.00    -0.003 C 
ATOM     11  C   UNL     1     -16.243  42.657  -3.850  1.00  0.00     0.004 C 
ENDBRANCH   9  10
ENDBRANCH   8   9
ENDBRANCH   7   8
ENDBRANCH   1   7
TORSDOF 7
ENDMDL
