MODEL 1
REMARK VINA RESULT:    -5.067      0.000      0.000
REMARK INTER + INTRA:          -5.067
REMARK INTER:                  -5.067
REMARK INTRA:                   0.000
REMARK UNBOUND:                 0.000
REMARK SMILES CC(C)=C1CC[C@@H](C)CC1=O
REMARK SMILES IDX 8 1 7 2 6 3 5 4 4 5 2 6 1 7 3 8 10 9 11 10 9 11
REMARK H PARENT
REMARK Flexibility Score: inf
ROOT
ATOM      1  C   UNL     1     -12.743   3.523  26.870  1.00  0.00     0.008 C 
ATOM      2  C   UNL     1     -13.926   3.545  27.852  1.00  0.00    -0.006 C 
ATOM      3  C   UNL     1     -13.548   4.179  29.203  1.00  0.00     0.008 C 
ATOM      4  C   UNL     1     -12.534   3.343  29.997  1.00  0.00     0.039 C 
ATOM      5  C   UNL     1     -12.925   1.874  30.101  1.00  0.00    -0.006 C 
ATOM      6  C   UNL     1     -12.561   1.121  31.180  1.00  0.00    -0.070 C 
ATOM      7  C   UNL     1     -12.988  -0.322  31.324  1.00  0.00     0.039 C 
ATOM      8  C   UNL     1     -11.740   1.708  32.305  1.00  0.00     0.039 C 
ATOM      9  C   UNL     1     -13.615   1.289  28.914  1.00  0.00     0.159 C 
ATOM     10  O   UNL     1     -13.451   0.082  28.591  1.00  0.00    -0.295 OA
ATOM     11  C   UNL     1     -14.514   2.143  28.068  1.00  0.00     0.084 C 
ENDROOT
TORSDOF 0
ENDMDL
MODEL 2
REMARK VINA RESULT:    -5.015      1.247      1.650
REMARK INTER + INTRA:          -5.015
REMARK INTER:                  -5.015
REMARK INTRA:                   0.000
REMARK UNBOUND:                 0.000
REMARK SMILES CC(C)=C1CC[C@@H](C)CC1=O
REMARK SMILES IDX 8 1 7 2 6 3 5 4 4 5 2 6 1 7 3 8 10 9 11 10 9 11
REMARK H PARENT
REMARK Flexibility Score: inf
ROOT
ATOM      1  C   UNL     1     -12.723   1.576  27.041  1.00  0.00     0.008 C 
ATOM      2  C   UNL     1     -13.860   1.857  28.038  1.00  0.00    -0.006 C 
ATOM      3  C   UNL     1     -13.697   3.217  28.739  1.00  0.00     0.008 C 
ATOM      4  C   UNL     1     -12.479   3.269  29.675  1.00  0.00     0.039 C 
ATOM      5  C   UNL     1     -12.407   2.080  30.624  1.00  0.00    -0.006 C 
ATOM      6  C   UNL     1     -11.836   2.196  31.859  1.00  0.00    -0.070 C 
ATOM      7  C   UNL     1     -11.806   1.042  32.834  1.00  0.00     0.039 C 
ATOM      8  C   UNL     1     -11.235   3.503  32.325  1.00  0.00     0.039 C 
ATOM      9  C   UNL     1     -12.883   0.773  30.084  1.00  0.00     0.159 C 
ATOM     10  O   UNL     1     -12.360  -0.315  30.446  1.00  0.00    -0.295 OA
ATOM     11  C   UNL     1     -13.997   0.734  29.077  1.00  0.00     0.084 C 
ENDROOT
TORSDOF 0
ENDMDL
MODEL 3
REMARK VINA RESULT:    -4.837      1.727      2.732
REMARK INTER + INTRA:          -4.837
REMARK INTER:                  -4.837
REMARK INTRA:                   0.000
REMARK UNBOUND:                 0.000
REMARK SMILES CC(C)=C1CC[C@@H](C)CC1=O
REMARK SMILES IDX 8 1 7 2 6 3 5 4 4 5 2 6 1 7 3 8 10 9 11 10 9 11
REMARK H PARENT
REMARK Flexibility Score: inf
ROOT
ATOM      1  C   UNL     1     -15.243   2.266  28.112  1.00  0.00     0.008 C 
ATOM      2  C   UNL     1     -13.787   1.865  27.826  1.00  0.00    -0.006 C 
ATOM      3  C   UNL     1     -13.387   0.568  28.553  1.00  0.00     0.008 C 
ATOM      4  C   UNL     1     -13.346   0.723  30.081  1.00  0.00     0.039 C 
ATOM      5  C   UNL     1     -12.557   1.944  30.534  1.00  0.00    -0.006 C 
ATOM      6  C   UNL     1     -11.899   1.955  31.731  1.00  0.00    -0.070 C 
ATOM      7  C   UNL     1     -11.065   3.137  32.170  1.00  0.00     0.039 C 
ATOM      8  C   UNL     1     -11.943   0.764  32.661  1.00  0.00     0.039 C 
ATOM      9  C   UNL     1     -12.645   3.150  29.660  1.00  0.00     0.159 C 
ATOM     10  O   UNL     1     -12.600   4.313  30.142  1.00  0.00    -0.295 OA
ATOM     11  C   UNL     1     -12.806   2.994  28.175  1.00  0.00     0.084 C 
ENDROOT
TORSDOF 0
ENDMDL
MODEL 4
REMARK VINA RESULT:    -4.587      7.253      9.088
REMARK INTER + INTRA:          -4.587
REMARK INTER:                  -4.587
REMARK INTRA:                   0.000
REMARK UNBOUND:                 0.000
REMARK SMILES CC(C)=C1CC[C@@H](C)CC1=O
REMARK SMILES IDX 8 1 7 2 6 3 5 4 4 5 2 6 1 7 3 8 10 9 11 10 9 11
REMARK H PARENT
REMARK Flexibility Score: inf
ROOT
ATOM      1  C   UNL     1     -10.015   9.425  33.165  1.00  0.00     0.008 C 
ATOM      2  C   UNL     1      -9.981   9.338  31.630  1.00  0.00    -0.006 C 
ATOM      3  C   UNL     1     -10.012  10.728  30.968  1.00  0.00     0.008 C 
ATOM      4  C   UNL     1     -11.342  11.466  31.183  1.00  0.00     0.039 C 
ATOM      5  C   UNL     1     -12.558  10.609  30.858  1.00  0.00    -0.006 C 
ATOM      6  C   UNL     1     -13.716  11.169  30.401  1.00  0.00    -0.070 C 
ATOM      7  C   UNL     1     -14.913  10.328  30.022  1.00  0.00     0.039 C 
ATOM      8  C   UNL     1     -13.844  12.664  30.218  1.00  0.00     0.039 C 
ATOM      9  C   UNL     1     -12.447   9.155  31.179  1.00  0.00     0.159 C 
ATOM     10  O   UNL     1     -13.450   8.487  31.545  1.00  0.00    -0.295 OA
ATOM     11  C   UNL     1     -11.118   8.462  31.083  1.00  0.00     0.084 C 
ENDROOT
TORSDOF 0
ENDMDL
MODEL 5
REMARK VINA RESULT:    -4.496      6.431      8.426
REMARK INTER + INTRA:          -4.496
REMARK INTER:                  -4.496
REMARK INTRA:                   0.000
REMARK UNBOUND:                 0.000
REMARK SMILES CC(C)=C1CC[C@@H](C)CC1=O
REMARK SMILES IDX 8 1 7 2 6 3 5 4 4 5 2 6 1 7 3 8 10 9 11 10 9 11
REMARK H PARENT
REMARK Flexibility Score: inf
ROOT
ATOM      1  C   UNL     1     -14.834   6.813  29.966  1.00  0.00     0.008 C 
ATOM      2  C   UNL     1     -14.994   7.540  31.312  1.00  0.00    -0.006 C 
ATOM      3  C   UNL     1     -15.819   8.832  31.181  1.00  0.00     0.008 C 
ATOM      4  C   UNL     1     -15.111   9.917  30.353  1.00  0.00     0.039 C 
ATOM      5  C   UNL     1     -13.672  10.154  30.791  1.00  0.00    -0.006 C 
ATOM      6  C   UNL     1     -13.084  11.379  30.654  1.00  0.00    -0.070 C 
ATOM      7  C   UNL     1     -11.676  11.645  31.134  1.00  0.00     0.039 C 
ATOM      8  C   UNL     1     -13.833  12.543  30.046  1.00  0.00     0.039 C 
ATOM      9  C   UNL     1     -12.916   8.954  31.258  1.00  0.00     0.159 C 
ATOM     10  O   UNL     1     -11.676   8.844  31.064  1.00  0.00    -0.295 OA
ATOM     11  C   UNL     1     -13.635   7.839  31.962  1.00  0.00     0.084 C 
ENDROOT
TORSDOF 0
ENDMDL
MODEL 6
REMARK VINA RESULT:    -4.493      9.960     11.173
REMARK INTER + INTRA:          -4.493
REMARK INTER:                  -4.493
REMARK INTRA:                   0.000
REMARK UNBOUND:                 0.000
REMARK SMILES CC(C)=C1CC[C@@H](C)CC1=O
REMARK SMILES IDX 8 1 7 2 6 3 5 4 4 5 2 6 1 7 3 8 10 9 11 10 9 11
REMARK H PARENT
REMARK Flexibility Score: inf
ROOT
ATOM      1  C   UNL     1      -4.784  -0.748  31.423  1.00  0.00     0.008 C 
ATOM      2  C   UNL     1      -4.865   0.522  30.560  1.00  0.00    -0.006 C 
ATOM      3  C   UNL     1      -4.864   0.203  29.054  1.00  0.00     0.008 C 
ATOM      4  C   UNL     1      -3.534  -0.391  28.565  1.00  0.00     0.039 C 
ATOM      5  C   UNL     1      -2.322   0.412  29.018  1.00  0.00    -0.006 C 
ATOM      6  C   UNL     1      -1.183   0.457  28.267  1.00  0.00    -0.070 C 
ATOM      7  C   UNL     1       0.008   1.293  28.675  1.00  0.00     0.039 C 
ATOM      8  C   UNL     1      -1.072  -0.305  26.966  1.00  0.00     0.039 C 
ATOM      9  C   UNL     1      -2.412   1.040  30.370  1.00  0.00     0.159 C 
ATOM     10  O   UNL     1      -1.393   1.175  31.098  1.00  0.00    -0.295 OA
ATOM     11  C   UNL     1      -3.738   1.511  30.894  1.00  0.00     0.084 C 
ENDROOT
TORSDOF 0
ENDMDL
MODEL 7
REMARK VINA RESULT:    -4.383      1.817      3.381
REMARK INTER + INTRA:          -4.383
REMARK INTER:                  -4.383
REMARK INTRA:                   0.000
REMARK UNBOUND:                 0.000
REMARK SMILES CC(C)=C1CC[C@@H](C)CC1=O
REMARK SMILES IDX 8 1 7 2 6 3 5 4 4 5 2 6 1 7 3 8 10 9 11 10 9 11
REMARK H PARENT
REMARK Flexibility Score: inf
ROOT
ATOM      1  C   UNL     1      -9.517   4.268  31.175  1.00  0.00     0.008 C 
ATOM      2  C   UNL     1     -10.981   4.504  31.584  1.00  0.00    -0.006 C 
ATOM      3  C   UNL     1     -11.462   3.487  32.635  1.00  0.00     0.008 C 
ATOM      4  C   UNL     1     -11.546   2.053  32.091  1.00  0.00     0.039 C 
ATOM      5  C   UNL     1     -12.293   1.962  30.767  1.00  0.00    -0.006 C 
ATOM      6  C   UNL     1     -12.989   0.838  30.424  1.00  0.00    -0.070 C 
ATOM      7  C   UNL     1     -13.781   0.752  29.140  1.00  0.00     0.039 C 
ATOM      8  C   UNL     1     -13.029  -0.367  31.336  1.00  0.00     0.039 C 
ATOM      9  C   UNL     1     -12.122   3.111  29.830  1.00  0.00     0.159 C 
ATOM     10  O   UNL     1     -12.130   2.945  28.581  1.00  0.00    -0.295 OA
ATOM     11  C   UNL     1     -11.920   4.498  30.369  1.00  0.00     0.084 C 
ENDROOT
TORSDOF 0
ENDMDL
MODEL 8
REMARK VINA RESULT:    -4.368     10.264     10.982
REMARK INTER + INTRA:          -4.368
REMARK INTER:                  -4.368
REMARK INTRA:                   0.000
REMARK UNBOUND:                 0.000
REMARK SMILES CC(C)=C1CC[C@@H](C)CC1=O
REMARK SMILES IDX 8 1 7 2 6 3 5 4 4 5 2 6 1 7 3 8 10 9 11 10 9 11
REMARK H PARENT
REMARK Flexibility Score: inf
ROOT
ATOM      1  C   UNL     1      -1.071  -0.758  26.585  1.00  0.00     0.008 C 
ATOM      2  C   UNL     1      -2.013   0.457  26.539  1.00  0.00    -0.006 C 
ATOM      3  C   UNL     1      -1.381   1.707  27.178  1.00  0.00     0.008 C 
ATOM      4  C   UNL     1      -1.169   1.567  28.693  1.00  0.00     0.039 C 
ATOM      5  C   UNL     1      -2.409   1.069  29.424  1.00  0.00    -0.006 C 
ATOM      6  C   UNL     1      -2.658   1.428  30.717  1.00  0.00    -0.070 C 
ATOM      7  C   UNL     1      -3.911   0.989  31.439  1.00  0.00     0.039 C 
ATOM      8  C   UNL     1      -1.704   2.319  31.481  1.00  0.00     0.039 C 
ATOM      9  C   UNL     1      -3.258   0.084  28.691  1.00  0.00     0.159 C 
ATOM     10  O   UNL     1      -3.884  -0.822  29.302  1.00  0.00    -0.295 OA
ATOM     11  C   UNL     1      -3.368   0.151  27.195  1.00  0.00     0.084 C 
ENDROOT
TORSDOF 0
ENDMDL
MODEL 9
REMARK VINA RESULT:    -4.367      7.535      9.409
REMARK INTER + INTRA:          -4.367
REMARK INTER:                  -4.367
REMARK INTRA:                   0.000
REMARK UNBOUND:                 0.000
REMARK SMILES CC(C)=C1CC[C@@H](C)CC1=O
REMARK SMILES IDX 8 1 7 2 6 3 5 4 4 5 2 6 1 7 3 8 10 9 11 10 9 11
REMARK H PARENT
REMARK Flexibility Score: inf
ROOT
ATOM      1  C   UNL     1      -9.687   8.439  30.799  1.00  0.00     0.008 C 
ATOM      2  C   UNL     1     -10.568   8.798  32.007  1.00  0.00    -0.006 C 
ATOM      3  C   UNL     1     -12.006   8.268  31.857  1.00  0.00     0.008 C 
ATOM      4  C   UNL     1     -12.784   8.953  30.722  1.00  0.00     0.039 C 
ATOM      5  C   UNL     1     -12.697  10.473  30.774  1.00  0.00    -0.006 C 
ATOM      6  C   UNL     1     -13.713  11.255  30.307  1.00  0.00    -0.070 C 
ATOM      7  C   UNL     1     -13.666  12.763  30.402  1.00  0.00     0.039 C 
ATOM      8  C   UNL     1     -14.958  10.645  29.704  1.00  0.00     0.039 C 
ATOM      9  C   UNL     1     -11.402  11.045  31.247  1.00  0.00     0.159 C 
ATOM     10  O   UNL     1     -10.964  12.137  30.796  1.00  0.00    -0.295 OA
ATOM     11  C   UNL     1     -10.584  10.311  32.271  1.00  0.00     0.084 C 
ENDROOT
TORSDOF 0
ENDMDL
