MODEL 1
REMARK VINA RESULT:    -4.799      0.000      0.000
REMARK INTER + INTRA:          -7.618
REMARK INTER:                  -7.324
REMARK INTRA:                  -0.294
REMARK UNBOUND:                -0.294
REMARK SMILES CC1=CCC[C@H](C)C(=O)C[C@@H](C(C)C)C(=O)C1
REMARK SMILES IDX 8 1 9 2 6 3 7 4 5 5 4 6 3 7 2 8 1 9 10 11 11 12 15 13 16 14
REMARK SMILES IDX 17 15 12 17 13 18 14 19
REMARK H PARENT
REMARK Flexibility Score: 70.00
ROOT
ATOM      1  C   UNL     1      -9.269  31.022  42.898  1.00  0.00     0.136 C 
ATOM      2  O   UNL     1      -9.066  30.184  43.766  1.00  0.00    -0.299 OA
ENDROOT
BRANCH   1   3
ATOM      3  C   UNL     1      -9.081  32.491  43.227  1.00  0.00     0.053 C 
ATOM      4  C   UNL     1      -9.734  32.825  44.574  1.00  0.00     0.016 C 
BRANCH   3   5
ATOM      5  C   UNL     1      -7.577  32.854  43.237  1.00  0.00     0.015 C 
BRANCH   5   6
ATOM      6  C   UNL     1      -7.135  33.480  41.900  1.00  0.00     0.028 C 
BRANCH   6   7
ATOM      7  C   UNL     1      -8.242  34.224  41.192  1.00  0.00    -0.028 C 
ATOM      8  C   UNL     1      -8.790  33.880  39.999  1.00  0.00    -0.070 CG0
ATOM      9  C   UNL     1      -9.961  34.695  39.508  1.00  0.00     0.039 C 
ATOM     10  G   UNL     1      -8.258  32.760  39.114  1.00  0.00     0.000 G0
ENDBRANCH   6   7
ENDBRANCH   5   6
ENDBRANCH   3   5
ENDBRANCH   1   3
BRANCH   1  11
ATOM     11  C   UNL     1      -9.726  30.564  41.531  1.00  0.00     0.087 C 
BRANCH  11  12
ATOM     12  C   UNL     1      -8.565  30.568  40.499  1.00  0.00     0.066 C 
BRANCH  12  13
ATOM     13  C   UNL     1      -8.947  31.441  39.312  1.00  0.00     0.140 C 
ATOM     14  O   UNL     1      -9.780  31.047  38.506  1.00  0.00    -0.299 OA
BRANCH  13  15
ATOM     15  C   UNL     1      -8.265  32.770  39.099  1.00  0.00     0.106 CG0
ATOM     16  G   UNL     1      -8.786  33.887  39.994  1.00  0.00     0.000 G0
ENDBRANCH  13  15
ENDBRANCH  12  13
BRANCH  12  17
ATOM     17  C   UNL     1      -8.149  29.133  40.036  1.00  0.00    -0.006 C 
ATOM     18  C   UNL     1      -6.862  28.673  40.750  1.00  0.00     0.008 C 
ATOM     19  C   UNL     1      -9.251  28.087  40.289  1.00  0.00     0.008 C 
ENDBRANCH  12  17
ENDBRANCH  11  12
ENDBRANCH   1  11
TORSDOF 1
ENDMDL
MODEL 2
REMARK VINA RESULT:    -4.477      1.570      3.733
REMARK INTER + INTRA:          -7.127
REMARK INTER:                  -7.906
REMARK INTRA:                   0.779
REMARK UNBOUND:                -0.294
REMARK SMILES CC1=CCC[C@H](C)C(=O)C[C@@H](C(C)C)C(=O)C1
REMARK SMILES IDX 8 1 9 2 6 3 7 4 5 5 4 6 3 7 2 8 1 9 10 11 11 12 15 13 16 14
REMARK SMILES IDX 17 15 12 17 13 18 14 19
REMARK H PARENT
REMARK Flexibility Score: 70.00
ROOT
ATOM      1  C   UNL     1      -9.468  30.865  42.366  1.00  0.00     0.136 C 
ATOM      2  O   UNL     1      -9.786  31.053  43.532  1.00  0.00    -0.299 OA
ENDROOT
BRANCH   1   3
ATOM      3  C   UNL     1      -8.428  29.809  42.040  1.00  0.00     0.053 C 
ATOM      4  C   UNL     1      -8.155  28.933  43.270  1.00  0.00     0.016 C 
BRANCH   3   5
ATOM      5  C   UNL     1      -8.889  28.949  40.840  1.00  0.00     0.015 C 
BRANCH   5   6
ATOM      6  C   UNL     1      -7.943  29.107  39.633  1.00  0.00     0.028 C 
BRANCH   6   7
ATOM      7  C   UNL     1      -8.554  29.883  38.491  1.00  0.00    -0.028 C 
ATOM      8  C   UNL     1      -8.456  31.223  38.304  1.00  0.00    -0.070 CG0
ATOM      9  C   UNL     1      -9.049  31.797  37.040  1.00  0.00     0.039 C 
ATOM     10  G   UNL     1      -7.832  32.177  39.315  1.00  0.00     0.000 G0
ENDBRANCH   6   7
ENDBRANCH   5   6
ENDBRANCH   3   5
ENDBRANCH   1   3
BRANCH   1  11
ATOM     11  C   UNL     1     -10.107  31.712  41.288  1.00  0.00     0.087 C 
BRANCH  11  12
ATOM     12  C   UNL     1      -9.445  33.114  41.183  1.00  0.00     0.066 C 
BRANCH  12  13
ATOM     13  C   UNL     1      -8.783  33.259  39.821  1.00  0.00     0.140 C 
ATOM     14  O   UNL     1      -9.049  34.220  39.110  1.00  0.00    -0.299 OA
BRANCH  13  15
ATOM     15  C   UNL     1      -7.835  32.196  39.322  1.00  0.00     0.106 CG0
ATOM     16  G   UNL     1      -8.458  31.225  38.327  1.00  0.00     0.000 G0
ENDBRANCH  13  15
ENDBRANCH  12  13
BRANCH  12  17
ATOM     17  C   UNL     1      -8.432  33.404  42.339  1.00  0.00    -0.006 C 
ATOM     18  C   UNL     1      -7.011  33.628  41.784  1.00  0.00     0.008 C 
ATOM     19  C   UNL     1      -8.829  34.631  43.180  1.00  0.00     0.008 C 
ENDBRANCH  12  17
ENDBRANCH  11  12
ENDBRANCH   1  11
TORSDOF 1
ENDMDL
MODEL 3
REMARK VINA RESULT:    -4.335      1.938      4.362
REMARK INTER + INTRA:          -6.911
REMARK INTER:                  -6.699
REMARK INTRA:                  -0.212
REMARK UNBOUND:                -0.294
REMARK SMILES CC1=CCC[C@H](C)C(=O)C[C@@H](C(C)C)C(=O)C1
REMARK SMILES IDX 8 1 9 2 6 3 7 4 5 5 4 6 3 7 2 8 1 9 10 11 11 12 15 13 16 14
REMARK SMILES IDX 17 15 12 17 13 18 14 19
REMARK H PARENT
REMARK Flexibility Score: 70.00
ROOT
ATOM      1  C   UNL     1      -8.852  30.079  39.897  1.00  0.00     0.136 C 
ATOM      2  O   UNL     1      -7.989  29.992  39.035  1.00  0.00    -0.299 OA
ENDROOT
BRANCH   1   3
ATOM      3  C   UNL     1      -9.111  28.895  40.810  1.00  0.00     0.053 C 
ATOM      4  C   UNL     1      -9.466  27.652  39.984  1.00  0.00     0.016 C 
BRANCH   3   5
ATOM      5  C   UNL     1      -7.881  28.628  41.710  1.00  0.00     0.015 C 
BRANCH   5   6
ATOM      6  C   UNL     1      -7.374  29.921  42.376  1.00  0.00     0.028 C 
BRANCH   6   7
ATOM      7  C   UNL     1      -8.346  30.502  43.375  1.00  0.00    -0.028 C 
ATOM      8  C   UNL     1      -8.731  31.801  43.441  1.00  0.00    -0.070 CG0
ATOM      9  C   UNL     1      -9.795  32.164  44.448  1.00  0.00     0.039 C 
ATOM     10  G   UNL     1      -8.115  32.911  42.599  1.00  0.00     0.000 G0
ENDBRANCH   6   7
ENDBRANCH   5   6
ENDBRANCH   3   5
ENDBRANCH   1   3
BRANCH   1  11
ATOM     11  C   UNL     1      -9.651  31.358  40.007  1.00  0.00     0.087 C 
BRANCH  11  12
ATOM     12  C   UNL     1      -8.734  32.612  40.066  1.00  0.00     0.066 C 
BRANCH  12  13
ATOM     13  C   UNL     1      -8.934  33.322  41.396  1.00  0.00     0.140 C 
ATOM     14  O   UNL     1      -9.736  34.244  41.483  1.00  0.00    -0.299 OA
BRANCH  13  15
ATOM     15  C   UNL     1      -8.111  32.927  42.598  1.00  0.00     0.106 CG0
ATOM     16  G   UNL     1      -8.720  31.802  43.425  1.00  0.00     0.000 G0
ENDBRANCH  13  15
ENDBRANCH  12  13
BRANCH  12  17
ATOM     17  C   UNL     1      -8.951  33.589  38.863  1.00  0.00    -0.006 C 
ATOM     18  C   UNL     1      -7.626  33.857  38.123  1.00  0.00     0.008 C 
ATOM     19  C   UNL     1      -9.981  33.059  37.848  1.00  0.00     0.008 C 
ENDBRANCH  12  17
ENDBRANCH  11  12
ENDBRANCH   1  11
TORSDOF 1
ENDMDL
MODEL 4
REMARK VINA RESULT:    -3.719      1.881      4.032
REMARK INTER + INTRA:          -5.970
REMARK INTER:                  -7.419
REMARK INTRA:                   1.449
REMARK UNBOUND:                -0.294
REMARK SMILES CC1=CCC[C@H](C)C(=O)C[C@@H](C(C)C)C(=O)C1
REMARK SMILES IDX 8 1 9 2 6 3 7 4 5 5 4 6 3 7 2 8 1 9 10 11 11 12 15 13 16 14
REMARK SMILES IDX 17 15 12 17 13 18 14 19
REMARK H PARENT
REMARK Flexibility Score: 70.00
ROOT
ATOM      1  C   UNL     1      -8.197  33.979  40.838  1.00  0.00     0.136 C 
ATOM      2  O   UNL     1      -7.344  33.625  40.036  1.00  0.00    -0.299 OA
ENDROOT
BRANCH   1   3
ATOM      3  C   UNL     1      -7.784  34.339  42.252  1.00  0.00     0.053 C 
ATOM      4  C   UNL     1      -8.975  34.921  43.025  1.00  0.00     0.016 C 
BRANCH   3   5
ATOM      5  C   UNL     1      -7.205  33.102  42.978  1.00  0.00     0.015 C 
BRANCH   5   6
ATOM      6  C   UNL     1      -8.317  32.131  43.418  1.00  0.00     0.028 C 
BRANCH   6   7
ATOM      7  C   UNL     1      -8.186  30.754  42.811  1.00  0.00    -0.028 C 
ATOM      8  C   UNL     1      -8.818  30.319  41.693  1.00  0.00    -0.070 CG0
ATOM      9  C   UNL     1      -8.472  28.940  41.187  1.00  0.00     0.039 C 
ATOM     10  G   UNL     1      -9.886  31.119  40.957  1.00  0.00     0.000 G0
ENDBRANCH   6   7
ENDBRANCH   5   6
ENDBRANCH   3   5
ENDBRANCH   1   3
BRANCH   1  11
ATOM     11  C   UNL     1      -9.643  34.020  40.397  1.00  0.00     0.087 C 
BRANCH  11  12
ATOM     12  C   UNL     1      -9.914  33.060  39.205  1.00  0.00     0.066 C 
BRANCH  12  13
ATOM     13  C   UNL     1      -9.537  31.641  39.604  1.00  0.00     0.140 C 
ATOM     14  O   UNL     1      -8.975  30.908  38.800  1.00  0.00    -0.299 OA
BRANCH  13  15
ATOM     15  C   UNL     1      -9.898  31.117  40.973  1.00  0.00     0.106 CG0
ATOM     16  G   UNL     1      -8.791  30.313  41.643  1.00  0.00     0.000 G0
ENDBRANCH  13  15
ENDBRANCH  12  13
BRANCH  12  17
ATOM     17  C   UNL     1      -9.185  33.491  37.890  1.00  0.00    -0.006 C 
ATOM     18  C   UNL     1      -9.757  32.741  36.671  1.00  0.00     0.008 C 
ATOM     19  C   UNL     1      -9.287  35.005  37.626  1.00  0.00     0.008 C 
ENDBRANCH  12  17
ENDBRANCH  11  12
ENDBRANCH   1  11
TORSDOF 1
ENDMDL
MODEL 5
REMARK VINA RESULT:    -3.482      1.700      3.732
REMARK INTER + INTRA:          -5.608
REMARK INTER:                  -6.286
REMARK INTRA:                   0.678
REMARK UNBOUND:                -0.294
REMARK SMILES CC1=CCC[C@H](C)C(=O)C[C@@H](C(C)C)C(=O)C1
REMARK SMILES IDX 8 1 9 2 6 3 7 4 5 5 4 6 3 7 2 8 1 9 10 11 11 12 15 13 16 14
REMARK SMILES IDX 17 15 12 17 13 18 14 19
REMARK H PARENT
REMARK Flexibility Score: 70.00
ROOT
ATOM      1  C   UNL     1      -9.202  32.208  39.324  1.00  0.00     0.136 C 
ATOM      2  O   UNL     1      -9.177  31.664  38.228  1.00  0.00    -0.299 OA
ENDROOT
BRANCH   1   3
ATOM      3  C   UNL     1      -8.357  33.445  39.557  1.00  0.00     0.053 C 
ATOM      4  C   UNL     1      -9.253  34.659  39.841  1.00  0.00     0.016 C 
BRANCH   3   5
ATOM      5  C   UNL     1      -7.363  33.209  40.719  1.00  0.00     0.015 C 
BRANCH   5   6
ATOM      6  C   UNL     1      -7.872  33.828  42.036  1.00  0.00     0.028 C 
BRANCH   6   7
ATOM      7  C   UNL     1      -7.499  33.025  43.258  1.00  0.00    -0.028 C 
ATOM      8  C   UNL     1      -8.152  31.926  43.712  1.00  0.00    -0.070 CG0
ATOM      9  C   UNL     1      -7.559  31.200  44.895  1.00  0.00     0.039 C 
ATOM     10  G   UNL     1      -9.467  31.422  43.132  1.00  0.00     0.000 G0
ENDBRANCH   6   7
ENDBRANCH   5   6
ENDBRANCH   3   5
ENDBRANCH   1   3
BRANCH   1  11
ATOM     11  C   UNL     1     -10.059  31.611  40.418  1.00  0.00     0.087 C 
BRANCH  11  12
ATOM     12  C   UNL     1      -9.571  30.194  40.828  1.00  0.00     0.066 C 
BRANCH  12  13
ATOM     13  C   UNL     1      -9.347  30.153  42.333  1.00  0.00     0.140 C 
ATOM     14  O   UNL     1      -9.101  29.088  42.886  1.00  0.00    -0.299 OA
BRANCH  13  15
ATOM     15  C   UNL     1      -9.475  31.413  43.153  1.00  0.00     0.106 CG0
ATOM     16  G   UNL     1      -8.154  31.932  43.706  1.00  0.00     0.000 G0
ENDBRANCH  13  15
ENDBRANCH  12  13
BRANCH  12  17
ATOM     17  C   UNL     1      -8.291  29.735  40.053  1.00  0.00    -0.006 C 
ATOM     18  C   UNL     1      -7.122  29.473  41.023  1.00  0.00     0.008 C 
ATOM     19  C   UNL     1      -8.530  28.464  39.218  1.00  0.00     0.008 C 
ENDBRANCH  12  17
ENDBRANCH  11  12
ENDBRANCH   1  11
TORSDOF 1
ENDMDL
MODEL 6
REMARK VINA RESULT:    -3.166      1.740      3.817
REMARK INTER + INTRA:          -5.127
REMARK INTER:                  -7.143
REMARK INTRA:                   2.016
REMARK UNBOUND:                -0.294
REMARK SMILES CC1=CCC[C@H](C)C(=O)C[C@@H](C(C)C)C(=O)C1
REMARK SMILES IDX 8 1 9 2 6 3 7 4 5 5 4 6 3 7 2 8 1 9 10 11 11 12 15 13 16 14
REMARK SMILES IDX 17 15 12 17 13 18 14 19
REMARK H PARENT
REMARK Flexibility Score: 70.00
ROOT
ATOM      1  C   UNL     1      -8.499  29.595  40.901  1.00  0.00     0.136 C 
ATOM      2  O   UNL     1      -7.619  29.504  41.746  1.00  0.00    -0.299 OA
ENDROOT
BRANCH   1   3
ATOM      3  C   UNL     1      -8.326  28.887  39.571  1.00  0.00     0.053 C 
ATOM      4  C   UNL     1      -9.087  27.554  39.572  1.00  0.00     0.016 C 
BRANCH   3   5
ATOM      5  C   UNL     1      -8.802  29.793  38.411  1.00  0.00     0.015 C 
BRANCH   5   6
ATOM      6  C   UNL     1      -7.710  30.796  37.990  1.00  0.00     0.028 C 
BRANCH   6   7
ATOM      7  C   UNL     1      -8.264  32.095  37.454  1.00  0.00    -0.028 C 
ATOM      8  C   UNL     1      -9.253  32.828  38.024  1.00  0.00    -0.070 CG0
ATOM      9  C   UNL     1      -9.594  34.154  37.389  1.00  0.00     0.039 C 
ATOM     10  G   UNL     1     -10.065  32.365  39.227  1.00  0.00     0.000 G0
ENDBRANCH   6   7
ENDBRANCH   5   6
ENDBRANCH   3   5
ENDBRANCH   1   3
BRANCH   1  11
ATOM     11  C   UNL     1      -9.720  30.433  41.204  1.00  0.00     0.087 C 
BRANCH  11  12
ATOM     12  C   UNL     1      -9.340  31.865  41.673  1.00  0.00     0.066 C 
BRANCH  12  13
ATOM     13  C   UNL     1      -9.636  32.857  40.559  1.00  0.00     0.140 C 
ATOM     14  O   UNL     1      -9.544  34.060  40.770  1.00  0.00    -0.299 OA
BRANCH  13  15
ATOM     15  C   UNL     1     -10.091  32.365  39.207  1.00  0.00     0.106 CG0
ATOM     16  G   UNL     1      -9.230  32.849  38.047  1.00  0.00     0.000 G0
ENDBRANCH  13  15
ENDBRANCH  12  13
BRANCH  12  17
ATOM     17  C   UNL     1      -7.855  31.980  42.154  1.00  0.00    -0.006 C 
ATOM     18  C   UNL     1      -7.169  33.214  41.534  1.00  0.00     0.008 C 
ATOM     19  C   UNL     1      -7.735  32.070  43.687  1.00  0.00     0.008 C 
ENDBRANCH  12  17
ENDBRANCH  11  12
ENDBRANCH   1  11
TORSDOF 1
ENDMDL
MODEL 7
REMARK VINA RESULT:    -3.157      1.771      2.800
REMARK INTER + INTRA:          -5.112
REMARK INTER:                  -6.022
REMARK INTRA:                   0.910
REMARK UNBOUND:                -0.294
REMARK SMILES CC1=CCC[C@H](C)C(=O)C[C@@H](C(C)C)C(=O)C1
REMARK SMILES IDX 8 1 9 2 6 3 7 4 5 5 4 6 3 7 2 8 1 9 10 11 11 12 15 13 16 14
REMARK SMILES IDX 17 15 12 17 13 18 14 19
REMARK H PARENT
REMARK Flexibility Score: 70.00
ROOT
ATOM      1  C   UNL     1      -8.979  29.677  41.663  1.00  0.00     0.136 C 
ATOM      2  O   UNL     1     -10.056  29.744  41.085  1.00  0.00    -0.299 OA
ENDROOT
BRANCH   1   3
ATOM      3  C   UNL     1      -8.953  29.384  43.151  1.00  0.00     0.053 C 
ATOM      4  C   UNL     1      -7.574  28.853  43.566  1.00  0.00     0.016 C 
BRANCH   3   5
ATOM      5  C   UNL     1      -9.322  30.651  43.958  1.00  0.00     0.015 C 
BRANCH   5   6
ATOM      6  C   UNL     1      -8.138  31.635  44.044  1.00  0.00     0.028 C 
BRANCH   6   7
ATOM      7  C   UNL     1      -8.525  33.065  43.752  1.00  0.00    -0.028 C 
ATOM      8  C   UNL     1      -8.364  33.700  42.564  1.00  0.00    -0.070 CG0
ATOM      9  C   UNL     1      -8.912  35.101  42.442  1.00  0.00     0.039 C 
ATOM     10  G   UNL     1      -7.621  33.102  41.377  1.00  0.00     0.000 G0
ENDBRANCH   6   7
ENDBRANCH   5   6
ENDBRANCH   3   5
ENDBRANCH   1   3
BRANCH   1  11
ATOM     11  C   UNL     1      -7.710  29.915  40.876  1.00  0.00     0.087 C 
BRANCH  11  12
ATOM     12  C   UNL     1      -7.897  31.012  39.791  1.00  0.00     0.066 C 
BRANCH  12  13
ATOM     13  C   UNL     1      -8.467  32.267  40.435  1.00  0.00     0.140 C 
ATOM     14  O   UNL     1      -9.604  32.632  40.164  1.00  0.00    -0.299 OA
BRANCH  13  15
ATOM     15  C   UNL     1      -7.617  33.092  41.370  1.00  0.00     0.106 CG0
ATOM     16  G   UNL     1      -8.380  33.679  42.551  1.00  0.00     0.000 G0
ENDBRANCH  13  15
ENDBRANCH  12  13
BRANCH  12  17
ATOM     17  C   UNL     1      -8.780  30.543  38.587  1.00  0.00    -0.006 C 
ATOM     18  C   UNL     1      -8.541  31.429  37.349  1.00  0.00     0.008 C 
ATOM     19  C   UNL     1      -8.518  29.076  38.198  1.00  0.00     0.008 C 
ENDBRANCH  12  17
ENDBRANCH  11  12
ENDBRANCH   1  11
TORSDOF 1
ENDMDL
MODEL 8
REMARK VINA RESULT:    -3.037      1.762      3.688
REMARK INTER + INTRA:          -4.930
REMARK INTER:                  -7.279
REMARK INTRA:                   2.349
REMARK UNBOUND:                -0.294
REMARK SMILES CC1=CCC[C@H](C)C(=O)C[C@@H](C(C)C)C(=O)C1
REMARK SMILES IDX 8 1 9 2 6 3 7 4 5 5 4 6 3 7 2 8 1 9 10 11 11 12 15 13 16 14
REMARK SMILES IDX 17 15 12 17 13 18 14 19
REMARK H PARENT
REMARK Flexibility Score: 70.00
ROOT
ATOM      1  C   UNL     1      -9.141  30.802  39.665  1.00  0.00     0.136 C 
ATOM      2  O   UNL     1      -8.678  29.688  39.462  1.00  0.00    -0.299 OA
ENDROOT
BRANCH   1   3
ATOM      3  C   UNL     1      -8.755  31.946  38.747  1.00  0.00     0.053 C 
ATOM      4  C   UNL     1      -8.588  31.441  37.307  1.00  0.00     0.016 C 
BRANCH   3   5
ATOM      5  C   UNL     1      -9.809  33.076  38.817  1.00  0.00     0.015 C 
BRANCH   5   6
ATOM      6  C   UNL     1      -9.172  34.423  39.210  1.00  0.00     0.028 C 
BRANCH   6   7
ATOM      7  C   UNL     1      -9.398  34.794  40.656  1.00  0.00    -0.028 C 
ATOM      8  C   UNL     1      -8.631  34.400  41.703  1.00  0.00    -0.070 CG0
ATOM      9  C   UNL     1      -8.962  34.966  43.062  1.00  0.00     0.039 C 
ATOM     10  G   UNL     1      -7.500  33.387  41.590  1.00  0.00     0.000 G0
ENDBRANCH   6   7
ENDBRANCH   5   6
ENDBRANCH   3   5
ENDBRANCH   1   3
BRANCH   1  11
ATOM     11  C   UNL     1     -10.066  31.006  40.844  1.00  0.00     0.087 C 
BRANCH  11  12
ATOM     12  C   UNL     1      -9.315  31.572  42.081  1.00  0.00     0.066 C 
BRANCH  12  13
ATOM     13  C   UNL     1      -7.894  31.943  41.683  1.00  0.00     0.140 C 
ATOM     14  O   UNL     1      -7.072  31.063  41.459  1.00  0.00    -0.299 OA
BRANCH  13  15
ATOM     15  C   UNL     1      -7.482  33.393  41.610  1.00  0.00     0.106 CG0
ATOM     16  G   UNL     1      -8.641  34.375  41.716  1.00  0.00     0.000 G0
ENDBRANCH  13  15
ENDBRANCH  12  13
BRANCH  12  17
ATOM     17  C   UNL     1      -9.324  30.597  43.305  1.00  0.00    -0.006 C 
ATOM     18  C   UNL     1      -8.451  29.357  43.028  1.00  0.00     0.008 C 
ATOM     19  C   UNL     1      -8.827  31.268  44.599  1.00  0.00     0.008 C 
ENDBRANCH  12  17
ENDBRANCH  11  12
ENDBRANCH   1  11
TORSDOF 1
ENDMDL
MODEL 9
REMARK VINA RESULT:    -3.024     18.085     19.885
REMARK INTER + INTRA:          -4.909
REMARK INTER:                  -5.013
REMARK INTRA:                   0.104
REMARK UNBOUND:                -0.294
REMARK SMILES CC1=CCC[C@H](C)C(=O)C[C@@H](C(C)C)C(=O)C1
REMARK SMILES IDX 8 1 9 2 6 3 7 4 5 5 4 6 3 7 2 8 1 9 10 11 11 12 15 13 16 14
REMARK SMILES IDX 17 15 12 17 13 18 14 19
REMARK H PARENT
REMARK Flexibility Score: 70.00
ROOT
ATOM      1  C   UNL     1      -0.080  17.343  51.221  1.00  0.00     0.136 C 
ATOM      2  O   UNL     1       0.090  18.245  50.412  1.00  0.00    -0.299 OA
ENDROOT
BRANCH   1   3
ATOM      3  C   UNL     1       0.994  16.286  51.392  1.00  0.00     0.053 C 
ATOM      4  C   UNL     1       0.427  15.062  52.123  1.00  0.00     0.016 C 
BRANCH   3   5
ATOM      5  C   UNL     1       1.582  15.886  50.018  1.00  0.00     0.015 C 
BRANCH   5   6
ATOM      6  C   UNL     1       0.661  14.900  49.272  1.00  0.00     0.028 C 
BRANCH   6   7
ATOM      7  C   UNL     1       0.002  15.500  48.053  1.00  0.00    -0.028 C 
ATOM      8  C   UNL     1      -1.317  15.791  47.930  1.00  0.00    -0.070 CG0
ATOM      9  C   UNL     1      -1.763  16.486  46.666  1.00  0.00     0.039 C 
ATOM     10  G   UNL     1      -2.369  15.411  48.963  1.00  0.00     0.000 G0
ENDBRANCH   6   7
ENDBRANCH   5   6
ENDBRANCH   3   5
ENDBRANCH   1   3
BRANCH   1  11
ATOM     11  C   UNL     1      -1.372  17.300  52.007  1.00  0.00     0.087 C 
BRANCH  11  12
ATOM     12  C   UNL     1      -2.349  16.224  51.458  1.00  0.00     0.066 C 
BRANCH  12  13
ATOM     13  C   UNL     1      -2.622  16.494  49.986  1.00  0.00     0.140 C 
ATOM     14  O   UNL     1      -3.080  17.574  49.636  1.00  0.00    -0.299 OA
BRANCH  13  15
ATOM     15  C   UNL     1      -2.376  15.415  48.960  1.00  0.00     0.106 CG0
ATOM     16  G   UNL     1      -1.336  15.782  47.909  1.00  0.00     0.000 G0
ENDBRANCH  13  15
ENDBRANCH  12  13
BRANCH  12  17
ATOM     17  C   UNL     1      -3.682  16.131  52.273  1.00  0.00    -0.006 C 
ATOM     18  C   UNL     1      -3.611  14.999  53.318  1.00  0.00     0.008 C 
ATOM     19  C   UNL     1      -4.025  17.446  52.997  1.00  0.00     0.008 C 
ENDBRANCH  12  17
ENDBRANCH  11  12
ENDBRANCH   1  11
TORSDOF 1
ENDMDL
