MODEL 1
REMARK VINA RESULT:    -4.389      0.000      0.000
REMARK INTER + INTRA:          -6.959
REMARK INTER:                  -5.929
REMARK INTRA:                  -1.030
REMARK UNBOUND:                -1.030
REMARK SMILES CC(C)=CCC[C@H](C(=O)[O-])[C@@H]1[C@@H](O)C[C@]2(C)C3=CC[C@@H]4C(C)(C)[C@H](O)CC[C@]4(C)C3=CC[C@]12C
REMARK SMILES IDX 6 1 7 2 8 3 9 4 10 5 11 6 12 7 33 8 14 9 15 10 32 11 34 12
REMARK SMILES IDX 16 13 17 14 31 15 30 16 18 17 28 18 19 19 20 20 27 21 29 22
REMARK SMILES IDX 21 23 26 24 24 25 22 26 23 27 13 28 25 30 5 32 4 33 2 34
REMARK SMILES IDX 1 35 3 36
REMARK H PARENT 13 29 25 31
REMARK Flexibility Score: inf
ROOT
ATOM      1  C   UNL     1     100.252 112.058 115.837  1.00  0.00     0.014 C 
ENDROOT
BRANCH   1   2
ATOM      2  C   UNL     1      99.917 113.513 115.418  1.00  0.00     0.042 C 
BRANCH   2   3
ATOM      3  C   UNL     1     100.041 113.630 113.918  1.00  0.00     0.045 C 
ATOM      4  O   UNL     1      99.008 113.664 113.199  1.00  0.00    -0.550 OA
ATOM      5  O   UNL     1     101.294 113.653 113.318  1.00  0.00    -0.550 OA
ENDBRANCH   2   3
BRANCH   2   6
ATOM      6  C   UNL     1     100.841 114.565 116.131  1.00  0.00     0.034 C 
ATOM      7  C   UNL     1     102.210 113.982 116.572  1.00  0.00     0.119 C 
ATOM      8  C   UNL     1     100.257 115.274 117.406  1.00  0.00    -0.014 C 
ATOM      9  C   UNL     1     102.508 114.528 117.969  1.00  0.00     0.044 C 
ATOM     10  C   UNL     1     101.536 115.695 118.218  1.00  0.00     0.001 C 
ATOM     11  C   UNL     1      99.412 114.294 118.274  1.00  0.00     0.035 C 
ATOM     12  C   UNL     1      99.369 116.496 117.025  1.00  0.00     0.013 C 
ATOM     13  C   UNL     1     102.168 117.010 117.676  1.00  0.00     0.017 C 
ATOM     14  C   UNL     1     101.271 115.848 119.724  1.00  0.00    -0.042 C 
ATOM     15  C   UNL     1      99.031 114.924 119.578  1.00  0.00    -0.022 C 
ATOM     16  C   UNL     1      99.905 115.666 120.283  1.00  0.00    -0.042 C 
ATOM     17  C   UNL     1     102.276 116.101 120.570  1.00  0.00    -0.022 C 
ATOM     18  C   UNL     1      99.496 116.329 121.623  1.00  0.00    -0.004 C 
ATOM     19  C   UNL     1     102.035 116.224 122.038  1.00  0.00     0.032 C 
ATOM     20  C   UNL     1     100.745 117.051 122.304  1.00  0.00     0.011 C 
ATOM     21  C   UNL     1      98.947 115.214 122.563  1.00  0.00     0.014 C 
ATOM     22  C   UNL     1      98.379 117.365 121.286  1.00  0.00     0.017 C 
ATOM     23  C   UNL     1     100.558 117.432 123.840  1.00  0.00    -0.005 C 
ATOM     24  C   UNL     1      98.701 115.664 124.007  1.00  0.00     0.033 C 
ATOM     25  C   UNL     1      99.965 116.242 124.655  1.00  0.00     0.120 C 
ATOM     26  C   UNL     1      99.642 118.681 123.986  1.00  0.00     0.014 C 
ATOM     27  C   UNL     1     101.904 117.858 124.495  1.00  0.00     0.014 C 
BRANCH   7  28
ATOM     28  O   UNL     1     103.230 114.395 115.696  1.00  0.00    -0.393 OA
ATOM     29  H   UNL     1     102.821 115.000 115.027  1.00  0.00     0.210 HD
ENDBRANCH   7  28
BRANCH  25  30
ATOM     30  O   UNL     1     100.919 115.218 124.802  1.00  0.00    -0.393 OA
ATOM     31  H   UNL     1     101.545 115.504 125.519  1.00  0.00     0.210 HD
ENDBRANCH  25  30
ENDBRANCH   2   6
ENDBRANCH   1   2
BRANCH   1  32
ATOM     32  C   UNL     1      99.386 111.556 117.005  1.00  0.00     0.028 C 
BRANCH  32  33
ATOM     33  C   UNL     1     100.084 110.442 117.747  1.00  0.00    -0.028 C 
ATOM     34  C   UNL     1     100.644 110.573 118.969  1.00  0.00    -0.080 C 
ATOM     35  C   UNL     1     100.676 111.896 119.699  1.00  0.00     0.039 C 
ATOM     36  C   UNL     1     101.272 109.359 119.604  1.00  0.00     0.039 C 
ENDBRANCH  32  33
ENDBRANCH   1  32
TORSDOF 7
ENDMDL
MODEL 2
REMARK VINA RESULT:    -4.055      1.602      3.416
REMARK INTER + INTRA:          -6.508
REMARK INTER:                  -7.153
REMARK INTRA:                   0.646
REMARK UNBOUND:                -1.030
REMARK SMILES CC(C)=CCC[C@H](C(=O)[O-])[C@@H]1[C@@H](O)C[C@]2(C)C3=CC[C@@H]4C(C)(C)[C@H](O)CC[C@]4(C)C3=CC[C@]12C
REMARK SMILES IDX 6 1 7 2 8 3 9 4 10 5 11 6 12 7 33 8 14 9 15 10 32 11 34 12
REMARK SMILES IDX 16 13 17 14 31 15 30 16 18 17 28 18 19 19 20 20 27 21 29 22
REMARK SMILES IDX 21 23 26 24 24 25 22 26 23 27 13 28 25 30 5 32 4 33 2 34
REMARK SMILES IDX 1 35 3 36
REMARK H PARENT 13 29 25 31
REMARK Flexibility Score: inf
ROOT
ATOM      1  C   UNL     1     101.504 112.904 114.012  1.00  0.00     0.014 C 
ENDROOT
BRANCH   1   2
ATOM      2  C   UNL     1     100.754 113.293 115.312  1.00  0.00     0.042 C 
BRANCH   2   3
ATOM      3  C   UNL     1      99.315 113.595 114.973  1.00  0.00     0.045 C 
ATOM      4  O   UNL     1      98.402 112.801 115.320  1.00  0.00    -0.550 OA
ATOM      5  O   UNL     1      98.991 114.729 114.236  1.00  0.00    -0.550 OA
ENDBRANCH   2   3
BRANCH   2   6
ATOM      6  C   UNL     1     101.418 114.517 116.039  1.00  0.00     0.034 C 
ATOM      7  C   UNL     1     102.872 114.240 116.505  1.00  0.00     0.119 C 
ATOM      8  C   UNL     1     100.674 115.081 117.302  1.00  0.00    -0.014 C 
ATOM      9  C   UNL     1     103.021 114.835 117.906  1.00  0.00     0.044 C 
ATOM     10  C   UNL     1     101.818 115.765 118.135  1.00  0.00     0.001 C 
ATOM     11  C   UNL     1     100.043 113.942 118.157  1.00  0.00     0.035 C 
ATOM     12  C   UNL     1      99.550 116.085 116.903  1.00  0.00     0.013 C 
ATOM     13  C   UNL     1     102.162 117.187 117.602  1.00  0.00     0.017 C 
ATOM     14  C   UNL     1     101.500 115.855 119.637  1.00  0.00    -0.042 C 
ATOM     15  C   UNL     1      99.513 114.473 119.454  1.00  0.00    -0.022 C 
ATOM     16  C   UNL     1     100.195 115.384 120.172  1.00  0.00    -0.042 C 
ATOM     17  C   UNL     1     102.412 116.317 120.499  1.00  0.00    -0.022 C 
ATOM     18  C   UNL     1      99.631 115.942 121.504  1.00  0.00    -0.004 C 
ATOM     19  C   UNL     1     102.125 116.382 121.963  1.00  0.00     0.032 C 
ATOM     20  C   UNL     1     100.684 116.913 122.205  1.00  0.00     0.011 C 
ATOM     21  C   UNL     1      99.317 114.733 122.436  1.00  0.00     0.014 C 
ATOM     22  C   UNL     1      98.323 116.714 121.145  1.00  0.00     0.017 C 
ATOM     23  C   UNL     1     100.392 117.242 123.736  1.00  0.00    -0.005 C 
ATOM     24  C   UNL     1      98.955 115.116 123.875  1.00  0.00     0.033 C 
ATOM     25  C   UNL     1     100.054 115.951 124.544  1.00  0.00     0.120 C 
ATOM     26  C   UNL     1      99.227 118.265 123.864  1.00  0.00     0.014 C 
ATOM     27  C   UNL     1     101.604 117.945 124.414  1.00  0.00     0.014 C 
BRANCH   7  28
ATOM     28  O   UNL     1     103.795 114.864 115.646  1.00  0.00    -0.393 OA
ATOM     29  H   UNL     1     103.615 115.837 115.673  1.00  0.00     0.210 HD
ENDBRANCH   7  28
BRANCH  25  30
ATOM     30  O   UNL     1     101.203 115.155 124.709  1.00  0.00    -0.393 OA
ATOM     31  H   UNL     1     101.152 114.756 125.617  1.00  0.00     0.210 HD
ENDBRANCH  25  30
ENDBRANCH   2   6
ENDBRANCH   1   2
BRANCH   1  32
ATOM     32  C   UNL     1     101.003 113.672 112.777  1.00  0.00     0.028 C 
BRANCH  32  33
ATOM     33  C   UNL     1     101.009 112.785 111.556  1.00  0.00    -0.028 C 
ATOM     34  C   UNL     1     101.378 113.188 110.321  1.00  0.00    -0.080 C 
ATOM     35  C   UNL     1     101.773 114.618 110.029  1.00  0.00     0.039 C 
ATOM     36  C   UNL     1     101.372 112.177 109.204  1.00  0.00     0.039 C 
ENDBRANCH  32  33
ENDBRANCH   1  32
TORSDOF 7
ENDMDL
MODEL 3
REMARK VINA RESULT:    -3.541      1.433      2.559
REMARK INTER + INTRA:          -5.813
REMARK INTER:                  -5.962
REMARK INTRA:                   0.149
REMARK UNBOUND:                -1.030
REMARK SMILES CC(C)=CCC[C@H](C(=O)[O-])[C@@H]1[C@@H](O)C[C@]2(C)C3=CC[C@@H]4C(C)(C)[C@H](O)CC[C@]4(C)C3=CC[C@]12C
REMARK SMILES IDX 6 1 7 2 8 3 9 4 10 5 11 6 12 7 33 8 14 9 15 10 32 11 34 12
REMARK SMILES IDX 16 13 17 14 31 15 30 16 18 17 28 18 19 19 20 20 27 21 29 22
REMARK SMILES IDX 21 23 26 24 24 25 22 26 23 27 13 28 25 30 5 32 4 33 2 34
REMARK SMILES IDX 1 35 3 36
REMARK H PARENT 13 29 25 31
REMARK Flexibility Score: inf
ROOT
ATOM      1  C   UNL     1     100.444 112.539 116.017  1.00  0.00     0.014 C 
ENDROOT
BRANCH   1   2
ATOM      2  C   UNL     1     100.763 113.808 115.186  1.00  0.00     0.042 C 
BRANCH   2   3
ATOM      3  C   UNL     1     101.605 113.414 113.997  1.00  0.00     0.045 C 
ATOM      4  O   UNL     1     102.730 112.876 114.168  1.00  0.00    -0.550 OA
ATOM      5  O   UNL     1     101.164 113.683 112.706  1.00  0.00    -0.550 OA
ENDBRANCH   2   3
BRANCH   2   6
ATOM      6  C   UNL     1     101.492 114.910 116.037  1.00  0.00     0.034 C 
ATOM      7  C   UNL     1     102.886 114.465 116.552  1.00  0.00     0.119 C 
ATOM      8  C   UNL     1     100.730 115.448 117.301  1.00  0.00    -0.014 C 
ATOM      9  C   UNL     1     103.008 114.941 118.000  1.00  0.00     0.044 C 
ATOM     10  C   UNL     1     101.881 115.961 118.241  1.00  0.00     0.001 C 
ATOM     11  C   UNL     1      99.953 114.314 118.033  1.00  0.00     0.035 C 
ATOM     12  C   UNL     1      99.725 116.579 116.925  1.00  0.00     0.013 C 
ATOM     13  C   UNL     1     102.381 117.379 117.836  1.00  0.00     0.017 C 
ATOM     14  C   UNL     1     101.488 115.972 119.727  1.00  0.00    -0.042 C 
ATOM     15  C   UNL     1      99.399 114.798 119.339  1.00  0.00    -0.022 C 
ATOM     16  C   UNL     1     100.118 115.587 120.158  1.00  0.00    -0.042 C 
ATOM     17  C   UNL     1     102.388 116.283 120.666  1.00  0.00    -0.022 C 
ATOM     18  C   UNL     1      99.531 116.097 121.499  1.00  0.00    -0.004 C 
ATOM     19  C   UNL     1     102.025 116.269 122.115  1.00  0.00     0.032 C 
ATOM     20  C   UNL     1     100.625 116.913 122.324  1.00  0.00     0.011 C 
ATOM     21  C   UNL     1      99.058 114.859 122.319  1.00  0.00     0.014 C 
ATOM     22  C   UNL     1      98.320 117.012 121.136  1.00  0.00     0.017 C 
ATOM     23  C   UNL     1     100.277 117.157 123.860  1.00  0.00    -0.005 C 
ATOM     24  C   UNL     1      98.651 115.170 123.763  1.00  0.00     0.033 C 
ATOM     25  C   UNL     1      99.780 115.848 124.548  1.00  0.00     0.120 C 
ATOM     26  C   UNL     1      99.203 118.273 124.008  1.00  0.00     0.014 C 
ATOM     27  C   UNL     1     101.507 117.694 124.650  1.00  0.00     0.014 C 
BRANCH   7  28
ATOM     28  O   UNL     1     103.908 115.061 115.791  1.00  0.00    -0.393 OA
ATOM     29  H   UNL     1     103.483 115.489 115.006  1.00  0.00     0.210 HD
ENDBRANCH   7  28
BRANCH  25  30
ATOM     30  O   UNL     1     100.842 114.939 124.709  1.00  0.00    -0.393 OA
ATOM     31  H   UNL     1     101.027 114.546 123.816  1.00  0.00     0.210 HD
ENDBRANCH  25  30
ENDBRANCH   2   6
ENDBRANCH   1   2
BRANCH   1  32
ATOM     32  C   UNL     1      99.222 111.767 115.491  1.00  0.00     0.028 C 
BRANCH  32  33
ATOM     33  C   UNL     1      98.234 112.708 114.844  1.00  0.00    -0.028 C 
ATOM     34  C   UNL     1      97.967 112.742 113.521  1.00  0.00    -0.080 C 
ATOM     35  C   UNL     1      98.693 111.860 112.532  1.00  0.00     0.039 C 
ATOM     36  C   UNL     1      96.923 113.710 113.025  1.00  0.00     0.039 C 
ENDBRANCH  32  33
ENDBRANCH   1  32
TORSDOF 7
ENDMDL
MODEL 4
REMARK VINA RESULT:    -3.367      2.455      4.486
REMARK INTER + INTRA:          -5.578
REMARK INTER:                  -4.806
REMARK INTRA:                  -0.772
REMARK UNBOUND:                -1.030
REMARK SMILES CC(C)=CCC[C@H](C(=O)[O-])[C@@H]1[C@@H](O)C[C@]2(C)C3=CC[C@@H]4C(C)(C)[C@H](O)CC[C@]4(C)C3=CC[C@]12C
REMARK SMILES IDX 6 1 7 2 8 3 9 4 10 5 11 6 12 7 33 8 14 9 15 10 32 11 34 12
REMARK SMILES IDX 16 13 17 14 31 15 30 16 18 17 28 18 19 19 20 20 27 21 29 22
REMARK SMILES IDX 21 23 26 24 24 25 22 26 23 27 13 28 25 30 5 32 4 33 2 34
REMARK SMILES IDX 1 35 3 36
REMARK H PARENT 13 29 25 31
REMARK Flexibility Score: inf
ROOT
ATOM      1  C   UNL     1      97.805 113.123 114.112  1.00  0.00     0.014 C 
ENDROOT
BRANCH   1   2
ATOM      2  C   UNL     1      99.307 113.439 114.336  1.00  0.00     0.042 C 
BRANCH   2   3
ATOM      3  C   UNL     1     100.081 113.020 113.110  1.00  0.00     0.045 C 
ATOM      4  O   UNL     1     100.925 113.800 112.597  1.00  0.00    -0.550 OA
ATOM      5  O   UNL     1      99.834 111.790 112.511  1.00  0.00    -0.550 OA
ENDBRANCH   2   3
BRANCH   2   6
ATOM      6  C   UNL     1      99.879 112.732 115.617  1.00  0.00     0.034 C 
ATOM      7  C   UNL     1      98.898 111.705 116.242  1.00  0.00     0.119 C 
ATOM      8  C   UNL     1     100.322 113.663 116.803  1.00  0.00    -0.014 C 
ATOM      9  C   UNL     1      98.953 111.888 117.759  1.00  0.00     0.044 C 
ATOM     10  C   UNL     1     100.196 112.740 118.070  1.00  0.00     0.001 C 
ATOM     11  C   UNL     1      99.362 114.878 116.971  1.00  0.00     0.035 C 
ATOM     12  C   UNL     1     101.771 114.197 116.600  1.00  0.00     0.013 C 
ATOM     13  C   UNL     1     101.428 111.804 118.237  1.00  0.00     0.017 C 
ATOM     14  C   UNL     1      99.983 113.529 119.372  1.00  0.00    -0.042 C 
ATOM     15  C   UNL     1      99.676 115.643 118.220  1.00  0.00    -0.022 C 
ATOM     16  C   UNL     1      99.973 115.016 119.373  1.00  0.00    -0.042 C 
ATOM     17  C   UNL     1      99.755 112.890 120.525  1.00  0.00    -0.022 C 
ATOM     18  C   UNL     1     100.315 115.815 120.656  1.00  0.00    -0.004 C 
ATOM     19  C   UNL     1      99.518 113.646 121.791  1.00  0.00     0.032 C 
ATOM     20  C   UNL     1     100.513 114.836 121.900  1.00  0.00     0.011 C 
ATOM     21  C   UNL     1      99.140 116.801 120.935  1.00  0.00     0.014 C 
ATOM     22  C   UNL     1     101.631 116.597 120.357  1.00  0.00     0.017 C 
ATOM     23  C   UNL     1     100.487 115.537 123.330  1.00  0.00    -0.005 C 
ATOM     24  C   UNL     1      99.217 117.514 122.289  1.00  0.00     0.033 C 
ATOM     25  C   UNL     1      99.287 116.526 123.460  1.00  0.00     0.120 C 
ATOM     26  C   UNL     1     101.822 116.290 123.595  1.00  0.00     0.014 C 
ATOM     27  C   UNL     1     100.394 114.493 124.481  1.00  0.00     0.014 C 
BRANCH   7  28
ATOM     28  O   UNL     1      99.292 110.391 115.930  1.00  0.00    -0.393 OA
ATOM     29  H   UNL     1     100.276 110.393 115.822  1.00  0.00     0.210 HD
ENDBRANCH   7  28
BRANCH  25  30
ATOM     30  O   UNL     1      98.072 115.821 123.543  1.00  0.00    -0.393 OA
ATOM     31  H   UNL     1      98.274 114.938 123.949  1.00  0.00     0.210 HD
ENDBRANCH  25  30
ENDBRANCH   2   6
ENDBRANCH   1   2
BRANCH   1  32
ATOM     32  C   UNL     1      97.215 113.850 112.892  1.00  0.00     0.028 C 
BRANCH  32  33
ATOM     33  C   UNL     1      96.740 112.858 111.858  1.00  0.00    -0.028 C 
ATOM     34  C   UNL     1      95.758 113.099 110.963  1.00  0.00    -0.080 C 
ATOM     35  C   UNL     1      94.983 114.397 110.953  1.00  0.00     0.039 C 
ATOM     36  C   UNL     1      95.419 112.026 109.962  1.00  0.00     0.039 C 
ENDBRANCH  32  33
ENDBRANCH   1  32
TORSDOF 7
ENDMDL
MODEL 5
REMARK VINA RESULT:    -2.187      2.066      4.157
REMARK INTER + INTRA:          -3.985
REMARK INTER:                  -4.257
REMARK INTRA:                   0.272
REMARK UNBOUND:                -1.030
REMARK SMILES CC(C)=CCC[C@H](C(=O)[O-])[C@@H]1[C@@H](O)C[C@]2(C)C3=CC[C@@H]4C(C)(C)[C@H](O)CC[C@]4(C)C3=CC[C@]12C
REMARK SMILES IDX 6 1 7 2 8 3 9 4 10 5 11 6 12 7 33 8 14 9 15 10 32 11 34 12
REMARK SMILES IDX 16 13 17 14 31 15 30 16 18 17 28 18 19 19 20 20 27 21 29 22
REMARK SMILES IDX 21 23 26 24 24 25 22 26 23 27 13 28 25 30 5 32 4 33 2 34
REMARK SMILES IDX 1 35 3 36
REMARK H PARENT 13 29 25 31
REMARK Flexibility Score: inf
ROOT
ATOM      1  C   UNL     1      99.091 111.815 113.748  1.00  0.00     0.014 C 
ENDROOT
BRANCH   1   2
ATOM      2  C   UNL     1      99.258 112.892 114.851  1.00  0.00     0.042 C 
BRANCH   2   3
ATOM      3  C   UNL     1     100.148 113.993 114.328  1.00  0.00     0.045 C 
ATOM      4  O   UNL     1     101.350 113.753 114.042  1.00  0.00    -0.550 OA
ATOM      5  O   UNL     1      99.659 115.288 114.200  1.00  0.00    -0.550 OA
ENDBRANCH   2   3
BRANCH   2   6
ATOM      6  C   UNL     1      99.843 112.295 116.181  1.00  0.00     0.034 C 
ATOM      7  C   UNL     1      98.870 111.322 116.898  1.00  0.00     0.119 C 
ATOM      8  C   UNL     1     100.293 113.323 117.282  1.00  0.00    -0.014 C 
ATOM      9  C   UNL     1      98.937 111.631 118.394  1.00  0.00     0.044 C 
ATOM     10  C   UNL     1     100.181 112.508 118.622  1.00  0.00     0.001 C 
ATOM     11  C   UNL     1      99.331 114.546 117.357  1.00  0.00     0.035 C 
ATOM     12  C   UNL     1     101.739 113.841 117.023  1.00  0.00     0.013 C 
ATOM     13  C   UNL     1     101.416 111.591 118.856  1.00  0.00     0.017 C 
ATOM     14  C   UNL     1      99.977 113.402 119.856  1.00  0.00    -0.042 C 
ATOM     15  C   UNL     1      99.654 115.412 118.536  1.00  0.00    -0.022 C 
ATOM     16  C   UNL     1      99.962 114.883 119.734  1.00  0.00    -0.042 C 
ATOM     17  C   UNL     1      99.760 112.860 121.060  1.00  0.00    -0.022 C 
ATOM     18  C   UNL     1     100.313 115.787 120.943  1.00  0.00    -0.004 C 
ATOM     19  C   UNL     1      99.532 113.718 122.261  1.00  0.00     0.032 C 
ATOM     20  C   UNL     1     100.524 114.915 122.262  1.00  0.00     0.011 C 
ATOM     21  C   UNL     1      99.139 116.791 121.150  1.00  0.00     0.014 C 
ATOM     22  C   UNL     1     101.625 116.544 120.568  1.00  0.00     0.017 C 
ATOM     23  C   UNL     1     100.509 115.733 123.629  1.00  0.00    -0.005 C 
ATOM     24  C   UNL     1      99.225 117.614 122.439  1.00  0.00     0.033 C 
ATOM     25  C   UNL     1      99.307 116.726 123.687  1.00  0.00     0.120 C 
ATOM     26  C   UNL     1     101.845 116.507 123.819  1.00  0.00     0.014 C 
ATOM     27  C   UNL     1     100.428 114.788 124.864  1.00  0.00     0.014 C 
BRANCH   7  28
ATOM     28  O   UNL     1      99.264 109.987 116.692  1.00  0.00    -0.393 OA
ATOM     29  H   UNL     1      99.809 109.962 115.866  1.00  0.00     0.210 HD
ENDBRANCH   7  28
BRANCH  25  30
ATOM     30  O   UNL     1      98.095 116.029 123.839  1.00  0.00    -0.393 OA
ATOM     31  H   UNL     1      98.314 115.060 123.847  1.00  0.00     0.210 HD
ENDBRANCH  25  30
ENDBRANCH   2   6
ENDBRANCH   1   2
BRANCH   1  32
ATOM     32  C   UNL     1      98.945 112.416 112.339  1.00  0.00     0.028 C 
BRANCH  32  33
ATOM     33  C   UNL     1      99.854 111.713 111.361  1.00  0.00    -0.028 C 
ATOM     34  C   UNL     1     100.861 112.311 110.689  1.00  0.00    -0.080 C 
ATOM     35  C   UNL     1     101.141 113.792 110.814  1.00  0.00     0.039 C 
ATOM     36  C   UNL     1     101.714 111.470 109.774  1.00  0.00     0.039 C 
ENDBRANCH  32  33
ENDBRANCH   1  32
TORSDOF 7
ENDMDL
MODEL 6
REMARK VINA RESULT:    -1.663      1.743      8.146
REMARK INTER + INTRA:          -3.277
REMARK INTER:                  -6.398
REMARK INTRA:                   3.121
REMARK UNBOUND:                -1.030
REMARK SMILES CC(C)=CCC[C@H](C(=O)[O-])[C@@H]1[C@@H](O)C[C@]2(C)C3=CC[C@@H]4C(C)(C)[C@H](O)CC[C@]4(C)C3=CC[C@]12C
REMARK SMILES IDX 6 1 7 2 8 3 9 4 10 5 11 6 12 7 33 8 14 9 15 10 32 11 34 12
REMARK SMILES IDX 16 13 17 14 31 15 30 16 18 17 28 18 19 19 20 20 27 21 29 22
REMARK SMILES IDX 21 23 26 24 24 25 22 26 23 27 13 28 25 30 5 32 4 33 2 34
REMARK SMILES IDX 1 35 3 36
REMARK H PARENT 13 29 25 31
REMARK Flexibility Score: inf
ROOT
ATOM      1  C   UNL     1     100.342 118.353 124.223  1.00  0.00     0.014 C 
ENDROOT
BRANCH   1   2
ATOM      2  C   UNL     1     101.141 117.028 124.131  1.00  0.00     0.042 C 
BRANCH   2   3
ATOM      3  C   UNL     1     102.379 117.260 123.300  1.00  0.00     0.045 C 
ATOM      4  O   UNL     1     103.009 116.284 122.815  1.00  0.00    -0.550 OA
ATOM      5  O   UNL     1     102.858 118.550 123.102  1.00  0.00    -0.550 OA
ENDBRANCH   2   3
BRANCH   2   6
ATOM      6  C   UNL     1     100.284 115.857 123.529  1.00  0.00     0.034 C 
ATOM      7  C   UNL     1     100.877 114.452 123.815  1.00  0.00     0.119 C 
ATOM      8  C   UNL     1     100.023 115.893 121.980  1.00  0.00    -0.014 C 
ATOM      9  C   UNL     1     100.746 113.632 122.531  1.00  0.00     0.044 C 
ATOM     10  C   UNL     1      99.773 114.386 121.608  1.00  0.00     0.001 C 
ATOM     11  C   UNL     1     101.270 116.402 121.196  1.00  0.00     0.035 C 
ATOM     12  C   UNL     1      98.807 116.800 121.626  1.00  0.00     0.013 C 
ATOM     13  C   UNL     1      98.316 113.938 121.926  1.00  0.00     0.017 C 
ATOM     14  C   UNL     1     100.087 114.067 120.137  1.00  0.00    -0.042 C 
ATOM     15  C   UNL     1     101.078 116.243 119.719  1.00  0.00    -0.022 C 
ATOM     16  C   UNL     1     100.518 115.135 119.198  1.00  0.00    -0.042 C 
ATOM     17  C   UNL     1     100.025 112.809 119.686  1.00  0.00    -0.022 C 
ATOM     18  C   UNL     1     100.307 114.987 117.670  1.00  0.00    -0.004 C 
ATOM     19  C   UNL     1     100.356 112.483 118.266  1.00  0.00     0.032 C 
ATOM     20  C   UNL     1      99.734 113.542 117.313  1.00  0.00     0.011 C 
ATOM     21  C   UNL     1     101.684 115.202 116.971  1.00  0.00     0.014 C 
ATOM     22  C   UNL     1      99.297 116.099 117.249  1.00  0.00     0.017 C 
ATOM     23  C   UNL     1      99.834 113.129 115.777  1.00  0.00    -0.005 C 
ATOM     24  C   UNL     1     101.696 114.874 115.475  1.00  0.00     0.033 C 
ATOM     25  C   UNL     1     101.249 113.434 115.195  1.00  0.00     0.120 C 
ATOM     26  C   UNL     1      98.748 113.865 114.940  1.00  0.00     0.014 C 
ATOM     27  C   UNL     1      99.528 111.618 115.567  1.00  0.00     0.014 C 
BRANCH   7  28
ATOM     28  O   UNL     1     100.156 113.810 124.839  1.00  0.00    -0.393 OA
ATOM     29  H   UNL     1      99.454 113.260 124.408  1.00  0.00     0.210 HD
ENDBRANCH   7  28
BRANCH  25  30
ATOM     30  O   UNL     1     102.203 112.543 115.720  1.00  0.00    -0.393 OA
ATOM     31  H   UNL     1     102.556 112.012 114.959  1.00  0.00     0.210 HD
ENDBRANCH  25  30
ENDBRANCH   2   6
ENDBRANCH   1   2
BRANCH   1  32
ATOM     32  C   UNL     1      98.849 118.135 124.518  1.00  0.00     0.028 C 
BRANCH  32  33
ATOM     33  C   UNL     1      97.995 118.990 123.614  1.00  0.00    -0.028 C 
ATOM     34  C   UNL     1      98.119 120.329 123.489  1.00  0.00    -0.080 C 
ATOM     35  C   UNL     1      99.113 121.122 124.308  1.00  0.00     0.039 C 
ATOM     36  C   UNL     1      97.221 121.046 122.515  1.00  0.00     0.039 C 
ENDBRANCH  32  33
ENDBRANCH   1  32
TORSDOF 7
ENDMDL
