MODEL 1
REMARK VINA RESULT:    -4.263      0.000      0.000
REMARK INTER + INTRA:         -11.169
REMARK INTER:                  -8.251
REMARK INTRA:                  -2.918
REMARK UNBOUND:                -2.918
REMARK SMILES CCCCCCCCCCCCCCCCCC(=O)[O-]
REMARK SMILES IDX 10 1 11 2 12 3 13 4 14 5 15 6 16 7 17 8 18 9 19 10 20 11
REMARK SMILES IDX 9 12 8 13 7 14 6 15 5 16 4 17 3 18 2 19 1 20
REMARK H PARENT
REMARK Flexibility Score: inf
ROOT
ATOM      1  C   UNL     1       7.444 -21.956  21.016  1.00  0.00     0.000 C 
ENDROOT
BRANCH   1   2
ATOM      2  C   UNL     1       6.725 -21.115  22.082  1.00  0.00     0.000 C 
BRANCH   2   3
ATOM      3  C   UNL     1       7.514 -21.112  23.399  1.00  0.00     0.000 C 
BRANCH   3   4
ATOM      4  C   UNL     1       6.882 -20.205  24.471  1.00  0.00     0.000 C 
BRANCH   4   5
ATOM      5  C   UNL     1       6.348 -18.855  23.951  1.00  0.00     0.000 C 
BRANCH   5   6
ATOM      6  C   UNL     1       7.228 -17.632  24.281  1.00  0.00     0.000 C 
BRANCH   6   7
ATOM      7  C   UNL     1       8.151 -17.806  25.501  1.00  0.00     0.006 C 
BRANCH   7   8
ATOM      8  C   UNL     1       8.884 -16.514  25.882  1.00  0.00     0.053 C 
BRANCH   8   9
ATOM      9  C   UNL     1      10.122 -16.353  25.058  1.00  0.00     0.041 C 
ATOM     10  O   UNL     1      11.153 -17.024  25.326  1.00  0.00    -0.550 OA
ATOM     11  O   UNL     1      10.157 -15.417  24.031  1.00  0.00    -0.550 OA
ENDBRANCH   8   9
ENDBRANCH   7   8
ENDBRANCH   6   7
ENDBRANCH   5   6
ENDBRANCH   4   5
ENDBRANCH   3   4
ENDBRANCH   2   3
ENDBRANCH   1   2
BRANCH   1  12
ATOM     12  C   UNL     1       8.377 -23.014  21.626  1.00  0.00     0.000 C 
BRANCH  12  13
ATOM     13  C   UNL     1       9.819 -22.912  21.098  1.00  0.00    -0.000 C 
BRANCH  13  14
ATOM     14  C   UNL     1      10.843 -22.722  22.237  1.00  0.00    -0.000 C 
BRANCH  14  15
ATOM     15  C   UNL     1      11.525 -21.342  22.228  1.00  0.00    -0.000 C 
BRANCH  15  16
ATOM     16  C   UNL     1      10.785 -20.307  23.093  1.00  0.00    -0.000 C 
BRANCH  16  17
ATOM     17  C   UNL     1      10.607 -18.950  22.386  1.00  0.00    -0.000 C 
BRANCH  17  18
ATOM     18  C   UNL     1       9.748 -18.981  21.105  1.00  0.00    -0.000 C 
BRANCH  18  19
ATOM     19  C   UNL     1       8.673 -17.883  21.017  1.00  0.00    -0.003 C 
ATOM     20  C   UNL     1       7.529 -18.245  20.072  1.00  0.00     0.004 C 
ENDBRANCH  18  19
ENDBRANCH  17  18
ENDBRANCH  16  17
ENDBRANCH  15  16
ENDBRANCH  14  15
ENDBRANCH  13  14
ENDBRANCH  12  13
ENDBRANCH   1  12
TORSDOF 16
ENDMDL
MODEL 2
REMARK VINA RESULT:    -4.193      1.353      3.588
REMARK INTER + INTRA:         -11.033
REMARK INTER:                  -8.380
REMARK INTRA:                  -2.653
REMARK UNBOUND:                -2.918
REMARK SMILES CCCCCCCCCCCCCCCCCC(=O)[O-]
REMARK SMILES IDX 10 1 11 2 12 3 13 4 14 5 15 6 16 7 17 8 18 9 19 10 20 11
REMARK SMILES IDX 9 12 8 13 7 14 6 15 5 16 4 17 3 18 2 19 1 20
REMARK H PARENT
REMARK Flexibility Score: inf
ROOT
ATOM      1  C   UNL     1      10.737 -19.444  22.993  1.00  0.00     0.000 C 
ENDROOT
BRANCH   1   2
ATOM      2  C   UNL     1      11.399 -18.335  22.161  1.00  0.00     0.000 C 
BRANCH   2   3
ATOM      3  C   UNL     1      10.338 -17.451  21.488  1.00  0.00     0.000 C 
BRANCH   3   4
ATOM      4  C   UNL     1       8.905 -17.966  21.707  1.00  0.00     0.000 C 
BRANCH   4   5
ATOM      5  C   UNL     1       7.806 -17.173  20.972  1.00  0.00     0.000 C 
BRANCH   5   6
ATOM      6  C   UNL     1       7.287 -15.927  21.719  1.00  0.00     0.000 C 
BRANCH   6   7
ATOM      7  C   UNL     1       7.270 -16.050  23.253  1.00  0.00     0.006 C 
BRANCH   7   8
ATOM      8  C   UNL     1       8.308 -15.150  23.933  1.00  0.00     0.053 C 
BRANCH   8   9
ATOM      9  C   UNL     1       9.053 -15.910  24.984  1.00  0.00     0.041 C 
ATOM     10  O   UNL     1       8.482 -16.227  26.061  1.00  0.00    -0.550 OA
ATOM     11  O   UNL     1      10.396 -16.218  24.799  1.00  0.00    -0.550 OA
ENDBRANCH   8   9
ENDBRANCH   7   8
ENDBRANCH   6   7
ENDBRANCH   5   6
ENDBRANCH   4   5
ENDBRANCH   3   4
ENDBRANCH   2   3
ENDBRANCH   1   2
BRANCH   1  12
ATOM     12  C   UNL     1      11.245 -20.847  22.622  1.00  0.00     0.000 C 
BRANCH  12  13
ATOM     13  C   UNL     1      11.399 -21.041  21.103  1.00  0.00    -0.000 C 
BRANCH  13  14
ATOM     14  C   UNL     1      10.271 -21.912  20.511  1.00  0.00    -0.000 C 
BRANCH  14  15
ATOM     15  C   UNL     1       9.806 -23.040  21.449  1.00  0.00    -0.000 C 
BRANCH  15  16
ATOM     16  C   UNL     1       8.274 -23.156  21.527  1.00  0.00    -0.000 C 
BRANCH  16  17
ATOM     17  C   UNL     1       7.547 -22.030  20.767  1.00  0.00    -0.000 C 
BRANCH  17  18
ATOM     18  C   UNL     1       6.864 -20.969  21.654  1.00  0.00    -0.000 C 
BRANCH  18  19
ATOM     19  C   UNL     1       7.269 -21.005  23.138  1.00  0.00    -0.003 C 
ATOM     20  C   UNL     1       6.652 -19.867  23.950  1.00  0.00     0.004 C 
ENDBRANCH  18  19
ENDBRANCH  17  18
ENDBRANCH  16  17
ENDBRANCH  15  16
ENDBRANCH  14  15
ENDBRANCH  13  14
ENDBRANCH  12  13
ENDBRANCH   1  12
TORSDOF 16
ENDMDL
MODEL 3
REMARK VINA RESULT:    -4.120      1.587      2.578
REMARK INTER + INTRA:         -10.892
REMARK INTER:                  -7.879
REMARK INTRA:                  -3.013
REMARK UNBOUND:                -2.918
REMARK SMILES CCCCCCCCCCCCCCCCCC(=O)[O-]
REMARK SMILES IDX 10 1 11 2 12 3 13 4 14 5 15 6 16 7 17 8 18 9 19 10 20 11
REMARK SMILES IDX 9 12 8 13 7 14 6 15 5 16 4 17 3 18 2 19 1 20
REMARK H PARENT
REMARK Flexibility Score: inf
ROOT
ATOM      1  C   UNL     1       7.335 -20.293  21.721  1.00  0.00     0.000 C 
ENDROOT
BRANCH   1   2
ATOM      2  C   UNL     1       7.022 -20.288  23.225  1.00  0.00     0.000 C 
BRANCH   2   3
ATOM      3  C   UNL     1       8.142 -19.592  24.014  1.00  0.00     0.000 C 
BRANCH   3   4
ATOM      4  C   UNL     1       9.304 -19.129  23.117  1.00  0.00     0.000 C 
BRANCH   4   5
ATOM      5  C   UNL     1      10.675 -19.046  23.817  1.00  0.00     0.000 C 
BRANCH   5   6
ATOM      6  C   UNL     1      11.370 -17.671  23.735  1.00  0.00     0.000 C 
BRANCH   6   7
ATOM      7  C   UNL     1      10.555 -16.572  23.030  1.00  0.00     0.006 C 
BRANCH   7   8
ATOM      8  C   UNL     1      10.130 -15.446  23.979  1.00  0.00     0.053 C 
BRANCH   8   9
ATOM      9  C   UNL     1       8.812 -15.763  24.612  1.00  0.00     0.041 C 
ATOM     10  O   UNL     1       8.746 -16.022  25.842  1.00  0.00    -0.550 OA
ATOM     11  O   UNL     1       7.665 -15.831  23.830  1.00  0.00    -0.550 OA
ENDBRANCH   8   9
ENDBRANCH   7   8
ENDBRANCH   6   7
ENDBRANCH   5   6
ENDBRANCH   4   5
ENDBRANCH   3   4
ENDBRANCH   2   3
ENDBRANCH   1   2
BRANCH   1  12
ATOM     12  C   UNL     1       7.321 -21.706  21.118  1.00  0.00     0.000 C 
BRANCH  12  13
ATOM     13  C   UNL     1       8.119 -22.720  21.958  1.00  0.00    -0.000 C 
BRANCH  13  14
ATOM     14  C   UNL     1       9.481 -23.062  21.317  1.00  0.00    -0.000 C 
BRANCH  14  15
ATOM     15  C   UNL     1      10.682 -22.453  22.061  1.00  0.00    -0.000 C 
BRANCH  15  16
ATOM     16  C   UNL     1      11.770 -21.930  21.106  1.00  0.00    -0.000 C 
BRANCH  16  17
ATOM     17  C   UNL     1      11.191 -21.227  19.864  1.00  0.00    -0.000 C 
BRANCH  17  18
ATOM     18  C   UNL     1      10.948 -19.711  20.016  1.00  0.00    -0.000 C 
BRANCH  18  19
ATOM     19  C   UNL     1       9.760 -19.159  19.209  1.00  0.00    -0.003 C 
ATOM     20  C   UNL     1       9.337 -17.760  19.655  1.00  0.00     0.004 C 
ENDBRANCH  18  19
ENDBRANCH  17  18
ENDBRANCH  16  17
ENDBRANCH  15  16
ENDBRANCH  14  15
ENDBRANCH  13  14
ENDBRANCH  12  13
ENDBRANCH   1  12
TORSDOF 16
ENDMDL
MODEL 4
REMARK VINA RESULT:    -4.093      2.963      5.760
REMARK INTER + INTRA:         -10.839
REMARK INTER:                  -8.019
REMARK INTRA:                  -2.821
REMARK UNBOUND:                -2.918
REMARK SMILES CCCCCCCCCCCCCCCCCC(=O)[O-]
REMARK SMILES IDX 10 1 11 2 12 3 13 4 14 5 15 6 16 7 17 8 18 9 19 10 20 11
REMARK SMILES IDX 9 12 8 13 7 14 6 15 5 16 4 17 3 18 2 19 1 20
REMARK H PARENT
REMARK Flexibility Score: inf
ROOT
ATOM      1  C   UNL     1       7.796 -16.389  21.412  1.00  0.00     0.000 C 
ENDROOT
BRANCH   1   2
ATOM      2  C   UNL     1       7.822 -17.913  21.223  1.00  0.00     0.000 C 
BRANCH   2   3
ATOM      3  C   UNL     1       9.091 -18.519  21.841  1.00  0.00     0.000 C 
BRANCH   3   4
ATOM      4  C   UNL     1       8.805 -19.325  23.120  1.00  0.00     0.000 C 
BRANCH   4   5
ATOM      5  C   UNL     1       7.311 -19.518  23.450  1.00  0.00     0.000 C 
BRANCH   5   6
ATOM      6  C   UNL     1       6.754 -20.928  23.168  1.00  0.00     0.000 C 
BRANCH   6   7
ATOM      7  C   UNL     1       7.720 -21.871  22.427  1.00  0.00     0.006 C 
BRANCH   7   8
ATOM      8  C   UNL     1       7.381 -22.019  20.939  1.00  0.00     0.053 C 
BRANCH   8   9
ATOM      9  C   UNL     1       8.595 -21.779  20.099  1.00  0.00     0.041 C 
ATOM     10  O   UNL     1       8.490 -21.208  18.982  1.00  0.00    -0.550 OA
ATOM     11  O   UNL     1       9.836 -22.240  20.524  1.00  0.00    -0.550 OA
ENDBRANCH   8   9
ENDBRANCH   7   8
ENDBRANCH   6   7
ENDBRANCH   5   6
ENDBRANCH   4   5
ENDBRANCH   3   4
ENDBRANCH   2   3
ENDBRANCH   1   2
BRANCH   1  12
ATOM     12  C   UNL     1       7.136 -15.967  22.735  1.00  0.00     0.000 C 
BRANCH  12  13
ATOM     13  C   UNL     1       8.057 -15.097  23.608  1.00  0.00    -0.000 C 
BRANCH  13  14
ATOM     14  C   UNL     1       8.633 -15.880  24.807  1.00  0.00    -0.000 C 
BRANCH  14  15
ATOM     15  C   UNL     1      10.121 -16.241  24.650  1.00  0.00    -0.000 C 
BRANCH  15  16
ATOM     16  C   UNL     1      10.828 -15.395  23.578  1.00  0.00    -0.000 C 
BRANCH  16  17
ATOM     17  C   UNL     1      12.236 -15.917  23.233  1.00  0.00    -0.000 C 
BRANCH  17  18
ATOM     18  C   UNL     1      12.330 -16.760  21.945  1.00  0.00    -0.000 C 
BRANCH  18  19
ATOM     19  C   UNL     1      12.845 -18.196  22.145  1.00  0.00    -0.003 C 
ATOM     20  C   UNL     1      12.920 -18.602  23.616  1.00  0.00     0.004 C 
ENDBRANCH  18  19
ENDBRANCH  17  18
ENDBRANCH  16  17
ENDBRANCH  15  16
ENDBRANCH  14  15
ENDBRANCH  13  14
ENDBRANCH  12  13
ENDBRANCH   1  12
TORSDOF 16
ENDMDL
MODEL 5
REMARK VINA RESULT:    -4.078      2.577      4.759
REMARK INTER + INTRA:         -10.811
REMARK INTER:                  -8.287
REMARK INTRA:                  -2.523
REMARK UNBOUND:                -2.918
REMARK SMILES CCCCCCCCCCCCCCCCCC(=O)[O-]
REMARK SMILES IDX 10 1 11 2 12 3 13 4 14 5 15 6 16 7 17 8 18 9 19 10 20 11
REMARK SMILES IDX 9 12 8 13 7 14 6 15 5 16 4 17 3 18 2 19 1 20
REMARK H PARENT
REMARK Flexibility Score: inf
ROOT
ATOM      1  C   UNL     1       7.511 -16.309  21.328  1.00  0.00     0.000 C 
ENDROOT
BRANCH   1   2
ATOM      2  C   UNL     1       6.912 -15.823  22.657  1.00  0.00     0.000 C 
BRANCH   2   3
ATOM      3  C   UNL     1       7.970 -15.096  23.500  1.00  0.00     0.000 C 
BRANCH   3   4
ATOM      4  C   UNL     1       8.476 -15.943  24.682  1.00  0.00     0.000 C 
BRANCH   4   5
ATOM      5  C   UNL     1       9.997 -16.190  24.705  1.00  0.00     0.000 C 
BRANCH   5   6
ATOM      6  C   UNL     1      10.796 -15.455  23.608  1.00  0.00     0.000 C 
BRANCH   6   7
ATOM      7  C   UNL     1      12.148 -16.099  23.249  1.00  0.00     0.006 C 
BRANCH   7   8
ATOM      8  C   UNL     1      13.093 -15.132  22.524  1.00  0.00     0.053 C 
BRANCH   8   9
ATOM      9  C   UNL     1      13.091 -15.403  21.053  1.00  0.00     0.041 C 
ATOM     10  O   UNL     1      13.610 -14.578  20.256  1.00  0.00    -0.550 OA
ATOM     11  O   UNL     1      12.461 -16.539  20.557  1.00  0.00    -0.550 OA
ENDBRANCH   8   9
ENDBRANCH   7   8
ENDBRANCH   6   7
ENDBRANCH   5   6
ENDBRANCH   4   5
ENDBRANCH   3   4
ENDBRANCH   2   3
ENDBRANCH   1   2
BRANCH   1  12
ATOM     12  C   UNL     1       7.647 -17.838  21.263  1.00  0.00     0.000 C 
BRANCH  12  13
ATOM     13  C   UNL     1       9.012 -18.337  21.768  1.00  0.00    -0.000 C 
BRANCH  13  14
ATOM     14  C   UNL     1       8.873 -19.299  22.967  1.00  0.00    -0.000 C 
BRANCH  14  15
ATOM     15  C   UNL     1       7.429 -19.438  23.481  1.00  0.00    -0.000 C 
BRANCH  15  16
ATOM     16  C   UNL     1       6.752 -20.736  23.008  1.00  0.00    -0.000 C 
BRANCH  16  17
ATOM     17  C   UNL     1       7.742 -21.734  22.378  1.00  0.00    -0.000 C 
BRANCH  17  18
ATOM     18  C   UNL     1       7.531 -22.014  20.876  1.00  0.00    -0.000 C 
BRANCH  18  19
ATOM     19  C   UNL     1       8.784 -21.839  20.000  1.00  0.00    -0.003 C 
ATOM     20  C   UNL     1       8.624 -20.747  18.943  1.00  0.00     0.004 C 
ENDBRANCH  18  19
ENDBRANCH  17  18
ENDBRANCH  16  17
ENDBRANCH  15  16
ENDBRANCH  14  15
ENDBRANCH  13  14
ENDBRANCH  12  13
ENDBRANCH   1  12
TORSDOF 16
ENDMDL
MODEL 6
REMARK VINA RESULT:    -4.078      1.219      2.564
REMARK INTER + INTRA:         -10.810
REMARK INTER:                  -7.906
REMARK INTRA:                  -2.903
REMARK UNBOUND:                -2.918
REMARK SMILES CCCCCCCCCCCCCCCCCC(=O)[O-]
REMARK SMILES IDX 10 1 11 2 12 3 13 4 14 5 15 6 16 7 17 8 18 9 19 10 20 11
REMARK SMILES IDX 9 12 8 13 7 14 6 15 5 16 4 17 3 18 2 19 1 20
REMARK H PARENT
REMARK Flexibility Score: inf
ROOT
ATOM      1  C   UNL     1       8.628 -20.323  19.378  1.00  0.00     0.000 C 
ENDROOT
BRANCH   1   2
ATOM      2  C   UNL     1       7.547 -19.480  20.072  1.00  0.00     0.000 C 
BRANCH   2   3
ATOM      3  C   UNL     1       8.130 -18.153  20.580  1.00  0.00     0.000 C 
BRANCH   3   4
ATOM      4  C   UNL     1       7.801 -17.883  22.059  1.00  0.00     0.000 C 
BRANCH   4   5
ATOM      5  C   UNL     1       7.401 -19.128  22.876  1.00  0.00     0.000 C 
BRANCH   5   6
ATOM      6  C   UNL     1       7.692 -19.040  24.388  1.00  0.00     0.000 C 
BRANCH   6   7
ATOM      7  C   UNL     1       7.464 -17.652  25.014  1.00  0.00     0.006 C 
BRANCH   7   8
ATOM      8  C   UNL     1       8.676 -17.152  25.808  1.00  0.00     0.053 C 
BRANCH   8   9
ATOM      9  C   UNL     1       9.432 -16.130  25.021  1.00  0.00     0.041 C 
ATOM     10  O   UNL     1       8.858 -15.080  24.628  1.00  0.00    -0.550 OA
ATOM     11  O   UNL     1      10.756 -16.364  24.667  1.00  0.00    -0.550 OA
ENDBRANCH   8   9
ENDBRANCH   7   8
ENDBRANCH   6   7
ENDBRANCH   5   6
ENDBRANCH   4   5
ENDBRANCH   3   4
ENDBRANCH   2   3
ENDBRANCH   1   2
BRANCH   1  12
ATOM     12  C   UNL     1       8.345 -21.831  19.456  1.00  0.00     0.000 C 
BRANCH  12  13
ATOM     13  C   UNL     1       7.501 -22.216  20.684  1.00  0.00    -0.000 C 
BRANCH  13  14
ATOM     14  C   UNL     1       8.378 -22.632  21.884  1.00  0.00    -0.000 C 
BRANCH  14  15
ATOM     15  C   UNL     1       9.781 -23.120  21.482  1.00  0.00    -0.000 C 
BRANCH  15  16
ATOM     16  C   UNL     1      10.906 -22.265  22.090  1.00  0.00    -0.000 C 
BRANCH  16  17
ATOM     17  C   UNL     1      10.391 -20.959  22.723  1.00  0.00    -0.000 C 
BRANCH  17  18
ATOM     18  C   UNL     1      11.475 -19.909  23.045  1.00  0.00    -0.000 C 
BRANCH  18  19
ATOM     19  C   UNL     1      11.467 -18.667  22.137  1.00  0.00    -0.003 C 
ATOM     20  C   UNL     1      11.819 -18.989  20.686  1.00  0.00     0.004 C 
ENDBRANCH  18  19
ENDBRANCH  17  18
ENDBRANCH  16  17
ENDBRANCH  15  16
ENDBRANCH  14  15
ENDBRANCH  13  14
ENDBRANCH  12  13
ENDBRANCH   1  12
TORSDOF 16
ENDMDL
MODEL 7
REMARK VINA RESULT:    -4.035      2.829      5.649
REMARK INTER + INTRA:         -10.727
REMARK INTER:                  -7.976
REMARK INTRA:                  -2.751
REMARK UNBOUND:                -2.918
REMARK SMILES CCCCCCCCCCCCCCCCCC(=O)[O-]
REMARK SMILES IDX 10 1 11 2 12 3 13 4 14 5 15 6 16 7 17 8 18 9 19 10 20 11
REMARK SMILES IDX 9 12 8 13 7 14 6 15 5 16 4 17 3 18 2 19 1 20
REMARK H PARENT
REMARK Flexibility Score: inf
ROOT
ATOM      1  C   UNL     1       9.122 -16.189  24.293  1.00  0.00     0.000 C 
ENDROOT
BRANCH   1   2
ATOM      2  C   UNL     1       8.640 -16.622  25.686  1.00  0.00     0.000 C 
BRANCH   2   3
ATOM      3  C   UNL     1       8.492 -18.149  25.762  1.00  0.00     0.000 C 
BRANCH   3   4
ATOM      4  C   UNL     1       7.061 -18.625  25.457  1.00  0.00     0.000 C 
BRANCH   4   5
ATOM      5  C   UNL     1       6.937 -20.112  25.065  1.00  0.00     0.000 C 
BRANCH   5   6
ATOM      6  C   UNL     1       6.523 -20.371  23.602  1.00  0.00     0.000 C 
BRANCH   6   7
ATOM      7  C   UNL     1       7.679 -20.746  22.657  1.00  0.00     0.006 C 
BRANCH   7   8
ATOM      8  C   UNL     1       7.194 -21.191  21.272  1.00  0.00     0.053 C 
BRANCH   8   9
ATOM      9  C   UNL     1       8.179 -22.129  20.649  1.00  0.00     0.041 C 
ATOM     10  O   UNL     1       8.762 -21.816  19.578  1.00  0.00    -0.550 OA
ATOM     11  O   UNL     1       8.408 -23.375  21.220  1.00  0.00    -0.550 OA
ENDBRANCH   8   9
ENDBRANCH   7   8
ENDBRANCH   6   7
ENDBRANCH   5   6
ENDBRANCH   4   5
ENDBRANCH   3   4
ENDBRANCH   2   3
ENDBRANCH   1   2
BRANCH   1  12
ATOM     12  C   UNL     1       8.192 -15.154  23.639  1.00  0.00     0.000 C 
BRANCH  12  13
ATOM     13  C   UNL     1       7.154 -15.796  22.702  1.00  0.00    -0.000 C 
BRANCH  13  14
ATOM     14  C   UNL     1       7.645 -17.141  22.124  1.00  0.00    -0.000 C 
BRANCH  14  15
ATOM     15  C   UNL     1       7.433 -17.273  20.605  1.00  0.00    -0.000 C 
BRANCH  15  16
ATOM     16  C   UNL     1       8.678 -17.808  19.875  1.00  0.00    -0.000 C 
BRANCH  16  17
ATOM     17  C   UNL     1       9.971 -17.646  20.696  1.00  0.00    -0.000 C 
BRANCH  17  18
ATOM     18  C   UNL     1      10.608 -18.960  21.192  1.00  0.00    -0.000 C 
BRANCH  18  19
ATOM     19  C   UNL     1      11.591 -18.804  22.366  1.00  0.00    -0.003 C 
ATOM     20  C   UNL     1      11.117 -19.509  23.636  1.00  0.00     0.004 C 
ENDBRANCH  18  19
ENDBRANCH  17  18
ENDBRANCH  16  17
ENDBRANCH  15  16
ENDBRANCH  14  15
ENDBRANCH  13  14
ENDBRANCH  12  13
ENDBRANCH   1  12
TORSDOF 16
ENDMDL
MODEL 8
REMARK VINA RESULT:    -4.020      2.233      5.698
REMARK INTER + INTRA:         -10.698
REMARK INTER:                  -7.542
REMARK INTRA:                  -3.156
REMARK UNBOUND:                -2.918
REMARK SMILES CCCCCCCCCCCCCCCCCC(=O)[O-]
REMARK SMILES IDX 10 1 11 2 12 3 13 4 14 5 15 6 16 7 17 8 18 9 19 10 20 11
REMARK SMILES IDX 9 12 8 13 7 14 6 15 5 16 4 17 3 18 2 19 1 20
REMARK H PARENT
REMARK Flexibility Score: inf
ROOT
ATOM      1  C   UNL     1       9.513 -15.832  24.215  1.00  0.00     0.000 C 
ENDROOT
BRANCH   1   2
ATOM      2  C   UNL     1      10.820 -15.741  23.412  1.00  0.00     0.000 C 
BRANCH   2   3
ATOM      3  C   UNL     1      11.900 -16.647  24.022  1.00  0.00     0.000 C 
BRANCH   3   4
ATOM      4  C   UNL     1      11.381 -18.058  24.350  1.00  0.00     0.000 C 
BRANCH   4   5
ATOM      5  C   UNL     1      11.477 -19.073  23.194  1.00  0.00     0.000 C 
BRANCH   5   6
ATOM      6  C   UNL     1      10.153 -19.345  22.450  1.00  0.00     0.000 C 
BRANCH   6   7
ATOM      7  C   UNL     1      10.200 -19.101  20.931  1.00  0.00     0.006 C 
BRANCH   7   8
ATOM      8  C   UNL     1       9.522 -17.789  20.518  1.00  0.00     0.053 C 
BRANCH   8   9
ATOM      9  C   UNL     1       8.243 -18.065  19.794  1.00  0.00     0.041 C 
ATOM     10  O   UNL     1       7.199 -17.423  20.083  1.00  0.00    -0.550 OA
ATOM     11  O   UNL     1       8.189 -19.076  18.841  1.00  0.00    -0.550 OA
ENDBRANCH   8   9
ENDBRANCH   7   8
ENDBRANCH   6   7
ENDBRANCH   5   6
ENDBRANCH   4   5
ENDBRANCH   3   4
ENDBRANCH   2   3
ENDBRANCH   1   2
BRANCH   1  12
ATOM     12  C   UNL     1       8.270 -15.912  23.316  1.00  0.00     0.000 C 
BRANCH  12  13
ATOM     13  C   UNL     1       7.323 -17.059  23.711  1.00  0.00    -0.000 C 
BRANCH  13  14
ATOM     14  C   UNL     1       7.831 -17.834  24.946  1.00  0.00    -0.000 C 
BRANCH  14  15
ATOM     15  C   UNL     1       7.406 -19.313  24.963  1.00  0.00    -0.000 C 
BRANCH  15  16
ATOM     16  C   UNL     1       6.558 -19.702  23.740  1.00  0.00    -0.000 C 
BRANCH  16  17
ATOM     17  C   UNL     1       6.994 -21.037  23.107  1.00  0.00    -0.000 C 
BRANCH  17  18
ATOM     18  C   UNL     1       6.970 -21.077  21.566  1.00  0.00    -0.000 C 
BRANCH  18  19
ATOM     19  C   UNL     1       7.662 -22.299  20.936  1.00  0.00    -0.003 C 
ATOM     20  C   UNL     1       8.811 -22.836  21.788  1.00  0.00     0.004 C 
ENDBRANCH  18  19
ENDBRANCH  17  18
ENDBRANCH  16  17
ENDBRANCH  15  16
ENDBRANCH  14  15
ENDBRANCH  13  14
ENDBRANCH  12  13
ENDBRANCH   1  12
TORSDOF 16
ENDMDL
MODEL 9
REMARK VINA RESULT:    -4.010      2.199      4.818
REMARK INTER + INTRA:         -10.679
REMARK INTER:                  -7.787
REMARK INTRA:                  -2.892
REMARK UNBOUND:                -2.918
REMARK SMILES CCCCCCCCCCCCCCCCCC(=O)[O-]
REMARK SMILES IDX 10 1 11 2 12 3 13 4 14 5 15 6 16 7 17 8 18 9 19 10 20 11
REMARK SMILES IDX 9 12 8 13 7 14 6 15 5 16 4 17 3 18 2 19 1 20
REMARK H PARENT
REMARK Flexibility Score: inf
ROOT
ATOM      1  C   UNL     1       7.635 -19.880  22.284  1.00  0.00     0.000 C 
ENDROOT
BRANCH   1   2
ATOM      2  C   UNL     1       7.019 -21.250  21.961  1.00  0.00     0.000 C 
BRANCH   2   3
ATOM      3  C   UNL     1       7.832 -21.972  20.876  1.00  0.00     0.000 C 
BRANCH   3   4
ATOM      4  C   UNL     1       8.659 -23.145  21.432  1.00  0.00     0.000 C 
BRANCH   4   5
ATOM      5  C   UNL     1      10.150 -22.835  21.674  1.00  0.00     0.000 C 
BRANCH   5   6
ATOM      6  C   UNL     1      10.800 -21.895  20.638  1.00  0.00     0.000 C 
BRANCH   6   7
ATOM      7  C   UNL     1      12.319 -21.702  20.799  1.00  0.00     0.006 C 
BRANCH   7   8
ATOM      8  C   UNL     1      12.754 -21.604  22.267  1.00  0.00     0.053 C 
BRANCH   8   9
ATOM      9  C   UNL     1      13.754 -20.506  22.443  1.00  0.00     0.041 C 
ATOM     10  O   UNL     1      14.700 -20.636  23.264  1.00  0.00    -0.550 OA
ATOM     11  O   UNL     1      13.606 -19.312  21.746  1.00  0.00    -0.550 OA
ENDBRANCH   8   9
ENDBRANCH   7   8
ENDBRANCH   6   7
ENDBRANCH   5   6
ENDBRANCH   4   5
ENDBRANCH   3   4
ENDBRANCH   2   3
ENDBRANCH   1   2
BRANCH   1  12
ATOM     12  C   UNL     1       8.554 -19.918  23.515  1.00  0.00     0.000 C 
BRANCH  12  13
ATOM     13  C   UNL     1       9.940 -19.308  23.242  1.00  0.00    -0.000 C 
BRANCH  13  14
ATOM     14  C   UNL     1       9.961 -18.465  21.950  1.00  0.00    -0.000 C 
BRANCH  14  15
ATOM     15  C   UNL     1      10.805 -17.183  22.064  1.00  0.00    -0.000 C 
BRANCH  15  16
ATOM     16  C   UNL     1      10.912 -16.669  23.510  1.00  0.00    -0.000 C 
BRANCH  16  17
ATOM     17  C   UNL     1       9.954 -15.500  23.804  1.00  0.00    -0.000 C 
BRANCH  17  18
ATOM     18  C   UNL     1       8.676 -15.873  24.583  1.00  0.00    -0.000 C 
BRANCH  18  19
ATOM     19  C   UNL     1       7.488 -16.313  23.709  1.00  0.00    -0.003 C 
ATOM     20  C   UNL     1       7.392 -15.532  22.399  1.00  0.00     0.004 C 
ENDBRANCH  18  19
ENDBRANCH  17  18
ENDBRANCH  16  17
ENDBRANCH  15  16
ENDBRANCH  14  15
ENDBRANCH  13  14
ENDBRANCH  12  13
ENDBRANCH   1  12
TORSDOF 16
ENDMDL
