MODEL 1
REMARK VINA RESULT:    -2.662      0.000      0.000
REMARK INTER + INTRA:          -3.476
REMARK INTER:                  -4.063
REMARK INTRA:                   0.587
REMARK UNBOUND:                 0.587
REMARK SMILES CCCCCCCCCC=CC(=O)[O-]
REMARK SMILES IDX 7 1 8 2 9 3 10 4 11 5 12 6 13 7 14 8 6 9 5 10 4 11 3 12 2 13
REMARK SMILES IDX 1 14
REMARK H PARENT
REMARK Flexibility Score: inf
ROOT
ATOM      1  C   UNL     1      -8.007  51.646  -4.155  1.00  0.00     0.000 C 
ENDROOT
BRANCH   1   2
ATOM      2  C   UNL     1      -8.337  51.896  -5.635  1.00  0.00     0.004 C 
BRANCH   2   3
ATOM      3  C   UNL     1      -7.080  52.120  -6.493  1.00  0.00     0.027 C 
BRANCH   3   4
ATOM      4  C   UNL     1      -7.323  51.733  -7.926  1.00  0.00    -0.025 C 
ATOM      5  C   UNL     1      -6.378  51.446  -8.837  1.00  0.00     0.020 C 
BRANCH   5   6
ATOM      6  C   UNL     1      -4.915  51.479  -8.630  1.00  0.00     0.064 C 
ATOM      7  O   UNL     1      -4.160  51.545  -9.635  1.00  0.00    -0.545 OA
ATOM      8  O   UNL     1      -4.344  51.459  -7.365  1.00  0.00    -0.545 OA
ENDBRANCH   5   6
ENDBRANCH   3   4
ENDBRANCH   2   3
ENDBRANCH   1   2
BRANCH   1   9
ATOM      9  C   UNL     1      -8.420  50.241  -3.686  1.00  0.00     0.000 C 
BRANCH   9  10
ATOM     10  C   UNL     1      -9.056  50.239  -2.284  1.00  0.00     0.000 C 
BRANCH  10  11
ATOM     11  C   UNL     1      -9.027  51.593  -1.551  1.00  0.00    -0.000 C 
BRANCH  11  12
ATOM     12  C   UNL     1      -7.603  52.125  -1.329  1.00  0.00    -0.000 C 
BRANCH  12  13
ATOM     13  C   UNL     1      -7.175  51.952   0.133  1.00  0.00    -0.003 C 
ATOM     14  C   UNL     1      -5.666  52.125   0.290  1.00  0.00     0.004 C 
ENDBRANCH  12  13
ENDBRANCH  11  12
ENDBRANCH  10  11
ENDBRANCH   9  10
ENDBRANCH   1   9
TORSDOF 9
ENDMDL
MODEL 2
REMARK VINA RESULT:    -2.509      3.499      7.179
REMARK INTER + INTRA:          -3.242
REMARK INTER:                  -2.736
REMARK INTRA:                  -0.506
REMARK UNBOUND:                 0.587
REMARK SMILES CCCCCCCCCC=CC(=O)[O-]
REMARK SMILES IDX 7 1 8 2 9 3 10 4 11 5 12 6 13 7 14 8 6 9 5 10 4 11 3 12 2 13
REMARK SMILES IDX 1 14
REMARK H PARENT
REMARK Flexibility Score: inf
ROOT
ATOM      1  C   UNL     1      -5.010  51.829  -6.299  1.00  0.00     0.000 C 
ENDROOT
BRANCH   1   2
ATOM      2  C   UNL     1      -6.526  52.077  -6.305  1.00  0.00     0.004 C 
BRANCH   2   3
ATOM      3  C   UNL     1      -7.166  51.873  -4.921  1.00  0.00     0.027 C 
BRANCH   3   4
ATOM      4  C   UNL     1      -8.004  50.624  -4.887  1.00  0.00    -0.025 C 
ATOM      5  C   UNL     1      -8.662  50.143  -3.818  1.00  0.00     0.020 C 
BRANCH   5   6
ATOM      6  C   UNL     1      -8.675  50.722  -2.458  1.00  0.00     0.064 C 
ATOM      7  O   UNL     1      -9.063  51.909  -2.306  1.00  0.00    -0.545 OA
ATOM      8  O   UNL     1      -8.291  49.995  -1.339  1.00  0.00    -0.545 OA
ENDBRANCH   5   6
ENDBRANCH   3   4
ENDBRANCH   2   3
ENDBRANCH   1   2
BRANCH   1   9
ATOM      9  C   UNL     1      -4.529  51.074  -7.551  1.00  0.00     0.000 C 
BRANCH   9  10
ATOM     10  C   UNL     1      -3.865  51.998  -8.588  1.00  0.00     0.000 C 
BRANCH  10  11
ATOM     11  C   UNL     1      -4.539  52.020  -9.972  1.00  0.00    -0.000 C 
BRANCH  11  12
ATOM     12  C   UNL     1      -6.072  51.952  -9.894  1.00  0.00    -0.000 C 
BRANCH  12  13
ATOM     13  C   UNL     1      -6.566  50.511 -10.071  1.00  0.00    -0.003 C 
ATOM     14  C   UNL     1      -7.846  50.266  -9.276  1.00  0.00     0.004 C 
ENDBRANCH  12  13
ENDBRANCH  11  12
ENDBRANCH  10  11
ENDBRANCH   9  10
ENDBRANCH   1   9
TORSDOF 9
ENDMDL
MODEL 3
REMARK VINA RESULT:    -2.204      3.482      6.852
REMARK INTER + INTRA:          -2.776
REMARK INTER:                  -2.537
REMARK INTRA:                  -0.239
REMARK UNBOUND:                 0.587
REMARK SMILES CCCCCCCCCC=CC(=O)[O-]
REMARK SMILES IDX 7 1 8 2 9 3 10 4 11 5 12 6 13 7 14 8 6 9 5 10 4 11 3 12 2 13
REMARK SMILES IDX 1 14
REMARK H PARENT
REMARK Flexibility Score: inf
ROOT
ATOM      1  C   UNL     1      -8.910  51.196  -3.979  1.00  0.00     0.000 C 
ENDROOT
BRANCH   1   2
ATOM      2  C   UNL     1      -8.438  49.956  -3.203  1.00  0.00     0.004 C 
BRANCH   2   3
ATOM      3  C   UNL     1      -8.361  50.200  -1.686  1.00  0.00     0.027 C 
BRANCH   3   4
ATOM      4  C   UNL     1      -8.095  51.649  -1.380  1.00  0.00    -0.025 C 
ATOM      5  C   UNL     1      -7.086  52.125  -0.631  1.00  0.00     0.020 C 
BRANCH   5   6
ATOM      6  C   UNL     1      -6.054  51.328   0.066  1.00  0.00     0.064 C 
ATOM      7  O   UNL     1      -4.934  51.853   0.298  1.00  0.00    -0.545 OA
ATOM      8  O   UNL     1      -6.283  50.026   0.492  1.00  0.00    -0.545 OA
ENDBRANCH   5   6
ENDBRANCH   3   4
ENDBRANCH   2   3
ENDBRANCH   1   2
BRANCH   1   9
ATOM      9  C   UNL     1      -8.332  51.257  -5.404  1.00  0.00     0.000 C 
BRANCH   9  10
ATOM     10  C   UNL     1      -7.041  52.091  -5.492  1.00  0.00     0.000 C 
BRANCH  10  11
ATOM     11  C   UNL     1      -6.377  52.125  -6.880  1.00  0.00    -0.000 C 
BRANCH  11  12
ATOM     12  C   UNL     1      -4.842  52.094  -6.812  1.00  0.00    -0.000 C 
BRANCH  12  13
ATOM     13  C   UNL     1      -4.234  51.981  -8.215  1.00  0.00    -0.003 C 
ATOM     14  C   UNL     1      -4.949  50.916  -9.042  1.00  0.00     0.004 C 
ENDBRANCH  12  13
ENDBRANCH  11  12
ENDBRANCH  10  11
ENDBRANCH   9  10
ENDBRANCH   1   9
TORSDOF 9
ENDMDL
MODEL 4
REMARK VINA RESULT:    -2.038      3.448      6.779
REMARK INTER + INTRA:          -2.523
REMARK INTER:                  -2.855
REMARK INTRA:                   0.332
REMARK UNBOUND:                 0.587
REMARK SMILES CCCCCCCCCC=CC(=O)[O-]
REMARK SMILES IDX 7 1 8 2 9 3 10 4 11 5 12 6 13 7 14 8 6 9 5 10 4 11 3 12 2 13
REMARK SMILES IDX 1 14
REMARK H PARENT
REMARK Flexibility Score: inf
ROOT
ATOM      1  C   UNL     1      -6.614  51.332  -6.483  1.00  0.00     0.000 C 
ENDROOT
BRANCH   1   2
ATOM      2  C   UNL     1      -7.288  52.104  -5.339  1.00  0.00     0.004 C 
BRANCH   2   3
ATOM      3  C   UNL     1      -8.399  51.293  -4.650  1.00  0.00     0.027 C 
BRANCH   3   4
ATOM      4  C   UNL     1      -9.125  52.123  -3.626  1.00  0.00    -0.025 C 
ATOM      5  C   UNL     1      -9.081  51.949  -2.294  1.00  0.00     0.020 C 
BRANCH   5   6
ATOM      6  C   UNL     1      -8.340  50.898  -1.567  1.00  0.00     0.064 C 
ATOM      7  O   UNL     1      -7.435  51.238  -0.761  1.00  0.00    -0.545 OA
ATOM      8  O   UNL     1      -8.619  49.546  -1.727  1.00  0.00    -0.545 OA
ENDBRANCH   5   6
ENDBRANCH   3   4
ENDBRANCH   2   3
ENDBRANCH   1   2
BRANCH   1   9
ATOM      9  C   UNL     1      -7.303  51.563  -7.839  1.00  0.00     0.000 C 
BRANCH   9  10
ATOM     10  C   UNL     1      -6.391  51.242  -9.038  1.00  0.00     0.000 C 
BRANCH  10  11
ATOM     11  C   UNL     1      -5.003  51.907  -9.001  1.00  0.00    -0.000 C 
BRANCH  11  12
ATOM     12  C   UNL     1      -4.141  51.431  -7.821  1.00  0.00    -0.000 C 
BRANCH  12  13
ATOM     13  C   UNL     1      -2.661  51.753  -8.059  1.00  0.00    -0.003 C 
ATOM     14  C   UNL     1      -1.961  52.123  -6.754  1.00  0.00     0.004 C 
ENDBRANCH  12  13
ENDBRANCH  11  12
ENDBRANCH  10  11
ENDBRANCH   9  10
ENDBRANCH   1   9
TORSDOF 9
ENDMDL
MODEL 5
REMARK VINA RESULT:    -1.946      1.949      3.332
REMARK INTER + INTRA:          -2.383
REMARK INTER:                  -2.303
REMARK INTRA:                  -0.080
REMARK UNBOUND:                 0.587
REMARK SMILES CCCCCCCCCC=CC(=O)[O-]
REMARK SMILES IDX 7 1 8 2 9 3 10 4 11 5 12 6 13 7 14 8 6 9 5 10 4 11 3 12 2 13
REMARK SMILES IDX 1 14
REMARK H PARENT
REMARK Flexibility Score: inf
ROOT
ATOM      1  C   UNL     1      -8.624  50.262  -2.001  1.00  0.00     0.000 C 
ENDROOT
BRANCH   1   2
ATOM      2  C   UNL     1      -8.393  49.889  -3.473  1.00  0.00     0.004 C 
BRANCH   2   3
ATOM      3  C   UNL     1      -8.738  51.038  -4.437  1.00  0.00     0.027 C 
BRANCH   3   4
ATOM      4  C   UNL     1      -7.544  51.919  -4.683  1.00  0.00    -0.025 C 
ATOM      5  C   UNL     1      -6.946  52.125  -5.868  1.00  0.00     0.020 C 
BRANCH   5   6
ATOM      6  C   UNL     1      -7.315  51.509  -7.160  1.00  0.00     0.064 C 
ATOM      7  O   UNL     1      -7.941  50.419  -7.158  1.00  0.00    -0.545 OA
ATOM      8  O   UNL     1      -7.010  52.102  -8.379  1.00  0.00    -0.545 OA
ENDBRANCH   5   6
ENDBRANCH   3   4
ENDBRANCH   2   3
ENDBRANCH   1   2
BRANCH   1   9
ATOM      9  C   UNL     1      -7.368  50.058  -1.135  1.00  0.00     0.000 C 
BRANCH   9  10
ATOM     10  C   UNL     1      -6.787  51.380  -0.602  1.00  0.00     0.000 C 
BRANCH  10  11
ATOM     11  C   UNL     1      -5.857  51.242   0.617  1.00  0.00    -0.000 C 
BRANCH  11  12
ATOM     12  C   UNL     1      -4.514  51.964   0.432  1.00  0.00    -0.000 C 
BRANCH  12  13
ATOM     13  C   UNL     1      -3.384  50.963   0.169  1.00  0.00    -0.003 C 
ATOM     14  C   UNL     1      -2.039  51.672   0.029  1.00  0.00     0.004 C 
ENDBRANCH  12  13
ENDBRANCH  11  12
ENDBRANCH  10  11
ENDBRANCH   9  10
ENDBRANCH   1   9
TORSDOF 9
ENDMDL
MODEL 6
REMARK VINA RESULT:    -1.911      1.454      2.479
REMARK INTER + INTRA:          -2.330
REMARK INTER:                  -1.968
REMARK INTRA:                  -0.362
REMARK UNBOUND:                 0.587
REMARK SMILES CCCCCCCCCC=CC(=O)[O-]
REMARK SMILES IDX 7 1 8 2 9 3 10 4 11 5 12 6 13 7 14 8 6 9 5 10 4 11 3 12 2 13
REMARK SMILES IDX 1 14
REMARK H PARENT
REMARK Flexibility Score: inf
ROOT
ATOM      1  C   UNL     1      -7.833  49.808  -3.021  1.00  0.00     0.000 C 
ENDROOT
BRANCH   1   2
ATOM      2  C   UNL     1      -8.771  50.028  -4.218  1.00  0.00     0.004 C 
BRANCH   2   3
ATOM      3  C   UNL     1      -8.678  51.453  -4.790  1.00  0.00     0.027 C 
BRANCH   3   4
ATOM      4  C   UNL     1      -7.254  51.938  -4.817  1.00  0.00    -0.025 C 
ATOM      5  C   UNL     1      -6.488  52.076  -5.912  1.00  0.00     0.020 C 
BRANCH   5   6
ATOM      6  C   UNL     1      -6.872  51.756  -7.303  1.00  0.00     0.064 C 
ATOM      7  O   UNL     1      -6.059  51.128  -8.029  1.00  0.00    -0.545 OA
ATOM      8  O   UNL     1      -8.107  52.108  -7.832  1.00  0.00    -0.545 OA
ENDBRANCH   5   6
ENDBRANCH   3   4
ENDBRANCH   2   3
ENDBRANCH   1   2
BRANCH   1   9
ATOM      9  C   UNL     1      -8.466  50.242  -1.687  1.00  0.00     0.000 C 
BRANCH   9  10
ATOM     10  C   UNL     1      -8.323  51.751  -1.419  1.00  0.00     0.000 C 
BRANCH  10  11
ATOM     11  C   UNL     1      -7.452  52.121  -0.204  1.00  0.00    -0.000 C 
BRANCH  11  12
ATOM     12  C   UNL     1      -6.280  51.151   0.011  1.00  0.00    -0.000 C 
BRANCH  12  13
ATOM     13  C   UNL     1      -5.179  51.801   0.856  1.00  0.00    -0.003 C 
ATOM     14  C   UNL     1      -3.932  52.078   0.018  1.00  0.00     0.004 C 
ENDBRANCH  12  13
ENDBRANCH  11  12
ENDBRANCH  10  11
ENDBRANCH   9  10
ENDBRANCH   1   9
TORSDOF 9
ENDMDL
MODEL 7
REMARK VINA RESULT:    -0.934      2.450      4.541
REMARK INTER + INTRA:          -0.839
REMARK INTER:                  -0.926
REMARK INTRA:                   0.087
REMARK UNBOUND:                 0.587
REMARK SMILES CCCCCCCCCC=CC(=O)[O-]
REMARK SMILES IDX 7 1 8 2 9 3 10 4 11 5 12 6 13 7 14 8 6 9 5 10 4 11 3 12 2 13
REMARK SMILES IDX 1 14
REMARK H PARENT
REMARK Flexibility Score: inf
ROOT
ATOM      1  C   UNL     1      -6.976  49.823  -0.943  1.00  0.00     0.000 C 
ENDROOT
BRANCH   1   2
ATOM      2  C   UNL     1      -8.313  50.512  -1.258  1.00  0.00     0.004 C 
BRANCH   2   3
ATOM      3  C   UNL     1      -8.178  51.602  -2.336  1.00  0.00     0.027 C 
BRANCH   3   4
ATOM      4  C   UNL     1      -9.125  51.357  -3.479  1.00  0.00    -0.025 C 
ATOM      5  C   UNL     1      -8.824  51.445  -4.786  1.00  0.00     0.020 C 
BRANCH   5   6
ATOM      6  C   UNL     1      -7.519  51.827  -5.366  1.00  0.00     0.064 C 
ATOM      7  O   UNL     1      -7.408  51.903  -6.617  1.00  0.00    -0.545 OA
ATOM      8  O   UNL     1      -6.414  52.124  -4.578  1.00  0.00    -0.545 OA
ENDBRANCH   5   6
ENDBRANCH   3   4
ENDBRANCH   2   3
ENDBRANCH   1   2
BRANCH   1   9
ATOM      9  C   UNL     1      -6.268  50.436   0.277  1.00  0.00     0.000 C 
BRANCH   9  10
ATOM     10  C   UNL     1      -5.696  51.838  -0.004  1.00  0.00     0.000 C 
BRANCH  10  11
ATOM     11  C   UNL     1      -4.323  52.125   0.631  1.00  0.00    -0.000 C 
BRANCH  11  12
ATOM     12  C   UNL     1      -3.241  51.123   0.200  1.00  0.00    -0.000 C 
BRANCH  12  13
ATOM     13  C   UNL     1      -2.020  51.849  -0.375  1.00  0.00    -0.003 C 
ATOM     14  C   UNL     1      -0.885  51.912   0.643  1.00  0.00     0.004 C 
ENDBRANCH  12  13
ENDBRANCH  11  12
ENDBRANCH  10  11
ENDBRANCH   9  10
ENDBRANCH   1   9
TORSDOF 9
ENDMDL
MODEL 8
REMARK VINA RESULT:    -0.426      3.555      6.482
REMARK INTER + INTRA:          -0.063
REMARK INTER:                  -0.009
REMARK INTRA:                  -0.054
REMARK UNBOUND:                 0.587
REMARK SMILES CCCCCCCCCC=CC(=O)[O-]
REMARK SMILES IDX 7 1 8 2 9 3 10 4 11 5 12 6 13 7 14 8 6 9 5 10 4 11 3 12 2 13
REMARK SMILES IDX 1 14
REMARK H PARENT
REMARK Flexibility Score: inf
ROOT
ATOM      1  C   UNL     1      -8.001  49.327  -2.885  1.00  0.00     0.000 C 
ENDROOT
BRANCH   1   2
ATOM      2  C   UNL     1      -8.578  49.179  -1.468  1.00  0.00     0.004 C 
BRANCH   2   3
ATOM      3  C   UNL     1      -8.377  50.441  -0.611  1.00  0.00     0.027 C 
BRANCH   3   4
ATOM      4  C   UNL     1      -7.638  51.505  -1.374  1.00  0.00    -0.025 C 
ATOM      5  C   UNL     1      -6.513  52.124  -0.977  1.00  0.00     0.020 C 
BRANCH   5   6
ATOM      6  C   UNL     1      -5.790  51.910   0.295  1.00  0.00     0.064 C 
ATOM      7  O   UNL     1      -6.397  52.106   1.379  1.00  0.00    -0.545 OA
ATOM      8  O   UNL     1      -4.470  51.481   0.335  1.00  0.00    -0.545 OA
ENDBRANCH   5   6
ENDBRANCH   3   4
ENDBRANCH   2   3
ENDBRANCH   1   2
BRANCH   1   9
ATOM      9  C   UNL     1      -9.036  49.860  -3.891  1.00  0.00     0.000 C 
BRANCH   9  10
ATOM     10  C   UNL     1      -9.049  51.397  -3.981  1.00  0.00     0.000 C 
BRANCH  10  11
ATOM     11  C   UNL     1      -8.413  51.984  -5.254  1.00  0.00    -0.000 C 
BRANCH  11  12
ATOM     12  C   UNL     1      -6.886  52.117  -5.156  1.00  0.00    -0.000 C 
BRANCH  12  13
ATOM     13  C   UNL     1      -6.245  52.120  -6.549  1.00  0.00    -0.003 C 
ATOM     14  C   UNL     1      -7.307  52.082  -7.645  1.00  0.00     0.004 C 
ENDBRANCH  12  13
ENDBRANCH  11  12
ENDBRANCH  10  11
ENDBRANCH   9  10
ENDBRANCH   1   9
TORSDOF 9
ENDMDL
MODEL 9
REMARK VINA RESULT:     0.014      6.014      7.764
REMARK INTER + INTRA:           0.607
REMARK INTER:                   1.036
REMARK INTRA:                  -0.428
REMARK UNBOUND:                 0.587
REMARK SMILES CCCCCCCCCC=CC(=O)[O-]
REMARK SMILES IDX 7 1 8 2 9 3 10 4 11 5 12 6 13 7 14 8 6 9 5 10 4 11 3 12 2 13
REMARK SMILES IDX 1 14
REMARK H PARENT
REMARK Flexibility Score: inf
ROOT
ATOM      1  C   UNL     1      -7.061  47.462  -1.378  1.00  0.00     0.000 C 
ENDROOT
BRANCH   1   2
ATOM      2  C   UNL     1      -6.895  46.137  -2.138  1.00  0.00     0.004 C 
BRANCH   2   3
ATOM      3  C   UNL     1      -6.378  45.000  -1.241  1.00  0.00     0.027 C 
BRANCH   3   4
ATOM      4  C   UNL     1      -6.193  43.729  -2.024  1.00  0.00    -0.025 C 
ATOM      5  C   UNL     1      -5.146  42.892  -1.934  1.00  0.00     0.020 C 
BRANCH   5   6
ATOM      6  C   UNL     1      -3.955  43.059  -1.076  1.00  0.00     0.064 C 
ATOM      7  O   UNL     1      -3.900  42.437   0.017  1.00  0.00    -0.545 OA
ATOM      8  O   UNL     1      -2.884  43.865  -1.440  1.00  0.00    -0.545 OA
ENDBRANCH   5   6
ENDBRANCH   3   4
ENDBRANCH   2   3
ENDBRANCH   1   2
BRANCH   1   9
ATOM      9  C   UNL     1      -7.644  48.580  -2.259  1.00  0.00     0.000 C 
BRANCH   9  10
ATOM     10  C   UNL     1      -8.041  49.832  -1.455  1.00  0.00     0.000 C 
BRANCH  10  11
ATOM     11  C   UNL     1      -9.117  50.717  -2.109  1.00  0.00    -0.000 C 
BRANCH  11  12
ATOM     12  C   UNL     1      -9.124  50.620  -3.642  1.00  0.00    -0.000 C 
BRANCH  12  13
ATOM     13  C   UNL     1      -8.862  51.989  -4.280  1.00  0.00    -0.003 C 
ATOM     14  C   UNL     1      -7.416  52.110  -4.753  1.00  0.00     0.004 C 
ENDBRANCH  12  13
ENDBRANCH  11  12
ENDBRANCH  10  11
ENDBRANCH   9  10
ENDBRANCH   1   9
TORSDOF 9
ENDMDL
