MODEL 1
REMARK VINA RESULT:    -4.013      0.000      0.000
REMARK INTER + INTRA:          -7.091
REMARK INTER:                  -6.125
REMARK INTRA:                  -0.966
REMARK UNBOUND:                -0.966
REMARK SMILES CCCCCCCCCCC(=O)[O-]
REMARK SMILES IDX 7 1 8 2 9 3 10 4 11 5 12 6 13 7 6 8 5 9 4 10 3 11 2 12 1 13
REMARK H PARENT
REMARK Flexibility Score: inf
ROOT
ATOM      1  C   UNL     1     -22.640 -14.259 -17.471  1.00  0.00     0.000 C 
ENDROOT
BRANCH   1   2
ATOM      2  C   UNL     1     -22.552 -13.000 -16.595  1.00  0.00     0.000 C 
BRANCH   2   3
ATOM      3  C   UNL     1     -22.570 -13.365 -15.106  1.00  0.00     0.006 C 
BRANCH   3   4
ATOM      4  C   UNL     1     -23.894 -12.952 -14.455  1.00  0.00     0.053 C 
BRANCH   4   5
ATOM      5  C   UNL     1     -24.721 -14.157 -14.139  1.00  0.00     0.041 C 
ATOM      6  O   UNL     1     -24.176 -15.288 -14.026  1.00  0.00    -0.550 OA
ATOM      7  O   UNL     1     -26.099 -14.042 -14.017  1.00  0.00    -0.550 OA
ENDBRANCH   4   5
ENDBRANCH   3   4
ENDBRANCH   2   3
ENDBRANCH   1   2
BRANCH   1   8
ATOM      8  C   UNL     1     -22.856 -13.934 -18.958  1.00  0.00     0.000 C 
BRANCH   8   9
ATOM      9  C   UNL     1     -22.629 -12.447 -19.277  1.00  0.00    -0.000 C 
BRANCH   9  10
ATOM     10  C   UNL     1     -21.380 -12.205 -20.143  1.00  0.00    -0.000 C 
BRANCH  10  11
ATOM     11  C   UNL     1     -20.061 -12.034 -19.362  1.00  0.00    -0.000 C 
BRANCH  11  12
ATOM     12  C   UNL     1     -19.260 -13.330 -19.146  1.00  0.00    -0.003 C 
ATOM     13  C   UNL     1     -18.955 -13.602 -17.673  1.00  0.00     0.004 C 
ENDBRANCH  11  12
ENDBRANCH  10  11
ENDBRANCH   9  10
ENDBRANCH   8   9
ENDBRANCH   1   8
TORSDOF 9
ENDMDL
MODEL 2
REMARK VINA RESULT:    -4.002      1.171      2.258
REMARK INTER + INTRA:          -7.074
REMARK INTER:                  -5.999
REMARK INTRA:                  -1.074
REMARK UNBOUND:                -0.966
REMARK SMILES CCCCCCCCCCC(=O)[O-]
REMARK SMILES IDX 7 1 8 2 9 3 10 4 11 5 12 6 13 7 6 8 5 9 4 10 3 11 2 12 1 13
REMARK H PARENT
REMARK Flexibility Score: inf
ROOT
ATOM      1  C   UNL     1     -22.671 -12.390 -19.147  1.00  0.00     0.000 C 
ENDROOT
BRANCH   1   2
ATOM      2  C   UNL     1     -22.367 -11.948 -17.708  1.00  0.00     0.000 C 
BRANCH   2   3
ATOM      3  C   UNL     1     -22.913 -12.963 -16.696  1.00  0.00     0.006 C 
BRANCH   3   4
ATOM      4  C   UNL     1     -23.378 -12.266 -15.413  1.00  0.00     0.053 C 
BRANCH   4   5
ATOM      5  C   UNL     1     -23.919 -13.265 -14.441  1.00  0.00     0.041 C 
ATOM      6  O   UNL     1     -24.903 -12.970 -13.711  1.00  0.00    -0.550 OA
ATOM      7  O   UNL     1     -23.308 -14.504 -14.306  1.00  0.00    -0.550 OA
ENDBRANCH   4   5
ENDBRANCH   3   4
ENDBRANCH   2   3
ENDBRANCH   1   2
BRANCH   1   8
ATOM      8  C   UNL     1     -21.490 -12.151 -20.103  1.00  0.00     0.000 C 
BRANCH   8   9
ATOM      9  C   UNL     1     -20.171 -11.887 -19.359  1.00  0.00    -0.000 C 
BRANCH   9  10
ATOM     10  C   UNL     1     -19.249 -13.118 -19.320  1.00  0.00    -0.000 C 
BRANCH  10  11
ATOM     11  C   UNL     1     -18.960 -13.679 -17.912  1.00  0.00    -0.000 C 
BRANCH  11  12
ATOM     12  C   UNL     1     -19.867 -14.843 -17.477  1.00  0.00    -0.003 C 
ATOM     13  C   UNL     1     -20.516 -15.565 -18.658  1.00  0.00     0.004 C 
ENDBRANCH  11  12
ENDBRANCH  10  11
ENDBRANCH   9  10
ENDBRANCH   8   9
ENDBRANCH   1   8
TORSDOF 9
ENDMDL
MODEL 3
REMARK VINA RESULT:    -3.920      0.855      1.328
REMARK INTER + INTRA:          -6.949
REMARK INTER:                  -6.026
REMARK INTRA:                  -0.923
REMARK UNBOUND:                -0.966
REMARK SMILES CCCCCCCCCCC(=O)[O-]
REMARK SMILES IDX 7 1 8 2 9 3 10 4 11 5 12 6 13 7 6 8 5 9 4 10 3 11 2 12 1 13
REMARK H PARENT
REMARK Flexibility Score: inf
ROOT
ATOM      1  C   UNL     1     -22.822 -13.253 -18.492  1.00  0.00     0.000 C 
ENDROOT
BRANCH   1   2
ATOM      2  C   UNL     1     -22.627 -12.586 -17.122  1.00  0.00     0.000 C 
BRANCH   2   3
ATOM      3  C   UNL     1     -22.400 -13.636 -16.028  1.00  0.00     0.006 C 
BRANCH   3   4
ATOM      4  C   UNL     1     -23.050 -13.207 -14.709  1.00  0.00     0.053 C 
BRANCH   4   5
ATOM      5  C   UNL     1     -24.079 -14.204 -14.283  1.00  0.00     0.041 C 
ATOM      6  O   UNL     1     -23.820 -15.437 -14.317  1.00  0.00    -0.550 OA
ATOM      7  O   UNL     1     -25.342 -13.777 -13.893  1.00  0.00    -0.550 OA
ENDBRANCH   4   5
ENDBRANCH   3   4
ENDBRANCH   2   3
ENDBRANCH   1   2
BRANCH   1   8
ATOM      8  C   UNL     1     -22.403 -12.345 -19.659  1.00  0.00     0.000 C 
BRANCH   8   9
ATOM      9  C   UNL     1     -21.412 -13.029 -20.615  1.00  0.00    -0.000 C 
BRANCH   9  10
ATOM     10  C   UNL     1     -20.340 -13.851 -19.877  1.00  0.00    -0.000 C 
BRANCH  10  11
ATOM     11  C   UNL     1     -19.365 -13.030 -19.009  1.00  0.00    -0.000 C 
BRANCH  11  12
ATOM     12  C   UNL     1     -18.903 -13.724 -17.715  1.00  0.00    -0.003 C 
ATOM     13  C   UNL     1     -19.393 -15.168 -17.608  1.00  0.00     0.004 C 
ENDBRANCH  11  12
ENDBRANCH  10  11
ENDBRANCH   9  10
ENDBRANCH   8   9
ENDBRANCH   1   8
TORSDOF 9
ENDMDL
MODEL 4
REMARK VINA RESULT:    -3.846     12.396     13.722
REMARK INTER + INTRA:          -6.835
REMARK INTER:                  -6.212
REMARK INTRA:                  -0.624
REMARK UNBOUND:                -0.966
REMARK SMILES CCCCCCCCCCC(=O)[O-]
REMARK SMILES IDX 7 1 8 2 9 3 10 4 11 5 12 6 13 7 6 8 5 9 4 10 3 11 2 12 1 13
REMARK H PARENT
REMARK Flexibility Score: inf
ROOT
ATOM      1  C   UNL     1     -26.013 -20.306 -29.468  1.00  0.00     0.000 C 
ENDROOT
BRANCH   1   2
ATOM      2  C   UNL     1     -27.310 -21.076 -29.177  1.00  0.00     0.000 C 
BRANCH   2   3
ATOM      3  C   UNL     1     -28.201 -20.301 -28.200  1.00  0.00     0.006 C 
BRANCH   3   4
ATOM      4  C   UNL     1     -27.572 -20.248 -26.804  1.00  0.00     0.053 C 
BRANCH   4   5
ATOM      5  C   UNL     1     -28.360 -19.344 -25.910  1.00  0.00     0.041 C 
ATOM      6  O   UNL     1     -29.393 -18.768 -26.342  1.00  0.00    -0.550 OA
ATOM      7  O   UNL     1     -27.927 -19.100 -24.613  1.00  0.00    -0.550 OA
ENDBRANCH   4   5
ENDBRANCH   3   4
ENDBRANCH   2   3
ENDBRANCH   1   2
BRANCH   1   8
ATOM      8  C   UNL     1     -24.761 -21.194 -29.377  1.00  0.00     0.000 C 
BRANCH   8   9
ATOM      9  C   UNL     1     -24.942 -22.372 -28.405  1.00  0.00    -0.000 C 
BRANCH   9  10
ATOM     10  C   UNL     1     -23.972 -22.317 -27.211  1.00  0.00    -0.000 C 
BRANCH  10  11
ATOM     11  C   UNL     1     -22.476 -22.265 -27.582  1.00  0.00    -0.000 C 
BRANCH  11  12
ATOM     12  C   UNL     1     -21.573 -23.219 -26.781  1.00  0.00    -0.003 C 
ATOM     13  C   UNL     1     -22.276 -23.822 -25.565  1.00  0.00     0.004 C 
ENDBRANCH  11  12
ENDBRANCH  10  11
ENDBRANCH   9  10
ENDBRANCH   8   9
ENDBRANCH   1   8
TORSDOF 9
ENDMDL
MODEL 5
REMARK VINA RESULT:    -3.839      3.422      6.063
REMARK INTER + INTRA:          -6.824
REMARK INTER:                  -5.925
REMARK INTRA:                  -0.899
REMARK UNBOUND:                -0.966
REMARK SMILES CCCCCCCCCCC(=O)[O-]
REMARK SMILES IDX 7 1 8 2 9 3 10 4 11 5 12 6 13 7 6 8 5 9 4 10 3 11 2 12 1 13
REMARK H PARENT
REMARK Flexibility Score: inf
ROOT
ATOM      1  C   UNL     1     -22.630 -12.981 -17.377  1.00  0.00     0.000 C 
ENDROOT
BRANCH   1   2
ATOM      2  C   UNL     1     -21.457 -13.886 -16.969  1.00  0.00     0.000 C 
BRANCH   2   3
ATOM      3  C   UNL     1     -20.190 -13.529 -17.755  1.00  0.00     0.006 C 
BRANCH   3   4
ATOM      4  C   UNL     1     -20.498 -12.529 -18.873  1.00  0.00     0.053 C 
BRANCH   4   5
ATOM      5  C   UNL     1     -20.332 -13.173 -20.213  1.00  0.00     0.041 C 
ATOM      6  O   UNL     1     -21.335 -13.374 -20.948  1.00  0.00    -0.550 OA
ATOM      7  O   UNL     1     -19.077 -13.596 -20.630  1.00  0.00    -0.550 OA
ENDBRANCH   4   5
ENDBRANCH   3   4
ENDBRANCH   2   3
ENDBRANCH   1   2
BRANCH   1   8
ATOM      8  C   UNL     1     -23.199 -12.180 -16.195  1.00  0.00     0.000 C 
BRANCH   8   9
ATOM      9  C   UNL     1     -23.067 -12.925 -14.857  1.00  0.00    -0.000 C 
BRANCH   9  10
ATOM     10  C   UNL     1     -24.420 -13.142 -14.157  1.00  0.00    -0.000 C 
BRANCH  10  11
ATOM     11  C   UNL     1     -24.940 -14.594 -14.167  1.00  0.00    -0.000 C 
BRANCH  11  12
ATOM     12  C   UNL     1     -23.863 -15.670 -14.392  1.00  0.00    -0.003 C 
ATOM     13  C   UNL     1     -23.994 -16.369 -15.745  1.00  0.00     0.004 C 
ENDBRANCH  11  12
ENDBRANCH  10  11
ENDBRANCH   9  10
ENDBRANCH   8   9
ENDBRANCH   1   8
TORSDOF 9
ENDMDL
MODEL 6
REMARK VINA RESULT:    -3.806      3.007      5.484
REMARK INTER + INTRA:          -6.774
REMARK INTER:                  -5.801
REMARK INTRA:                  -0.973
REMARK UNBOUND:                -0.966
REMARK SMILES CCCCCCCCCCC(=O)[O-]
REMARK SMILES IDX 7 1 8 2 9 3 10 4 11 5 12 6 13 7 6 8 5 9 4 10 3 11 2 12 1 13
REMARK H PARENT
REMARK Flexibility Score: inf
ROOT
ATOM      1  C   UNL     1     -23.094 -12.952 -14.788  1.00  0.00     0.000 C 
ENDROOT
BRANCH   1   2
ATOM      2  C   UNL     1     -23.217 -12.118 -16.072  1.00  0.00     0.000 C 
BRANCH   2   3
ATOM      3  C   UNL     1     -22.814 -12.941 -17.302  1.00  0.00     0.006 C 
BRANCH   3   4
ATOM      4  C   UNL     1     -21.940 -12.117 -18.253  1.00  0.00     0.053 C 
BRANCH   4   5
ATOM      5  C   UNL     1     -20.636 -12.807 -18.496  1.00  0.00     0.041 C 
ATOM      6  O   UNL     1     -20.070 -12.716 -19.618  1.00  0.00    -0.550 OA
ATOM      7  O   UNL     1     -20.068 -13.590 -17.500  1.00  0.00    -0.550 OA
ENDBRANCH   4   5
ENDBRANCH   3   4
ENDBRANCH   2   3
ENDBRANCH   1   2
BRANCH   1   8
ATOM      8  C   UNL     1     -24.443 -13.151 -14.078  1.00  0.00     0.000 C 
BRANCH   8   9
ATOM      9  C   UNL     1     -24.987 -14.581 -14.233  1.00  0.00    -0.000 C 
BRANCH   9  10
ATOM     10  C   UNL     1     -23.884 -15.612 -14.533  1.00  0.00    -0.000 C 
BRANCH  10  11
ATOM     11  C   UNL     1     -24.236 -16.655 -15.613  1.00  0.00    -0.000 C 
BRANCH  11  12
ATOM     12  C   UNL     1     -23.367 -16.597 -16.882  1.00  0.00    -0.003 C 
ATOM     13  C   UNL     1     -21.873 -16.487 -16.575  1.00  0.00     0.004 C 
ENDBRANCH  11  12
ENDBRANCH  10  11
ENDBRANCH   9  10
ENDBRANCH   8   9
ENDBRANCH   1   8
TORSDOF 9
ENDMDL
MODEL 7
REMARK VINA RESULT:    -3.771      1.401      2.916
REMARK INTER + INTRA:          -6.721
REMARK INTER:                  -5.585
REMARK INTRA:                  -1.136
REMARK UNBOUND:                -0.966
REMARK SMILES CCCCCCCCCCC(=O)[O-]
REMARK SMILES IDX 7 1 8 2 9 3 10 4 11 5 12 6 13 7 6 8 5 9 4 10 3 11 2 12 1 13
REMARK H PARENT
REMARK Flexibility Score: inf
ROOT
ATOM      1  C   UNL     1     -19.516 -15.203 -17.789  1.00  0.00     0.000 C 
ENDROOT
BRANCH   1   2
ATOM      2  C   UNL     1     -20.875 -15.524 -17.150  1.00  0.00     0.000 C 
BRANCH   2   3
ATOM      3  C   UNL     1     -21.558 -14.249 -16.643  1.00  0.00     0.006 C 
BRANCH   3   4
ATOM      4  C   UNL     1     -23.016 -14.520 -16.257  1.00  0.00     0.053 C 
BRANCH   4   5
ATOM      5  C   UNL     1     -23.355 -13.832 -14.973  1.00  0.00     0.041 C 
ATOM      6  O   UNL     1     -23.790 -14.495 -13.994  1.00  0.00    -0.550 OA
ATOM      7  O   UNL     1     -23.236 -12.452 -14.871  1.00  0.00    -0.550 OA
ENDBRANCH   4   5
ENDBRANCH   3   4
ENDBRANCH   2   3
ENDBRANCH   1   2
BRANCH   1   8
ATOM      8  C   UNL     1     -19.193 -13.699 -17.773  1.00  0.00     0.000 C 
BRANCH   8   9
ATOM      9  C   UNL     1     -19.226 -13.073 -19.176  1.00  0.00    -0.000 C 
BRANCH   9  10
ATOM     10  C   UNL     1     -20.274 -11.953 -19.307  1.00  0.00    -0.000 C 
BRANCH  10  11
ATOM     11  C   UNL     1     -21.345 -12.178 -20.393  1.00  0.00    -0.000 C 
BRANCH  11  12
ATOM     12  C   UNL     1     -22.613 -12.908 -19.916  1.00  0.00    -0.003 C 
ATOM     13  C   UNL     1     -22.638 -14.382 -20.323  1.00  0.00     0.004 C 
ENDBRANCH  11  12
ENDBRANCH  10  11
ENDBRANCH   9  10
ENDBRANCH   8   9
ENDBRANCH   1   8
TORSDOF 9
ENDMDL
MODEL 8
REMARK VINA RESULT:    -3.751      3.284      6.599
REMARK INTER + INTRA:          -6.690
REMARK INTER:                  -6.254
REMARK INTRA:                  -0.436
REMARK UNBOUND:                -0.966
REMARK SMILES CCCCCCCCCCC(=O)[O-]
REMARK SMILES IDX 7 1 8 2 9 3 10 4 11 5 12 6 13 7 6 8 5 9 4 10 3 11 2 12 1 13
REMARK H PARENT
REMARK Flexibility Score: inf
ROOT
ATOM      1  C   UNL     1     -23.094 -12.757 -15.148  1.00  0.00     0.000 C 
ENDROOT
BRANCH   1   2
ATOM      2  C   UNL     1     -23.065 -11.927 -16.441  1.00  0.00     0.000 C 
BRANCH   2   3
ATOM      3  C   UNL     1     -22.612 -12.781 -17.631  1.00  0.00     0.006 C 
BRANCH   3   4
ATOM      4  C   UNL     1     -22.510 -11.939 -18.906  1.00  0.00     0.053 C 
BRANCH   4   5
ATOM      5  C   UNL     1     -22.305 -12.817 -20.099  1.00  0.00     0.041 C 
ATOM      6  O   UNL     1     -23.058 -13.809 -20.293  1.00  0.00    -0.550 OA
ATOM      7  O   UNL     1     -21.253 -12.571 -20.972  1.00  0.00    -0.550 OA
ENDBRANCH   4   5
ENDBRANCH   3   4
ENDBRANCH   2   3
ENDBRANCH   1   2
BRANCH   1   8
ATOM      8  C   UNL     1     -24.340 -12.478 -14.292  1.00  0.00     0.000 C 
BRANCH   8   9
ATOM      9  C   UNL     1     -25.092 -13.763 -13.908  1.00  0.00    -0.000 C 
BRANCH   9  10
ATOM     10  C   UNL     1     -24.300 -15.041 -14.236  1.00  0.00    -0.000 C 
BRANCH  10  11
ATOM     11  C   UNL     1     -25.151 -16.314 -14.422  1.00  0.00    -0.000 C 
BRANCH  11  12
ATOM     12  C   UNL     1     -26.379 -16.415 -13.500  1.00  0.00    -0.003 C 
ATOM     13  C   UNL     1     -26.044 -16.994 -12.126  1.00  0.00     0.004 C 
ENDBRANCH  11  12
ENDBRANCH  10  11
ENDBRANCH   9  10
ENDBRANCH   8   9
ENDBRANCH   1   8
TORSDOF 9
ENDMDL
MODEL 9
REMARK VINA RESULT:    -3.698      3.717      5.418
REMARK INTER + INTRA:          -6.610
REMARK INTER:                  -5.279
REMARK INTRA:                  -1.331
REMARK UNBOUND:                -0.966
REMARK SMILES CCCCCCCCCCC(=O)[O-]
REMARK SMILES IDX 7 1 8 2 9 3 10 4 11 5 12 6 13 7 6 8 5 9 4 10 3 11 2 12 1 13
REMARK H PARENT
REMARK Flexibility Score: inf
ROOT
ATOM      1  C   UNL     1     -22.617 -12.972 -19.978  1.00  0.00     0.000 C 
ENDROOT
BRANCH   1   2
ATOM      2  C   UNL     1     -21.322 -13.078 -20.798  1.00  0.00     0.000 C 
BRANCH   2   3
ATOM      3  C   UNL     1     -21.109 -14.509 -21.304  1.00  0.00     0.006 C 
BRANCH   3   4
ATOM      4  C   UNL     1     -22.116 -15.474 -20.669  1.00  0.00     0.053 C 
BRANCH   4   5
ATOM      5  C   UNL     1     -22.675 -16.401 -21.701  1.00  0.00     0.041 C 
ATOM      6  O   UNL     1     -23.105 -17.537 -21.366  1.00  0.00    -0.550 OA
ATOM      7  O   UNL     1     -22.678 -16.031 -23.040  1.00  0.00    -0.550 OA
ENDBRANCH   4   5
ENDBRANCH   3   4
ENDBRANCH   2   3
ENDBRANCH   1   2
BRANCH   1   8
ATOM      8  C   UNL     1     -22.460 -12.086 -18.731  1.00  0.00     0.000 C 
BRANCH   8   9
ATOM      9  C   UNL     1     -22.894 -12.799 -17.441  1.00  0.00    -0.000 C 
BRANCH   9  10
ATOM     10  C   UNL     1     -21.711 -13.402 -16.662  1.00  0.00    -0.000 C 
BRANCH  10  11
ATOM     11  C   UNL     1     -21.317 -14.836 -17.072  1.00  0.00    -0.000 C 
BRANCH  11  12
ATOM     12  C   UNL     1     -19.901 -14.980 -17.657  1.00  0.00    -0.003 C 
ATOM     13  C   UNL     1     -19.138 -13.656 -17.699  1.00  0.00     0.004 C 
ENDBRANCH  11  12
ENDBRANCH  10  11
ENDBRANCH   9  10
ENDBRANCH   8   9
ENDBRANCH   1   8
TORSDOF 9
ENDMDL
