MODEL 1
REMARK VINA RESULT:    -3.498      0.000      0.000
REMARK INTER + INTRA:          -5.766
REMARK INTER:                  -5.135
REMARK INTRA:                  -0.631
REMARK UNBOUND:                -0.631
REMARK SMILES O=C([O-])CCCCCCCC(=O)[O-]
REMARK SMILES IDX 7 1 6 2 5 3 4 4 2 5 1 6 3 7 8 8 9 9 10 10 11 11 12 12 13 13
REMARK H PARENT
REMARK Flexibility Score: inf
ROOT
ATOM      1  C   UNL     1      65.743 -14.434  12.659  1.00  0.00     0.000 C 
ENDROOT
BRANCH   1   2
ATOM      2  C   UNL     1      65.105 -15.694  13.265  1.00  0.00     0.000 C 
BRANCH   2   3
ATOM      3  C   UNL     1      65.898 -16.244  14.460  1.00  0.00     0.006 C 
BRANCH   3   4
ATOM      4  C   UNL     1      67.090 -15.339  14.789  1.00  0.00     0.053 C 
BRANCH   4   5
ATOM      5  C   UNL     1      68.205 -16.139  15.385  1.00  0.00     0.041 C 
ATOM      6  O   UNL     1      69.192 -16.474  14.678  1.00  0.00    -0.550 OA
ATOM      7  O   UNL     1      68.179 -16.471  16.733  1.00  0.00    -0.550 OA
ENDBRANCH   4   5
ENDBRANCH   3   4
ENDBRANCH   2   3
ENDBRANCH   1   2
BRANCH   1   8
ATOM      8  C   UNL     1      65.950 -14.548  11.141  1.00  0.00     0.000 C 
BRANCH   8   9
ATOM      9  C   UNL     1      66.608 -15.888  10.777  1.00  0.00     0.006 C 
BRANCH   9  10
ATOM     10  C   UNL     1      68.129 -15.864  10.984  1.00  0.00     0.053 C 
BRANCH  10  11
ATOM     11  C   UNL     1      68.847 -15.385   9.760  1.00  0.00     0.041 C 
ATOM     12  O   UNL     1      69.672 -14.437   9.837  1.00  0.00    -0.550 OA
ATOM     13  O   UNL     1      68.629 -16.009   8.538  1.00  0.00    -0.550 OA
ENDBRANCH  10  11
ENDBRANCH   9  10
ENDBRANCH   8   9
ENDBRANCH   1   8
TORSDOF 8
ENDMDL
MODEL 2
REMARK VINA RESULT:    -3.472      1.026      4.778
REMARK INTER + INTRA:          -5.726
REMARK INTER:                  -5.082
REMARK INTRA:                  -0.645
REMARK UNBOUND:                -0.631
REMARK SMILES O=C([O-])CCCCCCCC(=O)[O-]
REMARK SMILES IDX 7 1 6 2 5 3 4 4 2 5 1 6 3 7 8 8 9 9 10 10 11 11 12 12 13 13
REMARK H PARENT
REMARK Flexibility Score: inf
ROOT
ATOM      1  C   UNL     1      65.891 -14.418  12.692  1.00  0.00     0.000 C 
ENDROOT
BRANCH   1   2
ATOM      2  C   UNL     1      66.269 -14.683  11.226  1.00  0.00     0.000 C 
BRANCH   2   3
ATOM      3  C   UNL     1      66.265 -16.178  10.873  1.00  0.00     0.006 C 
BRANCH   3   4
ATOM      4  C   UNL     1      67.467 -16.536   9.993  1.00  0.00     0.053 C 
BRANCH   4   5
ATOM      5  C   UNL     1      68.746 -16.309  10.736  1.00  0.00     0.041 C 
ATOM      6  O   UNL     1      68.913 -16.813  11.878  1.00  0.00    -0.550 OA
ATOM      7  O   UNL     1      69.773 -15.582  10.148  1.00  0.00    -0.550 OA
ENDBRANCH   4   5
ENDBRANCH   3   4
ENDBRANCH   2   3
ENDBRANCH   1   2
BRANCH   1   8
ATOM      8  C   UNL     1      65.289 -15.654  13.379  1.00  0.00     0.000 C 
BRANCH   8   9
ATOM      9  C   UNL     1      66.055 -15.992  14.667  1.00  0.00     0.006 C 
BRANCH   9  10
ATOM     10  C   UNL     1      67.411 -15.279  14.742  1.00  0.00     0.053 C 
BRANCH  10  11
ATOM     11  C   UNL     1      68.349 -15.969  15.686  1.00  0.00     0.041 C 
ATOM     12  O   UNL     1      67.909 -16.515  16.732  1.00  0.00    -0.550 OA
ATOM     13  O   UNL     1      69.705 -16.035  15.394  1.00  0.00    -0.550 OA
ENDBRANCH  10  11
ENDBRANCH   9  10
ENDBRANCH   8   9
ENDBRANCH   1   8
TORSDOF 8
ENDMDL
MODEL 3
REMARK VINA RESULT:    -3.215     20.445     22.053
REMARK INTER + INTRA:          -5.349
REMARK INTER:                  -4.823
REMARK INTRA:                  -0.527
REMARK UNBOUND:                -0.631
REMARK SMILES O=C([O-])CCCCCCCC(=O)[O-]
REMARK SMILES IDX 7 1 6 2 5 3 4 4 2 5 1 6 3 7 8 8 9 9 10 10 11 11 12 12 13 13
REMARK H PARENT
REMARK Flexibility Score: inf
ROOT
ATOM      1  C   UNL     1      56.554   1.033  22.118  1.00  0.00     0.000 C 
ENDROOT
BRANCH   1   2
ATOM      2  C   UNL     1      57.316  -0.042  21.326  1.00  0.00     0.000 C 
BRANCH   2   3
ATOM      3  C   UNL     1      57.277  -1.419  22.005  1.00  0.00     0.006 C 
BRANCH   3   4
ATOM      4  C   UNL     1      58.651  -1.787  22.574  1.00  0.00     0.053 C 
BRANCH   4   5
ATOM      5  C   UNL     1      58.621  -1.763  24.070  1.00  0.00     0.041 C 
ATOM      6  O   UNL     1      59.611  -2.175  24.730  1.00  0.00    -0.550 OA
ATOM      7  O   UNL     1      57.521  -1.239  24.735  1.00  0.00    -0.550 OA
ENDBRANCH   4   5
ENDBRANCH   3   4
ENDBRANCH   2   3
ENDBRANCH   1   2
BRANCH   1   8
ATOM      8  C   UNL     1      55.230   0.512  22.696  1.00  0.00     0.000 C 
BRANCH   8   9
ATOM      9  C   UNL     1      54.031   1.152  21.981  1.00  0.00     0.006 C 
BRANCH   9  10
ATOM     10  C   UNL     1      53.221   0.130  21.173  1.00  0.00     0.053 C 
BRANCH  10  11
ATOM     11  C   UNL     1      52.050  -0.389  21.951  1.00  0.00     0.041 C 
ATOM     12  O   UNL     1      51.418  -1.401  21.549  1.00  0.00    -0.550 OA
ATOM     13  O   UNL     1      51.676   0.229  23.138  1.00  0.00    -0.550 OA
ENDBRANCH  10  11
ENDBRANCH   9  10
ENDBRANCH   8   9
ENDBRANCH   1   8
TORSDOF 8
ENDMDL
MODEL 4
REMARK VINA RESULT:    -3.122     15.254     16.899
REMARK INTER + INTRA:          -5.213
REMARK INTER:                  -4.285
REMARK INTRA:                  -0.928
REMARK UNBOUND:                -0.631
REMARK SMILES O=C([O-])CCCCCCCC(=O)[O-]
REMARK SMILES IDX 7 1 6 2 5 3 4 4 2 5 1 6 3 7 8 8 9 9 10 10 11 11 12 12 13 13
REMARK H PARENT
REMARK Flexibility Score: inf
ROOT
ATOM      1  C   UNL     1      68.328  -2.030  10.131  1.00  0.00     0.000 C 
ENDROOT
BRANCH   1   2
ATOM      2  C   UNL     1      69.262  -1.648   8.971  1.00  0.00     0.000 C 
BRANCH   2   3
ATOM      3  C   UNL     1      68.651  -0.588   8.042  1.00  0.00     0.006 C 
BRANCH   3   4
ATOM      4  C   UNL     1      67.321  -0.072   8.601  1.00  0.00     0.053 C 
BRANCH   4   5
ATOM      5  C   UNL     1      67.058   1.321   8.123  1.00  0.00     0.041 C 
ATOM      6  O   UNL     1      67.284   1.633   6.924  1.00  0.00    -0.550 OA
ATOM      7  O   UNL     1      66.516   2.262   8.989  1.00  0.00    -0.550 OA
ENDBRANCH   4   5
ENDBRANCH   3   4
ENDBRANCH   2   3
ENDBRANCH   1   2
BRANCH   1   8
ATOM      8  C   UNL     1      69.063  -2.115  11.477  1.00  0.00     0.000 C 
BRANCH   8   9
ATOM      9  C   UNL     1      69.667  -0.755  11.859  1.00  0.00     0.006 C 
BRANCH   9  10
ATOM     10  C   UNL     1      68.594   0.323  12.061  1.00  0.00     0.053 C 
BRANCH  10  11
ATOM     11  C   UNL     1      68.989   1.623  11.430  1.00  0.00     0.041 C 
ATOM     12  O   UNL     1      69.882   1.653  10.542  1.00  0.00    -0.550 OA
ATOM     13  O   UNL     1      68.349   2.798  11.802  1.00  0.00    -0.550 OA
ENDBRANCH  10  11
ENDBRANCH   9  10
ENDBRANCH   8   9
ENDBRANCH   1   8
TORSDOF 8
ENDMDL
MODEL 5
REMARK VINA RESULT:    -3.112     20.998     22.657
REMARK INTER + INTRA:          -5.199
REMARK INTER:                  -4.784
REMARK INTRA:                  -0.416
REMARK UNBOUND:                -0.631
REMARK SMILES O=C([O-])CCCCCCCC(=O)[O-]
REMARK SMILES IDX 7 1 6 2 5 3 4 4 2 5 1 6 3 7 8 8 9 9 10 10 11 11 12 12 13 13
REMARK H PARENT
REMARK Flexibility Score: inf
ROOT
ATOM      1  C   UNL     1      53.984   1.781  22.178  1.00  0.00     0.000 C 
ENDROOT
BRANCH   1   2
ATOM      2  C   UNL     1      52.826   1.560  21.191  1.00  0.00     0.000 C 
BRANCH   2   3
ATOM      3  C   UNL     1      52.813   0.141  20.601  1.00  0.00     0.006 C 
BRANCH   3   4
ATOM      4  C   UNL     1      51.379  -0.318  20.315  1.00  0.00     0.053 C 
BRANCH   4   5
ATOM      5  C   UNL     1      50.964  -1.375  21.289  1.00  0.00     0.041 C 
ATOM      6  O   UNL     1      51.500  -1.433  22.428  1.00  0.00    -0.550 OA
ATOM      7  O   UNL     1      49.952  -2.267  20.958  1.00  0.00    -0.550 OA
ENDBRANCH   4   5
ENDBRANCH   3   4
ENDBRANCH   2   3
ENDBRANCH   1   2
BRANCH   1   8
ATOM      8  C   UNL     1      54.788   0.500  22.442  1.00  0.00     0.000 C 
BRANCH   8   9
ATOM      9  C   UNL     1      56.297   0.771  22.350  1.00  0.00     0.006 C 
BRANCH   9  10
ATOM     10  C   UNL     1      57.062  -0.401  21.722  1.00  0.00     0.053 C 
BRANCH  10  11
ATOM     11  C   UNL     1      57.742  -1.240  22.760  1.00  0.00     0.041 C 
ATOM     12  O   UNL     1      58.812  -1.846  22.488  1.00  0.00    -0.550 OA
ATOM     13  O   UNL     1      57.209  -1.328  24.040  1.00  0.00    -0.550 OA
ENDBRANCH  10  11
ENDBRANCH   9  10
ENDBRANCH   8   9
ENDBRANCH   1   8
TORSDOF 8
ENDMDL
MODEL 6
REMARK VINA RESULT:    -3.101     21.004     22.587
REMARK INTER + INTRA:          -5.182
REMARK INTER:                  -4.741
REMARK INTRA:                  -0.441
REMARK UNBOUND:                -0.631
REMARK SMILES O=C([O-])CCCCCCCC(=O)[O-]
REMARK SMILES IDX 7 1 6 2 5 3 4 4 2 5 1 6 3 7 8 8 9 9 10 10 11 11 12 12 13 13
REMARK H PARENT
REMARK Flexibility Score: inf
ROOT
ATOM      1  C   UNL     1      53.933   1.775  22.068  1.00  0.00     0.000 C 
ENDROOT
BRANCH   1   2
ATOM      2  C   UNL     1      54.702   0.478  22.368  1.00  0.00     0.000 C 
BRANCH   2   3
ATOM      3  C   UNL     1      56.211   0.709  22.542  1.00  0.00     0.006 C 
BRANCH   3   4
ATOM      4  C   UNL     1      57.017  -0.311  21.733  1.00  0.00     0.053 C 
BRANCH   4   5
ATOM      5  C   UNL     1      57.610  -1.346  22.637  1.00  0.00     0.041 C 
ATOM      6  O   UNL     1      58.439  -2.180  22.187  1.00  0.00    -0.550 OA
ATOM      7  O   UNL     1      57.283  -1.359  23.987  1.00  0.00    -0.550 OA
ENDBRANCH   4   5
ENDBRANCH   3   4
ENDBRANCH   2   3
ENDBRANCH   1   2
BRANCH   1   8
ATOM      8  C   UNL     1      52.809   1.572  21.041  1.00  0.00     0.000 C 
BRANCH   8   9
ATOM      9  C   UNL     1      52.711   0.098  20.620  1.00  0.00     0.006 C 
BRANCH   9  10
ATOM     10  C   UNL     1      51.264  -0.334  20.349  1.00  0.00     0.053 C 
BRANCH  10  11
ATOM     11  C   UNL     1      50.822  -1.414  21.290  1.00  0.00     0.041 C 
ATOM     12  O   UNL     1      50.027  -2.309  20.901  1.00  0.00    -0.550 OA
ATOM     13  O   UNL     1      51.315  -1.448  22.589  1.00  0.00    -0.550 OA
ENDBRANCH  10  11
ENDBRANCH   9  10
ENDBRANCH   8   9
ENDBRANCH   1   8
TORSDOF 8
ENDMDL
MODEL 7
REMARK VINA RESULT:    -3.085     15.102     16.272
REMARK INTER + INTRA:          -5.159
REMARK INTER:                  -4.436
REMARK INTRA:                  -0.723
REMARK UNBOUND:                -0.631
REMARK SMILES O=C([O-])CCCCCCCC(=O)[O-]
REMARK SMILES IDX 7 1 6 2 5 3 4 4 2 5 1 6 3 7 8 8 9 9 10 10 11 11 12 12 13 13
REMARK H PARENT
REMARK Flexibility Score: inf
ROOT
ATOM      1  C   UNL     1      68.667  -2.123  10.495  1.00  0.00     0.000 C 
ENDROOT
BRANCH   1   2
ATOM      2  C   UNL     1      69.385  -1.810  11.818  1.00  0.00     0.000 C 
BRANCH   2   3
ATOM      3  C   UNL     1      69.606  -0.305  12.031  1.00  0.00     0.006 C 
BRANCH   3   4
ATOM      4  C   UNL     1      68.271   0.447  12.042  1.00  0.00     0.053 C 
BRANCH   4   5
ATOM      5  C   UNL     1      68.503   1.925  12.082  1.00  0.00     0.041 C 
ATOM      6  O   UNL     1      68.215   2.639  11.085  1.00  0.00    -0.550 OA
ATOM      7  O   UNL     1      68.991   2.521  13.238  1.00  0.00    -0.550 OA
ENDBRANCH   4   5
ENDBRANCH   3   4
ENDBRANCH   2   3
ENDBRANCH   1   2
BRANCH   1   8
ATOM      8  C   UNL     1      69.617  -2.103   9.288  1.00  0.00     0.000 C 
BRANCH   8   9
ATOM      9  C   UNL     1      69.005  -1.311   8.122  1.00  0.00     0.006 C 
BRANCH   9  10
ATOM     10  C   UNL     1      68.696   0.142   8.505  1.00  0.00     0.053 C 
BRANCH  10  11
ATOM     11  C   UNL     1      67.258   0.485   8.260  1.00  0.00     0.041 C 
ATOM     12  O   UNL     1      66.368   0.104   9.066  1.00  0.00    -0.550 OA
ATOM     13  O   UNL     1      66.904   1.254   7.159  1.00  0.00    -0.550 OA
ENDBRANCH  10  11
ENDBRANCH   9  10
ENDBRANCH   8   9
ENDBRANCH   1   8
TORSDOF 8
ENDMDL
MODEL 8
REMARK VINA RESULT:    -3.064      9.411     10.474
REMARK INTER + INTRA:          -5.128
REMARK INTER:                  -4.678
REMARK INTRA:                  -0.450
REMARK UNBOUND:                -0.631
REMARK SMILES O=C([O-])CCCCCCCC(=O)[O-]
REMARK SMILES IDX 7 1 6 2 5 3 4 4 2 5 1 6 3 7 8 8 9 9 10 10 11 11 12 12 13 13
REMARK H PARENT
REMARK Flexibility Score: inf
ROOT
ATOM      1  C   UNL     1      55.928 -16.872  10.053  1.00  0.00     0.000 C 
ENDROOT
BRANCH   1   2
ATOM      2  C   UNL     1      55.549 -16.027  11.279  1.00  0.00     0.000 C 
BRANCH   2   3
ATOM      3  C   UNL     1      56.200 -16.535  12.575  1.00  0.00     0.006 C 
BRANCH   3   4
ATOM      4  C   UNL     1      57.672 -16.891  12.344  1.00  0.00     0.053 C 
BRANCH   4   5
ATOM      5  C   UNL     1      58.483 -16.583  13.563  1.00  0.00     0.041 C 
ATOM      6  O   UNL     1      57.915 -16.408  14.673  1.00  0.00    -0.550 OA
ATOM      7  O   UNL     1      59.869 -16.538  13.484  1.00  0.00    -0.550 OA
ENDBRANCH   4   5
ENDBRANCH   3   4
ENDBRANCH   2   3
ENDBRANCH   1   2
BRANCH   1   8
ATOM      8  C   UNL     1      55.831 -16.083   8.738  1.00  0.00     0.000 C 
BRANCH   8   9
ATOM      9  C   UNL     1      56.311 -14.637   8.931  1.00  0.00     0.006 C 
BRANCH   9  10
ATOM     10  C   UNL     1      57.760 -14.437   8.466  1.00  0.00     0.053 C 
BRANCH  10  11
ATOM     11  C   UNL     1      58.041 -15.180   7.196  1.00  0.00     0.041 C 
ATOM     12  O   UNL     1      58.851 -16.145   7.191  1.00  0.00    -0.550 OA
ATOM     13  O   UNL     1      57.386 -14.826   6.024  1.00  0.00    -0.550 OA
ENDBRANCH  10  11
ENDBRANCH   9  10
ENDBRANCH   8   9
ENDBRANCH   1   8
TORSDOF 8
ENDMDL
MODEL 9
REMARK VINA RESULT:    -2.954     13.491     15.326
REMARK INTER + INTRA:          -4.967
REMARK INTER:                  -4.512
REMARK INTRA:                  -0.455
REMARK UNBOUND:                -0.631
REMARK SMILES O=C([O-])CCCCCCCC(=O)[O-]
REMARK SMILES IDX 7 1 6 2 5 3 4 4 2 5 1 6 3 7 8 8 9 9 10 10 11 11 12 12 13 13
REMARK H PARENT
REMARK Flexibility Score: inf
ROOT
ATOM      1  C   UNL     1      68.508  -2.104   9.786  1.00  0.00     0.000 C 
ENDROOT
BRANCH   1   2
ATOM      2  C   UNL     1      69.875  -2.501   9.207  1.00  0.00     0.000 C 
BRANCH   2   3
ATOM      3  C   UNL     1      69.822  -2.779   7.697  1.00  0.00     0.006 C 
BRANCH   3   4
ATOM      4  C   UNL     1      69.797  -4.286   7.419  1.00  0.00     0.053 C 
BRANCH   4   5
ATOM      5  C   UNL     1      69.670  -4.545   5.951  1.00  0.00     0.041 C 
ATOM      6  O   UNL     1      69.838  -3.608   5.126  1.00  0.00    -0.550 OA
ATOM      7  O   UNL     1      69.416  -5.831   5.491  1.00  0.00    -0.550 OA
ENDBRANCH   4   5
ENDBRANCH   3   4
ENDBRANCH   2   3
ENDBRANCH   1   2
BRANCH   1   8
ATOM      8  C   UNL     1      68.607  -0.959  10.804  1.00  0.00     0.000 C 
BRANCH   8   9
ATOM      9  C   UNL     1      67.883   0.295  10.292  1.00  0.00     0.006 C 
BRANCH   9  10
ATOM     10  C   UNL     1      66.839  -0.034   9.217  1.00  0.00     0.053 C 
BRANCH  10  11
ATOM     11  C   UNL     1      67.107   0.704   7.940  1.00  0.00     0.041 C 
ATOM     12  O   UNL     1      66.295   1.573   7.527  1.00  0.00    -0.550 OA
ATOM     13  O   UNL     1      68.270   0.452   7.223  1.00  0.00    -0.550 OA
ENDBRANCH  10  11
ENDBRANCH   9  10
ENDBRANCH   8   9
ENDBRANCH   1   8
TORSDOF 8
ENDMDL
