MODEL 1
REMARK VINA RESULT:    -4.848      0.000      0.000
REMARK INTER + INTRA:          -8.288
REMARK INTER:                  -7.682
REMARK INTRA:                  -0.606
REMARK UNBOUND:                -0.606
REMARK SMILES CCCCCCCCCCCC(=O)[O-]
REMARK SMILES IDX 7 1 8 2 9 3 10 4 11 5 12 6 13 7 14 8 6 9 5 10 4 11 3 12 2 13
REMARK SMILES IDX 1 14
REMARK H PARENT
REMARK Flexibility Score: inf
ROOT
ATOM      1  C   UNL     1      -3.399  37.861  19.861  1.00  0.00     0.000 C 
ENDROOT
BRANCH   1   2
ATOM      2  C   UNL     1      -4.866  37.719  20.302  1.00  0.00     0.000 C 
BRANCH   2   3
ATOM      3  C   UNL     1      -5.392  36.282  20.149  1.00  0.00     0.000 C 
BRANCH   3   4
ATOM      4  C   UNL     1      -6.059  35.759  21.432  1.00  0.00     0.006 C 
BRANCH   4   5
ATOM      5  C   UNL     1      -5.808  36.667  22.642  1.00  0.00     0.053 C 
BRANCH   5   6
ATOM      6  C   UNL     1      -5.640  35.848  23.883  1.00  0.00     0.041 C 
ATOM      7  O   UNL     1      -5.251  36.388  24.952  1.00  0.00    -0.550 OA
ATOM      8  O   UNL     1      -5.866  34.477  23.846  1.00  0.00    -0.550 OA
ENDBRANCH   5   6
ENDBRANCH   4   5
ENDBRANCH   3   4
ENDBRANCH   2   3
ENDBRANCH   1   2
BRANCH   1   9
ATOM      9  C   UNL     1      -3.237  37.869  18.333  1.00  0.00     0.000 C 
BRANCH   9  10
ATOM     10  C   UNL     1      -1.755  37.916  17.939  1.00  0.00    -0.000 C 
BRANCH  10  11
ATOM     11  C   UNL     1      -1.525  37.242  16.581  1.00  0.00    -0.000 C 
BRANCH  11  12
ATOM     12  C   UNL     1      -2.810  36.580  16.071  1.00  0.00    -0.000 C 
BRANCH  12  13
ATOM     13  C   UNL     1      -3.130  37.029  14.641  1.00  0.00    -0.003 C 
ATOM     14  C   UNL     1      -3.629  38.470  14.612  1.00  0.00     0.004 C 
ENDBRANCH  12  13
ENDBRANCH  11  12
ENDBRANCH  10  11
ENDBRANCH   9  10
ENDBRANCH   1   9
TORSDOF 10
ENDMDL
MODEL 2
REMARK VINA RESULT:    -4.509      4.138      7.504
REMARK INTER + INTRA:          -7.751
REMARK INTER:                  -7.109
REMARK INTRA:                  -0.642
REMARK UNBOUND:                -0.606
REMARK SMILES CCCCCCCCCCCC(=O)[O-]
REMARK SMILES IDX 7 1 8 2 9 3 10 4 11 5 12 6 13 7 14 8 6 9 5 10 4 11 3 12 2 13
REMARK SMILES IDX 1 14
REMARK H PARENT
REMARK Flexibility Score: inf
ROOT
ATOM      1  C   UNL     1      -3.461  36.472  20.691  1.00  0.00     0.000 C 
ENDROOT
BRANCH   1   2
ATOM      2  C   UNL     1      -2.675  37.514  19.877  1.00  0.00     0.000 C 
BRANCH   2   3
ATOM      3  C   UNL     1      -3.443  37.990  18.631  1.00  0.00     0.000 C 
BRANCH   3   4
ATOM      4  C   UNL     1      -2.621  37.843  17.341  1.00  0.00     0.006 C 
BRANCH   4   5
ATOM      5  C   UNL     1      -3.106  36.685  16.459  1.00  0.00     0.053 C 
BRANCH   5   6
ATOM      6  C   UNL     1      -2.771  36.947  15.024  1.00  0.00     0.041 C 
ATOM      7  O   UNL     1      -1.598  36.763  14.603  1.00  0.00    -0.550 OA
ATOM      8  O   UNL     1      -3.742  37.442  14.163  1.00  0.00    -0.550 OA
ENDBRANCH   5   6
ENDBRANCH   4   5
ENDBRANCH   3   4
ENDBRANCH   2   3
ENDBRANCH   1   2
BRANCH   1   9
ATOM      9  C   UNL     1      -4.724  35.982  19.967  1.00  0.00     0.000 C 
BRANCH   9  10
ATOM     10  C   UNL     1      -5.933  35.985  20.911  1.00  0.00    -0.000 C 
BRANCH  10  11
ATOM     11  C   UNL     1      -5.516  36.362  22.338  1.00  0.00    -0.000 C 
BRANCH  11  12
ATOM     12  C   UNL     1      -5.707  35.180  23.297  1.00  0.00    -0.000 C 
BRANCH  12  13
ATOM     13  C   UNL     1      -6.125  35.663  24.689  1.00  0.00    -0.003 C 
ATOM     14  C   UNL     1      -5.376  36.932  25.083  1.00  0.00     0.004 C 
ENDBRANCH  12  13
ENDBRANCH  11  12
ENDBRANCH  10  11
ENDBRANCH   9  10
ENDBRANCH   1   9
TORSDOF 10
ENDMDL
MODEL 3
REMARK VINA RESULT:    -4.352      3.908      7.514
REMARK INTER + INTRA:          -7.502
REMARK INTER:                  -7.030
REMARK INTRA:                  -0.472
REMARK UNBOUND:                -0.606
REMARK SMILES CCCCCCCCCCCC(=O)[O-]
REMARK SMILES IDX 7 1 8 2 9 3 10 4 11 5 12 6 13 7 14 8 6 9 5 10 4 11 3 12 2 13
REMARK SMILES IDX 1 14
REMARK H PARENT
REMARK Flexibility Score: inf
ROOT
ATOM      1  C   UNL     1      -3.337  37.633  20.122  1.00  0.00     0.000 C 
ENDROOT
BRANCH   1   2
ATOM      2  C   UNL     1      -3.092  37.810  18.615  1.00  0.00     0.000 C 
BRANCH   2   3
ATOM      3  C   UNL     1      -1.598  37.955  18.272  1.00  0.00     0.000 C 
BRANCH   3   4
ATOM      4  C   UNL     1      -1.282  37.538  16.827  1.00  0.00     0.006 C 
BRANCH   4   5
ATOM      5  C   UNL     1      -2.348  36.609  16.232  1.00  0.00     0.053 C 
BRANCH   5   6
ATOM      6  C   UNL     1      -2.998  37.254  15.048  1.00  0.00     0.041 C 
ATOM      7  O   UNL     1      -3.034  36.656  13.940  1.00  0.00    -0.550 OA
ATOM      8  O   UNL     1      -3.521  38.537  15.156  1.00  0.00    -0.550 OA
ENDBRANCH   5   6
ENDBRANCH   4   5
ENDBRANCH   3   4
ENDBRANCH   2   3
ENDBRANCH   1   2
BRANCH   1   9
ATOM      9  C   UNL     1      -4.830  37.589  20.479  1.00  0.00     0.000 C 
BRANCH   9  10
ATOM     10  C   UNL     1      -5.363  36.151  20.432  1.00  0.00    -0.000 C 
BRANCH  10  11
ATOM     11  C   UNL     1      -6.124  35.803  21.717  1.00  0.00    -0.000 C 
BRANCH  11  12
ATOM     12  C   UNL     1      -5.190  35.830  22.933  1.00  0.00    -0.000 C 
BRANCH  12  13
ATOM     13  C   UNL     1      -5.988  35.799  24.241  1.00  0.00    -0.003 C 
ATOM     14  C   UNL     1      -5.505  36.875  25.209  1.00  0.00     0.004 C 
ENDBRANCH  12  13
ENDBRANCH  11  12
ENDBRANCH  10  11
ENDBRANCH   9  10
ENDBRANCH   1   9
TORSDOF 10
ENDMDL
MODEL 4
REMARK VINA RESULT:    -4.322      1.171      1.752
REMARK INTER + INTRA:          -7.455
REMARK INTER:                  -6.873
REMARK INTRA:                  -0.582
REMARK UNBOUND:                -0.606
REMARK SMILES CCCCCCCCCCCC(=O)[O-]
REMARK SMILES IDX 7 1 8 2 9 3 10 4 11 5 12 6 13 7 14 8 6 9 5 10 4 11 3 12 2 13
REMARK SMILES IDX 1 14
REMARK H PARENT
REMARK Flexibility Score: inf
ROOT
ATOM      1  C   UNL     1      -4.792  36.501  20.140  1.00  0.00     0.000 C 
ENDROOT
BRANCH   1   2
ATOM      2  C   UNL     1      -3.804  35.963  21.188  1.00  0.00     0.000 C 
BRANCH   2   3
ATOM      3  C   UNL     1      -4.509  35.235  22.346  1.00  0.00     0.000 C 
BRANCH   3   4
ATOM      4  C   UNL     1      -5.942  35.743  22.576  1.00  0.00     0.006 C 
BRANCH   4   5
ATOM      5  C   UNL     1      -5.990  37.003  23.450  1.00  0.00     0.053 C 
BRANCH   5   6
ATOM      6  C   UNL     1      -5.744  36.651  24.884  1.00  0.00     0.041 C 
ATOM      7  O   UNL     1      -5.150  37.461  25.643  1.00  0.00    -0.550 OA
ATOM      8  O   UNL     1      -6.125  35.406  25.369  1.00  0.00    -0.550 OA
ENDBRANCH   5   6
ENDBRANCH   4   5
ENDBRANCH   3   4
ENDBRANCH   2   3
ENDBRANCH   1   2
BRANCH   1   9
ATOM      9  C   UNL     1      -4.231  37.697  19.355  1.00  0.00     0.000 C 
BRANCH   9  10
ATOM     10  C   UNL     1      -2.719  37.835  19.574  1.00  0.00    -0.000 C 
BRANCH  10  11
ATOM     11  C   UNL     1      -1.979  37.968  18.237  1.00  0.00    -0.000 C 
BRANCH  11  12
ATOM     12  C   UNL     1      -2.687  37.170  17.135  1.00  0.00    -0.000 C 
BRANCH  12  13
ATOM     13  C   UNL     1      -1.708  36.782  16.022  1.00  0.00    -0.003 C 
ATOM     14  C   UNL     1      -2.363  36.887  14.649  1.00  0.00     0.004 C 
ENDBRANCH  12  13
ENDBRANCH  11  12
ENDBRANCH  10  11
ENDBRANCH   9  10
ENDBRANCH   1   9
TORSDOF 10
ENDMDL
MODEL 5
REMARK VINA RESULT:    -4.053      3.755      7.537
REMARK INTER + INTRA:          -7.028
REMARK INTER:                  -6.573
REMARK INTRA:                  -0.455
REMARK UNBOUND:                -0.606
REMARK SMILES CCCCCCCCCCCC(=O)[O-]
REMARK SMILES IDX 7 1 8 2 9 3 10 4 11 5 12 6 13 7 14 8 6 9 5 10 4 11 3 12 2 13
REMARK SMILES IDX 1 14
REMARK H PARENT
REMARK Flexibility Score: inf
ROOT
ATOM      1  C   UNL     1      -3.941  36.656  20.438  1.00  0.00     0.000 C 
ENDROOT
BRANCH   1   2
ATOM      2  C   UNL     1      -3.472  37.843  19.581  1.00  0.00     0.000 C 
BRANCH   2   3
ATOM      3  C   UNL     1      -1.944  37.877  19.403  1.00  0.00     0.000 C 
BRANCH   3   4
ATOM      4  C   UNL     1      -1.525  38.058  17.935  1.00  0.00     0.006 C 
BRANCH   4   5
ATOM      5  C   UNL     1      -2.695  37.877  16.959  1.00  0.00     0.053 C 
BRANCH   5   6
ATOM      6  C   UNL     1      -2.345  36.870  15.908  1.00  0.00     0.041 C 
ATOM      7  O   UNL     1      -3.066  36.747  14.883  1.00  0.00    -0.550 OA
ATOM      8  O   UNL     1      -1.251  36.032  16.086  1.00  0.00    -0.550 OA
ENDBRANCH   5   6
ENDBRANCH   4   5
ENDBRANCH   3   4
ENDBRANCH   2   3
ENDBRANCH   1   2
BRANCH   1   9
ATOM      9  C   UNL     1      -5.395  36.802  20.909  1.00  0.00     0.000 C 
BRANCH   9  10
ATOM     10  C   UNL     1      -5.879  35.520  21.599  1.00  0.00    -0.000 C 
BRANCH  10  11
ATOM     11  C   UNL     1      -5.523  35.529  23.091  1.00  0.00    -0.000 C 
BRANCH  11  12
ATOM     12  C   UNL     1      -6.113  36.760  23.789  1.00  0.00    -0.000 C 
BRANCH  12  13
ATOM     13  C   UNL     1      -5.881  36.698  25.303  1.00  0.00    -0.003 C 
ATOM     14  C   UNL     1      -4.999  37.850  25.774  1.00  0.00     0.004 C 
ENDBRANCH  12  13
ENDBRANCH  11  12
ENDBRANCH  10  11
ENDBRANCH   9  10
ENDBRANCH   1   9
TORSDOF 10
ENDMDL
MODEL 6
REMARK VINA RESULT:    -3.878      2.997      6.442
REMARK INTER + INTRA:          -6.751
REMARK INTER:                  -5.957
REMARK INTRA:                  -0.793
REMARK UNBOUND:                -0.606
REMARK SMILES CCCCCCCCCCCC(=O)[O-]
REMARK SMILES IDX 7 1 8 2 9 3 10 4 11 5 12 6 13 7 14 8 6 9 5 10 4 11 3 12 2 13
REMARK SMILES IDX 1 14
REMARK H PARENT
REMARK Flexibility Score: inf
ROOT
ATOM      1  C   UNL     1      -4.356  35.148  18.092  1.00  0.00     0.000 C 
ENDROOT
BRANCH   1   2
ATOM      2  C   UNL     1      -4.017  36.396  17.259  1.00  0.00     0.000 C 
BRANCH   2   3
ATOM      3  C   UNL     1      -2.766  36.200  16.385  1.00  0.00     0.000 C 
BRANCH   3   4
ATOM      4  C   UNL     1      -1.707  37.289  16.620  1.00  0.00     0.006 C 
BRANCH   4   5
ATOM      5  C   UNL     1      -2.076  38.236  17.769  1.00  0.00     0.053 C 
BRANCH   5   6
ATOM      6  C   UNL     1      -1.116  38.074  18.906  1.00  0.00     0.041 C 
ATOM      7  O   UNL     1       0.125  38.149  18.704  1.00  0.00    -0.550 OA
ATOM      8  O   UNL     1      -1.590  37.792  20.181  1.00  0.00    -0.550 OA
ENDBRANCH   5   6
ENDBRANCH   4   5
ENDBRANCH   3   4
ENDBRANCH   2   3
ENDBRANCH   1   2
BRANCH   1   9
ATOM      9  C   UNL     1      -5.192  35.476  19.338  1.00  0.00     0.000 C 
BRANCH   9  10
ATOM     10  C   UNL     1      -4.850  36.872  19.876  1.00  0.00    -0.000 C 
BRANCH  10  11
ATOM     11  C   UNL     1      -5.328  37.036  21.323  1.00  0.00    -0.000 C 
BRANCH  11  12
ATOM     12  C   UNL     1      -6.023  35.764  21.821  1.00  0.00    -0.000 C 
BRANCH  12  13
ATOM     13  C   UNL     1      -5.518  35.368  23.213  1.00  0.00    -0.003 C 
ATOM     14  C   UNL     1      -5.700  36.507  24.211  1.00  0.00     0.004 C 
ENDBRANCH  12  13
ENDBRANCH  11  12
ENDBRANCH  10  11
ENDBRANCH   9  10
ENDBRANCH   1   9
TORSDOF 10
ENDMDL
MODEL 7
REMARK VINA RESULT:    -3.446      4.265      6.985
REMARK INTER + INTRA:          -6.066
REMARK INTER:                  -5.413
REMARK INTRA:                  -0.653
REMARK UNBOUND:                -0.606
REMARK SMILES CCCCCCCCCCCC(=O)[O-]
REMARK SMILES IDX 7 1 8 2 9 3 10 4 11 5 12 6 13 7 14 8 6 9 5 10 4 11 3 12 2 13
REMARK SMILES IDX 1 14
REMARK H PARENT
REMARK Flexibility Score: inf
ROOT
ATOM      1  C   UNL     1      -3.380  36.106  20.866  1.00  0.00     0.000 C 
ENDROOT
BRANCH   1   2
ATOM      2  C   UNL     1      -3.697  36.647  19.462  1.00  0.00     0.000 C 
BRANCH   2   3
ATOM      3  C   UNL     1      -2.870  37.896  19.109  1.00  0.00     0.000 C 
BRANCH   3   4
ATOM      4  C   UNL     1      -2.206  37.792  17.726  1.00  0.00     0.006 C 
BRANCH   4   5
ATOM      5  C   UNL     1      -2.954  36.843  16.781  1.00  0.00     0.053 C 
BRANCH   5   6
ATOM      6  C   UNL     1      -2.884  37.347  15.374  1.00  0.00     0.041 C 
ATOM      7  O   UNL     1      -2.165  36.758  14.524  1.00  0.00    -0.550 OA
ATOM      8  O   UNL     1      -3.573  38.499  15.013  1.00  0.00    -0.550 OA
ENDBRANCH   5   6
ENDBRANCH   4   5
ENDBRANCH   3   4
ENDBRANCH   2   3
ENDBRANCH   1   2
BRANCH   1   9
ATOM      9  C   UNL     1      -4.640  35.888  21.716  1.00  0.00     0.000 C 
BRANCH   9  10
ATOM     10  C   UNL     1      -5.732  36.900  21.348  1.00  0.00    -0.000 C 
BRANCH  10  11
ATOM     11  C   UNL     1      -5.559  38.206  22.133  1.00  0.00    -0.000 C 
BRANCH  11  12
ATOM     12  C   UNL     1      -5.416  39.403  21.186  1.00  0.00    -0.000 C 
BRANCH  12  13
ATOM     13  C   UNL     1      -6.067  40.657  21.780  1.00  0.00    -0.003 C 
ATOM     14  C   UNL     1      -5.502  40.970  23.162  1.00  0.00     0.004 C 
ENDBRANCH  12  13
ENDBRANCH  11  12
ENDBRANCH  10  11
ENDBRANCH   9  10
ENDBRANCH   1   9
TORSDOF 10
ENDMDL
MODEL 8
REMARK VINA RESULT:    -3.255      1.332      2.249
REMARK INTER + INTRA:          -5.764
REMARK INTER:                  -5.397
REMARK INTRA:                  -0.367
REMARK UNBOUND:                -0.606
REMARK SMILES CCCCCCCCCCCC(=O)[O-]
REMARK SMILES IDX 7 1 8 2 9 3 10 4 11 5 12 6 13 7 14 8 6 9 5 10 4 11 3 12 2 13
REMARK SMILES IDX 1 14
REMARK H PARENT
REMARK Flexibility Score: inf
ROOT
ATOM      1  C   UNL     1      -3.968  37.064  19.404  1.00  0.00     0.000 C 
ENDROOT
BRANCH   1   2
ATOM      2  C   UNL     1      -5.039  37.159  20.503  1.00  0.00     0.000 C 
BRANCH   2   3
ATOM      3  C   UNL     1      -5.829  35.850  20.674  1.00  0.00     0.000 C 
BRANCH   3   4
ATOM      4  C   UNL     1      -6.125  35.528  22.148  1.00  0.00     0.006 C 
BRANCH   4   5
ATOM      5  C   UNL     1      -5.749  36.678  23.091  1.00  0.00     0.053 C 
BRANCH   5   6
ATOM      6  C   UNL     1      -5.839  36.231  24.517  1.00  0.00     0.041 C 
ATOM      7  O   UNL     1      -5.611  37.044  25.452  1.00  0.00    -0.550 OA
ATOM      8  O   UNL     1      -6.125  34.904  24.813  1.00  0.00    -0.550 OA
ENDBRANCH   5   6
ENDBRANCH   4   5
ENDBRANCH   3   4
ENDBRANCH   2   3
ENDBRANCH   1   2
BRANCH   1   9
ATOM      9  C   UNL     1      -4.430  36.238  18.195  1.00  0.00     0.000 C 
BRANCH   9  10
ATOM     10  C   UNL     1      -3.444  36.375  17.028  1.00  0.00    -0.000 C 
BRANCH  10  11
ATOM     11  C   UNL     1      -2.611  37.656  17.158  1.00  0.00    -0.000 C 
BRANCH  11  12
ATOM     12  C   UNL     1      -1.122  37.369  16.932  1.00  0.00    -0.000 C 
BRANCH  12  13
ATOM     13  C   UNL     1      -0.266  38.008  18.031  1.00  0.00    -0.003 C 
ATOM     14  C   UNL     1      -1.078  38.237  19.302  1.00  0.00     0.004 C 
ENDBRANCH  12  13
ENDBRANCH  11  12
ENDBRANCH  10  11
ENDBRANCH   9  10
ENDBRANCH   1   9
TORSDOF 10
ENDMDL
MODEL 9
REMARK VINA RESULT:    -3.216      4.253      6.435
REMARK INTER + INTRA:          -5.702
REMARK INTER:                  -4.581
REMARK INTRA:                  -1.121
REMARK UNBOUND:                -0.606
REMARK SMILES CCCCCCCCCCCC(=O)[O-]
REMARK SMILES IDX 7 1 8 2 9 3 10 4 11 5 12 6 13 7 14 8 6 9 5 10 4 11 3 12 2 13
REMARK SMILES IDX 1 14
REMARK H PARENT
REMARK Flexibility Score: inf
ROOT
ATOM      1  C   UNL     1      -6.018  35.168  19.194  1.00  0.00     0.000 C 
ENDROOT
BRANCH   1   2
ATOM      2  C   UNL     1      -4.595  35.162  18.612  1.00  0.00     0.000 C 
BRANCH   2   3
ATOM      3  C   UNL     1      -4.496  35.936  17.285  1.00  0.00     0.000 C 
BRANCH   3   4
ATOM      4  C   UNL     1      -3.045  36.279  16.909  1.00  0.00     0.006 C 
BRANCH   4   5
ATOM      5  C   UNL     1      -2.897  37.705  16.363  1.00  0.00     0.053 C 
BRANCH   5   6
ATOM      6  C   UNL     1      -3.127  37.723  14.884  1.00  0.00     0.041 C 
ATOM      7  O   UNL     1      -3.949  38.532  14.379  1.00  0.00    -0.550 OA
ATOM      8  O   UNL     1      -2.468  36.811  14.068  1.00  0.00    -0.550 OA
ENDBRANCH   5   6
ENDBRANCH   4   5
ENDBRANCH   3   4
ENDBRANCH   2   3
ENDBRANCH   1   2
BRANCH   1   9
ATOM      9  C   UNL     1      -6.066  35.694  20.636  1.00  0.00     0.000 C 
BRANCH   9  10
ATOM     10  C   UNL     1      -4.747  36.380  21.014  1.00  0.00    -0.000 C 
BRANCH  10  11
ATOM     11  C   UNL     1      -4.847  37.900  20.836  1.00  0.00    -0.000 C 
BRANCH  11  12
ATOM     12  C   UNL     1      -3.751  38.417  19.896  1.00  0.00    -0.000 C 
BRANCH  12  13
ATOM     13  C   UNL     1      -2.426  37.688  20.141  1.00  0.00    -0.003 C 
ATOM     14  C   UNL     1      -1.289  38.326  19.349  1.00  0.00     0.004 C 
ENDBRANCH  12  13
ENDBRANCH  11  12
ENDBRANCH  10  11
ENDBRANCH   9  10
ENDBRANCH   1   9
TORSDOF 10
ENDMDL
