MODEL 1
REMARK VINA RESULT:    -3.066      0.000      0.000
REMARK INTER + INTRA:          -3.335
REMARK INTER:                  -3.335
REMARK INTRA:                   0.000
REMARK UNBOUND:                 0.000
REMARK SMILES [NH3+]CC(=O)[O-]
REMARK SMILES IDX 2 1 1 2 3 6 4 7 5 8
REMARK H PARENT 1 3 1 4 1 5
REMARK Flexibility Score: inf
ROOT
ATOM      1  C   UNL     1      25.806   6.568  10.132  1.00  0.00     0.312 C 
ENDROOT
BRANCH   1   2
ATOM      2  N   UNL     1      24.442   6.817  10.594  1.00  0.00    -0.353 N 
ATOM      3  H   UNL     1      24.286   7.844  10.717  1.00  0.00     0.344 HD
ATOM      4  H   UNL     1      24.300   6.340  11.513  1.00  0.00     0.344 HD
ATOM      5  H   UNL     1      23.754   6.435   9.903  1.00  0.00     0.344 HD
ENDBRANCH   1   2
BRANCH   1   6
ATOM      6  C   UNL     1      25.855   5.354   9.256  1.00  0.00     0.096 C 
ATOM      7  O   UNL     1      26.314   4.269   9.701  1.00  0.00    -0.544 OA
ATOM      8  O   UNL     1      25.441   5.436   7.933  1.00  0.00    -0.544 OA
ENDBRANCH   1   6
TORSDOF 2
ENDMDL
MODEL 2
REMARK VINA RESULT:    -3.025      4.880      5.183
REMARK INTER + INTRA:          -3.291
REMARK INTER:                  -3.291
REMARK INTRA:                   0.000
REMARK UNBOUND:                 0.000
REMARK SMILES [NH3+]CC(=O)[O-]
REMARK SMILES IDX 2 1 1 2 3 6 4 7 5 8
REMARK H PARENT 1 3 1 4 1 5
REMARK Flexibility Score: inf
ROOT
ATOM      1  C   UNL     1      25.239   6.782  13.757  1.00  0.00     0.312 C 
ENDROOT
BRANCH   1   2
ATOM      2  N   UNL     1      25.482   6.416  12.364  1.00  0.00    -0.353 N 
ATOM      3  H   UNL     1      24.676   6.714  11.767  1.00  0.00     0.344 HD
ATOM      4  H   UNL     1      25.587   5.378  12.297  1.00  0.00     0.344 HD
ATOM      5  H   UNL     1      26.361   6.869  12.022  1.00  0.00     0.344 HD
ENDBRANCH   1   2
BRANCH   1   6
ATOM      6  C   UNL     1      24.099   5.990  14.321  1.00  0.00     0.096 C 
ATOM      7  O   UNL     1      22.958   6.512  14.431  1.00  0.00    -0.544 OA
ATOM      8  O   UNL     1      24.311   4.694  14.773  1.00  0.00    -0.544 OA
ENDBRANCH   1   6
TORSDOF 2
ENDMDL
MODEL 3
REMARK VINA RESULT:    -3.010      4.845      5.030
REMARK INTER + INTRA:          -3.274
REMARK INTER:                  -3.274
REMARK INTRA:                   0.000
REMARK UNBOUND:                 0.000
REMARK SMILES [NH3+]CC(=O)[O-]
REMARK SMILES IDX 2 1 1 2 3 6 4 7 5 8
REMARK H PARENT 1 3 1 4 1 5
REMARK Flexibility Score: inf
ROOT
ATOM      1  C   UNL     1      25.303   6.738  13.780  1.00  0.00     0.312 C 
ENDROOT
BRANCH   1   2
ATOM      2  N   UNL     1      25.459   6.451  12.355  1.00  0.00    -0.353 N 
ATOM      3  H   UNL     1      24.876   5.624  12.090  1.00  0.00     0.344 HD
ATOM      4  H   UNL     1      26.462   6.236  12.158  1.00  0.00     0.344 HD
ATOM      5  H   UNL     1      25.172   7.283  11.789  1.00  0.00     0.344 HD
ENDBRANCH   1   2
BRANCH   1   6
ATOM      6  C   UNL     1      24.160   5.959  14.355  1.00  0.00     0.096 C 
ATOM      7  O   UNL     1      24.323   4.761  14.707  1.00  0.00    -0.544 OA
ATOM      8  O   UNL     1      22.903   6.541  14.452  1.00  0.00    -0.544 OA
ENDBRANCH   1   6
TORSDOF 2
ENDMDL
MODEL 4
REMARK VINA RESULT:    -3.010      5.807      6.166
REMARK INTER + INTRA:          -3.274
REMARK INTER:                  -3.274
REMARK INTRA:                   0.000
REMARK UNBOUND:                 0.000
REMARK SMILES [NH3+]CC(=O)[O-]
REMARK SMILES IDX 2 1 1 2 3 6 4 7 5 8
REMARK H PARENT 1 3 1 4 1 5
REMARK Flexibility Score: inf
ROOT
ATOM      1  C   UNL     1      24.328   4.186  15.503  1.00  0.00     0.312 C 
ENDROOT
BRANCH   1   2
ATOM      2  N   UNL     1      23.596   2.964  15.176  1.00  0.00    -0.353 N 
ATOM      3  H   UNL     1      22.728   3.196  14.641  1.00  0.00     0.344 HD
ATOM      4  H   UNL     1      23.328   2.478  16.062  1.00  0.00     0.344 HD
ATOM      5  H   UNL     1      24.200   2.325  14.608  1.00  0.00     0.344 HD
ENDBRANCH   1   2
BRANCH   1   6
ATOM      6  C   UNL     1      23.782   5.350  14.735  1.00  0.00     0.096 C 
ATOM      7  O   UNL     1      24.446   5.856  13.793  1.00  0.00    -0.544 OA
ATOM      8  O   UNL     1      22.562   5.909  15.095  1.00  0.00    -0.544 OA
ENDBRANCH   1   6
TORSDOF 2
ENDMDL
MODEL 5
REMARK VINA RESULT:    -2.985      5.765      6.099
REMARK INTER + INTRA:          -3.246
REMARK INTER:                  -3.246
REMARK INTRA:                   0.000
REMARK UNBOUND:                 0.000
REMARK SMILES [NH3+]CC(=O)[O-]
REMARK SMILES IDX 2 1 1 2 3 6 4 7 5 8
REMARK H PARENT 1 3 1 4 1 5
REMARK Flexibility Score: inf
ROOT
ATOM      1  C   UNL     1      24.362   4.180  15.470  1.00  0.00     0.312 C 
ENDROOT
BRANCH   1   2
ATOM      2  N   UNL     1      23.592   2.973  15.175  1.00  0.00    -0.353 N 
ATOM      3  H   UNL     1      23.165   2.595  16.052  1.00  0.00     0.344 HD
ATOM      4  H   UNL     1      24.231   2.251  14.772  1.00  0.00     0.344 HD
ATOM      5  H   UNL     1      22.841   3.188  14.479  1.00  0.00     0.344 HD
ENDBRANCH   1   2
BRANCH   1   6
ATOM      6  C   UNL     1      23.789   5.361  14.749  1.00  0.00     0.096 C 
ATOM      7  O   UNL     1      22.671   5.830  15.088  1.00  0.00    -0.544 OA
ATOM      8  O   UNL     1      24.468   5.911  13.669  1.00  0.00    -0.544 OA
ENDBRANCH   1   6
TORSDOF 2
ENDMDL
MODEL 6
REMARK VINA RESULT:    -2.915      5.119      5.622
REMARK INTER + INTRA:          -3.170
REMARK INTER:                  -3.170
REMARK INTRA:                   0.000
REMARK UNBOUND:                 0.000
REMARK SMILES [NH3+]CC(=O)[O-]
REMARK SMILES IDX 2 1 1 2 3 6 4 7 5 8
REMARK H PARENT 1 3 1 4 1 5
REMARK Flexibility Score: inf
ROOT
ATOM      1  C   UNL     1      22.768   6.678  14.675  1.00  0.00     0.312 C 
ENDROOT
BRANCH   1   2
ATOM      2  N   UNL     1      21.881   5.780  15.413  1.00  0.00    -0.353 N 
ATOM      3  H   UNL     1      20.908   6.163  15.420  1.00  0.00     0.344 HD
ATOM      4  H   UNL     1      22.220   5.699  16.398  1.00  0.00     0.344 HD
ATOM      5  H   UNL     1      21.884   4.831  14.972  1.00  0.00     0.344 HD
ENDBRANCH   1   2
BRANCH   1   6
ATOM      6  C   UNL     1      23.991   5.948  14.210  1.00  0.00     0.096 C 
ATOM      7  O   UNL     1      24.630   6.358  13.206  1.00  0.00    -0.544 OA
ATOM      8  O   UNL     1      24.393   4.786  14.856  1.00  0.00    -0.544 OA
ENDBRANCH   1   6
TORSDOF 2
ENDMDL
MODEL 7
REMARK VINA RESULT:    -2.903      2.310      2.748
REMARK INTER + INTRA:          -3.158
REMARK INTER:                  -3.158
REMARK INTRA:                   0.000
REMARK UNBOUND:                 0.000
REMARK SMILES [NH3+]CC(=O)[O-]
REMARK SMILES IDX 2 1 1 2 3 6 4 7 5 8
REMARK H PARENT 1 3 1 4 1 5
REMARK Flexibility Score: inf
ROOT
ATOM      1  C   UNL     1      26.064   4.973   9.569  1.00  0.00     0.312 C 
ENDROOT
BRANCH   1   2
ATOM      2  N   UNL     1      25.425   5.000   8.255  1.00  0.00    -0.353 N 
ATOM      3  H   UNL     1      24.439   5.340   8.341  1.00  0.00     0.344 HD
ATOM      4  H   UNL     1      25.416   4.033   7.859  1.00  0.00     0.344 HD
ATOM      5  H   UNL     1      25.959   5.627   7.609  1.00  0.00     0.344 HD
ENDBRANCH   1   2
BRANCH   1   6
ATOM      6  C   UNL     1      25.758   6.225  10.332  1.00  0.00     0.096 C 
ATOM      7  O   UNL     1      26.155   7.341   9.905  1.00  0.00    -0.544 OA
ATOM      8  O   UNL     1      25.078   6.153  11.541  1.00  0.00    -0.544 OA
ENDBRANCH   1   6
TORSDOF 2
ENDMDL
MODEL 8
REMARK VINA RESULT:    -2.848      5.821      6.075
REMARK INTER + INTRA:          -3.098
REMARK INTER:                  -3.098
REMARK INTRA:                   0.000
REMARK UNBOUND:                 0.000
REMARK SMILES [NH3+]CC(=O)[O-]
REMARK SMILES IDX 2 1 1 2 3 6 4 7 5 8
REMARK H PARENT 1 3 1 4 1 5
REMARK Flexibility Score: inf
ROOT
ATOM      1  C   UNL     1      26.033   4.730  15.934  1.00  0.00     0.312 C 
ENDROOT
BRANCH   1   2
ATOM      2  N   UNL     1      26.933   5.561  15.137  1.00  0.00    -0.353 N 
ATOM      3  H   UNL     1      27.927   5.289  15.316  1.00  0.00     0.344 HD
ATOM      4  H   UNL     1      26.802   6.562  15.407  1.00  0.00     0.344 HD
ATOM      5  H   UNL     1      26.714   5.452  14.119  1.00  0.00     0.344 HD
ENDBRANCH   1   2
BRANCH   1   6
ATOM      6  C   UNL     1      24.716   4.561  15.241  1.00  0.00     0.096 C 
ATOM      7  O   UNL     1      24.071   3.486  15.359  1.00  0.00    -0.544 OA
ATOM      8  O   UNL     1      24.228   5.571  14.422  1.00  0.00    -0.544 OA
ENDBRANCH   1   6
TORSDOF 2
ENDMDL
MODEL 9
REMARK VINA RESULT:    -2.812      5.047      5.270
REMARK INTER + INTRA:          -3.059
REMARK INTER:                  -3.059
REMARK INTRA:                   0.000
REMARK UNBOUND:                 0.000
REMARK SMILES [NH3+]CC(=O)[O-]
REMARK SMILES IDX 2 1 1 2 3 6 4 7 5 8
REMARK H PARENT 1 3 1 4 1 5
REMARK Flexibility Score: inf
ROOT
ATOM      1  C   UNL     1      24.448   6.333  13.677  1.00  0.00     0.312 C 
ENDROOT
BRANCH   1   2
ATOM      2  N   UNL     1      25.496   6.539  12.679  1.00  0.00    -0.353 N 
ATOM      3  H   UNL     1      26.045   7.400  12.906  1.00  0.00     0.344 HD
ATOM      4  H   UNL     1      25.054   6.657  11.739  1.00  0.00     0.344 HD
ATOM      5  H   UNL     1      26.134   5.710  12.652  1.00  0.00     0.344 HD
ENDBRANCH   1   2
BRANCH   1   6
ATOM      6  C   UNL     1      24.886   5.335  14.704  1.00  0.00     0.096 C 
ATOM      7  O   UNL     1      24.069   4.490  15.155  1.00  0.00    -0.544 OA
ATOM      8  O   UNL     1      26.182   5.373  15.202  1.00  0.00    -0.544 OA
ENDBRANCH   1   6
TORSDOF 2
ENDMDL
