MODEL 1
REMARK VINA RESULT:    -3.085      0.000      0.000
REMARK INTER + INTRA:          -3.899
REMARK INTER:                  -3.806
REMARK INTRA:                  -0.093
REMARK UNBOUND:                -0.093
REMARK SMILES CCCCCC(=O)[O-]
REMARK SMILES IDX 4 1 5 2 6 3 7 4 8 5 3 6 2 7 1 8
REMARK H PARENT
REMARK Flexibility Score: inf
ROOT
ATOM      1  C   UNL     1      55.631  28.187  50.717  1.00  0.00     0.006 C 
ENDROOT
BRANCH   1   2
ATOM      2  C   UNL     1      57.043  27.594  50.566  1.00  0.00     0.053 C 
BRANCH   2   3
ATOM      3  C   UNL     1      58.101  28.644  50.428  1.00  0.00     0.041 C 
ATOM      4  O   UNL     1      58.444  29.337  51.422  1.00  0.00    -0.550 OA
ATOM      5  O   UNL     1      58.689  28.880  49.191  1.00  0.00    -0.550 OA
ENDBRANCH   2   3
ENDBRANCH   1   2
BRANCH   1   6
ATOM      6  C   UNL     1      54.500  27.214  50.336  1.00  0.00     0.000 C 
BRANCH   6   7
ATOM      7  C   UNL     1      54.999  25.790  50.055  1.00  0.00    -0.003 C 
ATOM      8  C   UNL     1      53.886  24.922  49.476  1.00  0.00     0.004 C 
ENDBRANCH   6   7
ENDBRANCH   1   6
TORSDOF 4
ENDMDL
MODEL 2
REMARK VINA RESULT:    -2.987      2.160      2.707
REMARK INTER + INTRA:          -3.779
REMARK INTER:                  -3.715
REMARK INTRA:                  -0.063
REMARK UNBOUND:                -0.093
REMARK SMILES CCCCCC(=O)[O-]
REMARK SMILES IDX 4 1 5 2 6 3 7 4 8 5 3 6 2 7 1 8
REMARK H PARENT
REMARK Flexibility Score: inf
ROOT
ATOM      1  C   UNL     1      57.792  28.343  50.820  1.00  0.00     0.006 C 
ENDROOT
BRANCH   1   2
ATOM      2  C   UNL     1      58.718  28.347  49.591  1.00  0.00     0.053 C 
BRANCH   2   3
ATOM      3  C   UNL     1      59.736  27.249  49.630  1.00  0.00     0.041 C 
ATOM      4  O   UNL     1      59.373  26.043  49.595  1.00  0.00    -0.550 OA
ATOM      5  O   UNL     1      61.087  27.556  49.736  1.00  0.00    -0.550 OA
ENDBRANCH   2   3
ENDBRANCH   1   2
BRANCH   1   6
ATOM      6  C   UNL     1      56.452  27.620  50.591  1.00  0.00     0.000 C 
BRANCH   6   7
ATOM      7  C   UNL     1      55.233  28.533  50.787  1.00  0.00    -0.003 C 
ATOM      8  C   UNL     1      53.965  27.880  50.245  1.00  0.00     0.004 C 
ENDBRANCH   6   7
ENDBRANCH   1   6
TORSDOF 4
ENDMDL
MODEL 3
REMARK VINA RESULT:    -2.948      2.033      2.683
REMARK INTER + INTRA:          -3.730
REMARK INTER:                  -3.670
REMARK INTRA:                  -0.061
REMARK UNBOUND:                -0.093
REMARK SMILES CCCCCC(=O)[O-]
REMARK SMILES IDX 4 1 5 2 6 3 7 4 8 5 3 6 2 7 1 8
REMARK H PARENT
REMARK Flexibility Score: inf
ROOT
ATOM      1  C   UNL     1      57.872  28.433  50.630  1.00  0.00     0.006 C 
ENDROOT
BRANCH   1   2
ATOM      2  C   UNL     1      58.872  28.305  49.467  1.00  0.00     0.053 C 
BRANCH   2   3
ATOM      3  C   UNL     1      59.890  27.231  49.694  1.00  0.00     0.041 C 
ATOM      4  O   UNL     1      61.092  27.533  49.921  1.00  0.00    -0.550 OA
ATOM      5  O   UNL     1      59.520  25.894  49.625  1.00  0.00    -0.550 OA
ENDBRANCH   2   3
ENDBRANCH   1   2
BRANCH   1   6
ATOM      6  C   UNL     1      56.603  27.577  50.461  1.00  0.00     0.000 C 
BRANCH   6   7
ATOM      7  C   UNL     1      55.311  28.351  50.758  1.00  0.00    -0.003 C 
ATOM      8  C   UNL     1      54.080  27.534  50.375  1.00  0.00     0.004 C 
ENDBRANCH   6   7
ENDBRANCH   1   6
TORSDOF 4
ENDMDL
MODEL 4
REMARK VINA RESULT:    -2.946     12.343     13.468
REMARK INTER + INTRA:          -3.728
REMARK INTER:                  -3.589
REMARK INTRA:                  -0.140
REMARK UNBOUND:                -0.093
REMARK SMILES CCCCCC(=O)[O-]
REMARK SMILES IDX 4 1 5 2 6 3 7 4 8 5 3 6 2 7 1 8
REMARK H PARENT
REMARK Flexibility Score: inf
ROOT
ATOM      1  C   UNL     1      61.190  31.335  60.362  1.00  0.00     0.006 C 
ENDROOT
BRANCH   1   2
ATOM      2  C   UNL     1      61.364  30.587  61.695  1.00  0.00     0.053 C 
BRANCH   2   3
ATOM      3  C   UNL     1      62.538  29.657  61.689  1.00  0.00     0.041 C 
ATOM      4  O   UNL     1      63.711  30.114  61.652  1.00  0.00    -0.550 OA
ATOM      5  O   UNL     1      62.337  28.282  61.692  1.00  0.00    -0.550 OA
ENDBRANCH   2   3
ENDBRANCH   1   2
BRANCH   1   6
ATOM      6  C   UNL     1      61.185  32.869  60.503  1.00  0.00     0.000 C 
BRANCH   6   7
ATOM      7  C   UNL     1      62.593  33.466  60.635  1.00  0.00    -0.003 C 
ATOM      8  C   UNL     1      62.530  34.962  60.933  1.00  0.00     0.004 C 
ENDBRANCH   6   7
ENDBRANCH   1   6
TORSDOF 4
ENDMDL
MODEL 5
REMARK VINA RESULT:    -2.944      2.800      4.375
REMARK INTER + INTRA:          -3.725
REMARK INTER:                  -3.662
REMARK INTRA:                  -0.063
REMARK UNBOUND:                -0.093
REMARK SMILES CCCCCC(=O)[O-]
REMARK SMILES IDX 4 1 5 2 6 3 7 4 8 5 3 6 2 7 1 8
REMARK H PARENT
REMARK Flexibility Score: inf
ROOT
ATOM      1  C   UNL     1      56.839  27.652  50.799  1.00  0.00     0.006 C 
ENDROOT
BRANCH   1   2
ATOM      2  C   UNL     1      55.431  28.272  50.817  1.00  0.00     0.053 C 
BRANCH   2   3
ATOM      3  C   UNL     1      54.395  27.376  50.213  1.00  0.00     0.041 C 
ATOM      4  O   UNL     1      53.236  27.811  49.977  1.00  0.00    -0.550 OA
ATOM      5  O   UNL     1      54.699  26.049  49.937  1.00  0.00    -0.550 OA
ENDBRANCH   2   3
ENDBRANCH   1   2
BRANCH   1   6
ATOM      6  C   UNL     1      57.978  28.687  50.796  1.00  0.00     0.000 C 
BRANCH   6   7
ATOM      7  C   UNL     1      58.828  28.644  49.518  1.00  0.00    -0.003 C 
ATOM      8  C   UNL     1      59.657  27.365  49.453  1.00  0.00     0.004 C 
ENDBRANCH   6   7
ENDBRANCH   1   6
TORSDOF 4
ENDMDL
MODEL 6
REMARK VINA RESULT:    -2.870      3.408      4.814
REMARK INTER + INTRA:          -3.634
REMARK INTER:                  -3.546
REMARK INTRA:                  -0.089
REMARK UNBOUND:                -0.093
REMARK SMILES CCCCCC(=O)[O-]
REMARK SMILES IDX 4 1 5 2 6 3 7 4 8 5 3 6 2 7 1 8
REMARK H PARENT
REMARK Flexibility Score: inf
ROOT
ATOM      1  C   UNL     1      55.023  27.363  50.416  1.00  0.00     0.006 C 
ENDROOT
BRANCH   1   2
ATOM      2  C   UNL     1      55.354  25.862  50.336  1.00  0.00     0.053 C 
BRANCH   2   3
ATOM      3  C   UNL     1      54.138  25.010  50.146  1.00  0.00     0.041 C 
ATOM      4  O   UNL     1      53.497  25.049  49.062  1.00  0.00    -0.550 OA
ATOM      5  O   UNL     1      53.692  24.194  51.178  1.00  0.00    -0.550 OA
ENDBRANCH   2   3
ENDBRANCH   1   2
BRANCH   1   6
ATOM      6  C   UNL     1      56.208  28.242  50.857  1.00  0.00     0.000 C 
BRANCH   6   7
ATOM      7  C   UNL     1      57.571  27.661  50.455  1.00  0.00    -0.003 C 
ATOM      8  C   UNL     1      58.459  28.729  49.822  1.00  0.00     0.004 C 
ENDBRANCH   6   7
ENDBRANCH   1   6
TORSDOF 4
ENDMDL
MODEL 7
REMARK VINA RESULT:    -2.852     13.236     14.467
REMARK INTER + INTRA:          -3.612
REMARK INTER:                  -3.560
REMARK INTRA:                  -0.052
REMARK UNBOUND:                -0.093
REMARK SMILES CCCCCC(=O)[O-]
REMARK SMILES IDX 4 1 5 2 6 3 7 4 8 5 3 6 2 7 1 8
REMARK H PARENT
REMARK Flexibility Score: inf
ROOT
ATOM      1  C   UNL     1      63.062  32.110  60.713  1.00  0.00     0.006 C 
ENDROOT
BRANCH   1   2
ATOM      2  C   UNL     1      63.411  30.661  61.096  1.00  0.00     0.053 C 
BRANCH   2   3
ATOM      3  C   UNL     1      62.248  29.918  61.677  1.00  0.00     0.041 C 
ATOM      4  O   UNL     1      62.263  28.660  61.740  1.00  0.00    -0.550 OA
ATOM      5  O   UNL     1      61.131  30.614  62.123  1.00  0.00    -0.550 OA
ENDBRANCH   2   3
ENDBRANCH   1   2
BRANCH   1   6
ATOM      6  C   UNL     1      64.260  33.076  60.762  1.00  0.00     0.000 C 
BRANCH   6   7
ATOM      7  C   UNL     1      63.868  34.501  61.177  1.00  0.00    -0.003 C 
ATOM      8  C   UNL     1      65.036  35.219  61.848  1.00  0.00     0.004 C 
ENDBRANCH   6   7
ENDBRANCH   1   6
TORSDOF 4
ENDMDL
MODEL 8
REMARK VINA RESULT:    -2.850     12.660     14.215
REMARK INTER + INTRA:          -3.609
REMARK INTER:                  -3.470
REMARK INTRA:                  -0.139
REMARK UNBOUND:                -0.093
REMARK SMILES CCCCCC(=O)[O-]
REMARK SMILES IDX 4 1 5 2 6 3 7 4 8 5 3 6 2 7 1 8
REMARK H PARENT
REMARK Flexibility Score: inf
ROOT
ATOM      1  C   UNL     1      62.203  33.490  59.918  1.00  0.00     0.006 C 
ENDROOT
BRANCH   1   2
ATOM      2  C   UNL     1      61.172  32.562  60.584  1.00  0.00     0.053 C 
BRANCH   2   3
ATOM      3  C   UNL     1      61.778  31.290  61.089  1.00  0.00     0.041 C 
ATOM      4  O   UNL     1      62.851  30.855  60.592  1.00  0.00    -0.550 OA
ATOM      5  O   UNL     1      61.142  30.565  62.089  1.00  0.00    -0.550 OA
ENDBRANCH   2   3
ENDBRANCH   1   2
BRANCH   1   6
ATOM      6  C   UNL     1      62.829  34.520  60.877  1.00  0.00     0.000 C 
BRANCH   6   7
ATOM      7  C   UNL     1      64.285  34.198  61.241  1.00  0.00    -0.003 C 
ATOM      8  C   UNL     1      64.945  35.373  61.957  1.00  0.00     0.004 C 
ENDBRANCH   6   7
ENDBRANCH   1   6
TORSDOF 4
ENDMDL
MODEL 9
REMARK VINA RESULT:    -2.717     13.024     14.235
REMARK INTER + INTRA:          -3.445
REMARK INTER:                  -3.285
REMARK INTRA:                  -0.160
REMARK UNBOUND:                -0.093
REMARK SMILES CCCCCC(=O)[O-]
REMARK SMILES IDX 4 1 5 2 6 3 7 4 8 5 3 6 2 7 1 8
REMARK H PARENT
REMARK Flexibility Score: inf
ROOT
ATOM      1  C   UNL     1      62.277  34.947  60.175  1.00  0.00     0.006 C 
ENDROOT
BRANCH   1   2
ATOM      2  C   UNL     1      63.168  35.498  61.303  1.00  0.00     0.053 C 
BRANCH   2   3
ATOM      3  C   UNL     1      64.470  34.769  61.422  1.00  0.00     0.041 C 
ATOM      4  O   UNL     1      64.517  33.520  61.260  1.00  0.00    -0.550 OA
ATOM      5  O   UNL     1      65.630  35.463  61.742  1.00  0.00    -0.550 OA
ENDBRANCH   2   3
ENDBRANCH   1   2
BRANCH   1   6
ATOM      6  C   UNL     1      60.774  34.942  60.511  1.00  0.00     0.000 C 
BRANCH   6   7
ATOM      7  C   UNL     1      60.128  33.558  60.361  1.00  0.00    -0.003 C 
ATOM      8  C   UNL     1      61.159  32.447  60.541  1.00  0.00     0.004 C 
ENDBRANCH   6   7
ENDBRANCH   1   6
TORSDOF 4
ENDMDL
