MODEL 1
REMARK VINA RESULT:    47.257      0.000      0.000
REMARK INTER + INTRA:          53.886
REMARK INTER:                  54.164
REMARK INTRA:                  -0.278
REMARK UNBOUND:                -0.278
REMARK SMILES O=C1C[C@@H](c2ccc(O)cc2)Oc2cc(O)cc(O)c21
REMARK SMILES IDX 3 1 4 2 12 3 13 4 14 5 15 6 17 7 18 8 20 9 2 10 1 11 5 12
REMARK SMILES IDX 6 13 11 14 7 15 10 16 8 17 9 18 19 20 16 22
REMARK H PARENT 9 19 19 21 16 23
REMARK Flexibility Score: inf
ROOT
ATOM      1  C   UNL     1     -40.048  30.394 -21.247  1.00  0.00     0.131 C 
ATOM      2  C   UNL     1     -41.428  29.713 -21.164  1.00  0.00     0.211 C 
ATOM      3  O   UNL     1     -41.466  28.585 -22.044  1.00  0.00    -0.484 OA
ATOM      4  C   UNL     1     -40.384  27.714 -22.223  1.00  0.00     0.138 A 
ATOM      5  C   UNL     1     -40.599  26.490 -22.859  1.00  0.00     0.093 A 
ATOM      6  C   UNL     1     -39.545  25.593 -23.039  1.00  0.00     0.123 A 
ATOM      7  C   UNL     1     -38.261  25.935 -22.609  1.00  0.00     0.093 A 
ATOM      8  C   UNL     1     -38.017  27.173 -22.001  1.00  0.00     0.133 A 
ATOM      9  C   UNL     1     -39.096  28.067 -21.773  1.00  0.00     0.102 A 
ATOM     10  C   UNL     1     -38.968  29.367 -21.073  1.00  0.00     0.174 C 
ATOM     11  O   UNL     1     -38.006  29.609 -20.299  1.00  0.00    -0.294 OA
ENDROOT
BRANCH   2  12
ATOM     12  C   UNL     1     -42.607  30.626 -21.474  1.00  0.00    -0.007 A 
ATOM     13  C   UNL     1     -43.698  30.801 -20.594  1.00  0.00     0.011 A 
ATOM     14  C   UNL     1     -42.638  31.280 -22.720  1.00  0.00     0.011 A 
ATOM     15  C   UNL     1     -44.761  31.640 -20.943  1.00  0.00     0.046 A 
ATOM     16  C   UNL     1     -43.696  32.127 -23.058  1.00  0.00     0.046 A 
ATOM     17  C   UNL     1     -44.764  32.303 -22.172  1.00  0.00     0.115 A 
BRANCH  17  18
ATOM     18  O   UNL     1     -45.830  33.136 -22.501  1.00  0.00    -0.508 OA
ATOM     19  H   UNL     1     -46.528  33.403 -21.814  1.00  0.00     0.293 HD
ENDBRANCH  17  18
ENDBRANCH   2  12
BRANCH   8  20
ATOM     20  O   UNL     1     -36.693  27.477 -21.674  1.00  0.00    -0.507 OA
ATOM     21  H   UNL     1     -36.295  28.402 -21.739  1.00  0.00     0.293 HD
ENDBRANCH   8  20
BRANCH   6  22
ATOM     22  O   UNL     1     -39.786  24.365 -23.653  1.00  0.00    -0.508 OA
ATOM     23  H   UNL     1     -40.545  23.761 -23.354  1.00  0.00     0.293 HD
ENDBRANCH   6  22
TORSDOF 4
ENDMDL
MODEL 2
REMARK VINA RESULT:    47.642     11.000     11.652
REMARK INTER + INTRA:          54.327
REMARK INTER:                  54.623
REMARK INTRA:                  -0.296
REMARK UNBOUND:                -0.278
REMARK SMILES O=C1C[C@@H](c2ccc(O)cc2)Oc2cc(O)cc(O)c21
REMARK SMILES IDX 3 1 4 2 12 3 13 4 14 5 15 6 17 7 18 8 20 9 2 10 1 11 5 12
REMARK SMILES IDX 6 13 11 14 7 15 10 16 8 17 9 18 19 20 16 22
REMARK H PARENT 9 19 19 21 16 23
REMARK Flexibility Score: inf
ROOT
ATOM      1  C   UNL     1     -41.087  25.099 -10.732  1.00  0.00     0.131 C 
ATOM      2  C   UNL     1     -42.408  24.310 -10.828  1.00  0.00     0.211 C 
ATOM      3  O   UNL     1     -42.905  24.358 -12.170  1.00  0.00    -0.484 OA
ATOM      4  C   UNL     1     -42.079  24.273 -13.298  1.00  0.00     0.138 A 
ATOM      5  C   UNL     1     -42.660  24.031 -14.544  1.00  0.00     0.093 A 
ATOM      6  C   UNL     1     -41.864  23.926 -15.686  1.00  0.00     0.123 A 
ATOM      7  C   UNL     1     -40.480  24.095 -15.585  1.00  0.00     0.093 A 
ATOM      8  C   UNL     1     -39.882  24.374 -14.350  1.00  0.00     0.133 A 
ATOM      9  C   UNL     1     -40.685  24.434 -13.180  1.00  0.00     0.102 A 
ATOM     10  C   UNL     1     -40.151  24.647 -11.814  1.00  0.00     0.174 C 
ATOM     11  O   UNL     1     -38.948  24.410 -11.529  1.00  0.00    -0.294 OA
ENDROOT
BRANCH   2  12
ATOM     12  C   UNL     1     -43.500  24.781  -9.877  1.00  0.00    -0.007 A 
ATOM     13  C   UNL     1     -44.827  25.031 -10.290  1.00  0.00     0.011 A 
ATOM     14  C   UNL     1     -43.157  25.031  -8.535  1.00  0.00     0.011 A 
ATOM     15  C   UNL     1     -45.782  25.479  -9.373  1.00  0.00     0.046 A 
ATOM     16  C   UNL     1     -44.118  25.466  -7.619  1.00  0.00     0.046 A 
ATOM     17  C   UNL     1     -45.432  25.698  -8.038  1.00  0.00     0.115 A 
BRANCH  17  18
ATOM     18  O   UNL     1     -46.397  26.142  -7.138  1.00  0.00    -0.508 OA
ATOM     19  H   UNL     1     -46.274  26.996  -6.606  1.00  0.00     0.293 HD
ENDBRANCH  17  18
ENDBRANCH   2  12
BRANCH   8  20
ATOM     20  O   UNL     1     -38.506  24.613 -14.344  1.00  0.00    -0.507 OA
ATOM     21  H   UNL     1     -37.944  24.650 -13.507  1.00  0.00     0.293 HD
ENDBRANCH   8  20
BRANCH   6  22
ATOM     22  O   UNL     1     -42.460  23.658 -16.916  1.00  0.00    -0.508 OA
ATOM     23  H   UNL     1     -43.388  24.001 -17.144  1.00  0.00     0.293 HD
ENDBRANCH   6  22
TORSDOF 4
ENDMDL
MODEL 3
REMARK VINA RESULT:    49.190      2.035      6.625
REMARK INTER + INTRA:          56.102
REMARK INTER:                  56.404
REMARK INTRA:                  -0.302
REMARK UNBOUND:                -0.278
REMARK SMILES O=C1C[C@@H](c2ccc(O)cc2)Oc2cc(O)cc(O)c21
REMARK SMILES IDX 3 1 4 2 12 3 13 4 14 5 15 6 17 7 18 8 20 9 2 10 1 11 5 12
REMARK SMILES IDX 6 13 11 14 7 15 10 16 8 17 9 18 19 20 16 22
REMARK H PARENT 9 19 19 21 16 23
REMARK Flexibility Score: inf
ROOT
ATOM      1  C   UNL     1     -40.219  30.564 -19.965  1.00  0.00     0.131 C 
ATOM      2  C   UNL     1     -39.616  30.100 -21.305  1.00  0.00     0.211 C 
ATOM      3  O   UNL     1     -40.650  29.583 -22.149  1.00  0.00    -0.484 OA
ATOM      4  C   UNL     1     -41.926  30.154 -22.239  1.00  0.00     0.138 A 
ATOM      5  C   UNL     1     -42.764  29.777 -23.289  1.00  0.00     0.093 A 
ATOM      6  C   UNL     1     -44.035  30.338 -23.415  1.00  0.00     0.123 A 
ATOM      7  C   UNL     1     -44.484  31.261 -22.467  1.00  0.00     0.093 A 
ATOM      8  C   UNL     1     -43.672  31.626 -21.385  1.00  0.00     0.133 A 
ATOM      9  C   UNL     1     -42.360  31.093 -21.282  1.00  0.00     0.102 A 
ATOM     10  C   UNL     1     -41.390  31.465 -20.225  1.00  0.00     0.174 C 
ATOM     11  O   UNL     1     -41.497  32.540 -19.579  1.00  0.00    -0.294 OA
ENDROOT
BRANCH   2  12
ATOM     12  C   UNL     1     -38.511  29.060 -21.179  1.00  0.00    -0.007 A 
ATOM     13  C   UNL     1     -37.467  29.155 -20.232  1.00  0.00     0.011 A 
ATOM     14  C   UNL     1     -38.498  27.983 -22.085  1.00  0.00     0.011 A 
ATOM     15  C   UNL     1     -36.470  28.176 -20.176  1.00  0.00     0.046 A 
ATOM     16  C   UNL     1     -37.508  27.001 -22.016  1.00  0.00     0.046 A 
ATOM     17  C   UNL     1     -36.486  27.100 -21.066  1.00  0.00     0.115 A 
BRANCH  17  18
ATOM     18  O   UNL     1     -35.486  26.133 -20.994  1.00  0.00    -0.508 OA
ATOM     19  H   UNL     1     -34.590  26.327 -20.559  1.00  0.00     0.293 HD
ENDBRANCH  17  18
ENDBRANCH   2  12
BRANCH   8  20
ATOM     20  O   UNL     1     -44.221  32.489 -20.434  1.00  0.00    -0.507 OA
ATOM     21  H   UNL     1     -45.125  32.928 -20.527  1.00  0.00     0.293 HD
ENDBRANCH   8  20
BRANCH   6  22
ATOM     22  O   UNL     1     -44.847  29.968 -24.485  1.00  0.00    -0.508 OA
ATOM     23  H   UNL     1     -45.821  29.716 -24.353  1.00  0.00     0.293 HD
ENDBRANCH   6  22
TORSDOF 4
ENDMDL
MODEL 4
REMARK VINA RESULT:    49.884      1.559      3.393
REMARK INTER + INTRA:          56.896
REMARK INTER:                  57.176
REMARK INTRA:                  -0.279
REMARK UNBOUND:                -0.278
REMARK SMILES O=C1C[C@@H](c2ccc(O)cc2)Oc2cc(O)cc(O)c21
REMARK SMILES IDX 3 1 4 2 12 3 13 4 14 5 15 6 17 7 18 8 20 9 2 10 1 11 5 12
REMARK SMILES IDX 6 13 11 14 7 15 10 16 8 17 9 18 19 20 16 22
REMARK H PARENT 9 19 19 21 16 23
REMARK Flexibility Score: inf
ROOT
ATOM      1  C   UNL     1     -40.832  28.155 -22.127  1.00  0.00     0.131 C 
ATOM      2  C   UNL     1     -40.738  29.694 -22.135  1.00  0.00     0.211 C 
ATOM      3  O   UNL     1     -39.847  30.131 -21.103  1.00  0.00    -0.484 OA
ATOM      4  C   UNL     1     -38.658  29.465 -20.783  1.00  0.00     0.138 A 
ATOM      5  C   UNL     1     -37.715  30.112 -19.982  1.00  0.00     0.093 A 
ATOM      6  C   UNL     1     -36.513  29.481 -19.657  1.00  0.00     0.123 A 
ATOM      7  C   UNL     1     -36.264  28.183 -20.110  1.00  0.00     0.093 A 
ATOM      8  C   UNL     1     -37.213  27.503 -20.884  1.00  0.00     0.133 A 
ATOM      9  C   UNL     1     -38.415  28.160 -21.257  1.00  0.00     0.102 A 
ATOM     10  C   UNL     1     -39.452  27.566 -22.133  1.00  0.00     0.174 C 
ATOM     11  O   UNL     1     -39.191  26.617 -22.917  1.00  0.00    -0.294 OA
ENDROOT
BRANCH   2  12
ATOM     12  C   UNL     1     -42.071  30.413 -21.979  1.00  0.00    -0.007 A 
ATOM     13  C   UNL     1     -42.561  31.340 -22.925  1.00  0.00     0.011 A 
ATOM     14  C   UNL     1     -42.822  30.187 -20.810  1.00  0.00     0.011 A 
ATOM     15  C   UNL     1     -43.785  31.984 -22.718  1.00  0.00     0.046 A 
ATOM     16  C   UNL     1     -44.050  30.822 -20.614  1.00  0.00     0.046 A 
ATOM     17  C   UNL     1     -44.531  31.728 -21.565  1.00  0.00     0.115 A 
BRANCH  17  18
ATOM     18  O   UNL     1     -45.749  32.376 -21.376  1.00  0.00    -0.508 OA
ATOM     19  H   UNL     1     -46.242  32.816 -22.146  1.00  0.00     0.293 HD
ENDBRANCH  17  18
ENDBRANCH   2  12
BRANCH   8  20
ATOM     20  O   UNL     1     -36.929  26.179 -21.228  1.00  0.00    -0.507 OA
ATOM     21  H   UNL     1     -37.397  25.677 -21.967  1.00  0.00     0.293 HD
ENDBRANCH   8  20
BRANCH   6  22
ATOM     22  O   UNL     1     -35.574  30.155 -18.878  1.00  0.00    -0.508 OA
ATOM     23  H   UNL     1     -34.984  29.664 -18.212  1.00  0.00     0.293 HD
ENDBRANCH   6  22
TORSDOF 4
ENDMDL
