MODEL 1
REMARK VINA RESULT:    -3.942      0.000      0.000
REMARK INTER + INTRA:          -6.857
REMARK INTER:                  -5.439
REMARK INTRA:                  -1.417
REMARK UNBOUND:                -1.417
REMARK SMILES CCCCc1cccc(O)c1CCCC
REMARK SMILES IDX 5 1 11 2 9 3 8 4 7 5 6 6 4 7 3 8 2 9 1 10 12 11 13 12 14 13
REMARK SMILES IDX 15 14 10 15
REMARK H PARENT 10 16
REMARK Flexibility Score: inf
ROOT
ATOM      1  C   UNL     1      -5.017  82.857  -7.427  1.00  0.00    -0.041 A 
ATOM      2  C   UNL     1      -4.815  82.845  -8.839  1.00  0.00    -0.003 A 
ATOM      3  C   UNL     1      -3.729  82.109  -9.370  1.00  0.00     0.119 A 
ATOM      4  C   UNL     1      -2.875  81.396  -8.521  1.00  0.00     0.046 A 
ATOM      5  C   UNL     1      -3.084  81.402  -7.146  1.00  0.00     0.004 A 
ATOM      6  C   UNL     1      -4.143  82.125  -6.604  1.00  0.00     0.004 A 
ENDROOT
BRANCH   1   7
ATOM      7  C   UNL     1      -6.113  83.656  -6.745  1.00  0.00     0.036 C 
BRANCH   7   8
ATOM      8  C   UNL     1      -5.548  84.798  -5.885  1.00  0.00     0.004 C 
BRANCH   8   9
ATOM      9  C   UNL     1      -5.756  86.175  -6.529  1.00  0.00    -0.003 C 
ATOM     10  C   UNL     1      -4.421  86.828  -6.876  1.00  0.00     0.004 C 
ENDBRANCH   8   9
ENDBRANCH   7   8
ENDBRANCH   1   7
BRANCH   2  11
ATOM     11  C   UNL     1      -5.754  83.565  -9.792  1.00  0.00     0.040 C 
BRANCH  11  12
ATOM     12  C   UNL     1      -5.323  85.021 -10.053  1.00  0.00     0.005 C 
BRANCH  12  13
ATOM     13  C   UNL     1      -6.494  86.007 -10.202  1.00  0.00    -0.003 C 
ATOM     14  C   UNL     1      -7.794  85.478  -9.599  1.00  0.00     0.004 C 
ENDBRANCH  12  13
ENDBRANCH  11  12
ENDBRANCH   2  11
BRANCH   3  15
ATOM     15  O   UNL     1      -3.498  82.085 -10.746  1.00  0.00    -0.508 OA
ATOM     16  H   UNL     1      -3.384  82.937 -11.283  1.00  0.00     0.293 HD
ENDBRANCH   3  15
TORSDOF 7
ENDMDL
MODEL 2
REMARK VINA RESULT:    -3.794      1.244      2.110
REMARK INTER + INTRA:          -6.653
REMARK INTER:                  -5.453
REMARK INTRA:                  -1.200
REMARK UNBOUND:                -1.417
REMARK SMILES CCCCc1cccc(O)c1CCCC
REMARK SMILES IDX 5 1 11 2 9 3 8 4 7 5 6 6 4 7 3 8 2 9 1 10 12 11 13 12 14 13
REMARK SMILES IDX 15 14 10 15
REMARK H PARENT 10 16
REMARK Flexibility Score: inf
ROOT
ATOM      1  C   UNL     1      -5.056  82.896  -7.509  1.00  0.00    -0.041 A 
ATOM      2  C   UNL     1      -4.745  82.945  -8.900  1.00  0.00    -0.003 A 
ATOM      3  C   UNL     1      -3.665  82.172  -9.389  1.00  0.00     0.119 A 
ATOM      4  C   UNL     1      -2.923  81.365  -8.519  1.00  0.00     0.046 A 
ATOM      5  C   UNL     1      -3.238  81.312  -7.166  1.00  0.00     0.004 A 
ATOM      6  C   UNL     1      -4.293  82.069  -6.665  1.00  0.00     0.004 A 
ENDROOT
BRANCH   1   7
ATOM      7  C   UNL     1      -6.155  83.724  -6.867  1.00  0.00     0.036 C 
BRANCH   7   8
ATOM      8  C   UNL     1      -7.490  82.965  -6.804  1.00  0.00     0.004 C 
BRANCH   8   9
ATOM      9  C   UNL     1      -8.590  83.642  -7.633  1.00  0.00    -0.003 C 
ATOM     10  C   UNL     1      -8.939  82.813  -8.865  1.00  0.00     0.004 C 
ENDBRANCH   8   9
ENDBRANCH   7   8
ENDBRANCH   1   7
BRANCH   2  11
ATOM     11  C   UNL     1      -5.563  83.770  -9.879  1.00  0.00     0.040 C 
BRANCH  11  12
ATOM     12  C   UNL     1      -5.081  85.231  -9.961  1.00  0.00     0.005 C 
BRANCH  12  13
ATOM     13  C   UNL     1      -6.192  86.242 -10.298  1.00  0.00    -0.003 C 
ATOM     14  C   UNL     1      -7.041  86.616  -9.084  1.00  0.00     0.004 C 
ENDBRANCH  12  13
ENDBRANCH  11  12
ENDBRANCH   2  11
BRANCH   3  15
ATOM     15  O   UNL     1      -3.328  82.206 -10.742  1.00  0.00    -0.508 OA
ATOM     16  H   UNL     1      -2.547  81.674 -11.111  1.00  0.00     0.293 HD
ENDBRANCH   3  15
TORSDOF 7
ENDMDL
MODEL 3
REMARK VINA RESULT:    -3.794      1.616      2.270
REMARK INTER + INTRA:          -6.653
REMARK INTER:                  -5.370
REMARK INTRA:                  -1.283
REMARK UNBOUND:                -1.417
REMARK SMILES CCCCc1cccc(O)c1CCCC
REMARK SMILES IDX 5 1 11 2 9 3 8 4 7 5 6 6 4 7 3 8 2 9 1 10 12 11 13 12 14 13
REMARK SMILES IDX 15 14 10 15
REMARK H PARENT 10 16
REMARK Flexibility Score: inf
ROOT
ATOM      1  C   UNL     1      -3.629  85.020  -8.287  1.00  0.00    -0.041 A 
ATOM      2  C   UNL     1      -4.442  84.408  -9.286  1.00  0.00    -0.003 A 
ATOM      3  C   UNL     1      -4.454  82.997  -9.390  1.00  0.00     0.119 A 
ATOM      4  C   UNL     1      -3.687  82.217  -8.518  1.00  0.00     0.046 A 
ATOM      5  C   UNL     1      -2.905  82.819  -7.537  1.00  0.00     0.004 A 
ATOM      6  C   UNL     1      -2.875  84.206  -7.422  1.00  0.00     0.004 A 
ENDROOT
BRANCH   1   7
ATOM      7  C   UNL     1      -3.496  86.523  -8.120  1.00  0.00     0.036 C 
BRANCH   7   8
ATOM      8  C   UNL     1      -4.198  87.030  -6.851  1.00  0.00     0.004 C 
BRANCH   8   9
ATOM      9  C   UNL     1      -4.951  88.347  -7.082  1.00  0.00    -0.003 C 
ATOM     10  C   UNL     1      -4.348  89.128  -8.246  1.00  0.00     0.004 C 
ENDBRANCH   8   9
ENDBRANCH   7   8
ENDBRANCH   1   7
BRANCH   2  11
ATOM     11  C   UNL     1      -5.326  85.223 -10.214  1.00  0.00     0.040 C 
BRANCH  11  12
ATOM     12  C   UNL     1      -6.742  85.432  -9.642  1.00  0.00     0.005 C 
BRANCH  12  13
ATOM     13  C   UNL     1      -7.265  86.874  -9.768  1.00  0.00    -0.003 C 
ATOM     14  C   UNL     1      -6.544  87.673 -10.852  1.00  0.00     0.004 C 
ENDBRANCH  12  13
ENDBRANCH  11  12
ENDBRANCH   2  11
BRANCH   3  15
ATOM     15  O   UNL     1      -5.231  82.367 -10.363  1.00  0.00    -0.508 OA
ATOM     16  H   UNL     1      -5.139  81.377 -10.561  1.00  0.00     0.293 HD
ENDBRANCH   3  15
TORSDOF 7
ENDMDL
MODEL 4
REMARK VINA RESULT:    -3.743      5.611      7.950
REMARK INTER + INTRA:          -6.583
REMARK INTER:                  -5.775
REMARK INTRA:                  -0.808
REMARK UNBOUND:                -1.417
REMARK SMILES CCCCc1cccc(O)c1CCCC
REMARK SMILES IDX 5 1 11 2 9 3 8 4 7 5 6 6 4 7 3 8 2 9 1 10 12 11 13 12 14 13
REMARK SMILES IDX 15 14 10 15
REMARK H PARENT 10 16
REMARK Flexibility Score: inf
ROOT
ATOM      1  C   UNL     1     -11.238  83.938  -9.049  1.00  0.00    -0.041 A 
ATOM      2  C   UNL     1     -12.371  83.354  -9.689  1.00  0.00    -0.003 A 
ATOM      3  C   UNL     1     -13.355  84.204 -10.250  1.00  0.00     0.119 A 
ATOM      4  C   UNL     1     -13.209  85.594 -10.184  1.00  0.00     0.046 A 
ATOM      5  C   UNL     1     -12.095  86.157  -9.570  1.00  0.00     0.004 A 
ATOM      6  C   UNL     1     -11.120  85.339  -9.007  1.00  0.00     0.004 A 
ENDROOT
BRANCH   1   7
ATOM      7  C   UNL     1     -10.152  83.126  -8.366  1.00  0.00     0.036 C 
BRANCH   7   8
ATOM      8  C   UNL     1      -9.054  82.686  -9.347  1.00  0.00     0.004 C 
BRANCH   8   9
ATOM      9  C   UNL     1      -7.894  83.688  -9.419  1.00  0.00    -0.003 C 
ATOM     10  C   UNL     1      -7.384  84.041  -8.025  1.00  0.00     0.004 C 
ENDBRANCH   8   9
ENDBRANCH   7   8
ENDBRANCH   1   7
BRANCH   2  11
ATOM     11  C   UNL     1     -12.534  81.850  -9.822  1.00  0.00     0.040 C 
BRANCH  11  12
ATOM     12  C   UNL     1     -11.900  81.304 -11.117  1.00  0.00     0.005 C 
BRANCH  12  13
ATOM     13  C   UNL     1     -12.900  80.626 -12.070  1.00  0.00    -0.003 C 
ATOM     14  C   UNL     1     -13.354  81.544 -13.203  1.00  0.00     0.004 C 
ENDBRANCH  12  13
ENDBRANCH  11  12
ENDBRANCH   2  11
BRANCH   3  15
ATOM     15  O   UNL     1     -14.480  83.665 -10.874  1.00  0.00    -0.508 OA
ATOM     16  H   UNL     1     -14.743  82.693 -10.754  1.00  0.00     0.293 HD
ENDBRANCH   3  15
TORSDOF 7
ENDMDL
MODEL 5
REMARK VINA RESULT:    -3.543      6.556      8.106
REMARK INTER + INTRA:          -6.307
REMARK INTER:                  -5.015
REMARK INTRA:                  -1.292
REMARK UNBOUND:                -1.417
REMARK SMILES CCCCc1cccc(O)c1CCCC
REMARK SMILES IDX 5 1 11 2 9 3 8 4 7 5 6 6 4 7 3 8 2 9 1 10 12 11 13 12 14 13
REMARK SMILES IDX 15 14 10 15
REMARK H PARENT 10 16
REMARK Flexibility Score: inf
ROOT
ATOM      1  C   UNL     1     -12.887  81.193  -8.255  1.00  0.00    -0.041 A 
ATOM      2  C   UNL     1     -12.157  81.582  -9.417  1.00  0.00    -0.003 A 
ATOM      3  C   UNL     1     -10.757  81.770  -9.315  1.00  0.00     0.119 A 
ATOM      4  C   UNL     1     -10.104  81.567  -8.094  1.00  0.00     0.046 A 
ATOM      5  C   UNL     1     -10.820  81.175  -6.968  1.00  0.00     0.004 A 
ATOM      6  C   UNL     1     -12.198  80.991  -7.046  1.00  0.00     0.004 A 
ENDROOT
BRANCH   1   7
ATOM      7  C   UNL     1     -14.396  81.017  -8.235  1.00  0.00     0.036 C 
BRANCH   7   8
ATOM      8  C   UNL     1     -15.055  81.805  -7.092  1.00  0.00     0.004 C 
BRANCH   8   9
ATOM      9  C   UNL     1     -15.250  83.287  -7.437  1.00  0.00    -0.003 C 
ATOM     10  C   UNL     1     -14.340  84.174  -6.593  1.00  0.00     0.004 C 
ENDBRANCH   8   9
ENDBRANCH   7   8
ENDBRANCH   1   7
BRANCH   2  11
ATOM     11  C   UNL     1     -12.827  81.760 -10.768  1.00  0.00     0.040 C 
BRANCH  11  12
ATOM     12  C   UNL     1     -13.646  83.063 -10.849  1.00  0.00     0.005 C 
BRANCH  12  13
ATOM     13  C   UNL     1     -12.972  84.273 -10.179  1.00  0.00    -0.003 C 
ATOM     14  C   UNL     1     -13.872  85.507 -10.141  1.00  0.00     0.004 C 
ENDBRANCH  12  13
ENDBRANCH  11  12
ENDBRANCH   2  11
BRANCH   3  15
ATOM     15  O   UNL     1     -10.014  82.160 -10.430  1.00  0.00    -0.508 OA
ATOM     16  H   UNL     1      -9.302  81.561 -10.832  1.00  0.00     0.293 HD
ENDBRANCH   3  15
TORSDOF 7
ENDMDL
MODEL 6
REMARK VINA RESULT:    -3.475      2.359      4.622
REMARK INTER + INTRA:          -6.213
REMARK INTER:                  -4.932
REMARK INTRA:                  -1.280
REMARK UNBOUND:                -1.417
REMARK SMILES CCCCc1cccc(O)c1CCCC
REMARK SMILES IDX 5 1 11 2 9 3 8 4 7 5 6 6 4 7 3 8 2 9 1 10 12 11 13 12 14 13
REMARK SMILES IDX 15 14 10 15
REMARK H PARENT 10 16
REMARK Flexibility Score: inf
ROOT
ATOM      1  C   UNL     1      -3.781  85.826  -8.338  1.00  0.00    -0.041 A 
ATOM      2  C   UNL     1      -4.872  86.430  -9.030  1.00  0.00    -0.003 A 
ATOM      3  C   UNL     1      -5.321  87.708  -8.618  1.00  0.00     0.119 A 
ATOM      4  C   UNL     1      -4.694  88.369  -7.555  1.00  0.00     0.046 A 
ATOM      5  C   UNL     1      -3.623  87.779  -6.892  1.00  0.00     0.004 A 
ATOM      6  C   UNL     1      -3.171  86.520  -7.278  1.00  0.00     0.004 A 
ENDROOT
BRANCH   1   7
ATOM      7  C   UNL     1      -3.254  84.438  -8.656  1.00  0.00     0.036 C 
BRANCH   7   8
ATOM      8  C   UNL     1      -3.521  83.441  -7.517  1.00  0.00     0.004 C 
BRANCH   8   9
ATOM      9  C   UNL     1      -3.724  82.008  -8.026  1.00  0.00    -0.003 C 
ATOM     10  C   UNL     1      -3.445  81.911  -9.522  1.00  0.00     0.004 C 
ENDBRANCH   8   9
ENDBRANCH   7   8
ENDBRANCH   1   7
BRANCH   2  11
ATOM     11  C   UNL     1      -5.539  85.763 -10.220  1.00  0.00     0.040 C 
BRANCH  11  12
ATOM     12  C   UNL     1      -6.892  85.123  -9.852  1.00  0.00     0.005 C 
BRANCH  12  13
ATOM     13  C   UNL     1      -6.792  83.655  -9.404  1.00  0.00    -0.003 C 
ATOM     14  C   UNL     1      -7.216  83.448  -7.951  1.00  0.00     0.004 C 
ENDBRANCH  12  13
ENDBRANCH  11  12
ENDBRANCH   2  11
BRANCH   3  15
ATOM     15  O   UNL     1      -6.392  88.323  -9.267  1.00  0.00    -0.508 OA
ATOM     16  H   UNL     1      -7.340  87.975  -9.180  1.00  0.00     0.293 HD
ENDBRANCH   3  15
TORSDOF 7
ENDMDL
MODEL 7
REMARK VINA RESULT:    -3.467      1.627      3.478
REMARK INTER + INTRA:          -6.201
REMARK INTER:                  -5.071
REMARK INTRA:                  -1.130
REMARK UNBOUND:                -1.417
REMARK SMILES CCCCc1cccc(O)c1CCCC
REMARK SMILES IDX 5 1 11 2 9 3 8 4 7 5 6 6 4 7 3 8 2 9 1 10 12 11 13 12 14 13
REMARK SMILES IDX 15 14 10 15
REMARK H PARENT 10 16
REMARK Flexibility Score: inf
ROOT
ATOM      1  C   UNL     1      -5.046  83.293  -8.910  1.00  0.00    -0.041 A 
ATOM      2  C   UNL     1      -4.559  83.138  -7.578  1.00  0.00    -0.003 A 
ATOM      3  C   UNL     1      -3.469  82.266  -7.344  1.00  0.00     0.119 A 
ATOM      4  C   UNL     1      -2.875  81.576  -8.408  1.00  0.00     0.046 A 
ATOM      5  C   UNL     1      -3.346  81.742  -9.706  1.00  0.00     0.004 A 
ATOM      6  C   UNL     1      -4.421  82.590  -9.955  1.00  0.00     0.004 A 
ENDROOT
BRANCH   1   7
ATOM      7  C   UNL     1      -6.242  84.157  -9.269  1.00  0.00     0.036 C 
BRANCH   7   8
ATOM      8  C   UNL     1      -5.854  85.336 -10.176  1.00  0.00     0.004 C 
BRANCH   8   9
ATOM      9  C   UNL     1      -6.222  86.694  -9.563  1.00  0.00    -0.003 C 
ATOM     10  C   UNL     1      -6.638  87.690 -10.641  1.00  0.00     0.004 C 
ENDBRANCH   8   9
ENDBRANCH   7   8
ENDBRANCH   1   7
BRANCH   2  11
ATOM     11  C   UNL     1      -5.148  83.911  -6.411  1.00  0.00     0.040 C 
BRANCH  11  12
ATOM     12  C   UNL     1      -4.667  85.375  -6.374  1.00  0.00     0.005 C 
BRANCH  12  13
ATOM     13  C   UNL     1      -3.168  85.553  -6.671  1.00  0.00    -0.003 C 
ATOM     14  C   UNL     1      -2.906  86.443  -7.885  1.00  0.00     0.004 C 
ENDBRANCH  12  13
ENDBRANCH  11  12
ENDBRANCH   2  11
BRANCH   3  15
ATOM     15  O   UNL     1      -2.975  82.083  -6.052  1.00  0.00    -0.508 OA
ATOM     16  H   UNL     1      -3.350  82.594  -5.261  1.00  0.00     0.293 HD
ENDBRANCH   3  15
TORSDOF 7
ENDMDL
MODEL 8
REMARK VINA RESULT:    -3.453      1.836      3.187
REMARK INTER + INTRA:          -6.182
REMARK INTER:                  -4.989
REMARK INTRA:                  -1.194
REMARK UNBOUND:                -1.417
REMARK SMILES CCCCc1cccc(O)c1CCCC
REMARK SMILES IDX 5 1 11 2 9 3 8 4 7 5 6 6 4 7 3 8 2 9 1 10 12 11 13 12 14 13
REMARK SMILES IDX 15 14 10 15
REMARK H PARENT 10 16
REMARK Flexibility Score: inf
ROOT
ATOM      1  C   UNL     1      -4.714  82.905  -9.062  1.00  0.00    -0.041 A 
ATOM      2  C   UNL     1      -5.052  82.903  -7.676  1.00  0.00    -0.003 A 
ATOM      3  C   UNL     1      -4.286  82.115  -6.784  1.00  0.00     0.119 A 
ATOM      4  C   UNL     1      -3.208  81.359  -7.257  1.00  0.00     0.046 A 
ATOM      5  C   UNL     1      -2.875  81.374  -8.608  1.00  0.00     0.004 A 
ATOM      6  C   UNL     1      -3.620  82.138  -9.502  1.00  0.00     0.004 A 
ENDROOT
BRANCH   1   7
ATOM      7  C   UNL     1      -5.499  83.667 -10.115  1.00  0.00     0.036 C 
BRANCH   7   8
ATOM      8  C   UNL     1      -5.156  85.166 -10.120  1.00  0.00     0.004 C 
BRANCH   8   9
ATOM      9  C   UNL     1      -6.407  86.054 -10.147  1.00  0.00    -0.003 C 
ATOM     10  C   UNL     1      -6.503  86.907  -8.887  1.00  0.00     0.004 C 
ENDBRANCH   8   9
ENDBRANCH   7   8
ENDBRANCH   1   7
BRANCH   2  11
ATOM     11  C   UNL     1      -6.183  83.753  -7.123  1.00  0.00     0.040 C 
BRANCH  11  12
ATOM     12  C   UNL     1      -7.538  83.018  -7.151  1.00  0.00     0.005 C 
BRANCH  12  13
ATOM     13  C   UNL     1      -8.594  83.680  -8.053  1.00  0.00    -0.003 C 
ATOM     14  C   UNL     1      -8.889  82.868  -9.314  1.00  0.00     0.004 C 
ENDBRANCH  12  13
ENDBRANCH  11  12
ENDBRANCH   2  11
BRANCH   3  15
ATOM     15  O   UNL     1      -4.597  82.083  -5.425  1.00  0.00    -0.508 OA
ATOM     16  H   UNL     1      -5.531  82.284  -5.086  1.00  0.00     0.293 HD
ENDBRANCH   3  15
TORSDOF 7
ENDMDL
MODEL 9
REMARK VINA RESULT:    -3.444      2.189      4.019
REMARK INTER + INTRA:          -6.170
REMARK INTER:                  -4.999
REMARK INTRA:                  -1.172
REMARK UNBOUND:                -1.417
REMARK SMILES CCCCc1cccc(O)c1CCCC
REMARK SMILES IDX 5 1 11 2 9 3 8 4 7 5 6 6 4 7 3 8 2 9 1 10 12 11 13 12 14 13
REMARK SMILES IDX 15 14 10 15
REMARK H PARENT 10 16
REMARK Flexibility Score: inf
ROOT
ATOM      1  C   UNL     1      -4.052  84.561  -6.814  1.00  0.00    -0.041 A 
ATOM      2  C   UNL     1      -3.959  85.717  -7.644  1.00  0.00    -0.003 A 
ATOM      3  C   UNL     1      -3.368  86.892  -7.119  1.00  0.00     0.119 A 
ATOM      4  C   UNL     1      -2.875  86.910  -5.809  1.00  0.00     0.046 A 
ATOM      5  C   UNL     1      -2.958  85.775  -5.009  1.00  0.00     0.004 A 
ATOM      6  C   UNL     1      -3.541  84.613  -5.505  1.00  0.00     0.004 A 
ENDROOT
BRANCH   1   7
ATOM      7  C   UNL     1      -4.715  83.267  -7.253  1.00  0.00     0.036 C 
BRANCH   7   8
ATOM      8  C   UNL     1      -3.735  82.083  -7.248  1.00  0.00     0.004 C 
BRANCH   8   9
ATOM      9  C   UNL     1      -3.021  81.908  -8.595  1.00  0.00    -0.003 C 
ATOM     10  C   UNL     1      -3.971  82.168  -9.760  1.00  0.00     0.004 C 
ENDBRANCH   8   9
ENDBRANCH   7   8
ENDBRANCH   1   7
BRANCH   2  11
ATOM     11  C   UNL     1      -4.437  85.715  -9.085  1.00  0.00     0.040 C 
BRANCH  11  12
ATOM     12  C   UNL     1      -5.904  86.168  -9.219  1.00  0.00     0.005 C 
BRANCH  12  13
ATOM     13  C   UNL     1      -6.756  85.279 -10.141  1.00  0.00    -0.003 C 
ATOM     14  C   UNL     1      -7.493  84.175  -9.384  1.00  0.00     0.004 C 
ENDBRANCH  12  13
ENDBRANCH  11  12
ENDBRANCH   2  11
BRANCH   3  15
ATOM     15  O   UNL     1      -3.270  88.043  -7.900  1.00  0.00    -0.508 OA
ATOM     16  H   UNL     1      -2.782  88.045  -8.788  1.00  0.00     0.293 HD
ENDBRANCH   3  15
TORSDOF 7
ENDMDL
