MODEL 1
REMARK VINA RESULT:    -4.364      0.000      0.000
REMARK INTER + INTRA:          -6.910
REMARK INTER:                  -6.660
REMARK INTRA:                  -0.250
REMARK UNBOUND:                -0.250
REMARK SMILES CC1=CCC[C@@H](C)C(=O)C[C@@H](C(C)C)C(=O)C1
REMARK SMILES IDX 8 1 9 2 6 3 7 4 5 5 4 6 3 7 2 8 1 9 10 11 11 12 15 13 16 14
REMARK SMILES IDX 17 15 12 17 13 18 14 19
REMARK H PARENT
REMARK Flexibility Score: 70.00
ROOT
ATOM      1  C   UNL     1      14.052  18.473  58.681  1.00  0.00     0.136 C 
ATOM      2  O   UNL     1      14.210  18.248  59.872  1.00  0.00    -0.299 OA
ENDROOT
BRANCH   1   3
ATOM      3  C   UNL     1      15.047  17.892  57.690  1.00  0.00     0.053 C 
ATOM      4  C   UNL     1      15.985  18.989  57.174  1.00  0.00     0.016 C 
BRANCH   3   5
ATOM      5  C   UNL     1      14.359  17.164  56.519  1.00  0.00     0.015 C 
BRANCH   5   6
ATOM      6  C   UNL     1      14.525  17.921  55.189  1.00  0.00     0.028 C 
BRANCH   6   7
ATOM      7  C   UNL     1      13.351  17.742  54.260  1.00  0.00    -0.028 C 
ATOM      8  C   UNL     1      12.123  18.298  54.414  1.00  0.00    -0.070 CG0
ATOM      9  C   UNL     1      11.055  17.896  53.426  1.00  0.00     0.039 C 
ATOM     10  G   UNL     1      11.778  19.344  55.471  1.00  0.00     0.000 G0
ENDBRANCH   6   7
ENDBRANCH   5   6
ENDBRANCH   3   5
ENDBRANCH   1   3
BRANCH   1  11
ATOM     11  C   UNL     1      12.915  19.374  58.253  1.00  0.00     0.087 C 
BRANCH  11  12
ATOM     12  C   UNL     1      11.583  18.603  58.034  1.00  0.00     0.066 C 
BRANCH  12  13
ATOM     13  C   UNL     1      10.971  18.813  56.652  1.00  0.00     0.140 C 
ATOM     14  O   UNL     1       9.764  18.668  56.521  1.00  0.00    -0.299 OA
BRANCH  13  15
ATOM     15  C   UNL     1      11.764  19.341  55.479  1.00  0.00     0.106 CG0
ATOM     16  G   UNL     1      12.094  18.292  54.420  1.00  0.00     0.000 G0
ENDBRANCH  13  15
ENDBRANCH  12  13
BRANCH  12  17
ATOM     17  C   UNL     1      10.526  18.843  59.160  1.00  0.00    -0.006 C 
ATOM     18  C   UNL     1      10.726  17.875  60.338  1.00  0.00     0.008 C 
ATOM     19  C   UNL     1      10.480  20.290  59.685  1.00  0.00     0.008 C 
ENDBRANCH  12  17
ENDBRANCH  11  12
ENDBRANCH   1  11
TORSDOF 1
ENDMDL
MODEL 2
REMARK VINA RESULT:    -4.317      1.228      1.359
REMARK INTER + INTRA:          -6.838
REMARK INTER:                  -6.639
REMARK INTRA:                  -0.199
REMARK UNBOUND:                -0.250
REMARK SMILES CC1=CCC[C@@H](C)C(=O)C[C@@H](C(C)C)C(=O)C1
REMARK SMILES IDX 8 1 9 2 6 3 7 4 5 5 4 6 3 7 2 8 1 9 10 11 11 12 15 13 16 14
REMARK SMILES IDX 17 15 12 17 13 18 14 19
REMARK H PARENT
REMARK Flexibility Score: 70.00
ROOT
ATOM      1  C   UNL     1      14.285  18.382  58.317  1.00  0.00     0.136 C 
ATOM      2  O   UNL     1      14.463  18.226  59.516  1.00  0.00    -0.299 OA
ENDROOT
BRANCH   1   3
ATOM      3  C   UNL     1      15.364  17.921  57.351  1.00  0.00     0.053 C 
ATOM      4  C   UNL     1      16.603  18.814  57.476  1.00  0.00     0.016 C 
BRANCH   3   5
ATOM      5  C   UNL     1      14.869  17.870  55.893  1.00  0.00     0.015 C 
BRANCH   5   6
ATOM      6  C   UNL     1      14.254  16.503  55.540  1.00  0.00     0.028 C 
BRANCH   6   7
ATOM      7  C   UNL     1      13.125  16.607  54.546  1.00  0.00    -0.028 C 
ATOM      8  C   UNL     1      11.800  16.531  54.835  1.00  0.00    -0.070 CG0
ATOM      9  C   UNL     1      10.839  16.546  53.672  1.00  0.00     0.039 C 
ATOM     10  G   UNL     1      11.229  16.500  56.250  1.00  0.00     0.000 G0
ENDBRANCH   6   7
ENDBRANCH   5   6
ENDBRANCH   3   5
ENDBRANCH   1   3
BRANCH   1  11
ATOM     11  C   UNL     1      13.030  19.088  57.852  1.00  0.00     0.087 C 
BRANCH  11  12
ATOM     12  C   UNL     1      11.737  18.279  58.153  1.00  0.00     0.066 C 
BRANCH  12  13
ATOM     13  C   UNL     1      10.983  17.836  56.901  1.00  0.00     0.140 C 
ATOM     14  O   UNL     1      10.265  18.648  56.336  1.00  0.00    -0.299 OA
BRANCH  13  15
ATOM     15  C   UNL     1      11.207  16.493  56.246  1.00  0.00     0.106 CG0
ATOM     16  G   UNL     1      11.813  16.570  54.847  1.00  0.00     0.000 G0
ENDBRANCH  13  15
ENDBRANCH  12  13
BRANCH  12  17
ATOM     17  C   UNL     1      10.778  18.983  59.167  1.00  0.00    -0.006 C 
ATOM     18  C   UNL     1      10.917  18.391  60.580  1.00  0.00     0.008 C 
ATOM     19  C   UNL     1      10.940  20.512  59.233  1.00  0.00     0.008 C 
ENDBRANCH  12  17
ENDBRANCH  11  12
ENDBRANCH   1  11
TORSDOF 1
ENDMDL
MODEL 3
REMARK VINA RESULT:    -3.968      2.221      4.063
REMARK INTER + INTRA:          -6.305
REMARK INTER:                  -5.946
REMARK INTRA:                  -0.360
REMARK UNBOUND:                -0.250
REMARK SMILES CC1=CCC[C@@H](C)C(=O)C[C@@H](C(C)C)C(=O)C1
REMARK SMILES IDX 8 1 9 2 6 3 7 4 5 5 4 6 3 7 2 8 1 9 10 11 11 12 15 13 16 14
REMARK SMILES IDX 17 15 12 17 13 18 14 19
REMARK H PARENT
REMARK Flexibility Score: 70.00
ROOT
ATOM      1  C   UNL     1      13.320  16.751  55.673  1.00  0.00     0.136 C 
ATOM      2  O   UNL     1      13.787  15.939  54.887  1.00  0.00    -0.299 OA
ENDROOT
BRANCH   1   3
ATOM      3  C   UNL     1      13.977  18.116  55.788  1.00  0.00     0.053 C 
ATOM      4  C   UNL     1      14.473  18.584  54.416  1.00  0.00     0.016 C 
BRANCH   3   5
ATOM      5  C   UNL     1      15.120  18.137  56.822  1.00  0.00     0.015 C 
BRANCH   5   6
ATOM      6  C   UNL     1      14.592  18.250  58.264  1.00  0.00     0.028 C 
BRANCH   6   7
ATOM      7  C   UNL     1      13.728  19.467  58.479  1.00  0.00    -0.028 C 
ATOM      8  C   UNL     1      12.397  19.460  58.746  1.00  0.00    -0.070 CG0
ATOM      9  C   UNL     1      11.700  20.798  58.815  1.00  0.00     0.039 C 
ATOM     10  G   UNL     1      11.584  18.202  59.044  1.00  0.00     0.000 G0
ENDBRANCH   6   7
ENDBRANCH   5   6
ENDBRANCH   3   5
ENDBRANCH   1   3
BRANCH   1  11
ATOM     11  C   UNL     1      12.156  16.335  56.545  1.00  0.00     0.087 C 
BRANCH  11  12
ATOM     12  C   UNL     1      11.013  17.389  56.567  1.00  0.00     0.066 C 
BRANCH  12  13
ATOM     13  C   UNL     1      10.593  17.811  57.973  1.00  0.00     0.140 C 
ATOM     14  O   UNL     1       9.413  17.716  58.280  1.00  0.00    -0.299 OA
BRANCH  13  15
ATOM     15  C   UNL     1      11.589  18.190  59.043  1.00  0.00     0.106 CG0
ATOM     16  G   UNL     1      12.382  19.459  58.741  1.00  0.00     0.000 G0
ENDBRANCH  13  15
ENDBRANCH  12  13
BRANCH  12  17
ATOM     17  C   UNL     1       9.772  16.988  55.705  1.00  0.00    -0.006 C 
ATOM     18  C   UNL     1       9.414  18.083  54.687  1.00  0.00     0.008 C 
ATOM     19  C   UNL     1       9.917  15.638  54.979  1.00  0.00     0.008 C 
ENDBRANCH  12  17
ENDBRANCH  11  12
ENDBRANCH   1  11
TORSDOF 1
ENDMDL
MODEL 4
REMARK VINA RESULT:    -3.952      1.849      3.890
REMARK INTER + INTRA:          -6.282
REMARK INTER:                  -6.186
REMARK INTRA:                  -0.096
REMARK UNBOUND:                -0.250
REMARK SMILES CC1=CCC[C@@H](C)C(=O)C[C@@H](C(C)C)C(=O)C1
REMARK SMILES IDX 8 1 9 2 6 3 7 4 5 5 4 6 3 7 2 8 1 9 10 11 11 12 15 13 16 14
REMARK SMILES IDX 17 15 12 17 13 18 14 19
REMARK H PARENT
REMARK Flexibility Score: 70.00
ROOT
ATOM      1  C   UNL     1      11.798  17.933  55.071  1.00  0.00     0.136 C 
ATOM      2  O   UNL     1      11.185  18.842  54.531  1.00  0.00    -0.299 OA
ENDROOT
BRANCH   1   3
ATOM      3  C   UNL     1      12.738  17.085  54.229  1.00  0.00     0.053 C 
ATOM      4  C   UNL     1      12.479  15.596  54.482  1.00  0.00     0.016 C 
BRANCH   3   5
ATOM      5  C   UNL     1      14.220  17.433  54.469  1.00  0.00     0.015 C 
BRANCH   5   6
ATOM      6  C   UNL     1      14.735  16.875  55.808  1.00  0.00     0.028 C 
BRANCH   6   7
ATOM      7  C   UNL     1      15.518  17.889  56.604  1.00  0.00    -0.028 C 
ATOM      8  C   UNL     1      15.077  18.547  57.707  1.00  0.00    -0.070 CG0
ATOM      9  C   UNL     1      15.982  19.607  58.286  1.00  0.00     0.039 C 
ATOM     10  G   UNL     1      13.767  18.238  58.428  1.00  0.00     0.000 G0
ENDBRANCH   6   7
ENDBRANCH   5   6
ENDBRANCH   3   5
ENDBRANCH   1   3
BRANCH   1  11
ATOM     11  C   UNL     1      11.541  17.648  56.534  1.00  0.00     0.087 C 
BRANCH  11  12
ATOM     12  C   UNL     1      11.417  18.941  57.388  1.00  0.00     0.066 C 
BRANCH  12  13
ATOM     13  C   UNL     1      12.653  19.242  58.231  1.00  0.00     0.140 C 
ATOM     14  O   UNL     1      12.688  20.290  58.860  1.00  0.00    -0.299 OA
BRANCH  13  15
ATOM     15  C   UNL     1      13.760  18.236  58.446  1.00  0.00     0.106 CG0
ATOM     16  G   UNL     1      15.050  18.552  57.694  1.00  0.00     0.000 G0
ENDBRANCH  13  15
ENDBRANCH  12  13
BRANCH  12  17
ATOM     17  C   UNL     1      10.117  19.000  58.254  1.00  0.00    -0.006 C 
ATOM     18  C   UNL     1       8.884  18.547  57.453  1.00  0.00     0.008 C 
ATOM     19  C   UNL     1      10.197  18.203  59.568  1.00  0.00     0.008 C 
ENDBRANCH  12  17
ENDBRANCH  11  12
ENDBRANCH   1  11
TORSDOF 1
ENDMDL
MODEL 5
REMARK VINA RESULT:    -3.909      2.166      4.626
REMARK INTER + INTRA:          -6.216
REMARK INTER:                  -5.760
REMARK INTRA:                  -0.456
REMARK UNBOUND:                -0.250
REMARK SMILES CC1=CCC[C@@H](C)C(=O)C[C@@H](C(C)C)C(=O)C1
REMARK SMILES IDX 8 1 9 2 6 3 7 4 5 5 4 6 3 7 2 8 1 9 10 11 11 12 15 13 16 14
REMARK SMILES IDX 17 15 12 17 13 18 14 19
REMARK H PARENT
REMARK Flexibility Score: 70.00
ROOT
ATOM      1  C   UNL     1      11.501  19.355  57.352  1.00  0.00     0.136 C 
ATOM      2  O   UNL     1      11.119  20.472  57.669  1.00  0.00    -0.299 OA
ENDROOT
BRANCH   1   3
ATOM      3  C   UNL     1      11.699  18.315  58.442  1.00  0.00     0.053 C 
ATOM      4  C   UNL     1      10.382  18.064  59.183  1.00  0.00     0.016 C 
BRANCH   3   5
ATOM      5  C   UNL     1      12.820  18.700  59.429  1.00  0.00     0.015 C 
BRANCH   5   6
ATOM      6  C   UNL     1      14.118  17.917  59.162  1.00  0.00     0.028 C 
BRANCH   6   7
ATOM      7  C   UNL     1      15.197  18.764  58.537  1.00  0.00    -0.028 C 
ATOM      8  C   UNL     1      15.763  18.562  57.320  1.00  0.00    -0.070 CG0
ATOM      9  C   UNL     1      16.909  19.465  56.934  1.00  0.00     0.039 C 
ATOM     10  G   UNL     1      15.273  17.535  56.302  1.00  0.00     0.000 G0
ENDBRANCH   6   7
ENDBRANCH   5   6
ENDBRANCH   3   5
ENDBRANCH   1   3
BRANCH   1  11
ATOM     11  C   UNL     1      11.825  19.079  55.901  1.00  0.00     0.087 C 
BRANCH  11  12
ATOM     12  C   UNL     1      12.660  17.783  55.705  1.00  0.00     0.066 C 
BRANCH  12  13
ATOM     13  C   UNL     1      14.134  18.041  55.402  1.00  0.00     0.140 C 
ATOM     14  O   UNL     1      14.415  18.793  54.479  1.00  0.00    -0.299 OA
BRANCH  13  15
ATOM     15  C   UNL     1      15.250  17.534  56.285  1.00  0.00     0.106 CG0
ATOM     16  G   UNL     1      15.757  18.554  57.302  1.00  0.00     0.000 G0
ENDBRANCH  13  15
ENDBRANCH  12  13
BRANCH  12  17
ATOM     17  C   UNL     1      12.040  16.786  54.672  1.00  0.00    -0.006 C 
ATOM     18  C   UNL     1      12.110  15.335  55.177  1.00  0.00     0.008 C 
ATOM     19  C   UNL     1      10.593  17.119  54.263  1.00  0.00     0.008 C 
ENDBRANCH  12  17
ENDBRANCH  11  12
ENDBRANCH   1  11
TORSDOF 1
ENDMDL
MODEL 6
REMARK VINA RESULT:    -3.873      2.058      4.570
REMARK INTER + INTRA:          -6.162
REMARK INTER:                  -6.145
REMARK INTRA:                  -0.017
REMARK UNBOUND:                -0.250
REMARK SMILES CC1=CCC[C@@H](C)C(=O)C[C@@H](C(C)C)C(=O)C1
REMARK SMILES IDX 8 1 9 2 6 3 7 4 5 5 4 6 3 7 2 8 1 9 10 11 11 12 15 13 16 14
REMARK SMILES IDX 17 15 12 17 13 18 14 19
REMARK H PARENT
REMARK Flexibility Score: 70.00
ROOT
ATOM      1  C   UNL     1       9.074  18.164  58.313  1.00  0.00     0.136 C 
ATOM      2  O   UNL     1       8.085  18.882  58.355  1.00  0.00    -0.299 OA
ENDROOT
BRANCH   1   3
ATOM      3  C   UNL     1      10.181  18.384  59.331  1.00  0.00     0.053 C 
ATOM      4  C   UNL     1       9.889  17.593  60.611  1.00  0.00     0.016 C 
BRANCH   3   5
ATOM      5  C   UNL     1      10.406  19.876  59.646  1.00  0.00     0.015 C 
BRANCH   5   6
ATOM      6  C   UNL     1      11.443  20.515  58.706  1.00  0.00     0.028 C 
BRANCH   6   7
ATOM      7  C   UNL     1      12.623  19.616  58.436  1.00  0.00    -0.028 C 
ATOM      8  C   UNL     1      12.905  19.004  57.257  1.00  0.00    -0.070 CG0
ATOM      9  C   UNL     1      14.077  18.054  57.235  1.00  0.00     0.039 C 
ATOM     10  G   UNL     1      12.158  19.267  55.951  1.00  0.00     0.000 G0
ENDBRANCH   6   7
ENDBRANCH   5   6
ENDBRANCH   3   5
ENDBRANCH   1   3
BRANCH   1  11
ATOM     11  C   UNL     1       9.182  17.137  57.208  1.00  0.00     0.087 C 
BRANCH  11  12
ATOM     12  C   UNL     1      10.539  17.202  56.453  1.00  0.00     0.066 C 
BRANCH  12  13
ATOM     13  C   UNL     1      10.827  18.562  55.822  1.00  0.00     0.140 C 
ATOM     14  O   UNL     1       9.903  19.169  55.302  1.00  0.00    -0.299 OA
BRANCH  13  15
ATOM     15  C   UNL     1      12.164  19.255  55.950  1.00  0.00     0.106 CG0
ATOM     16  G   UNL     1      12.883  18.993  57.271  1.00  0.00     0.000 G0
ENDBRANCH  13  15
ENDBRANCH  12  13
BRANCH  12  17
ATOM     17  C   UNL     1      10.739  16.048  55.418  1.00  0.00    -0.006 C 
ATOM     18  C   UNL     1      12.179  15.509  55.445  1.00  0.00     0.008 C 
ATOM     19  C   UNL     1       9.750  14.879  55.577  1.00  0.00     0.008 C 
ENDBRANCH  12  17
ENDBRANCH  11  12
ENDBRANCH   1  11
TORSDOF 1
ENDMDL
MODEL 7
REMARK VINA RESULT:    -3.769      2.981      4.545
REMARK INTER + INTRA:          -6.003
REMARK INTER:                  -5.674
REMARK INTRA:                  -0.329
REMARK UNBOUND:                -0.250
REMARK SMILES CC1=CCC[C@@H](C)C(=O)C[C@@H](C(C)C)C(=O)C1
REMARK SMILES IDX 8 1 9 2 6 3 7 4 5 5 4 6 3 7 2 8 1 9 10 11 11 12 15 13 16 14
REMARK SMILES IDX 17 15 12 17 13 18 14 19
REMARK H PARENT
REMARK Flexibility Score: 70.00
ROOT
ATOM      1  C   UNL     1       9.233  20.586  58.080  1.00  0.00     0.136 C 
ATOM      2  O   UNL     1       8.104  20.130  57.972  1.00  0.00    -0.299 OA
ENDROOT
BRANCH   1   3
ATOM      3  C   UNL     1      10.238  19.848  58.949  1.00  0.00     0.053 C 
ATOM      4  C   UNL     1      11.566  20.611  58.988  1.00  0.00     0.016 C 
BRANCH   3   5
ATOM      5  C   UNL     1      10.454  18.391  58.495  1.00  0.00     0.015 C 
BRANCH   5   6
ATOM      6  C   UNL     1      11.439  18.294  57.316  1.00  0.00     0.028 C 
BRANCH   6   7
ATOM      7  C   UNL     1      10.747  18.137  55.985  1.00  0.00    -0.028 C 
ATOM      8  C   UNL     1      10.590  19.110  55.051  1.00  0.00    -0.070 CG0
ATOM      9  C   UNL     1       9.765  18.769  53.833  1.00  0.00     0.039 C 
ATOM     10  G   UNL     1      11.245  20.487  55.123  1.00  0.00     0.000 G0
ENDBRANCH   6   7
ENDBRANCH   5   6
ENDBRANCH   3   5
ENDBRANCH   1   3
BRANCH   1  11
ATOM     11  C   UNL     1       9.557  21.898  57.401  1.00  0.00     0.087 C 
BRANCH  11  12
ATOM     12  C   UNL     1       9.136  21.924  55.905  1.00  0.00     0.066 C 
BRANCH  12  13
ATOM     13  C   UNL     1      10.286  21.654  54.938  1.00  0.00     0.140 C 
ATOM     14  O   UNL     1      10.515  22.476  54.062  1.00  0.00    -0.299 OA
BRANCH  13  15
ATOM     15  C   UNL     1      11.246  20.500  55.113  1.00  0.00     0.106 CG0
ATOM     16  G   UNL     1      10.593  19.123  55.036  1.00  0.00     0.000 G0
ENDBRANCH  13  15
ENDBRANCH  12  13
BRANCH  12  17
ATOM     17  C   UNL     1       8.348  23.210  55.496  1.00  0.00    -0.006 C 
ATOM     18  C   UNL     1       6.968  22.865  54.913  1.00  0.00     0.008 C 
ATOM     19  C   UNL     1       8.184  24.238  56.631  1.00  0.00     0.008 C 
ENDBRANCH  12  17
ENDBRANCH  11  12
ENDBRANCH   1  11
TORSDOF 1
ENDMDL
MODEL 8
REMARK VINA RESULT:    -3.749      1.829      4.208
REMARK INTER + INTRA:          -5.972
REMARK INTER:                  -5.497
REMARK INTRA:                  -0.475
REMARK UNBOUND:                -0.250
REMARK SMILES CC1=CCC[C@@H](C)C(=O)C[C@@H](C(C)C)C(=O)C1
REMARK SMILES IDX 8 1 9 2 6 3 7 4 5 5 4 6 3 7 2 8 1 9 10 11 11 12 15 13 16 14
REMARK SMILES IDX 17 15 12 17 13 18 14 19
REMARK H PARENT
REMARK Flexibility Score: 70.00
ROOT
ATOM      1  C   UNL     1      12.637  19.034  58.432  1.00  0.00     0.136 C 
ATOM      2  O   UNL     1      13.702  19.633  58.473  1.00  0.00    -0.299 OA
ENDROOT
BRANCH   1   3
ATOM      3  C   UNL     1      11.461  19.578  59.225  1.00  0.00     0.053 C 
ATOM      4  C   UNL     1      10.573  18.429  59.715  1.00  0.00     0.016 C 
BRANCH   3   5
ATOM      5  C   UNL     1      10.636  20.608  58.428  1.00  0.00     0.015 C 
BRANCH   5   6
ATOM      6  C   UNL     1       9.281  20.036  57.975  1.00  0.00     0.028 C 
BRANCH   6   7
ATOM      7  C   UNL     1       9.074  20.124  56.484  1.00  0.00    -0.028 C 
ATOM      8  C   UNL     1       9.387  19.161  55.579  1.00  0.00    -0.070 CG0
ATOM      9  C   UNL     1       9.202  19.500  54.120  1.00  0.00     0.039 C 
ATOM     10  G   UNL     1       9.844  17.752  55.946  1.00  0.00     0.000 G0
ENDBRANCH   6   7
ENDBRANCH   5   6
ENDBRANCH   3   5
ENDBRANCH   1   3
BRANCH   1  11
ATOM     11  C   UNL     1      12.558  17.741  57.650  1.00  0.00     0.087 C 
BRANCH  11  12
ATOM     12  C   UNL     1      12.478  17.969  56.114  1.00  0.00     0.066 C 
BRANCH  12  13
ATOM     13  C   UNL     1      11.222  17.388  55.471  1.00  0.00     0.140 C 
ATOM     14  O   UNL     1      11.351  16.510  54.630  1.00  0.00    -0.299 OA
BRANCH  13  15
ATOM     15  C   UNL     1       9.829  17.738  55.939  1.00  0.00     0.106 CG0
ATOM     16  G   UNL     1       9.389  19.159  55.593  1.00  0.00     0.000 G0
ENDBRANCH  13  15
ENDBRANCH  12  13
BRANCH  12  17
ATOM     17  C   UNL     1      13.763  17.519  55.345  1.00  0.00    -0.006 C 
ATOM     18  C   UNL     1      14.332  18.658  54.483  1.00  0.00     0.008 C 
ATOM     19  C   UNL     1      14.874  16.953  56.248  1.00  0.00     0.008 C 
ENDBRANCH  12  17
ENDBRANCH  11  12
ENDBRANCH   1  11
TORSDOF 1
ENDMDL
MODEL 9
REMARK VINA RESULT:    -3.615      5.463      7.512
REMARK INTER + INTRA:          -5.768
REMARK INTER:                  -5.502
REMARK INTRA:                  -0.266
REMARK UNBOUND:                -0.250
REMARK SMILES CC1=CCC[C@@H](C)C(=O)C[C@@H](C(C)C)C(=O)C1
REMARK SMILES IDX 8 1 9 2 6 3 7 4 5 5 4 6 3 7 2 8 1 9 10 11 11 12 15 13 16 14
REMARK SMILES IDX 17 15 12 17 13 18 14 19
REMARK H PARENT
REMARK Flexibility Score: 70.00
ROOT
ATOM      1  C   UNL     1       6.513  23.962  55.085  1.00  0.00     0.136 C 
ATOM      2  O   UNL     1       5.834  24.890  54.670  1.00  0.00    -0.299 OA
ENDROOT
BRANCH   1   3
ATOM      3  C   UNL     1       7.233  24.122  56.414  1.00  0.00     0.053 C 
ATOM      4  C   UNL     1       7.139  25.572  56.898  1.00  0.00     0.016 C 
BRANCH   3   5
ATOM      5  C   UNL     1       8.702  23.659  56.349  1.00  0.00     0.015 C 
BRANCH   5   6
ATOM      6  C   UNL     1       8.928  22.345  57.117  1.00  0.00     0.028 C 
BRANCH   6   7
ATOM      7  C   UNL     1       9.723  21.333  56.330  1.00  0.00    -0.028 C 
ATOM      8  C   UNL     1       9.260  20.143  55.868  1.00  0.00    -0.070 CG0
ATOM      9  C   UNL     1      10.257  19.229  55.199  1.00  0.00     0.039 C 
ATOM     10  G   UNL     1       7.798  19.709  55.922  1.00  0.00     0.000 G0
ENDBRANCH   6   7
ENDBRANCH   5   6
ENDBRANCH   3   5
ENDBRANCH   1   3
BRANCH   1  11
ATOM     11  C   UNL     1       6.661  22.725  54.227  1.00  0.00     0.087 C 
BRANCH  11  12
ATOM     12  C   UNL     1       6.065  21.454  54.893  1.00  0.00     0.066 C 
BRANCH  12  13
ATOM     13  C   UNL     1       6.956  20.221  54.773  1.00  0.00     0.140 C 
ATOM     14  O   UNL     1       7.093  19.707  53.672  1.00  0.00    -0.299 OA
BRANCH  13  15
ATOM     15  C   UNL     1       7.796  19.705  55.918  1.00  0.00     0.106 CG0
ATOM     16  G   UNL     1       9.261  20.132  55.865  1.00  0.00     0.000 G0
ENDBRANCH  13  15
ENDBRANCH  12  13
BRANCH  12  17
ATOM     17  C   UNL     1       4.601  21.136  54.443  1.00  0.00    -0.006 C 
ATOM     18  C   UNL     1       3.628  21.155  55.633  1.00  0.00     0.008 C 
ATOM     19  C   UNL     1       4.070  22.056  53.329  1.00  0.00     0.008 C 
ENDBRANCH  12  17
ENDBRANCH  11  12
ENDBRANCH   1  11
TORSDOF 1
ENDMDL
