MODEL 1
REMARK VINA RESULT:    -3.363      0.000      0.000
REMARK INTER + INTRA:          -5.101
REMARK INTER:                  -5.132
REMARK INTRA:                   0.031
REMARK UNBOUND:                 0.031
REMARK SMILES CC1=CCC[C@H](C)C(=O)C[C@@H](C(C)C)C(=O)C1
REMARK SMILES IDX 8 1 9 2 6 3 7 4 5 5 4 6 3 7 2 8 1 9 10 11 11 12 15 13 16 14
REMARK SMILES IDX 17 15 12 17 13 18 14 19
REMARK H PARENT
REMARK Flexibility Score: 70.00
ROOT
ATOM      1  C   UNL     1       5.585  -1.702  -2.581  1.00  0.00     0.136 C 
ATOM      2  O   UNL     1       4.447  -1.253  -2.611  1.00  0.00    -0.299 OA
ENDROOT
BRANCH   1   3
ATOM      3  C   UNL     1       6.586  -1.161  -1.582  1.00  0.00     0.053 C 
ATOM      4  C   UNL     1       5.969  -1.200  -0.179  1.00  0.00     0.016 C 
BRANCH   3   5
ATOM      5  C   UNL     1       7.928  -1.930  -1.599  1.00  0.00     0.015 C 
BRANCH   5   6
ATOM      6  C   UNL     1       7.951  -3.158  -0.671  1.00  0.00     0.028 C 
BRANCH   6   7
ATOM      7  C   UNL     1       8.400  -4.399  -1.406  1.00  0.00    -0.028 C 
ATOM      8  C   UNL     1       7.582  -5.340  -1.932  1.00  0.00    -0.070 CG0
ATOM      9  C   UNL     1       8.215  -6.513  -2.638  1.00  0.00     0.039 C 
ATOM     10  G   UNL     1       6.070  -5.267  -1.839  1.00  0.00     0.000 G0
ENDBRANCH   6   7
ENDBRANCH   5   6
ENDBRANCH   3   5
ENDBRANCH   1   3
BRANCH   1  11
ATOM     11  C   UNL     1       5.991  -2.747  -3.593  1.00  0.00     0.087 C 
BRANCH  11  12
ATOM     12  C   UNL     1       4.910  -3.838  -3.760  1.00  0.00     0.066 C 
BRANCH  12  13
ATOM     13  C   UNL     1       5.399  -5.170  -3.207  1.00  0.00     0.140 C 
ATOM     14  O   UNL     1       5.253  -6.190  -3.864  1.00  0.00    -0.299 OA
BRANCH  13  15
ATOM     15  C   UNL     1       6.050  -5.268  -1.849  1.00  0.00     0.106 CG0
ATOM     16  G   UNL     1       7.562  -5.342  -1.938  1.00  0.00     0.000 G0
ENDBRANCH  13  15
ENDBRANCH  12  13
BRANCH  12  17
ATOM     17  C   UNL     1       4.401  -3.942  -5.230  1.00  0.00    -0.006 C 
ATOM     18  C   UNL     1       5.370  -3.256  -6.206  1.00  0.00     0.008 C 
ATOM     19  C   UNL     1       2.974  -3.408  -5.446  1.00  0.00     0.008 C 
ENDBRANCH  12  17
ENDBRANCH  11  12
ENDBRANCH   1  11
TORSDOF 1
ENDMDL
MODEL 2
REMARK VINA RESULT:    -3.347      1.891      4.039
REMARK INTER + INTRA:          -5.077
REMARK INTER:                  -4.852
REMARK INTRA:                  -0.224
REMARK UNBOUND:                 0.031
REMARK SMILES CC1=CCC[C@H](C)C(=O)C[C@@H](C(C)C)C(=O)C1
REMARK SMILES IDX 8 1 9 2 6 3 7 4 5 5 4 6 3 7 2 8 1 9 10 11 11 12 15 13 16 14
REMARK SMILES IDX 17 15 12 17 13 18 14 19
REMARK H PARENT
REMARK Flexibility Score: 70.00
ROOT
ATOM      1  C   UNL     1       6.170  -3.703  -0.122  1.00  0.00     0.136 C 
ATOM      2  O   UNL     1       6.602  -3.642   1.021  1.00  0.00    -0.299 OA
ENDROOT
BRANCH   1   3
ATOM      3  C   UNL     1       5.806  -2.433  -0.864  1.00  0.00     0.053 C 
ATOM      4  C   UNL     1       5.062  -1.490   0.089  1.00  0.00     0.016 C 
BRANCH   3   5
ATOM      5  C   UNL     1       7.036  -1.719  -1.471  1.00  0.00     0.015 C 
BRANCH   5   6
ATOM      6  C   UNL     1       7.180  -1.914  -2.991  1.00  0.00     0.028 C 
BRANCH   6   7
ATOM      7  C   UNL     1       5.839  -2.134  -3.651  1.00  0.00    -0.028 C 
ATOM      8  C   UNL     1       5.440  -3.276  -4.257  1.00  0.00    -0.070 CG0
ATOM      9  C   UNL     1       4.056  -3.312  -4.857  1.00  0.00     0.039 C 
ATOM     10  G   UNL     1       6.318  -4.508  -4.359  1.00  0.00     0.000 G0
ENDBRANCH   6   7
ENDBRANCH   5   6
ENDBRANCH   3   5
ENDBRANCH   1   3
BRANCH   1  11
ATOM     11  C   UNL     1       5.943  -5.057  -0.752  1.00  0.00     0.087 C 
BRANCH  11  12
ATOM     12  C   UNL     1       6.902  -5.310  -1.936  1.00  0.00     0.066 C 
BRANCH  12  13
ATOM     13  C   UNL     1       6.123  -5.475  -3.234  1.00  0.00     0.140 C 
ATOM     14  O   UNL     1       5.341  -6.406  -3.359  1.00  0.00    -0.299 OA
BRANCH  13  15
ATOM     15  C   UNL     1       6.305  -4.521  -4.389  1.00  0.00     0.106 CG0
ATOM     16  G   UNL     1       5.447  -3.278  -4.251  1.00  0.00     0.000 G0
ENDBRANCH  13  15
ENDBRANCH  12  13
BRANCH  12  17
ATOM     17  C   UNL     1       7.878  -6.494  -1.660  1.00  0.00    -0.006 C 
ATOM     18  C   UNL     1       7.241  -7.538  -0.730  1.00  0.00     0.008 C 
ATOM     19  C   UNL     1       9.250  -6.068  -1.108  1.00  0.00     0.008 C 
ENDBRANCH  12  17
ENDBRANCH  11  12
ENDBRANCH   1  11
TORSDOF 1
ENDMDL
MODEL 3
REMARK VINA RESULT:    -3.336      2.098      3.690
REMARK INTER + INTRA:          -5.061
REMARK INTER:                  -5.297
REMARK INTRA:                   0.237
REMARK UNBOUND:                 0.031
REMARK SMILES CC1=CCC[C@H](C)C(=O)C[C@@H](C(C)C)C(=O)C1
REMARK SMILES IDX 8 1 9 2 6 3 7 4 5 5 4 6 3 7 2 8 1 9 10 11 11 12 15 13 16 14
REMARK SMILES IDX 17 15 12 17 13 18 14 19
REMARK H PARENT
REMARK Flexibility Score: 70.00
ROOT
ATOM      1  C   UNL     1       5.730  -1.776  -0.346  1.00  0.00     0.136 C 
ATOM      2  O   UNL     1       5.378  -2.243   0.729  1.00  0.00    -0.299 OA
ENDROOT
BRANCH   1   3
ATOM      3  C   UNL     1       4.691  -1.344  -1.360  1.00  0.00     0.053 C 
ATOM      4  C   UNL     1       4.874   0.148  -1.663  1.00  0.00     0.016 C 
BRANCH   3   5
ATOM      5  C   UNL     1       4.749  -2.167  -2.668  1.00  0.00     0.015 C 
BRANCH   5   6
ATOM      6  C   UNL     1       4.183  -3.591  -2.531  1.00  0.00     0.028 C 
BRANCH   6   7
ATOM      7  C   UNL     1       5.074  -4.609  -3.203  1.00  0.00    -0.028 C 
ATOM      8  C   UNL     1       6.066  -5.304  -2.602  1.00  0.00    -0.070 CG0
ATOM      9  C   UNL     1       6.850  -6.286  -3.437  1.00  0.00     0.039 C 
ATOM     10  G   UNL     1       6.422  -5.136  -1.137  1.00  0.00     0.000 G0
ENDBRANCH   6   7
ENDBRANCH   5   6
ENDBRANCH   3   5
ENDBRANCH   1   3
BRANCH   1  11
ATOM     11  C   UNL     1       7.203  -1.703  -0.670  1.00  0.00     0.087 C 
BRANCH  11  12
ATOM     12  C   UNL     1       7.642  -2.844  -1.615  1.00  0.00     0.066 C 
BRANCH  12  13
ATOM     13  C   UNL     1       7.587  -4.187  -0.900  1.00  0.00     0.140 C 
ATOM     14  O   UNL     1       8.486  -4.507  -0.137  1.00  0.00    -0.299 OA
BRANCH  13  15
ATOM     15  C   UNL     1       6.448  -5.152  -1.123  1.00  0.00     0.106 CG0
ATOM     16  G   UNL     1       6.087  -5.289  -2.590  1.00  0.00     0.000 G0
ENDBRANCH  13  15
ENDBRANCH  12  13
BRANCH  12  17
ATOM     17  C   UNL     1       9.028  -2.563  -2.272  1.00  0.00    -0.006 C 
ATOM     18  C   UNL     1       9.782  -1.450  -1.529  1.00  0.00     0.008 C 
ATOM     19  C   UNL     1       8.963  -2.241  -3.775  1.00  0.00     0.008 C 
ENDBRANCH  12  17
ENDBRANCH  11  12
ENDBRANCH   1  11
TORSDOF 1
ENDMDL
MODEL 4
REMARK VINA RESULT:    -3.320      1.472      2.064
REMARK INTER + INTRA:          -5.036
REMARK INTER:                  -4.891
REMARK INTRA:                  -0.145
REMARK UNBOUND:                 0.031
REMARK SMILES CC1=CCC[C@H](C)C(=O)C[C@@H](C(C)C)C(=O)C1
REMARK SMILES IDX 8 1 9 2 6 3 7 4 5 5 4 6 3 7 2 8 1 9 10 11 11 12 15 13 16 14
REMARK SMILES IDX 17 15 12 17 13 18 14 19
REMARK H PARENT
REMARK Flexibility Score: 70.00
ROOT
ATOM      1  C   UNL     1       5.258  -1.456  -2.510  1.00  0.00     0.136 C 
ATOM      2  O   UNL     1       4.135  -1.515  -2.993  1.00  0.00    -0.299 OA
ENDROOT
BRANCH   1   3
ATOM      3  C   UNL     1       5.506  -0.622  -1.270  1.00  0.00     0.053 C 
ATOM      4  C   UNL     1       4.851   0.753  -1.449  1.00  0.00     0.016 C 
BRANCH   3   5
ATOM      5  C   UNL     1       4.987  -1.297   0.021  1.00  0.00     0.015 C 
BRANCH   5   6
ATOM      6  C   UNL     1       5.250  -2.813   0.078  1.00  0.00     0.028 C 
BRANCH   6   7
ATOM      7  C   UNL     1       6.713  -3.114   0.301  1.00  0.00    -0.028 C 
ATOM      8  C   UNL     1       7.423  -4.075  -0.334  1.00  0.00    -0.070 CG0
ATOM      9  C   UNL     1       8.882  -4.224   0.017  1.00  0.00     0.039 C 
ATOM     10  G   UNL     1       6.817  -5.001  -1.371  1.00  0.00     0.000 G0
ENDBRANCH   6   7
ENDBRANCH   5   6
ENDBRANCH   3   5
ENDBRANCH   1   3
BRANCH   1  11
ATOM     11  C   UNL     1       6.396  -2.165  -3.204  1.00  0.00     0.087 C 
BRANCH  11  12
ATOM     12  C   UNL     1       6.059  -3.644  -3.500  1.00  0.00     0.066 C 
BRANCH  12  13
ATOM     13  C   UNL     1       7.037  -4.571  -2.790  1.00  0.00     0.140 C 
ATOM     14  O   UNL     1       8.024  -4.980  -3.382  1.00  0.00    -0.299 OA
BRANCH  13  15
ATOM     15  C   UNL     1       6.808  -5.018  -1.366  1.00  0.00     0.106 CG0
ATOM     16  G   UNL     1       7.417  -4.064  -0.357  1.00  0.00     0.000 G0
ENDBRANCH  13  15
ENDBRANCH  12  13
BRANCH  12  17
ATOM     17  C   UNL     1       5.954  -3.929  -5.028  1.00  0.00    -0.006 C 
ATOM     18  C   UNL     1       6.240  -2.664  -5.853  1.00  0.00     0.008 C 
ATOM     19  C   UNL     1       4.616  -4.549  -5.467  1.00  0.00     0.008 C 
ENDBRANCH  12  17
ENDBRANCH  11  12
ENDBRANCH   1  11
TORSDOF 1
ENDMDL
MODEL 5
REMARK VINA RESULT:    -3.318      2.109      4.215
REMARK INTER + INTRA:          -5.033
REMARK INTER:                  -5.520
REMARK INTRA:                   0.487
REMARK UNBOUND:                 0.031
REMARK SMILES CC1=CCC[C@H](C)C(=O)C[C@@H](C(C)C)C(=O)C1
REMARK SMILES IDX 8 1 9 2 6 3 7 4 5 5 4 6 3 7 2 8 1 9 10 11 11 12 15 13 16 14
REMARK SMILES IDX 17 15 12 17 13 18 14 19
REMARK H PARENT
REMARK Flexibility Score: 70.00
ROOT
ATOM      1  C   UNL     1       4.364  -4.293  -2.655  1.00  0.00     0.136 C 
ATOM      2  O   UNL     1       3.316  -4.835  -2.979  1.00  0.00    -0.299 OA
ENDROOT
BRANCH   1   3
ATOM      3  C   UNL     1       5.553  -4.323  -3.594  1.00  0.00     0.053 C 
ATOM      4  C   UNL     1       5.511  -5.614  -4.419  1.00  0.00     0.016 C 
BRANCH   3   5
ATOM      5  C   UNL     1       5.611  -3.092  -4.528  1.00  0.00     0.015 C 
BRANCH   5   6
ATOM      6  C   UNL     1       6.919  -2.289  -4.417  1.00  0.00     0.028 C 
BRANCH   6   7
ATOM      7  C   UNL     1       8.030  -3.119  -3.818  1.00  0.00    -0.028 C 
ATOM      8  C   UNL     1       8.480  -3.027  -2.546  1.00  0.00    -0.070 CG0
ATOM      9  C   UNL     1       9.599  -3.947  -2.123  1.00  0.00     0.039 C 
ATOM     10  G   UNL     1       7.914  -2.046  -1.537  1.00  0.00     0.000 G0
ENDBRANCH   6   7
ENDBRANCH   5   6
ENDBRANCH   3   5
ENDBRANCH   1   3
BRANCH   1  11
ATOM     11  C   UNL     1       4.475  -3.661  -1.289  1.00  0.00     0.087 C 
BRANCH  11  12
ATOM     12  C   UNL     1       5.293  -2.351  -1.325  1.00  0.00     0.066 C 
BRANCH  12  13
ATOM     13  C   UNL     1       6.705  -2.583  -0.804  1.00  0.00     0.140 C 
ATOM     14  O   UNL     1       6.875  -3.214   0.229  1.00  0.00    -0.299 OA
BRANCH  13  15
ATOM     15  C   UNL     1       7.912  -2.035  -1.525  1.00  0.00     0.106 CG0
ATOM     16  G   UNL     1       8.480  -3.021  -2.529  1.00  0.00     0.000 G0
ENDBRANCH  13  15
ENDBRANCH  12  13
BRANCH  12  17
ATOM     17  C   UNL     1       4.563  -1.181  -0.598  1.00  0.00    -0.006 C 
ATOM     18  C   UNL     1       4.831   0.163  -1.294  1.00  0.00     0.008 C 
ATOM     19  C   UNL     1       4.885  -1.067   0.903  1.00  0.00     0.008 C 
ENDBRANCH  12  17
ENDBRANCH  11  12
ENDBRANCH   1  11
TORSDOF 1
ENDMDL
MODEL 6
REMARK VINA RESULT:    -3.298      1.650      3.806
REMARK INTER + INTRA:          -5.002
REMARK INTER:                  -5.198
REMARK INTRA:                   0.196
REMARK UNBOUND:                 0.031
REMARK SMILES CC1=CCC[C@H](C)C(=O)C[C@@H](C(C)C)C(=O)C1
REMARK SMILES IDX 8 1 9 2 6 3 7 4 5 5 4 6 3 7 2 8 1 9 10 11 11 12 15 13 16 14
REMARK SMILES IDX 17 15 12 17 13 18 14 19
REMARK H PARENT
REMARK Flexibility Score: 70.00
ROOT
ATOM      1  C   UNL     1       5.789  -2.630  -4.107  1.00  0.00     0.136 C 
ATOM      2  O   UNL     1       6.793  -1.997  -4.403  1.00  0.00    -0.299 OA
ENDROOT
BRANCH   1   3
ATOM      3  C   UNL     1       5.463  -3.917  -4.836  1.00  0.00     0.053 C 
ATOM      4  C   UNL     1       5.072  -3.591  -6.282  1.00  0.00     0.016 C 
BRANCH   3   5
ATOM      5  C   UNL     1       6.629  -4.933  -4.813  1.00  0.00     0.015 C 
BRANCH   5   6
ATOM      6  C   UNL     1       6.876  -5.564  -3.432  1.00  0.00     0.028 C 
BRANCH   6   7
ATOM      7  C   UNL     1       7.913  -4.794  -2.648  1.00  0.00    -0.028 C 
ATOM      8  C   UNL     1       7.747  -4.300  -1.400  1.00  0.00    -0.070 CG0
ATOM      9  C   UNL     1       8.902  -3.560  -0.773  1.00  0.00     0.039 C 
ATOM     10  G   UNL     1       6.460  -4.455  -0.613  1.00  0.00     0.000 G0
ENDBRANCH   6   7
ENDBRANCH   5   6
ENDBRANCH   3   5
ENDBRANCH   1   3
BRANCH   1  11
ATOM     11  C   UNL     1       4.852  -2.076  -3.060  1.00  0.00     0.087 C 
BRANCH  11  12
ATOM     12  C   UNL     1       5.410  -2.262  -1.631  1.00  0.00     0.066 C 
BRANCH  12  13
ATOM     13  C   UNL     1       5.296  -3.717  -1.194  1.00  0.00     0.140 C 
ATOM     14  O   UNL     1       4.232  -4.306  -1.316  1.00  0.00    -0.299 OA
BRANCH  13  15
ATOM     15  C   UNL     1       6.467  -4.453  -0.592  1.00  0.00     0.106 CG0
ATOM     16  G   UNL     1       7.734  -4.288  -1.410  1.00  0.00     0.000 G0
ENDBRANCH  13  15
ENDBRANCH  12  13
BRANCH  12  17
ATOM     17  C   UNL     1       4.766  -1.271  -0.615  1.00  0.00    -0.006 C 
ATOM     18  C   UNL     1       4.709   0.155  -1.186  1.00  0.00     0.008 C 
ATOM     19  C   UNL     1       5.440  -1.256   0.768  1.00  0.00     0.008 C 
ENDBRANCH  12  17
ENDBRANCH  11  12
ENDBRANCH   1  11
TORSDOF 1
ENDMDL
MODEL 7
REMARK VINA RESULT:    -3.265      2.460      4.436
REMARK INTER + INTRA:          -4.951
REMARK INTER:                  -4.970
REMARK INTRA:                   0.019
REMARK UNBOUND:                 0.031
REMARK SMILES CC1=CCC[C@H](C)C(=O)C[C@@H](C(C)C)C(=O)C1
REMARK SMILES IDX 8 1 9 2 6 3 7 4 5 5 4 6 3 7 2 8 1 9 10 11 11 12 15 13 16 14
REMARK SMILES IDX 17 15 12 17 13 18 14 19
REMARK H PARENT
REMARK Flexibility Score: 70.00
ROOT
ATOM      1  C   UNL     1       6.056  -4.479  -0.371  1.00  0.00     0.136 C 
ATOM      2  O   UNL     1       5.140  -4.933   0.301  1.00  0.00    -0.299 OA
ENDROOT
BRANCH   1   3
ATOM      3  C   UNL     1       6.687  -5.323  -1.460  1.00  0.00     0.053 C 
ATOM      4  C   UNL     1       6.930  -6.738  -0.922  1.00  0.00     0.016 C 
BRANCH   3   5
ATOM      5  C   UNL     1       5.833  -5.380  -2.748  1.00  0.00     0.015 C 
BRANCH   5   6
ATOM      6  C   UNL     1       6.605  -4.999  -4.023  1.00  0.00     0.028 C 
BRANCH   6   7
ATOM      7  C   UNL     1       8.071  -4.774  -3.736  1.00  0.00    -0.028 C 
ATOM      8  C   UNL     1       8.640  -3.582  -3.440  1.00  0.00    -0.070 CG0
ATOM      9  C   UNL     1      10.125  -3.553  -3.177  1.00  0.00     0.039 C 
ATOM     10  G   UNL     1       7.855  -2.287  -3.365  1.00  0.00     0.000 G0
ENDBRANCH   6   7
ENDBRANCH   5   6
ENDBRANCH   3   5
ENDBRANCH   1   3
BRANCH   1  11
ATOM     11  C   UNL     1       6.588  -3.102  -0.056  1.00  0.00     0.087 C 
BRANCH  11  12
ATOM     12  C   UNL     1       6.349  -2.112  -1.218  1.00  0.00     0.066 C 
BRANCH  12  13
ATOM     13  C   UNL     1       7.651  -1.814  -1.949  1.00  0.00     0.140 C 
ATOM     14  O   UNL     1       8.529  -1.174  -1.389  1.00  0.00    -0.299 OA
BRANCH  13  15
ATOM     15  C   UNL     1       7.883  -2.278  -3.366  1.00  0.00     0.106 CG0
ATOM     16  G   UNL     1       8.643  -3.589  -3.427  1.00  0.00     0.000 G0
ENDBRANCH  13  15
ENDBRANCH  12  13
BRANCH  12  17
ATOM     17  C   UNL     1       5.608  -0.823  -0.750  1.00  0.00    -0.006 C 
ATOM     18  C   UNL     1       5.190  -0.924   0.725  1.00  0.00     0.008 C 
ATOM     19  C   UNL     1       4.394  -0.440  -1.614  1.00  0.00     0.008 C 
ENDBRANCH  12  17
ENDBRANCH  11  12
ENDBRANCH   1  11
TORSDOF 1
ENDMDL
MODEL 8
REMARK VINA RESULT:    -3.163      2.040      3.970
REMARK INTER + INTRA:          -4.795
REMARK INTER:                  -4.534
REMARK INTRA:                  -0.261
REMARK UNBOUND:                 0.031
REMARK SMILES CC1=CCC[C@H](C)C(=O)C[C@@H](C(C)C)C(=O)C1
REMARK SMILES IDX 8 1 9 2 6 3 7 4 5 5 4 6 3 7 2 8 1 9 10 11 11 12 15 13 16 14
REMARK SMILES IDX 17 15 12 17 13 18 14 19
REMARK H PARENT
REMARK Flexibility Score: 70.00
ROOT
ATOM      1  C   UNL     1       8.322  -1.788  -2.181  1.00  0.00     0.136 C 
ATOM      2  O   UNL     1       8.757  -1.082  -1.282  1.00  0.00    -0.299 OA
ENDROOT
BRANCH   1   3
ATOM      3  C   UNL     1       9.259  -2.694  -2.953  1.00  0.00     0.053 C 
ATOM      4  C   UNL     1       9.336  -4.054  -2.251  1.00  0.00     0.016 C 
BRANCH   3   5
ATOM      5  C   UNL     1       8.837  -2.877  -4.430  1.00  0.00     0.015 C 
BRANCH   5   6
ATOM      6  C   UNL     1       8.379  -4.305  -4.772  1.00  0.00     0.028 C 
BRANCH   6   7
ATOM      7  C   UNL     1       7.024  -4.307  -5.441  1.00  0.00    -0.028 C 
ATOM      8  C   UNL     1       5.838  -4.481  -4.813  1.00  0.00    -0.070 CG0
ATOM      9  C   UNL     1       4.584  -4.446  -5.649  1.00  0.00     0.039 C 
ATOM     10  G   UNL     1       5.720  -4.711  -3.319  1.00  0.00     0.000 G0
ENDBRANCH   6   7
ENDBRANCH   5   6
ENDBRANCH   3   5
ENDBRANCH   1   3
BRANCH   1  11
ATOM     11  C   UNL     1       6.861  -1.693  -2.551  1.00  0.00     0.087 C 
BRANCH  11  12
ATOM     12  C   UNL     1       5.987  -2.638  -1.696  1.00  0.00     0.066 C 
BRANCH  12  13
ATOM     13  C   UNL     1       5.131  -3.530  -2.585  1.00  0.00     0.140 C 
ATOM     14  O   UNL     1       3.937  -3.299  -2.708  1.00  0.00    -0.299 OA
BRANCH  13  15
ATOM     15  C   UNL     1       5.718  -4.715  -3.312  1.00  0.00     0.106 CG0
ATOM     16  G   UNL     1       5.846  -4.472  -4.804  1.00  0.00     0.000 G0
ENDBRANCH  13  15
ENDBRANCH  12  13
BRANCH  12  17
ATOM     17  C   UNL     1       5.153  -1.864  -0.630  1.00  0.00    -0.006 C 
ATOM     18  C   UNL     1       5.026  -0.377  -0.993  1.00  0.00     0.008 C 
ATOM     19  C   UNL     1       5.674  -2.011   0.810  1.00  0.00     0.008 C 
ENDBRANCH  12  17
ENDBRANCH  11  12
ENDBRANCH   1  11
TORSDOF 1
ENDMDL
MODEL 9
REMARK VINA RESULT:    -3.080      2.254      4.575
REMARK INTER + INTRA:          -4.670
REMARK INTER:                  -4.401
REMARK INTRA:                  -0.268
REMARK UNBOUND:                 0.031
REMARK SMILES CC1=CCC[C@H](C)C(=O)C[C@@H](C(C)C)C(=O)C1
REMARK SMILES IDX 8 1 9 2 6 3 7 4 5 5 4 6 3 7 2 8 1 9 10 11 11 12 15 13 16 14
REMARK SMILES IDX 17 15 12 17 13 18 14 19
REMARK H PARENT
REMARK Flexibility Score: 70.00
ROOT
ATOM      1  C   UNL     1       5.982  -3.256  -4.867  1.00  0.00     0.136 C 
ATOM      2  O   UNL     1       6.127  -3.891  -5.902  1.00  0.00    -0.299 OA
ENDROOT
BRANCH   1   3
ATOM      3  C   UNL     1       4.626  -3.204  -4.193  1.00  0.00     0.053 C 
ATOM      4  C   UNL     1       3.534  -3.135  -5.267  1.00  0.00     0.016 C 
BRANCH   3   5
ATOM      5  C   UNL     1       4.377  -4.407  -3.253  1.00  0.00     0.015 C 
BRANCH   5   6
ATOM      6  C   UNL     1       4.437  -4.049  -1.757  1.00  0.00     0.028 C 
BRANCH   6   7
ATOM      7  C   UNL     1       4.440  -2.553  -1.545  1.00  0.00    -0.028 C 
ATOM      8  C   UNL     1       5.493  -1.823  -1.113  1.00  0.00    -0.070 CG0
ATOM      9  C   UNL     1       5.309  -0.333  -0.967  1.00  0.00     0.039 C 
ATOM     10  G   UNL     1       6.838  -2.434  -0.771  1.00  0.00     0.000 G0
ENDBRANCH   6   7
ENDBRANCH   5   6
ENDBRANCH   3   5
ENDBRANCH   1   3
BRANCH   1  11
ATOM     11  C   UNL     1       7.149  -2.473  -4.313  1.00  0.00     0.087 C 
BRANCH  11  12
ATOM     12  C   UNL     1       7.804  -3.189  -3.111  1.00  0.00     0.066 C 
BRANCH  12  13
ATOM     13  C   UNL     1       7.838  -2.274  -1.893  1.00  0.00     0.140 C 
ATOM     14  O   UNL     1       8.693  -1.405  -1.811  1.00  0.00    -0.299 OA
BRANCH  13  15
ATOM     15  C   UNL     1       6.845  -2.425  -0.767  1.00  0.00     0.106 CG0
ATOM     16  G   UNL     1       5.492  -1.830  -1.106  1.00  0.00     0.000 G0
ENDBRANCH  13  15
ENDBRANCH  12  13
BRANCH  12  17
ATOM     17  C   UNL     1       9.203  -3.777  -3.467  1.00  0.00    -0.006 C 
ATOM     18  C   UNL     1       9.732  -3.198  -4.789  1.00  0.00     0.008 C 
ATOM     19  C   UNL     1       9.252  -5.314  -3.510  1.00  0.00     0.008 C 
ENDBRANCH  12  17
ENDBRANCH  11  12
ENDBRANCH   1  11
TORSDOF 1
ENDMDL
