MODEL 1
REMARK VINA RESULT:    -4.967      0.000      0.000
REMARK INTER + INTRA:         -15.823
REMARK INTER:                 -12.953
REMARK INTRA:                  -2.870
REMARK UNBOUND:                -2.870
REMARK SMILES CCCCCCCCCCCCCCCCCCCCCCCCCCCCCO
REMARK SMILES IDX 16 1 15 2 14 3 13 4 12 5 11 6 10 7 9 8 8 9 7 10 6 11 5 12
REMARK SMILES IDX 4 13 3 14 2 15 1 16 17 17 18 18 19 19 20 20 21 21 22 22
REMARK SMILES IDX 23 23 24 24 25 25 26 26 27 27 28 28 29 29 30 30
REMARK H PARENT 30 31
REMARK Flexibility Score: inf
ROOT
ATOM      1  C   UNL     1       2.672  18.198  19.771  1.00  0.00     0.000 C 
ENDROOT
BRANCH   1   2
ATOM      2  C   UNL     1       2.389  16.717  20.068  1.00  0.00     0.000 C 
BRANCH   2   3
ATOM      3  C   UNL     1       1.927  16.527  21.521  1.00  0.00     0.000 C 
BRANCH   3   4
ATOM      4  C   UNL     1       2.967  15.777  22.371  1.00  0.00     0.000 C 
BRANCH   4   5
ATOM      5  C   UNL     1       4.412  16.173  22.013  1.00  0.00     0.000 C 
BRANCH   5   6
ATOM      6  C   UNL     1       5.300  14.945  21.717  1.00  0.00     0.000 C 
BRANCH   6   7
ATOM      7  C   UNL     1       4.649  13.920  20.772  1.00  0.00     0.000 C 
BRANCH   7   8
ATOM      8  C   UNL     1       4.763  12.478  21.285  1.00  0.00    -0.000 C 
BRANCH   8   9
ATOM      9  C   UNL     1       3.468  12.036  21.981  1.00  0.00    -0.000 C 
BRANCH   9  10
ATOM     10  C   UNL     1       2.198  12.516  21.250  1.00  0.00    -0.000 C 
BRANCH  10  11
ATOM     11  C   UNL     1       0.869  12.051  21.876  1.00  0.00    -0.000 C 
BRANCH  11  12
ATOM     12  C   UNL     1      -0.074  13.214  22.219  1.00  0.00    -0.000 C 
BRANCH  12  13
ATOM     13  C   UNL     1      -1.033  13.504  21.057  1.00  0.00    -0.000 C 
BRANCH  13  14
ATOM     14  C   UNL     1      -1.793  14.831  21.228  1.00  0.00    -0.000 C 
BRANCH  14  15
ATOM     15  C   UNL     1      -1.604  15.807  20.048  1.00  0.00    -0.003 C 
ATOM     16  C   UNL     1      -2.527  15.484  18.875  1.00  0.00     0.004 C 
ENDBRANCH  14  15
ENDBRANCH  13  14
ENDBRANCH  12  13
ENDBRANCH  11  12
ENDBRANCH  10  11
ENDBRANCH   9  10
ENDBRANCH   8   9
ENDBRANCH   7   8
ENDBRANCH   6   7
ENDBRANCH   5   6
ENDBRANCH   4   5
ENDBRANCH   3   4
ENDBRANCH   2   3
ENDBRANCH   1   2
BRANCH   1  17
ATOM     17  C   UNL     1       1.498  19.120  20.155  1.00  0.00     0.000 C 
BRANCH  17  18
ATOM     18  C   UNL     1       1.829  20.176  21.226  1.00  0.00     0.000 C 
BRANCH  18  19
ATOM     19  C   UNL     1       3.237  20.001  21.824  1.00  0.00     0.000 C 
BRANCH  19  20
ATOM     20  C   UNL     1       4.000  21.333  21.920  1.00  0.00     0.000 C 
BRANCH  20  21
ATOM     21  C   UNL     1       5.170  21.411  20.921  1.00  0.00     0.000 C 
BRANCH  21  22
ATOM     22  C   UNL     1       6.070  22.641  21.167  1.00  0.00     0.000 C 
BRANCH  22  23
ATOM     23  C   UNL     1       5.978  23.709  20.060  1.00  0.00     0.000 C 
BRANCH  23  24
ATOM     24  C   UNL     1       7.025  24.832  20.156  1.00  0.00     0.000 C 
BRANCH  24  25
ATOM     25  C   UNL     1       8.015  24.621  21.313  1.00  0.00     0.000 C 
BRANCH  25  26
ATOM     26  C   UNL     1       8.152  25.893  22.158  1.00  0.00     0.000 C 
BRANCH  26  27
ATOM     27  C   UNL     1       7.561  27.105  21.425  1.00  0.00     0.002 C 
BRANCH  27  28
ATOM     28  C   UNL     1       7.294  28.294  22.364  1.00  0.00     0.028 C 
BRANCH  28  29
ATOM     29  C   UNL     1       6.877  29.575  21.631  1.00  0.00     0.156 C 
BRANCH  29  30
ATOM     30  O   UNL     1       5.479  29.710  21.606  1.00  0.00    -0.396 OA
ATOM     31  H   UNL     1       5.107  28.797  21.499  1.00  0.00     0.210 HD
ENDBRANCH  29  30
ENDBRANCH  28  29
ENDBRANCH  27  28
ENDBRANCH  26  27
ENDBRANCH  25  26
ENDBRANCH  24  25
ENDBRANCH  23  24
ENDBRANCH  22  23
ENDBRANCH  21  22
ENDBRANCH  20  21
ENDBRANCH  19  20
ENDBRANCH  18  19
ENDBRANCH  17  18
ENDBRANCH   1  17
TORSDOF 28
ENDMDL
MODEL 2
REMARK VINA RESULT:    -4.962      2.367      3.514
REMARK INTER + INTRA:         -15.808
REMARK INTER:                 -13.568
REMARK INTRA:                  -2.239
REMARK UNBOUND:                -2.870
REMARK SMILES CCCCCCCCCCCCCCCCCCCCCCCCCCCCCO
REMARK SMILES IDX 16 1 15 2 14 3 13 4 12 5 11 6 10 7 9 8 8 9 7 10 6 11 5 12
REMARK SMILES IDX 4 13 3 14 2 15 1 16 17 17 18 18 19 19 20 20 21 21 22 22
REMARK SMILES IDX 23 23 24 24 25 25 26 26 27 27 28 28 29 29 30 30
REMARK H PARENT 30 31
REMARK Flexibility Score: inf
ROOT
ATOM      1  C   UNL     1       2.463  20.046  21.583  1.00  0.00     0.000 C 
ENDROOT
BRANCH   1   2
ATOM      2  C   UNL     1       1.728  19.122  20.599  1.00  0.00     0.000 C 
BRANCH   2   3
ATOM      3  C   UNL     1       2.710  18.489  19.602  1.00  0.00     0.000 C 
BRANCH   3   4
ATOM      4  C   UNL     1       2.835  16.968  19.793  1.00  0.00     0.000 C 
BRANCH   4   5
ATOM      5  C   UNL     1       3.742  16.598  20.981  1.00  0.00     0.000 C 
BRANCH   5   6
ATOM      6  C   UNL     1       3.129  15.492  21.866  1.00  0.00     0.000 C 
BRANCH   6   7
ATOM      7  C   UNL     1       3.065  14.114  21.183  1.00  0.00     0.000 C 
BRANCH   7   8
ATOM      8  C   UNL     1       1.628  13.628  20.950  1.00  0.00    -0.000 C 
BRANCH   8   9
ATOM      9  C   UNL     1       0.626  14.458  21.765  1.00  0.00    -0.000 C 
BRANCH   9  10
ATOM     10  C   UNL     1      -0.337  15.275  20.882  1.00  0.00    -0.000 C 
BRANCH  10  11
ATOM     11  C   UNL     1      -0.271  14.958  19.376  1.00  0.00    -0.000 C 
BRANCH  11  12
ATOM     12  C   UNL     1      -1.478  14.150  18.877  1.00  0.00    -0.000 C 
BRANCH  12  13
ATOM     13  C   UNL     1      -2.796  14.820  19.289  1.00  0.00    -0.000 C 
BRANCH  13  14
ATOM     14  C   UNL     1      -3.974  14.429  18.382  1.00  0.00    -0.000 C 
BRANCH  14  15
ATOM     15  C   UNL     1      -3.868  14.999  16.951  1.00  0.00    -0.003 C 
ATOM     16  C   UNL     1      -5.109  15.794  16.551  1.00  0.00     0.004 C 
ENDBRANCH  14  15
ENDBRANCH  13  14
ENDBRANCH  12  13
ENDBRANCH  11  12
ENDBRANCH  10  11
ENDBRANCH   9  10
ENDBRANCH   8   9
ENDBRANCH   7   8
ENDBRANCH   6   7
ENDBRANCH   5   6
ENDBRANCH   4   5
ENDBRANCH   3   4
ENDBRANCH   2   3
ENDBRANCH   1   2
BRANCH   1  17
ATOM     17  C   UNL     1       3.893  20.392  21.125  1.00  0.00     0.000 C 
BRANCH  17  18
ATOM     18  C   UNL     1       4.767  21.077  22.193  1.00  0.00     0.000 C 
BRANCH  18  19
ATOM     19  C   UNL     1       5.836  22.003  21.587  1.00  0.00     0.000 C 
BRANCH  19  20
ATOM     20  C   UNL     1       5.268  22.903  20.477  1.00  0.00     0.000 C 
BRANCH  20  21
ATOM     21  C   UNL     1       6.257  24.006  20.053  1.00  0.00     0.000 C 
BRANCH  21  22
ATOM     22  C   UNL     1       7.575  23.950  20.855  1.00  0.00     0.000 C 
BRANCH  22  23
ATOM     23  C   UNL     1       8.367  25.272  20.842  1.00  0.00     0.000 C 
BRANCH  23  24
ATOM     24  C   UNL     1       7.510  26.538  20.672  1.00  0.00     0.000 C 
BRANCH  24  25
ATOM     25  C   UNL     1       7.884  27.342  19.417  1.00  0.00     0.000 C 
BRANCH  25  26
ATOM     26  C   UNL     1       7.272  28.746  19.461  1.00  0.00     0.000 C 
BRANCH  26  27
ATOM     27  C   UNL     1       7.956  29.675  18.447  1.00  0.00     0.002 C 
BRANCH  27  28
ATOM     28  C   UNL     1       7.089  29.939  17.204  1.00  0.00     0.028 C 
BRANCH  28  29
ATOM     29  C   UNL     1       7.877  30.502  16.014  1.00  0.00     0.156 C 
BRANCH  29  30
ATOM     30  O   UNL     1       8.930  29.646  15.656  1.00  0.00    -0.396 OA
ATOM     31  H   UNL     1       8.626  29.137  14.861  1.00  0.00     0.210 HD
ENDBRANCH  29  30
ENDBRANCH  28  29
ENDBRANCH  27  28
ENDBRANCH  26  27
ENDBRANCH  25  26
ENDBRANCH  24  25
ENDBRANCH  23  24
ENDBRANCH  22  23
ENDBRANCH  21  22
ENDBRANCH  20  21
ENDBRANCH  19  20
ENDBRANCH  18  19
ENDBRANCH  17  18
ENDBRANCH   1  17
TORSDOF 28
ENDMDL
MODEL 3
REMARK VINA RESULT:    -4.948      2.096      4.487
REMARK INTER + INTRA:         -15.773
REMARK INTER:                 -13.454
REMARK INTRA:                  -2.319
REMARK UNBOUND:                -2.870
REMARK SMILES CCCCCCCCCCCCCCCCCCCCCCCCCCCCCO
REMARK SMILES IDX 16 1 15 2 14 3 13 4 12 5 11 6 10 7 9 8 8 9 7 10 6 11 5 12
REMARK SMILES IDX 4 13 3 14 2 15 1 16 17 17 18 18 19 19 20 20 21 21 22 22
REMARK SMILES IDX 23 23 24 24 25 25 26 26 27 27 28 28 29 29 30 30
REMARK H PARENT 30 31
REMARK Flexibility Score: inf
ROOT
ATOM      1  C   UNL     1       4.515  21.550  21.141  1.00  0.00     0.000 C 
ENDROOT
BRANCH   1   2
ATOM      2  C   UNL     1       4.439  20.786  22.472  1.00  0.00     0.000 C 
BRANCH   2   3
ATOM      3  C   UNL     1       3.105  20.035  22.600  1.00  0.00     0.000 C 
BRANCH   3   4
ATOM      4  C   UNL     1       2.255  20.135  21.321  1.00  0.00     0.000 C 
BRANCH   4   5
ATOM      5  C   UNL     1       1.825  18.754  20.792  1.00  0.00     0.000 C 
BRANCH   5   6
ATOM      6  C   UNL     1       2.822  18.186  19.760  1.00  0.00     0.000 C 
BRANCH   6   7
ATOM      7  C   UNL     1       3.422  16.825  20.157  1.00  0.00     0.000 C 
BRANCH   7   8
ATOM      8  C   UNL     1       3.850  16.768  21.629  1.00  0.00    -0.000 C 
BRANCH   8   9
ATOM      9  C   UNL     1       4.186  15.330  22.050  1.00  0.00    -0.000 C 
BRANCH   9  10
ATOM     10  C   UNL     1       4.386  14.384  20.850  1.00  0.00    -0.000 C 
BRANCH  10  11
ATOM     11  C   UNL     1       3.950  12.925  21.089  1.00  0.00    -0.000 C 
BRANCH  11  12
ATOM     12  C   UNL     1       2.596  12.810  21.804  1.00  0.00    -0.000 C 
BRANCH  12  13
ATOM     13  C   UNL     1       1.576  12.065  20.932  1.00  0.00    -0.000 C 
BRANCH  13  14
ATOM     14  C   UNL     1       0.532  13.002  20.302  1.00  0.00    -0.000 C 
BRANCH  14  15
ATOM     15  C   UNL     1       0.758  14.492  20.636  1.00  0.00    -0.003 C 
ATOM     16  C   UNL     1      -0.553  15.274  20.706  1.00  0.00     0.004 C 
ENDBRANCH  14  15
ENDBRANCH  13  14
ENDBRANCH  12  13
ENDBRANCH  11  12
ENDBRANCH  10  11
ENDBRANCH   9  10
ENDBRANCH   8   9
ENDBRANCH   7   8
ENDBRANCH   6   7
ENDBRANCH   5   6
ENDBRANCH   4   5
ENDBRANCH   3   4
ENDBRANCH   2   3
ENDBRANCH   1   2
BRANCH   1  17
ATOM     17  C   UNL     1       5.852  22.293  20.952  1.00  0.00     0.000 C 
BRANCH  17  18
ATOM     18  C   UNL     1       5.763  23.584  20.118  1.00  0.00     0.000 C 
BRANCH  18  19
ATOM     19  C   UNL     1       7.084  24.375  20.096  1.00  0.00     0.000 C 
BRANCH  19  20
ATOM     20  C   UNL     1       7.831  24.300  21.437  1.00  0.00     0.000 C 
BRANCH  20  21
ATOM     21  C   UNL     1       8.128  25.695  22.021  1.00  0.00     0.000 C 
BRANCH  21  22
ATOM     22  C   UNL     1       7.360  26.813  21.285  1.00  0.00     0.000 C 
BRANCH  22  23
ATOM     23  C   UNL     1       7.396  28.173  22.010  1.00  0.00     0.000 C 
BRANCH  23  24
ATOM     24  C   UNL     1       6.965  29.375  21.153  1.00  0.00     0.000 C 
BRANCH  24  25
ATOM     25  C   UNL     1       8.122  30.344  20.868  1.00  0.00     0.000 C 
BRANCH  25  26
ATOM     26  C   UNL     1       8.447  30.389  19.371  1.00  0.00     0.000 C 
BRANCH  26  27
ATOM     27  C   UNL     1       7.634  29.339  18.601  1.00  0.00     0.002 C 
BRANCH  27  28
ATOM     28  C   UNL     1       7.199  29.829  17.209  1.00  0.00     0.028 C 
BRANCH  28  29
ATOM     29  C   UNL     1       8.366  30.017  16.231  1.00  0.00     0.156 C 
BRANCH  29  30
ATOM     30  O   UNL     1       9.473  29.240  16.611  1.00  0.00    -0.396 OA
ATOM     31  H   UNL     1       9.723  28.695  15.820  1.00  0.00     0.210 HD
ENDBRANCH  29  30
ENDBRANCH  28  29
ENDBRANCH  27  28
ENDBRANCH  26  27
ENDBRANCH  25  26
ENDBRANCH  24  25
ENDBRANCH  23  24
ENDBRANCH  22  23
ENDBRANCH  21  22
ENDBRANCH  20  21
ENDBRANCH  19  20
ENDBRANCH  18  19
ENDBRANCH  17  18
ENDBRANCH   1  17
TORSDOF 28
ENDMDL
MODEL 4
REMARK VINA RESULT:    -4.927      5.499     11.170
REMARK INTER + INTRA:         -15.718
REMARK INTER:                 -11.456
REMARK INTRA:                  -4.262
REMARK UNBOUND:                -2.870
REMARK SMILES CCCCCCCCCCCCCCCCCCCCCCCCCCCCCO
REMARK SMILES IDX 16 1 15 2 14 3 13 4 12 5 11 6 10 7 9 8 8 9 7 10 6 11 5 12
REMARK SMILES IDX 4 13 3 14 2 15 1 16 17 17 18 18 19 19 20 20 21 21 22 22
REMARK SMILES IDX 23 23 24 24 25 25 26 26 27 27 28 28 29 29 30 30
REMARK H PARENT 30 31
REMARK Flexibility Score: inf
ROOT
ATOM      1  C   UNL     1      -1.040  14.695  18.931  1.00  0.00     0.000 C 
ENDROOT
BRANCH   1   2
ATOM      2  C   UNL     1      -2.098  14.970  20.011  1.00  0.00     0.000 C 
BRANCH   2   3
ATOM      3  C   UNL     1      -1.571  14.597  21.405  1.00  0.00     0.000 C 
BRANCH   3   4
ATOM      4  C   UNL     1      -0.043  14.743  21.509  1.00  0.00     0.000 C 
BRANCH   4   5
ATOM      5  C   UNL     1       0.527  14.068  22.770  1.00  0.00     0.000 C 
BRANCH   5   6
ATOM      6  C   UNL     1       1.474  12.896  22.432  1.00  0.00     0.000 C 
BRANCH   6   7
ATOM      7  C   UNL     1       2.288  13.107  21.143  1.00  0.00     0.000 C 
BRANCH   7   8
ATOM      8  C   UNL     1       3.797  12.921  21.353  1.00  0.00    -0.000 C 
BRANCH   8   9
ATOM      9  C   UNL     1       4.588  14.078  20.726  1.00  0.00    -0.000 C 
BRANCH   9  10
ATOM     10  C   UNL     1       4.831  15.241  21.707  1.00  0.00    -0.000 C 
BRANCH  10  11
ATOM     11  C   UNL     1       4.016  16.518  21.423  1.00  0.00    -0.000 C 
BRANCH  11  12
ATOM     12  C   UNL     1       3.191  16.431  20.131  1.00  0.00    -0.000 C 
BRANCH  12  13
ATOM     13  C   UNL     1       2.893  17.829  19.574  1.00  0.00    -0.000 C 
BRANCH  13  14
ATOM     14  C   UNL     1       2.970  18.928  20.647  1.00  0.00    -0.000 C 
BRANCH  14  15
ATOM     15  C   UNL     1       1.596  19.322  21.228  1.00  0.00    -0.003 C 
ATOM     16  C   UNL     1       0.560  19.585  20.137  1.00  0.00     0.004 C 
ENDBRANCH  14  15
ENDBRANCH  13  14
ENDBRANCH  12  13
ENDBRANCH  11  12
ENDBRANCH  10  11
ENDBRANCH   9  10
ENDBRANCH   8   9
ENDBRANCH   7   8
ENDBRANCH   6   7
ENDBRANCH   5   6
ENDBRANCH   4   5
ENDBRANCH   3   4
ENDBRANCH   2   3
ENDBRANCH   1   2
BRANCH   1  17
ATOM     17  C   UNL     1      -1.217  13.321  18.256  1.00  0.00     0.000 C 
BRANCH  17  18
ATOM     18  C   UNL     1      -0.165  12.267  18.648  1.00  0.00     0.000 C 
BRANCH  18  19
ATOM     19  C   UNL     1      -0.679  11.272  19.705  1.00  0.00     0.000 C 
BRANCH  19  20
ATOM     20  C   UNL     1      -2.168  10.940  19.518  1.00  0.00     0.000 C 
BRANCH  20  21
ATOM     21  C   UNL     1      -2.996  11.231  20.785  1.00  0.00     0.000 C 
BRANCH  21  22
ATOM     22  C   UNL     1      -4.398  11.786  20.455  1.00  0.00     0.000 C 
BRANCH  22  23
ATOM     23  C   UNL     1      -4.503  12.417  19.053  1.00  0.00     0.000 C 
BRANCH  23  24
ATOM     24  C   UNL     1      -5.585  11.808  18.147  1.00  0.00     0.000 C 
BRANCH  24  25
ATOM     25  C   UNL     1      -6.463  12.874  17.474  1.00  0.00     0.000 C 
BRANCH  25  26
ATOM     26  C   UNL     1      -6.681  14.074  18.403  1.00  0.00     0.000 C 
BRANCH  26  27
ATOM     27  C   UNL     1      -6.082  15.352  17.799  1.00  0.00     0.002 C 
BRANCH  27  28
ATOM     28  C   UNL     1      -5.408  15.105  16.438  1.00  0.00     0.028 C 
BRANCH  28  29
ATOM     29  C   UNL     1      -3.942  15.556  16.389  1.00  0.00     0.156 C 
BRANCH  29  30
ATOM     30  O   UNL     1      -3.771  16.621  15.490  1.00  0.00    -0.396 OA
ATOM     31  H   UNL     1      -2.822  16.602  15.202  1.00  0.00     0.210 HD
ENDBRANCH  29  30
ENDBRANCH  28  29
ENDBRANCH  27  28
ENDBRANCH  26  27
ENDBRANCH  25  26
ENDBRANCH  24  25
ENDBRANCH  23  24
ENDBRANCH  22  23
ENDBRANCH  21  22
ENDBRANCH  20  21
ENDBRANCH  19  20
ENDBRANCH  18  19
ENDBRANCH  17  18
ENDBRANCH   1  17
TORSDOF 28
ENDMDL
MODEL 5
REMARK VINA RESULT:    -4.910      3.260     12.556
REMARK INTER + INTRA:         -15.672
REMARK INTER:                 -13.395
REMARK INTRA:                  -2.277
REMARK UNBOUND:                -2.870
REMARK SMILES CCCCCCCCCCCCCCCCCCCCCCCCCCCCCO
REMARK SMILES IDX 16 1 15 2 14 3 13 4 12 5 11 6 10 7 9 8 8 9 7 10 6 11 5 12
REMARK SMILES IDX 4 13 3 14 2 15 1 16 17 17 18 18 19 19 20 20 21 21 22 22
REMARK SMILES IDX 23 23 24 24 25 25 26 26 27 27 28 28 29 29 30 30
REMARK H PARENT 30 31
REMARK Flexibility Score: inf
ROOT
ATOM      1  C   UNL     1       1.836  18.859  20.653  1.00  0.00     0.000 C 
ENDROOT
BRANCH   1   2
ATOM      2  C   UNL     1       2.426  20.131  21.280  1.00  0.00     0.000 C 
BRANCH   2   3
ATOM      3  C   UNL     1       3.945  20.198  21.061  1.00  0.00     0.000 C 
BRANCH   3   4
ATOM      4  C   UNL     1       4.594  21.363  21.830  1.00  0.00     0.000 C 
BRANCH   4   5
ATOM      5  C   UNL     1       5.739  22.022  21.039  1.00  0.00     0.000 C 
BRANCH   5   6
ATOM      6  C   UNL     1       5.266  23.253  20.238  1.00  0.00     0.000 C 
BRANCH   6   7
ATOM      7  C   UNL     1       6.371  24.293  19.984  1.00  0.00     0.000 C 
BRANCH   7   8
ATOM      8  C   UNL     1       7.559  24.150  20.945  1.00  0.00    -0.000 C 
BRANCH   8   9
ATOM      9  C   UNL     1       8.319  25.476  21.086  1.00  0.00    -0.000 C 
BRANCH   9  10
ATOM     10  C   UNL     1       7.608  26.653  20.389  1.00  0.00    -0.000 C 
BRANCH  10  11
ATOM     11  C   UNL     1       7.225  27.825  21.313  1.00  0.00    -0.000 C 
BRANCH  11  12
ATOM     12  C   UNL     1       7.217  29.182  20.594  1.00  0.00    -0.000 C 
BRANCH  12  13
ATOM     13  C   UNL     1       7.467  29.007  19.090  1.00  0.00    -0.000 C 
BRANCH  13  14
ATOM     14  C   UNL     1       8.050  30.269  18.431  1.00  0.00    -0.000 C 
BRANCH  14  15
ATOM     15  C   UNL     1       7.475  30.556  17.028  1.00  0.00    -0.003 C 
ATOM     16  C   UNL     1       8.293  29.895  15.921  1.00  0.00     0.004 C 
ENDBRANCH  14  15
ENDBRANCH  13  14
ENDBRANCH  12  13
ENDBRANCH  11  12
ENDBRANCH  10  11
ENDBRANCH   9  10
ENDBRANCH   8   9
ENDBRANCH   7   8
ENDBRANCH   6   7
ENDBRANCH   5   6
ENDBRANCH   4   5
ENDBRANCH   3   4
ENDBRANCH   2   3
ENDBRANCH   1   2
BRANCH   1  17
ATOM     17  C   UNL     1       2.844  18.107  19.762  1.00  0.00     0.000 C 
BRANCH  17  18
ATOM     18  C   UNL     1       3.298  16.741  20.310  1.00  0.00     0.000 C 
BRANCH  18  19
ATOM     19  C   UNL     1       2.853  16.501  21.764  1.00  0.00     0.000 C 
BRANCH  19  20
ATOM     20  C   UNL     1       3.355  15.155  22.313  1.00  0.00     0.000 C 
BRANCH  20  21
ATOM     21  C   UNL     1       4.351  14.469  21.359  1.00  0.00     0.000 C 
BRANCH  21  22
ATOM     22  C   UNL     1       3.964  13.005  21.061  1.00  0.00     0.000 C 
BRANCH  22  23
ATOM     23  C   UNL     1       2.756  12.503  21.875  1.00  0.00     0.000 C 
BRANCH  23  24
ATOM     24  C   UNL     1       1.610  11.912  21.035  1.00  0.00     0.000 C 
BRANCH  24  25
ATOM     25  C   UNL     1       0.321  12.743  21.126  1.00  0.00     0.000 C 
BRANCH  25  26
ATOM     26  C   UNL     1       0.442  14.038  20.316  1.00  0.00     0.000 C 
BRANCH  26  27
ATOM     27  C   UNL     1      -0.298  13.920  18.976  1.00  0.00     0.002 C 
BRANCH  27  28
ATOM     28  C   UNL     1      -1.650  14.653  18.979  1.00  0.00     0.028 C 
BRANCH  28  29
ATOM     29  C   UNL     1      -1.783  15.693  20.099  1.00  0.00     0.156 C 
BRANCH  29  30
ATOM     30  O   UNL     1      -1.701  16.999  19.588  1.00  0.00    -0.396 OA
ATOM     31  H   UNL     1      -2.333  17.552  20.117  1.00  0.00     0.210 HD
ENDBRANCH  29  30
ENDBRANCH  28  29
ENDBRANCH  27  28
ENDBRANCH  26  27
ENDBRANCH  25  26
ENDBRANCH  24  25
ENDBRANCH  23  24
ENDBRANCH  22  23
ENDBRANCH  21  22
ENDBRANCH  20  21
ENDBRANCH  19  20
ENDBRANCH  18  19
ENDBRANCH  17  18
ENDBRANCH   1  17
TORSDOF 28
ENDMDL
MODEL 6
REMARK VINA RESULT:    -4.888      2.175      4.216
REMARK INTER + INTRA:         -15.616
REMARK INTER:                 -13.821
REMARK INTRA:                  -1.795
REMARK UNBOUND:                -2.870
REMARK SMILES CCCCCCCCCCCCCCCCCCCCCCCCCCCCCO
REMARK SMILES IDX 16 1 15 2 14 3 13 4 12 5 11 6 10 7 9 8 8 9 7 10 6 11 5 12
REMARK SMILES IDX 4 13 3 14 2 15 1 16 17 17 18 18 19 19 20 20 21 21 22 22
REMARK SMILES IDX 23 23 24 24 25 25 26 26 27 27 28 28 29 29 30 30
REMARK H PARENT 30 31
REMARK Flexibility Score: inf
ROOT
ATOM      1  C   UNL     1       3.828  21.460  22.004  1.00  0.00     0.000 C 
ENDROOT
BRANCH   1   2
ATOM      2  C   UNL     1       3.641  20.344  23.042  1.00  0.00     0.000 C 
BRANCH   2   3
ATOM      3  C   UNL     1       2.707  19.247  22.509  1.00  0.00     0.000 C 
BRANCH   3   4
ATOM      4  C   UNL     1       1.941  19.694  21.252  1.00  0.00     0.000 C 
BRANCH   4   5
ATOM      5  C   UNL     1       2.252  18.811  20.030  1.00  0.00     0.000 C 
BRANCH   5   6
ATOM      6  C   UNL     1       3.496  17.923  20.249  1.00  0.00     0.000 C 
BRANCH   6   7
ATOM      7  C   UNL     1       3.212  16.415  20.136  1.00  0.00     0.000 C 
BRANCH   7   8
ATOM      8  C   UNL     1       2.144  15.932  21.126  1.00  0.00    -0.000 C 
BRANCH   8   9
ATOM      9  C   UNL     1       0.807  15.679  20.415  1.00  0.00    -0.000 C 
BRANCH   9  10
ATOM     10  C   UNL     1       0.086  14.414  20.922  1.00  0.00    -0.000 C 
BRANCH  10  11
ATOM     11  C   UNL     1      -0.440  13.475  19.819  1.00  0.00    -0.000 C 
BRANCH  11  12
ATOM     12  C   UNL     1      -1.121  14.225  18.665  1.00  0.00    -0.000 C 
BRANCH  12  13
ATOM     13  C   UNL     1      -2.502  14.745  19.086  1.00  0.00    -0.000 C 
BRANCH  13  14
ATOM     14  C   UNL     1      -3.251  15.448  17.941  1.00  0.00    -0.000 C 
BRANCH  14  15
ATOM     15  C   UNL     1      -4.374  14.591  17.320  1.00  0.00    -0.003 C 
ATOM     16  C   UNL     1      -5.043  15.285  16.135  1.00  0.00     0.004 C 
ENDBRANCH  14  15
ENDBRANCH  13  14
ENDBRANCH  12  13
ENDBRANCH  11  12
ENDBRANCH  10  11
ENDBRANCH   9  10
ENDBRANCH   8   9
ENDBRANCH   7   8
ENDBRANCH   6   7
ENDBRANCH   5   6
ENDBRANCH   4   5
ENDBRANCH   3   4
ENDBRANCH   2   3
ENDBRANCH   1   2
BRANCH   1  17
ATOM     17  C   UNL     1       5.091  21.271  21.141  1.00  0.00     0.000 C 
BRANCH  17  18
ATOM     18  C   UNL     1       6.115  22.418  21.230  1.00  0.00     0.000 C 
BRANCH  18  19
ATOM     19  C   UNL     1       5.888  23.507  20.166  1.00  0.00     0.000 C 
BRANCH  19  20
ATOM     20  C   UNL     1       7.063  24.496  20.084  1.00  0.00     0.000 C 
BRANCH  20  21
ATOM     21  C   UNL     1       7.949  24.458  21.344  1.00  0.00     0.000 C 
BRANCH  21  22
ATOM     22  C   UNL     1       8.308  25.870  21.851  1.00  0.00     0.000 C 
BRANCH  22  23
ATOM     23  C   UNL     1       7.617  27.005  21.071  1.00  0.00     0.000 C 
BRANCH  23  24
ATOM     24  C   UNL     1       7.246  28.237  21.914  1.00  0.00     0.000 C 
BRANCH  24  25
ATOM     25  C   UNL     1       6.888  29.458  21.051  1.00  0.00     0.000 C 
BRANCH  25  26
ATOM     26  C   UNL     1       7.284  29.233  19.588  1.00  0.00     0.000 C 
BRANCH  26  27
ATOM     27  C   UNL     1       8.381  30.218  19.159  1.00  0.00     0.002 C 
BRANCH  27  28
ATOM     28  C   UNL     1       8.755  30.080  17.673  1.00  0.00     0.028 C 
BRANCH  28  29
ATOM     29  C   UNL     1       7.542  29.914  16.747  1.00  0.00     0.156 C 
BRANCH  29  30
ATOM     30  O   UNL     1       7.944  29.569  15.447  1.00  0.00    -0.396 OA
ATOM     31  H   UNL     1       7.608  28.651  15.279  1.00  0.00     0.210 HD
ENDBRANCH  29  30
ENDBRANCH  28  29
ENDBRANCH  27  28
ENDBRANCH  26  27
ENDBRANCH  25  26
ENDBRANCH  24  25
ENDBRANCH  23  24
ENDBRANCH  22  23
ENDBRANCH  21  22
ENDBRANCH  20  21
ENDBRANCH  19  20
ENDBRANCH  18  19
ENDBRANCH  17  18
ENDBRANCH   1  17
TORSDOF 28
ENDMDL
MODEL 7
REMARK VINA RESULT:    -4.884      2.117      5.451
REMARK INTER + INTRA:         -15.606
REMARK INTER:                 -13.460
REMARK INTRA:                  -2.145
REMARK UNBOUND:                -2.870
REMARK SMILES CCCCCCCCCCCCCCCCCCCCCCCCCCCCCO
REMARK SMILES IDX 16 1 15 2 14 3 13 4 12 5 11 6 10 7 9 8 8 9 7 10 6 11 5 12
REMARK SMILES IDX 4 13 3 14 2 15 1 16 17 17 18 18 19 19 20 20 21 21 22 22
REMARK SMILES IDX 23 23 24 24 25 25 26 26 27 27 28 28 29 29 30 30
REMARK H PARENT 30 31
REMARK Flexibility Score: inf
ROOT
ATOM      1  C   UNL     1       4.848  21.658  21.159  1.00  0.00     0.000 C 
ENDROOT
BRANCH   1   2
ATOM      2  C   UNL     1       4.729  21.045  22.563  1.00  0.00     0.000 C 
BRANCH   2   3
ATOM      3  C   UNL     1       3.439  20.220  22.695  1.00  0.00     0.000 C 
BRANCH   3   4
ATOM      4  C   UNL     1       2.386  20.612  21.645  1.00  0.00     0.000 C 
BRANCH   4   5
ATOM      5  C   UNL     1       1.731  19.385  20.985  1.00  0.00     0.000 C 
BRANCH   5   6
ATOM      6  C   UNL     1       2.514  18.896  19.747  1.00  0.00     0.000 C 
BRANCH   6   7
ATOM      7  C   UNL     1       2.901  17.408  19.804  1.00  0.00     0.000 C 
BRANCH   7   8
ATOM      8  C   UNL     1       3.742  17.055  21.038  1.00  0.00    -0.000 C 
BRANCH   8   9
ATOM      9  C   UNL     1       2.930  16.219  22.038  1.00  0.00    -0.000 C 
BRANCH   9  10
ATOM     10  C   UNL     1       1.618  15.673  21.440  1.00  0.00    -0.000 C 
BRANCH  10  11
ATOM     11  C   UNL     1       1.589  14.150  21.208  1.00  0.00    -0.000 C 
BRANCH  11  12
ATOM     12  C   UNL     1       2.669  13.399  22.001  1.00  0.00    -0.000 C 
BRANCH  12  13
ATOM     13  C   UNL     1       3.801  12.929  21.078  1.00  0.00    -0.000 C 
BRANCH  13  14
ATOM     14  C   UNL     1       4.876  12.116  21.819  1.00  0.00    -0.000 C 
BRANCH  14  15
ATOM     15  C   UNL     1       6.210  12.011  21.051  1.00  0.00    -0.003 C 
ATOM     16  C   UNL     1       7.340  12.769  21.746  1.00  0.00     0.004 C 
ENDBRANCH  14  15
ENDBRANCH  13  14
ENDBRANCH  12  13
ENDBRANCH  11  12
ENDBRANCH  10  11
ENDBRANCH   9  10
ENDBRANCH   8   9
ENDBRANCH   7   8
ENDBRANCH   6   7
ENDBRANCH   5   6
ENDBRANCH   4   5
ENDBRANCH   3   4
ENDBRANCH   2   3
ENDBRANCH   1   2
BRANCH   1  17
ATOM     17  C   UNL     1       6.086  22.563  21.004  1.00  0.00     0.000 C 
BRANCH  17  18
ATOM     18  C   UNL     1       5.949  23.671  19.943  1.00  0.00     0.000 C 
BRANCH  18  19
ATOM     19  C   UNL     1       7.119  24.670  19.966  1.00  0.00     0.000 C 
BRANCH  19  20
ATOM     20  C   UNL     1       7.980  24.532  21.233  1.00  0.00     0.000 C 
BRANCH  20  21
ATOM     21  C   UNL     1       8.174  25.877  21.958  1.00  0.00     0.000 C 
BRANCH  21  22
ATOM     22  C   UNL     1       7.299  26.998  21.359  1.00  0.00     0.000 C 
BRANCH  22  23
ATOM     23  C   UNL     1       7.328  28.310  22.167  1.00  0.00     0.000 C 
BRANCH  23  24
ATOM     24  C   UNL     1       7.063  29.583  21.346  1.00  0.00     0.000 C 
BRANCH  24  25
ATOM     25  C   UNL     1       8.340  30.400  21.093  1.00  0.00     0.000 C 
BRANCH  25  26
ATOM     26  C   UNL     1       8.522  30.688  19.599  1.00  0.00     0.000 C 
BRANCH  26  27
ATOM     27  C   UNL     1       7.798  29.637  18.745  1.00  0.00     0.002 C 
BRANCH  27  28
ATOM     28  C   UNL     1       7.371  30.180  17.371  1.00  0.00     0.028 C 
BRANCH  28  29
ATOM     29  C   UNL     1       8.342  29.819  16.239  1.00  0.00     0.156 C 
BRANCH  29  30
ATOM     30  O   UNL     1       9.534  29.281  16.750  1.00  0.00    -0.396 OA
ATOM     31  H   UNL     1       9.302  28.406  17.155  1.00  0.00     0.210 HD
ENDBRANCH  29  30
ENDBRANCH  28  29
ENDBRANCH  27  28
ENDBRANCH  26  27
ENDBRANCH  25  26
ENDBRANCH  24  25
ENDBRANCH  23  24
ENDBRANCH  22  23
ENDBRANCH  21  22
ENDBRANCH  20  21
ENDBRANCH  19  20
ENDBRANCH  18  19
ENDBRANCH  17  18
ENDBRANCH   1  17
TORSDOF 28
ENDMDL
MODEL 8
REMARK VINA RESULT:    -4.853      3.484     11.418
REMARK INTER + INTRA:         -15.524
REMARK INTER:                 -11.960
REMARK INTRA:                  -3.564
REMARK UNBOUND:                -2.870
REMARK SMILES CCCCCCCCCCCCCCCCCCCCCCCCCCCCCO
REMARK SMILES IDX 16 1 15 2 14 3 13 4 12 5 11 6 10 7 9 8 8 9 7 10 6 11 5 12
REMARK SMILES IDX 4 13 3 14 2 15 1 16 17 17 18 18 19 19 20 20 21 21 22 22
REMARK SMILES IDX 23 23 24 24 25 25 26 26 27 27 28 28 29 29 30 30
REMARK H PARENT 30 31
REMARK Flexibility Score: inf
ROOT
ATOM      1  C   UNL     1       3.524  15.574  22.150  1.00  0.00     0.000 C 
ENDROOT
BRANCH   1   2
ATOM      2  C   UNL     1       2.005  15.722  21.980  1.00  0.00     0.000 C 
BRANCH   2   3
ATOM      3  C   UNL     1       1.652  16.169  20.553  1.00  0.00     0.000 C 
BRANCH   3   4
ATOM      4  C   UNL     1       1.451  17.691  20.453  1.00  0.00     0.000 C 
BRANCH   4   5
ATOM      5  C   UNL     1       2.617  18.391  19.731  1.00  0.00     0.000 C 
BRANCH   5   6
ATOM      6  C   UNL     1       3.570  19.106  20.713  1.00  0.00     0.000 C 
BRANCH   6   7
ATOM      7  C   UNL     1       2.969  19.330  22.112  1.00  0.00     0.000 C 
BRANCH   7   8
ATOM      8  C   UNL     1       3.736  20.376  22.932  1.00  0.00    -0.000 C 
BRANCH   8   9
ATOM      9  C   UNL     1       4.161  21.561  22.054  1.00  0.00    -0.000 C 
BRANCH   9  10
ATOM     10  C   UNL     1       5.674  21.846  22.119  1.00  0.00    -0.000 C 
BRANCH  10  11
ATOM     11  C   UNL     1       6.274  22.489  20.854  1.00  0.00    -0.000 C 
BRANCH  11  12
ATOM     12  C   UNL     1       5.291  23.420  20.128  1.00  0.00    -0.000 C 
BRANCH  12  13
ATOM     13  C   UNL     1       6.039  24.530  19.377  1.00  0.00    -0.000 C 
BRANCH  13  14
ATOM     14  C   UNL     1       7.453  24.775  19.928  1.00  0.00    -0.000 C 
BRANCH  14  15
ATOM     15  C   UNL     1       7.517  25.888  20.996  1.00  0.00    -0.003 C 
ATOM     16  C   UNL     1       8.206  25.423  22.277  1.00  0.00     0.004 C 
ENDBRANCH  14  15
ENDBRANCH  13  14
ENDBRANCH  12  13
ENDBRANCH  11  12
ENDBRANCH  10  11
ENDBRANCH   9  10
ENDBRANCH   8   9
ENDBRANCH   7   8
ENDBRANCH   6   7
ENDBRANCH   5   6
ENDBRANCH   4   5
ENDBRANCH   3   4
ENDBRANCH   2   3
ENDBRANCH   1   2
BRANCH   1  17
ATOM     17  C   UNL     1       4.219  15.034  20.885  1.00  0.00     0.000 C 
BRANCH  17  18
ATOM     18  C   UNL     1       4.650  13.558  20.963  1.00  0.00     0.000 C 
BRANCH  18  19
ATOM     19  C   UNL     1       4.379  12.927  22.340  1.00  0.00     0.000 C 
BRANCH  19  20
ATOM     20  C   UNL     1       3.415  11.732  22.256  1.00  0.00     0.000 C 
BRANCH  20  21
ATOM     21  C   UNL     1       2.005  12.080  22.772  1.00  0.00     0.000 C 
BRANCH  21  22
ATOM     22  C   UNL     1       0.910  11.795  21.722  1.00  0.00     0.000 C 
BRANCH  22  23
ATOM     23  C   UNL     1       1.193  12.421  20.343  1.00  0.00     0.000 C 
BRANCH  23  24
ATOM     24  C   UNL     1      -0.020  13.090  19.675  1.00  0.00     0.000 C 
BRANCH  24  25
ATOM     25  C   UNL     1      -1.333  12.822  20.426  1.00  0.00     0.000 C 
BRANCH  25  26
ATOM     26  C   UNL     1      -2.403  13.852  20.049  1.00  0.00     0.000 C 
BRANCH  26  27
ATOM     27  C   UNL     1      -2.006  14.616  18.778  1.00  0.00     0.002 C 
BRANCH  27  28
ATOM     28  C   UNL     1      -2.943  14.323  17.593  1.00  0.00     0.028 C 
BRANCH  28  29
ATOM     29  C   UNL     1      -3.676  15.564  17.068  1.00  0.00     0.156 C 
BRANCH  29  30
ATOM     30  O   UNL     1      -3.454  15.736  15.692  1.00  0.00    -0.396 OA
ATOM     31  H   UNL     1      -4.045  15.091  15.224  1.00  0.00     0.210 HD
ENDBRANCH  29  30
ENDBRANCH  28  29
ENDBRANCH  27  28
ENDBRANCH  26  27
ENDBRANCH  25  26
ENDBRANCH  24  25
ENDBRANCH  23  24
ENDBRANCH  22  23
ENDBRANCH  21  22
ENDBRANCH  20  21
ENDBRANCH  19  20
ENDBRANCH  18  19
ENDBRANCH  17  18
ENDBRANCH   1  17
TORSDOF 28
ENDMDL
MODEL 9
REMARK VINA RESULT:    -4.782      4.165     12.561
REMARK INTER + INTRA:         -15.339
REMARK INTER:                 -12.589
REMARK INTRA:                  -2.750
REMARK UNBOUND:                -2.870
REMARK SMILES CCCCCCCCCCCCCCCCCCCCCCCCCCCCCO
REMARK SMILES IDX 16 1 15 2 14 3 13 4 12 5 11 6 10 7 9 8 8 9 7 10 6 11 5 12
REMARK SMILES IDX 4 13 3 14 2 15 1 16 17 17 18 18 19 19 20 20 21 21 22 22
REMARK SMILES IDX 23 23 24 24 25 25 26 26 27 27 28 28 29 29 30 30
REMARK H PARENT 30 31
REMARK Flexibility Score: inf
ROOT
ATOM      1  C   UNL     1      -0.283  15.298  20.806  1.00  0.00     0.000 C 
ENDROOT
BRANCH   1   2
ATOM      2  C   UNL     1       0.646  14.089  20.620  1.00  0.00     0.000 C 
BRANCH   2   3
ATOM      3  C   UNL     1       2.007  14.334  21.289  1.00  0.00     0.000 C 
BRANCH   3   4
ATOM      4  C   UNL     1       2.313  15.832  21.459  1.00  0.00     0.000 C 
BRANCH   4   5
ATOM      5  C   UNL     1       3.398  16.323  20.483  1.00  0.00     0.000 C 
BRANCH   5   6
ATOM      6  C   UNL     1       3.101  17.738  19.940  1.00  0.00     0.000 C 
BRANCH   6   7
ATOM      7  C   UNL     1       1.781  18.338  20.457  1.00  0.00     0.000 C 
BRANCH   7   8
ATOM      8  C   UNL     1       1.983  19.649  21.229  1.00  0.00    -0.000 C 
BRANCH   8   9
ATOM      9  C   UNL     1       3.406  20.190  21.035  1.00  0.00    -0.000 C 
BRANCH   9  10
ATOM     10  C   UNL     1       3.945  20.926  22.278  1.00  0.00    -0.000 C 
BRANCH  10  11
ATOM     11  C   UNL     1       5.400  21.420  22.166  1.00  0.00    -0.000 C 
BRANCH  11  12
ATOM     12  C   UNL     1       5.685  22.160  20.851  1.00  0.00    -0.000 C 
BRANCH  12  13
ATOM     13  C   UNL     1       6.715  23.278  21.063  1.00  0.00    -0.000 C 
BRANCH  13  14
ATOM     14  C   UNL     1       6.575  24.421  20.043  1.00  0.00    -0.000 C 
BRANCH  14  15
ATOM     15  C   UNL     1       7.771  25.396  20.038  1.00  0.00    -0.003 C 
ATOM     16  C   UNL     1       8.716  25.158  21.214  1.00  0.00     0.004 C 
ENDBRANCH  14  15
ENDBRANCH  13  14
ENDBRANCH  12  13
ENDBRANCH  11  12
ENDBRANCH  10  11
ENDBRANCH   9  10
ENDBRANCH   8   9
ENDBRANCH   7   8
ENDBRANCH   6   7
ENDBRANCH   5   6
ENDBRANCH   4   5
ENDBRANCH   3   4
ENDBRANCH   2   3
ENDBRANCH   1   2
BRANCH   1  17
ATOM     17  C   UNL     1      -1.775  14.910  20.825  1.00  0.00     0.000 C 
BRANCH  17  18
ATOM     18  C   UNL     1      -2.119  13.705  21.721  1.00  0.00     0.000 C 
BRANCH  18  19
ATOM     19  C   UNL     1      -2.873  12.595  20.968  1.00  0.00     0.000 C 
BRANCH  19  20
ATOM     20  C   UNL     1      -2.591  12.619  19.457  1.00  0.00     0.000 C 
BRANCH  20  21
ATOM     21  C   UNL     1      -3.743  12.008  18.636  1.00  0.00     0.000 C 
BRANCH  21  22
ATOM     22  C   UNL     1      -4.945  11.611  19.519  1.00  0.00     0.000 C 
BRANCH  22  23
ATOM     23  C   UNL     1      -6.204  11.227  18.719  1.00  0.00     0.000 C 
BRANCH  23  24
ATOM     24  C   UNL     1      -7.248  12.347  18.578  1.00  0.00     0.000 C 
BRANCH  24  25
ATOM     25  C   UNL     1      -7.443  12.795  17.122  1.00  0.00     0.000 C 
BRANCH  25  26
ATOM     26  C   UNL     1      -6.341  13.771  16.694  1.00  0.00     0.000 C 
BRANCH  26  27
ATOM     27  C   UNL     1      -6.268  14.969  17.651  1.00  0.00     0.002 C 
BRANCH  27  28
ATOM     28  C   UNL     1      -4.822  15.412  17.938  1.00  0.00     0.028 C 
BRANCH  28  29
ATOM     29  C   UNL     1      -3.989  15.646  16.671  1.00  0.00     0.156 C 
BRANCH  29  30
ATOM     30  O   UNL     1      -2.723  15.048  16.782  1.00  0.00    -0.396 OA
ATOM     31  H   UNL     1      -2.875  14.069  16.848  1.00  0.00     0.210 HD
ENDBRANCH  29  30
ENDBRANCH  28  29
ENDBRANCH  27  28
ENDBRANCH  26  27
ENDBRANCH  25  26
ENDBRANCH  24  25
ENDBRANCH  23  24
ENDBRANCH  22  23
ENDBRANCH  21  22
ENDBRANCH  20  21
ENDBRANCH  19  20
ENDBRANCH  18  19
ENDBRANCH  17  18
ENDBRANCH   1  17
TORSDOF 28
ENDMDL
