MODEL 1
REMARK VINA RESULT:    -3.658      0.000      0.000
REMARK INTER + INTRA:          -4.322
REMARK INTER:                  -4.299
REMARK INTRA:                  -0.023
REMARK UNBOUND:                -0.023
REMARK SMILES CCCCC(=O)[O-]
REMARK SMILES IDX 4 1 5 2 6 3 7 4 3 5 2 6 1 7
REMARK H PARENT
REMARK Flexibility Score: inf
ROOT
ATOM      1  C   UNL     1    -105.068 -85.693  37.572  1.00  0.00     0.053 C 
ENDROOT
BRANCH   1   2
ATOM      2  C   UNL     1    -104.930 -87.139  37.215  1.00  0.00     0.041 C 
ATOM      3  O   UNL     1    -104.270 -87.915  37.955  1.00  0.00    -0.550 OA
ATOM      4  O   UNL     1    -105.489 -87.622  36.038  1.00  0.00    -0.550 OA
ENDBRANCH   1   2
BRANCH   1   5
ATOM      5  C   UNL     1    -104.787 -85.480  39.062  1.00  0.00     0.006 C 
BRANCH   5   6
ATOM      6  C   UNL     1    -105.569 -84.277  39.601  1.00  0.00    -0.003 C 
ATOM      7  C   UNL     1    -104.723 -83.007  39.563  1.00  0.00     0.004 C 
ENDBRANCH   5   6
ENDBRANCH   1   5
TORSDOF 3
ENDMDL
MODEL 2
REMARK VINA RESULT:    -3.646      1.117      1.556
REMARK INTER + INTRA:          -4.308
REMARK INTER:                  -4.227
REMARK INTRA:                  -0.081
REMARK UNBOUND:                -0.023
REMARK SMILES CCCCC(=O)[O-]
REMARK SMILES IDX 4 1 5 2 6 3 7 4 3 5 2 6 1 7
REMARK H PARENT
REMARK Flexibility Score: inf
ROOT
ATOM      1  C   UNL     1    -104.528 -85.626  39.466  1.00  0.00     0.053 C 
ENDROOT
BRANCH   1   2
ATOM      2  C   UNL     1    -104.696 -86.327  38.155  1.00  0.00     0.041 C 
ATOM      3  O   UNL     1    -104.338 -87.527  38.028  1.00  0.00    -0.550 OA
ATOM      4  O   UNL     1    -105.200 -85.639  37.058  1.00  0.00    -0.550 OA
ENDBRANCH   1   2
BRANCH   1   5
ATOM      5  C   UNL     1    -105.494 -84.442  39.569  1.00  0.00     0.006 C 
BRANCH   5   6
ATOM      6  C   UNL     1    -104.734 -83.111  39.554  1.00  0.00    -0.003 C 
ATOM      7  C   UNL     1    -103.233 -83.331  39.729  1.00  0.00     0.004 C 
ENDBRANCH   5   6
ENDBRANCH   1   5
TORSDOF 3
ENDMDL
MODEL 3
REMARK VINA RESULT:    -3.537      2.272      3.852
REMARK INTER + INTRA:          -4.180
REMARK INTER:                  -4.145
REMARK INTRA:                  -0.035
REMARK UNBOUND:                -0.023
REMARK SMILES CCCCC(=O)[O-]
REMARK SMILES IDX 4 1 5 2 6 3 7 4 3 5 2 6 1 7
REMARK H PARENT
REMARK Flexibility Score: inf
ROOT
ATOM      1  C   UNL     1    -104.933 -85.659  37.662  1.00  0.00     0.053 C 
ENDROOT
BRANCH   1   2
ATOM      2  C   UNL     1    -104.908 -85.306  39.115  1.00  0.00     0.041 C 
ATOM      3  O   UNL     1    -105.691 -84.431  39.569  1.00  0.00    -0.550 OA
ATOM      4  O   UNL     1    -103.984 -85.908  39.961  1.00  0.00    -0.550 OA
ENDBRANCH   1   2
BRANCH   1   5
ATOM      5  C   UNL     1    -105.025 -87.177  37.480  1.00  0.00     0.006 C 
BRANCH   5   6
ATOM      6  C   UNL     1    -105.481 -87.533  36.061  1.00  0.00    -0.003 C 
ATOM      7  C   UNL     1    -105.450 -86.310  35.148  1.00  0.00     0.004 C 
ENDBRANCH   5   6
ENDBRANCH   1   5
TORSDOF 3
ENDMDL
MODEL 4
REMARK VINA RESULT:    -3.518      1.505      1.803
REMARK INTER + INTRA:          -4.158
REMARK INTER:                  -4.050
REMARK INTRA:                  -0.108
REMARK UNBOUND:                -0.023
REMARK SMILES CCCCC(=O)[O-]
REMARK SMILES IDX 4 1 5 2 6 3 7 4 3 5 2 6 1 7
REMARK H PARENT
REMARK Flexibility Score: inf
ROOT
ATOM      1  C   UNL     1    -104.968 -87.049  37.614  1.00  0.00     0.053 C 
ENDROOT
BRANCH   1   2
ATOM      2  C   UNL     1    -105.268 -86.535  36.242  1.00  0.00     0.041 C 
ATOM      3  O   UNL     1    -105.028 -85.334  35.948  1.00  0.00    -0.550 OA
ATOM      4  O   UNL     1    -105.859 -87.368  35.300  1.00  0.00    -0.550 OA
ENDBRANCH   1   2
BRANCH   1   5
ATOM      5  C   UNL     1    -103.953 -86.142  38.316  1.00  0.00     0.006 C 
BRANCH   5   6
ATOM      6  C   UNL     1    -104.485 -85.673  39.676  1.00  0.00    -0.003 C 
ATOM      7  C   UNL     1    -105.418 -84.476  39.519  1.00  0.00     0.004 C 
ENDBRANCH   5   6
ENDBRANCH   1   5
TORSDOF 3
ENDMDL
MODEL 5
REMARK VINA RESULT:    -3.503      1.646      2.740
REMARK INTER + INTRA:          -4.140
REMARK INTER:                  -4.033
REMARK INTRA:                  -0.107
REMARK UNBOUND:                -0.023
REMARK SMILES CCCCC(=O)[O-]
REMARK SMILES IDX 4 1 5 2 6 3 7 4 3 5 2 6 1 7
REMARK H PARENT
REMARK Flexibility Score: inf
ROOT
ATOM      1  C   UNL     1    -105.508 -84.348  39.497  1.00  0.00     0.053 C 
ENDROOT
BRANCH   1   2
ATOM      2  C   UNL     1    -104.780 -85.606  39.141  1.00  0.00     0.041 C 
ATOM      3  O   UNL     1    -105.079 -86.237  38.093  1.00  0.00    -0.550 OA
ATOM      4  O   UNL     1    -103.805 -86.110  39.993  1.00  0.00    -0.550 OA
ENDBRANCH   1   2
BRANCH   1   5
ATOM      5  C   UNL     1    -104.813 -83.133  38.877  1.00  0.00     0.006 C 
BRANCH   5   6
ATOM      6  C   UNL     1    -104.102 -82.301  39.950  1.00  0.00    -0.003 C 
ATOM      7  C   UNL     1    -102.614 -82.636  40.011  1.00  0.00     0.004 C 
ENDBRANCH   5   6
ENDBRANCH   1   5
TORSDOF 3
ENDMDL
MODEL 6
REMARK VINA RESULT:    -3.464      3.042      4.193
REMARK INTER + INTRA:          -4.094
REMARK INTER:                  -4.019
REMARK INTRA:                  -0.074
REMARK UNBOUND:                -0.023
REMARK SMILES CCCCC(=O)[O-]
REMARK SMILES IDX 4 1 5 2 6 3 7 4 3 5 2 6 1 7
REMARK H PARENT
REMARK Flexibility Score: inf
ROOT
ATOM      1  C   UNL     1    -105.146 -84.934  39.478  1.00  0.00     0.053 C 
ENDROOT
BRANCH   1   2
ATOM      2  C   UNL     1    -104.670 -83.516  39.496  1.00  0.00     0.041 C 
ATOM      3  O   UNL     1    -105.447 -82.582  39.163  1.00  0.00    -0.550 OA
ATOM      4  O   UNL     1    -103.353 -83.229  39.830  1.00  0.00    -0.550 OA
ENDBRANCH   1   2
BRANCH   1   5
ATOM      5  C   UNL     1    -104.011 -85.886  39.864  1.00  0.00     0.006 C 
BRANCH   5   6
ATOM      6  C   UNL     1    -103.713 -86.873  38.729  1.00  0.00    -0.003 C 
ATOM      7  C   UNL     1    -104.843 -86.890  37.703  1.00  0.00     0.004 C 
ENDBRANCH   5   6
ENDBRANCH   1   5
TORSDOF 3
ENDMDL
MODEL 7
REMARK VINA RESULT:    -3.460      2.815      3.857
REMARK INTER + INTRA:          -4.090
REMARK INTER:                  -4.012
REMARK INTRA:                  -0.078
REMARK UNBOUND:                -0.023
REMARK SMILES CCCCC(=O)[O-]
REMARK SMILES IDX 4 1 5 2 6 3 7 4 3 5 2 6 1 7
REMARK H PARENT
REMARK Flexibility Score: inf
ROOT
ATOM      1  C   UNL     1    -103.370 -86.138  39.275  1.00  0.00     0.053 C 
ENDROOT
BRANCH   1   2
ATOM      2  C   UNL     1    -102.517 -84.922  39.091  1.00  0.00     0.041 C 
ATOM      3  O   UNL     1    -102.621 -83.950  39.884  1.00  0.00    -0.550 OA
ATOM      4  O   UNL     1    -101.643 -84.841  38.014  1.00  0.00    -0.550 OA
ENDBRANCH   1   2
BRANCH   1   5
ATOM      5  C   UNL     1    -104.815 -85.846  38.862  1.00  0.00     0.006 C 
BRANCH   5   6
ATOM      6  C   UNL     1    -104.991 -85.985  37.345  1.00  0.00    -0.003 C 
ATOM      7  C   UNL     1    -105.153 -87.447  36.940  1.00  0.00     0.004 C 
ENDBRANCH   5   6
ENDBRANCH   1   5
TORSDOF 3
ENDMDL
MODEL 8
REMARK VINA RESULT:    -3.387      1.554      2.434
REMARK INTER + INTRA:          -4.003
REMARK INTER:                  -3.902
REMARK INTRA:                  -0.101
REMARK UNBOUND:                -0.023
REMARK SMILES CCCCC(=O)[O-]
REMARK SMILES IDX 4 1 5 2 6 3 7 4 3 5 2 6 1 7
REMARK H PARENT
REMARK Flexibility Score: inf
ROOT
ATOM      1  C   UNL     1    -104.461 -85.460  37.204  1.00  0.00     0.053 C 
ENDROOT
BRANCH   1   2
ATOM      2  C   UNL     1    -105.103 -86.420  36.254  1.00  0.00     0.041 C 
ATOM      3  O   UNL     1    -105.611 -86.005  35.179  1.00  0.00    -0.550 OA
ATOM      4  O   UNL     1    -105.185 -87.769  36.577  1.00  0.00    -0.550 OA
ENDBRANCH   1   2
BRANCH   1   5
ATOM      5  C   UNL     1    -104.973 -85.693  38.629  1.00  0.00     0.006 C 
BRANCH   5   6
ATOM      6  C   UNL     1    -103.806 -85.868  39.608  1.00  0.00    -0.003 C 
ATOM      7  C   UNL     1    -103.000 -87.123  39.287  1.00  0.00     0.004 C 
ENDBRANCH   5   6
ENDBRANCH   1   5
TORSDOF 3
ENDMDL
MODEL 9
REMARK VINA RESULT:    -3.283      2.214      3.714
REMARK INTER + INTRA:          -3.881
REMARK INTER:                  -3.849
REMARK INTRA:                  -0.033
REMARK UNBOUND:                -0.023
REMARK SMILES CCCCC(=O)[O-]
REMARK SMILES IDX 4 1 5 2 6 3 7 4 3 5 2 6 1 7
REMARK H PARENT
REMARK Flexibility Score: inf
ROOT
ATOM      1  C   UNL     1    -105.065 -86.326  37.339  1.00  0.00     0.053 C 
ENDROOT
BRANCH   1   2
ATOM      2  C   UNL     1    -104.695 -85.897  38.724  1.00  0.00     0.041 C 
ATOM      3  O   UNL     1    -103.717 -86.430  39.312  1.00  0.00    -0.550 OA
ATOM      4  O   UNL     1    -105.460 -84.945  39.386  1.00  0.00    -0.550 OA
ENDBRANCH   1   2
BRANCH   1   5
ATOM      5  C   UNL     1    -104.688 -85.243  36.324  1.00  0.00     0.006 C 
BRANCH   5   6
ATOM      6  C   UNL     1    -105.362 -85.500  34.972  1.00  0.00    -0.003 C 
ATOM      7  C   UNL     1    -105.814 -86.952  34.848  1.00  0.00     0.004 C 
ENDBRANCH   5   6
ENDBRANCH   1   5
TORSDOF 3
ENDMDL
