MODEL 1
REMARK VINA RESULT:    -4.320      0.000      0.000
REMARK INTER + INTRA:          -4.829
REMARK INTER:                  -4.825
REMARK INTRA:                  -0.004
REMARK UNBOUND:                -0.004
REMARK SMILES O=C([O-])c1ccccc1C(=O)[O-]
REMARK SMILES IDX 4 1 9 2 5 3 8 4 6 5 7 6 2 7 1 8 3 9 10 10 11 11 12 12
REMARK H PARENT
REMARK Flexibility Score: inf
ROOT
ATOM      1  C   UNL     1       4.937 -35.949  19.914  1.00  0.00     0.006 A 
ATOM      2  C   UNL     1       4.861 -35.621  21.297  1.00  0.00     0.006 A 
ATOM      3  C   UNL     1       4.996 -37.303  19.535  1.00  0.00     0.010 A 
ATOM      4  C   UNL     1       4.909 -36.656  22.249  1.00  0.00     0.010 A 
ATOM      5  C   UNL     1       5.021 -38.313  20.496  1.00  0.00     0.001 A 
ATOM      6  C   UNL     1       4.990 -37.991  21.850  1.00  0.00     0.001 A 
ENDROOT
BRANCH   1   7
ATOM      7  C   UNL     1       5.031 -34.926  18.847  1.00  0.00     0.072 C 
ATOM      8  O   UNL     1       6.007 -34.132  18.800  1.00  0.00    -0.545 OA
ATOM      9  O   UNL     1       4.071 -34.876  17.843  1.00  0.00    -0.545 OA
ENDBRANCH   1   7
BRANCH   2  10
ATOM     10  C   UNL     1       4.656 -34.236  21.779  1.00  0.00     0.072 C 
ATOM     11  O   UNL     1       5.459 -33.729  22.608  1.00  0.00    -0.545 OA
ATOM     12  O   UNL     1       3.546 -33.502  21.380  1.00  0.00    -0.545 OA
ENDBRANCH   2  10
TORSDOF 2
ENDMDL
MODEL 2
REMARK VINA RESULT:    -4.280      2.066      3.115
REMARK INTER + INTRA:          -4.784
REMARK INTER:                  -5.603
REMARK INTRA:                   0.819
REMARK UNBOUND:                -0.004
REMARK SMILES O=C([O-])c1ccccc1C(=O)[O-]
REMARK SMILES IDX 4 1 9 2 5 3 8 4 6 5 7 6 2 7 1 8 3 9 10 10 11 11 12 12
REMARK H PARENT
REMARK Flexibility Score: inf
ROOT
ATOM      1  C   UNL     1       5.187 -35.990  21.942  1.00  0.00     0.006 A 
ATOM      2  C   UNL     1       4.952 -34.588  21.884  1.00  0.00     0.006 A 
ATOM      3  C   UNL     1       5.755 -36.541  23.106  1.00  0.00     0.010 A 
ATOM      4  C   UNL     1       5.353 -33.781  22.965  1.00  0.00     0.010 A 
ATOM      5  C   UNL     1       6.125 -35.724  24.175  1.00  0.00     0.001 A 
ATOM      6  C   UNL     1       5.936 -34.347  24.101  1.00  0.00     0.001 A 
ENDROOT
BRANCH   1   7
ATOM      7  C   UNL     1       4.926 -36.900  20.802  1.00  0.00     0.072 C 
ATOM      8  O   UNL     1       5.371 -36.638  19.655  1.00  0.00    -0.545 OA
ATOM      9  O   UNL     1       4.238 -38.091  21.004  1.00  0.00    -0.545 OA
ENDBRANCH   1   7
BRANCH   2  10
ATOM     10  C   UNL     1       4.234 -33.944  20.760  1.00  0.00     0.072 C 
ATOM     11  O   UNL     1       4.633 -34.107  19.576  1.00  0.00    -0.545 OA
ATOM     12  O   UNL     1       3.154 -33.102  20.998  1.00  0.00    -0.545 OA
ENDBRANCH   2  10
TORSDOF 2
ENDMDL
MODEL 3
REMARK VINA RESULT:    -4.233      0.087      3.166
REMARK INTER + INTRA:          -4.732
REMARK INTER:                  -4.719
REMARK INTRA:                  -0.012
REMARK UNBOUND:                -0.004
REMARK SMILES O=C([O-])c1ccccc1C(=O)[O-]
REMARK SMILES IDX 4 1 9 2 5 3 8 4 6 5 7 6 2 7 1 8 3 9 10 10 11 11 12 12
REMARK H PARENT
REMARK Flexibility Score: inf
ROOT
ATOM      1  C   UNL     1       4.859 -35.660  21.295  1.00  0.00     0.006 A 
ATOM      2  C   UNL     1       4.931 -35.995  19.914  1.00  0.00     0.006 A 
ATOM      3  C   UNL     1       4.922 -36.689  22.253  1.00  0.00     0.010 A 
ATOM      4  C   UNL     1       4.999 -37.351  19.541  1.00  0.00     0.010 A 
ATOM      5  C   UNL     1       5.011 -38.024  21.861  1.00  0.00     0.001 A 
ATOM      6  C   UNL     1       5.037 -38.356  20.509  1.00  0.00     0.001 A 
ENDROOT
BRANCH   1   7
ATOM      7  C   UNL     1       4.649 -34.275  21.778  1.00  0.00     0.072 C 
ATOM      8  O   UNL     1       3.659 -33.601  21.390  1.00  0.00    -0.545 OA
ATOM      9  O   UNL     1       5.511 -33.728  22.721  1.00  0.00    -0.545 OA
ENDBRANCH   1   7
BRANCH   2  10
ATOM     10  C   UNL     1       5.013 -34.973  18.846  1.00  0.00     0.072 C 
ATOM     11  O   UNL     1       4.100 -34.885  17.981  1.00  0.00    -0.545 OA
ATOM     12  O   UNL     1       6.122 -34.142  18.742  1.00  0.00    -0.545 OA
ENDBRANCH   2  10
TORSDOF 2
ENDMDL
MODEL 4
REMARK VINA RESULT:    -4.224      0.165      0.943
REMARK INTER + INTRA:          -4.722
REMARK INTER:                  -4.675
REMARK INTRA:                  -0.047
REMARK UNBOUND:                -0.004
REMARK SMILES O=C([O-])c1ccccc1C(=O)[O-]
REMARK SMILES IDX 4 1 9 2 5 3 8 4 6 5 7 6 2 7 1 8 3 9 10 10 11 11 12 12
REMARK H PARENT
REMARK Flexibility Score: inf
ROOT
ATOM      1  C   UNL     1       4.940 -36.015  20.042  1.00  0.00     0.006 A 
ATOM      2  C   UNL     1       4.892 -35.639  21.414  1.00  0.00     0.006 A 
ATOM      3  C   UNL     1       5.017 -37.380  19.709  1.00  0.00     0.010 A 
ATOM      4  C   UNL     1       4.987 -36.638  22.401  1.00  0.00     0.010 A 
ATOM      5  C   UNL     1       5.089 -38.355  20.704  1.00  0.00     0.001 A 
ATOM      6  C   UNL     1       5.086 -37.985  22.047  1.00  0.00     0.001 A 
ENDROOT
BRANCH   1   7
ATOM      7  C   UNL     1       4.984 -35.029  18.937  1.00  0.00     0.072 C 
ATOM      8  O   UNL     1       4.023 -34.923  18.130  1.00  0.00    -0.545 OA
ATOM      9  O   UNL     1       6.063 -34.161  18.820  1.00  0.00    -0.545 OA
ENDBRANCH   1   7
BRANCH   2  10
ATOM     10  C   UNL     1       4.670 -34.242  21.852  1.00  0.00     0.072 C 
ATOM     11  O   UNL     1       5.471 -33.697  22.658  1.00  0.00    -0.545 OA
ATOM     12  O   UNL     1       3.548 -33.537  21.436  1.00  0.00    -0.545 OA
ENDBRANCH   2  10
TORSDOF 2
ENDMDL
MODEL 5
REMARK VINA RESULT:    -4.209      2.202      3.464
REMARK INTER + INTRA:          -4.705
REMARK INTER:                  -5.280
REMARK INTRA:                   0.575
REMARK UNBOUND:                -0.004
REMARK SMILES O=C([O-])c1ccccc1C(=O)[O-]
REMARK SMILES IDX 4 1 9 2 5 3 8 4 6 5 7 6 2 7 1 8 3 9 10 10 11 11 12 12
REMARK H PARENT
REMARK Flexibility Score: inf
ROOT
ATOM      1  C   UNL     1       5.251 -36.322  21.938  1.00  0.00     0.006 A 
ATOM      2  C   UNL     1       5.410 -34.965  21.540  1.00  0.00     0.006 A 
ATOM      3  C   UNL     1       5.403 -36.660  23.296  1.00  0.00     0.010 A 
ATOM      4  C   UNL     1       5.778 -34.008  22.505  1.00  0.00     0.010 A 
ATOM      5  C   UNL     1       5.746 -35.691  24.238  1.00  0.00     0.001 A 
ATOM      6  C   UNL     1       5.945 -34.370  23.843  1.00  0.00     0.001 A 
ENDROOT
BRANCH   1   7
ATOM      7  C   UNL     1       5.000 -37.420  20.975  1.00  0.00     0.072 C 
ATOM      8  O   UNL     1       4.624 -37.173  19.800  1.00  0.00    -0.545 OA
ATOM      9  O   UNL     1       5.243 -38.739  21.343  1.00  0.00    -0.545 OA
ENDBRANCH   1   7
BRANCH   2  10
ATOM     10  C   UNL     1       5.133 -34.498  20.163  1.00  0.00     0.072 C 
ATOM     11  O   UNL     1       3.976 -34.115  19.844  1.00  0.00    -0.545 OA
ATOM     12  O   UNL     1       6.123 -34.537  19.188  1.00  0.00    -0.545 OA
ENDBRANCH   2  10
TORSDOF 2
ENDMDL
MODEL 6
REMARK VINA RESULT:    -3.047      1.827      3.589
REMARK INTER + INTRA:          -3.407
REMARK INTER:                  -4.248
REMARK INTRA:                   0.841
REMARK UNBOUND:                -0.004
REMARK SMILES O=C([O-])c1ccccc1C(=O)[O-]
REMARK SMILES IDX 4 1 9 2 5 3 8 4 6 5 7 6 2 7 1 8 3 9 10 10 11 11 12 12
REMARK H PARENT
REMARK Flexibility Score: inf
ROOT
ATOM      1  C   UNL     1       5.200 -36.319  22.677  1.00  0.00     0.006 A 
ATOM      2  C   UNL     1       4.685 -35.363  21.758  1.00  0.00     0.006 A 
ATOM      3  C   UNL     1       5.510 -37.613  22.217  1.00  0.00     0.010 A 
ATOM      4  C   UNL     1       4.439 -35.754  20.429  1.00  0.00     0.010 A 
ATOM      5  C   UNL     1       5.278 -37.972  20.889  1.00  0.00     0.001 A 
ATOM      6  C   UNL     1       4.733 -37.050  20.000  1.00  0.00     0.001 A 
ENDROOT
BRANCH   1   7
ATOM      7  C   UNL     1       5.363 -36.042  24.123  1.00  0.00     0.072 C 
ATOM      8  O   UNL     1       6.125 -35.122  24.521  1.00  0.00    -0.545 OA
ATOM      9  O   UNL     1       4.620 -36.755  25.058  1.00  0.00    -0.545 OA
ENDBRANCH   1   7
BRANCH   2  10
ATOM     10  C   UNL     1       4.463 -33.945  22.121  1.00  0.00     0.072 C 
ATOM     11  O   UNL     1       3.440 -33.337  21.707  1.00  0.00    -0.545 OA
ATOM     12  O   UNL     1       5.407 -33.246  22.865  1.00  0.00    -0.545 OA
ENDBRANCH   2  10
TORSDOF 2
ENDMDL
MODEL 7
REMARK VINA RESULT:    -2.949      1.858      2.962
REMARK INTER + INTRA:          -3.298
REMARK INTER:                  -3.966
REMARK INTRA:                   0.668
REMARK UNBOUND:                -0.004
REMARK SMILES O=C([O-])c1ccccc1C(=O)[O-]
REMARK SMILES IDX 4 1 9 2 5 3 8 4 6 5 7 6 2 7 1 8 3 9 10 10 11 11 12 12
REMARK H PARENT
REMARK Flexibility Score: inf
ROOT
ATOM      1  C   UNL     1       4.738 -35.424  21.801  1.00  0.00     0.006 A 
ATOM      2  C   UNL     1       5.226 -36.371  22.745  1.00  0.00     0.006 A 
ATOM      3  C   UNL     1       4.539 -35.827  20.468  1.00  0.00     0.010 A 
ATOM      4  C   UNL     1       5.557 -37.666  22.305  1.00  0.00     0.010 A 
ATOM      5  C   UNL     1       4.854 -37.122  20.059  1.00  0.00     0.001 A 
ATOM      6  C   UNL     1       5.373 -38.037  20.972  1.00  0.00     0.001 A 
ENDROOT
BRANCH   1   7
ATOM      7  C   UNL     1       4.492 -34.002  22.140  1.00  0.00     0.072 C 
ATOM      8  O   UNL     1       5.372 -33.319  22.725  1.00  0.00    -0.545 OA
ATOM      9  O   UNL     1       3.307 -33.388  21.751  1.00  0.00    -0.545 OA
ENDBRANCH   1   7
BRANCH   2  10
ATOM     10  C   UNL     1       5.332 -36.076  24.192  1.00  0.00     0.072 C 
ATOM     11  O   UNL     1       4.656 -36.737  25.025  1.00  0.00    -0.545 OA
ATOM     12  O   UNL     1       6.125 -35.029  24.646  1.00  0.00    -0.545 OA
ENDBRANCH   2  10
TORSDOF 2
ENDMDL
MODEL 8
REMARK VINA RESULT:    -2.591      2.470      4.264
REMARK INTER + INTRA:          -2.898
REMARK INTER:                  -3.212
REMARK INTRA:                   0.314
REMARK UNBOUND:                -0.004
REMARK SMILES O=C([O-])c1ccccc1C(=O)[O-]
REMARK SMILES IDX 4 1 9 2 5 3 8 4 6 5 7 6 2 7 1 8 3 9 10 10 11 11 12 12
REMARK H PARENT
REMARK Flexibility Score: inf
ROOT
ATOM      1  C   UNL     1       5.021 -35.774  21.221  1.00  0.00     0.006 A 
ATOM      2  C   UNL     1       4.919 -36.821  20.263  1.00  0.00     0.006 A 
ATOM      3  C   UNL     1       4.913 -34.439  20.789  1.00  0.00     0.010 A 
ATOM      4  C   UNL     1       4.779 -36.492  18.902  1.00  0.00     0.010 A 
ATOM      5  C   UNL     1       4.753 -34.137  19.437  1.00  0.00     0.001 A 
ATOM      6  C   UNL     1       4.698 -35.160  18.493  1.00  0.00     0.001 A 
ENDROOT
BRANCH   1   7
ATOM      7  C   UNL     1       5.306 -36.017  22.654  1.00  0.00     0.072 C 
ATOM      8  O   UNL     1       5.937 -37.043  23.020  1.00  0.00    -0.545 OA
ATOM      9  O   UNL     1       4.935 -35.077  23.608  1.00  0.00    -0.545 OA
ENDBRANCH   1   7
BRANCH   2  10
ATOM     10  C   UNL     1       4.881 -38.252  20.643  1.00  0.00     0.072 C 
ATOM     11  O   UNL     1       5.816 -39.024  20.300  1.00  0.00    -0.545 OA
ATOM     12  O   UNL     1       3.788 -38.776  21.323  1.00  0.00    -0.545 OA
ENDBRANCH   2  10
TORSDOF 2
ENDMDL
