MODEL 1
REMARK VINA RESULT:    -4.230      0.000      0.000
REMARK INTER + INTRA:          -8.956
REMARK INTER:                  -7.445
REMARK INTRA:                  -1.511
REMARK UNBOUND:                -1.511
REMARK SMILES CCCCCCCCCCCCCCC(=O)[O-]
REMARK SMILES IDX 9 1 10 2 11 3 12 4 13 5 14 6 15 7 16 8 17 9 8 10 7 11 6 12
REMARK SMILES IDX 5 13 4 14 3 15 2 16 1 17
REMARK H PARENT
REMARK Flexibility Score: inf
ROOT
ATOM      1  C   UNL     1      15.283  29.879  69.608  1.00  0.00     0.000 C 
ENDROOT
BRANCH   1   2
ATOM      2  C   UNL     1      14.919  30.660  68.332  1.00  0.00     0.000 C 
BRANCH   2   3
ATOM      3  C   UNL     1      14.897  32.192  68.490  1.00  0.00     0.000 C 
BRANCH   3   4
ATOM      4  C   UNL     1      15.672  32.919  67.381  1.00  0.00     0.000 C 
BRANCH   4   5
ATOM      5  C   UNL     1      14.762  33.900  66.631  1.00  0.00     0.006 C 
BRANCH   5   6
ATOM      6  C   UNL     1      14.065  34.857  67.603  1.00  0.00     0.053 C 
BRANCH   6   7
ATOM      7  C   UNL     1      14.561  36.254  67.408  1.00  0.00     0.041 C 
ATOM      8  O   UNL     1      13.745  37.209  67.311  1.00  0.00    -0.550 OA
ATOM      9  O   UNL     1      15.927  36.512  67.384  1.00  0.00    -0.550 OA
ENDBRANCH   6   7
ENDBRANCH   5   6
ENDBRANCH   4   5
ENDBRANCH   3   4
ENDBRANCH   2   3
ENDBRANCH   1   2
BRANCH   1  10
ATOM     10  C   UNL     1      15.618  30.795  70.797  1.00  0.00     0.000 C 
BRANCH  10  11
ATOM     11  C   UNL     1      16.898  30.360  71.530  1.00  0.00    -0.000 C 
BRANCH  11  12
ATOM     12  C   UNL     1      18.003  29.907  70.559  1.00  0.00    -0.000 C 
BRANCH  12  13
ATOM     13  C   UNL     1      19.212  30.857  70.553  1.00  0.00    -0.000 C 
BRANCH  13  14
ATOM     14  C   UNL     1      19.894  30.945  69.176  1.00  0.00    -0.000 C 
BRANCH  14  15
ATOM     15  C   UNL     1      18.956  31.532  68.100  1.00  0.00    -0.000 C 
BRANCH  15  16
ATOM     16  C   UNL     1      18.724  30.591  66.906  1.00  0.00    -0.003 C 
ATOM     17  C   UNL     1      18.946  31.271  65.558  1.00  0.00     0.004 C 
ENDBRANCH  15  16
ENDBRANCH  14  15
ENDBRANCH  13  14
ENDBRANCH  12  13
ENDBRANCH  11  12
ENDBRANCH  10  11
ENDBRANCH   1  10
TORSDOF 13
ENDMDL
MODEL 2
REMARK VINA RESULT:    -4.191      1.922      5.076
REMARK INTER + INTRA:          -8.887
REMARK INTER:                  -7.546
REMARK INTRA:                  -1.341
REMARK UNBOUND:                -1.511
REMARK SMILES CCCCCCCCCCCCCCC(=O)[O-]
REMARK SMILES IDX 9 1 10 2 11 3 12 4 13 5 14 6 15 7 16 8 17 9 8 10 7 11 6 12
REMARK SMILES IDX 5 13 4 14 3 15 2 16 1 17
REMARK H PARENT
REMARK Flexibility Score: inf
ROOT
ATOM      1  C   UNL     1      17.986  30.979  70.914  1.00  0.00     0.000 C 
ENDROOT
BRANCH   1   2
ATOM      2  C   UNL     1      19.095  30.045  70.396  1.00  0.00     0.000 C 
BRANCH   2   3
ATOM      3  C   UNL     1      19.809  30.527  69.119  1.00  0.00     0.000 C 
BRANCH   3   4
ATOM      4  C   UNL     1      19.082  30.107  67.833  1.00  0.00     0.000 C 
BRANCH   4   5
ATOM      5  C   UNL     1      19.104  31.239  66.798  1.00  0.00     0.006 C 
BRANCH   5   6
ATOM      6  C   UNL     1      19.379  32.590  67.465  1.00  0.00     0.053 C 
BRANCH   6   7
ATOM      7  C   UNL     1      19.571  33.655  66.432  1.00  0.00     0.041 C 
ATOM      8  O   UNL     1      20.715  34.137  66.224  1.00  0.00    -0.550 OA
ATOM      9  O   UNL     1      18.494  34.082  65.663  1.00  0.00    -0.550 OA
ENDBRANCH   6   7
ENDBRANCH   5   6
ENDBRANCH   4   5
ENDBRANCH   3   4
ENDBRANCH   2   3
ENDBRANCH   1   2
BRANCH   1  10
ATOM     10  C   UNL     1      16.660  30.246  71.180  1.00  0.00     0.000 C 
BRANCH  10  11
ATOM     11  C   UNL     1      15.490  30.841  70.379  1.00  0.00    -0.000 C 
BRANCH  11  12
ATOM     12  C   UNL     1      15.938  31.397  69.015  1.00  0.00    -0.000 C 
BRANCH  12  13
ATOM     13  C   UNL     1      14.981  32.469  68.468  1.00  0.00    -0.000 C 
BRANCH  13  14
ATOM     14  C   UNL     1      15.625  33.342  67.377  1.00  0.00    -0.000 C 
BRANCH  14  15
ATOM     15  C   UNL     1      14.695  34.489  66.927  1.00  0.00    -0.000 C 
BRANCH  15  16
ATOM     16  C   UNL     1      15.266  35.889  67.206  1.00  0.00    -0.003 C 
ATOM     17  C   UNL     1      14.216  36.993  67.105  1.00  0.00     0.004 C 
ENDBRANCH  15  16
ENDBRANCH  14  15
ENDBRANCH  13  14
ENDBRANCH  12  13
ENDBRANCH  11  12
ENDBRANCH  10  11
ENDBRANCH   1  10
TORSDOF 13
ENDMDL
MODEL 3
REMARK VINA RESULT:    -4.153      2.335      5.338
REMARK INTER + INTRA:          -8.820
REMARK INTER:                  -7.302
REMARK INTRA:                  -1.518
REMARK UNBOUND:                -1.511
REMARK SMILES CCCCCCCCCCCCCCC(=O)[O-]
REMARK SMILES IDX 9 1 10 2 11 3 12 4 13 5 14 6 15 7 16 8 17 9 8 10 7 11 6 12
REMARK SMILES IDX 5 13 4 14 3 15 2 16 1 17
REMARK H PARENT
REMARK Flexibility Score: inf
ROOT
ATOM      1  C   UNL     1      16.738  29.930  71.352  1.00  0.00     0.000 C 
ENDROOT
BRANCH   1   2
ATOM      2  C   UNL     1      17.858  30.965  71.137  1.00  0.00     0.000 C 
BRANCH   2   3
ATOM      3  C   UNL     1      18.925  30.565  70.101  1.00  0.00     0.000 C 
BRANCH   3   4
ATOM      4  C   UNL     1      18.731  31.257  68.744  1.00  0.00     0.000 C 
BRANCH   4   5
ATOM      5  C   UNL     1      18.594  30.225  67.618  1.00  0.00     0.006 C 
BRANCH   5   6
ATOM      6  C   UNL     1      19.366  30.666  66.371  1.00  0.00     0.053 C 
BRANCH   6   7
ATOM      7  C   UNL     1      18.425  30.941  65.242  1.00  0.00     0.041 C 
ATOM      8  O   UNL     1      18.835  30.906  64.051  1.00  0.00    -0.550 OA
ATOM      9  O   UNL     1      17.081  31.188  65.499  1.00  0.00    -0.550 OA
ENDBRANCH   6   7
ENDBRANCH   5   6
ENDBRANCH   4   5
ENDBRANCH   3   4
ENDBRANCH   2   3
ENDBRANCH   1   2
BRANCH   1  10
ATOM     10  C   UNL     1      15.392  30.369  70.750  1.00  0.00     0.000 C 
BRANCH  10  11
ATOM     11  C   UNL     1      15.118  29.714  69.386  1.00  0.00    -0.000 C 
BRANCH  11  12
ATOM     12  C   UNL     1      14.999  30.751  68.254  1.00  0.00    -0.000 C 
BRANCH  12  13
ATOM     13  C   UNL     1      15.014  32.198  68.772  1.00  0.00    -0.000 C 
BRANCH  13  14
ATOM     14  C   UNL     1      15.073  33.237  67.637  1.00  0.00    -0.000 C 
BRANCH  14  15
ATOM     15  C   UNL     1      13.885  34.220  67.688  1.00  0.00    -0.000 C 
BRANCH  15  16
ATOM     16  C   UNL     1      14.289  35.686  67.461  1.00  0.00    -0.003 C 
ATOM     17  C   UNL     1      14.976  35.915  66.116  1.00  0.00     0.004 C 
ENDBRANCH  15  16
ENDBRANCH  14  15
ENDBRANCH  13  14
ENDBRANCH  12  13
ENDBRANCH  11  12
ENDBRANCH  10  11
ENDBRANCH   1  10
TORSDOF 13
ENDMDL
MODEL 4
REMARK VINA RESULT:    -4.125      1.785      4.442
REMARK INTER + INTRA:          -8.771
REMARK INTER:                  -7.124
REMARK INTRA:                  -1.646
REMARK UNBOUND:                -1.511
REMARK SMILES CCCCCCCCCCCCCCC(=O)[O-]
REMARK SMILES IDX 9 1 10 2 11 3 12 4 13 5 14 6 15 7 16 8 17 9 8 10 7 11 6 12
REMARK SMILES IDX 5 13 4 14 3 15 2 16 1 17
REMARK H PARENT
REMARK Flexibility Score: inf
ROOT
ATOM      1  C   UNL     1      18.991  31.928  66.673  1.00  0.00     0.000 C 
ENDROOT
BRANCH   1   2
ATOM      2  C   UNL     1      18.774  33.035  65.625  1.00  0.00     0.000 C 
BRANCH   2   3
ATOM      3  C   UNL     1      18.767  34.470  66.185  1.00  0.00     0.000 C 
BRANCH   3   4
ATOM      4  C   UNL     1      17.529  35.272  65.759  1.00  0.00     0.000 C 
BRANCH   4   5
ATOM      5  C   UNL     1      16.354  35.011  66.709  1.00  0.00     0.006 C 
BRANCH   5   6
ATOM      6  C   UNL     1      15.854  36.314  67.338  1.00  0.00     0.053 C 
BRANCH   6   7
ATOM      7  C   UNL     1      14.362  36.391  67.268  1.00  0.00     0.041 C 
ATOM      8  O   UNL     1      13.662  35.379  67.539  1.00  0.00    -0.550 OA
ATOM      9  O   UNL     1      13.739  37.593  66.953  1.00  0.00    -0.550 OA
ENDBRANCH   6   7
ENDBRANCH   5   6
ENDBRANCH   4   5
ENDBRANCH   3   4
ENDBRANCH   2   3
ENDBRANCH   1   2
BRANCH   1  10
ATOM     10  C   UNL     1      18.094  30.700  66.444  1.00  0.00     0.000 C 
BRANCH  10  11
ATOM     11  C   UNL     1      17.228  30.834  65.180  1.00  0.00    -0.000 C 
BRANCH  11  12
ATOM     12  C   UNL     1      15.760  30.446  65.435  1.00  0.00    -0.000 C 
BRANCH  12  13
ATOM     13  C   UNL     1      15.410  30.398  66.931  1.00  0.00    -0.000 C 
BRANCH  13  14
ATOM     14  C   UNL     1      14.635  31.642  67.402  1.00  0.00    -0.000 C 
BRANCH  14  15
ATOM     15  C   UNL     1      15.169  32.184  68.745  1.00  0.00    -0.000 C 
BRANCH  15  16
ATOM     16  C   UNL     1      16.093  31.199  69.482  1.00  0.00    -0.003 C 
ATOM     17  C   UNL     1      15.515  30.719  70.811  1.00  0.00     0.004 C 
ENDBRANCH  15  16
ENDBRANCH  14  15
ENDBRANCH  13  14
ENDBRANCH  12  13
ENDBRANCH  11  12
ENDBRANCH  10  11
ENDBRANCH   1  10
TORSDOF 13
ENDMDL
MODEL 5
REMARK VINA RESULT:    -4.123      1.615      2.490
REMARK INTER + INTRA:          -8.768
REMARK INTER:                  -6.734
REMARK INTRA:                  -2.034
REMARK UNBOUND:                -1.511
REMARK SMILES CCCCCCCCCCCCCCC(=O)[O-]
REMARK SMILES IDX 9 1 10 2 11 3 12 4 13 5 14 6 15 7 16 8 17 9 8 10 7 11 6 12
REMARK SMILES IDX 5 13 4 14 3 15 2 16 1 17
REMARK H PARENT
REMARK Flexibility Score: inf
ROOT
ATOM      1  C   UNL     1      16.551  30.146  71.123  1.00  0.00     0.000 C 
ENDROOT
BRANCH   1   2
ATOM      2  C   UNL     1      15.431  30.884  70.366  1.00  0.00     0.000 C 
BRANCH   2   3
ATOM      3  C   UNL     1      14.986  30.218  69.050  1.00  0.00     0.000 C 
BRANCH   3   4
ATOM      4  C   UNL     1      15.494  30.957  67.804  1.00  0.00     0.000 C 
BRANCH   4   5
ATOM      5  C   UNL     1      15.798  32.426  68.124  1.00  0.00     0.006 C 
BRANCH   5   6
ATOM      6  C   UNL     1      15.054  33.363  67.169  1.00  0.00     0.053 C 
BRANCH   6   7
ATOM      7  C   UNL     1      13.912  34.027  67.871  1.00  0.00     0.041 C 
ATOM      8  O   UNL     1      13.102  33.343  68.551  1.00  0.00    -0.550 OA
ATOM      9  O   UNL     1      13.769  35.409  67.818  1.00  0.00    -0.550 OA
ENDBRANCH   6   7
ENDBRANCH   5   6
ENDBRANCH   4   5
ENDBRANCH   3   4
ENDBRANCH   2   3
ENDBRANCH   1   2
BRANCH   1  10
ATOM     10  C   UNL     1      17.898  30.888  71.074  1.00  0.00     0.000 C 
BRANCH  10  11
ATOM     11  C   UNL     1      19.009  30.043  70.429  1.00  0.00    -0.000 C 
BRANCH  11  12
ATOM     12  C   UNL     1      18.734  29.753  68.942  1.00  0.00    -0.000 C 
BRANCH  12  13
ATOM     13  C   UNL     1      19.279  30.851  68.014  1.00  0.00    -0.000 C 
BRANCH  13  14
ATOM     14  C   UNL     1      19.043  30.544  66.524  1.00  0.00    -0.000 C 
BRANCH  14  15
ATOM     15  C   UNL     1      18.936  31.830  65.677  1.00  0.00    -0.000 C 
BRANCH  15  16
ATOM     16  C   UNL     1      19.349  33.102  66.435  1.00  0.00    -0.003 C 
ATOM     17  C   UNL     1      18.506  34.320  66.063  1.00  0.00     0.004 C 
ENDBRANCH  15  16
ENDBRANCH  14  15
ENDBRANCH  13  14
ENDBRANCH  12  13
ENDBRANCH  11  12
ENDBRANCH  10  11
ENDBRANCH   1  10
TORSDOF 13
ENDMDL
MODEL 6
REMARK VINA RESULT:    -4.114      2.542      5.690
REMARK INTER + INTRA:          -8.752
REMARK INTER:                  -6.569
REMARK INTRA:                  -2.183
REMARK UNBOUND:                -1.511
REMARK SMILES CCCCCCCCCCCCCCC(=O)[O-]
REMARK SMILES IDX 9 1 10 2 11 3 12 4 13 5 14 6 15 7 16 8 17 9 8 10 7 11 6 12
REMARK SMILES IDX 5 13 4 14 3 15 2 16 1 17
REMARK H PARENT
REMARK Flexibility Score: inf
ROOT
ATOM      1  C   UNL     1      15.700  30.884  70.383  1.00  0.00     0.000 C 
ENDROOT
BRANCH   1   2
ATOM      2  C   UNL     1      16.925  30.450  71.209  1.00  0.00     0.000 C 
BRANCH   2   3
ATOM      3  C   UNL     1      18.262  31.075  70.771  1.00  0.00     0.000 C 
BRANCH   3   4
ATOM      4  C   UNL     1      19.252  30.041  70.214  1.00  0.00     0.000 C 
BRANCH   4   5
ATOM      5  C   UNL     1      19.258  30.059  68.681  1.00  0.00     0.006 C 
BRANCH   5   6
ATOM      6  C   UNL     1      19.369  31.490  68.148  1.00  0.00     0.053 C 
BRANCH   6   7
ATOM      7  C   UNL     1      19.221  31.507  66.659  1.00  0.00     0.041 C 
ATOM      8  O   UNL     1      18.785  32.536  66.077  1.00  0.00    -0.550 OA
ATOM      9  O   UNL     1      19.609  30.405  65.907  1.00  0.00    -0.550 OA
ENDBRANCH   6   7
ENDBRANCH   5   6
ENDBRANCH   4   5
ENDBRANCH   3   4
ENDBRANCH   2   3
ENDBRANCH   1   2
BRANCH   1  10
ATOM     10  C   UNL     1      15.486  30.020  69.129  1.00  0.00     0.000 C 
BRANCH  10  11
ATOM     11  C   UNL     1      15.683  30.815  67.828  1.00  0.00    -0.000 C 
BRANCH  11  12
ATOM     12  C   UNL     1      15.869  32.321  68.085  1.00  0.00    -0.000 C 
BRANCH  12  13
ATOM     13  C   UNL     1      15.143  33.193  67.048  1.00  0.00    -0.000 C 
BRANCH  13  14
ATOM     14  C   UNL     1      13.615  33.013  67.083  1.00  0.00    -0.000 C 
BRANCH  14  15
ATOM     15  C   UNL     1      13.020  33.362  68.463  1.00  0.00    -0.000 C 
BRANCH  15  16
ATOM     16  C   UNL     1      12.012  32.322  68.979  1.00  0.00    -0.003 C 
ATOM     17  C   UNL     1      11.986  31.047  68.140  1.00  0.00     0.004 C 
ENDBRANCH  15  16
ENDBRANCH  14  15
ENDBRANCH  13  14
ENDBRANCH  12  13
ENDBRANCH  11  12
ENDBRANCH  10  11
ENDBRANCH   1  10
TORSDOF 13
ENDMDL
MODEL 7
REMARK VINA RESULT:    -4.095      2.570      4.940
REMARK INTER + INTRA:          -8.718
REMARK INTER:                  -7.280
REMARK INTRA:                  -1.438
REMARK UNBOUND:                -1.511
REMARK SMILES CCCCCCCCCCCCCCC(=O)[O-]
REMARK SMILES IDX 9 1 10 2 11 3 12 4 13 5 14 6 15 7 16 8 17 9 8 10 7 11 6 12
REMARK SMILES IDX 5 13 4 14 3 15 2 16 1 17
REMARK H PARENT
REMARK Flexibility Score: inf
ROOT
ATOM      1  C   UNL     1      13.842  35.343  67.777  1.00  0.00     0.000 C 
ENDROOT
BRANCH   1   2
ATOM      2  C   UNL     1      14.505  36.459  66.948  1.00  0.00     0.000 C 
BRANCH   2   3
ATOM      3  C   UNL     1      15.419  35.969  65.810  1.00  0.00     0.000 C 
BRANCH   3   4
ATOM      4  C   UNL     1      16.912  36.085  66.150  1.00  0.00     0.000 C 
BRANCH   4   5
ATOM      5  C   UNL     1      17.557  34.698  66.260  1.00  0.00     0.006 C 
BRANCH   5   6
ATOM      6  C   UNL     1      18.824  34.610  65.404  1.00  0.00     0.053 C 
BRANCH   6   7
ATOM      7  C   UNL     1      20.040  34.549  66.274  1.00  0.00     0.041 C 
ATOM      8  O   UNL     1      20.056  33.803  67.289  1.00  0.00    -0.550 OA
ATOM      9  O   UNL     1      21.175  35.276  65.938  1.00  0.00    -0.550 OA
ENDBRANCH   6   7
ENDBRANCH   5   6
ENDBRANCH   4   5
ENDBRANCH   3   4
ENDBRANCH   2   3
ENDBRANCH   1   2
BRANCH   1  10
ATOM     10  C   UNL     1      14.043  33.945  67.169  1.00  0.00     0.000 C 
BRANCH  10  11
ATOM     11  C   UNL     1      14.900  33.034  68.063  1.00  0.00    -0.000 C 
BRANCH  11  12
ATOM     12  C   UNL     1      15.005  31.602  67.508  1.00  0.00    -0.000 C 
BRANCH  12  13
ATOM     13  C   UNL     1      16.263  31.391  66.649  1.00  0.00    -0.000 C 
BRANCH  13  14
ATOM     14  C   UNL     1      17.519  31.102  67.491  1.00  0.00    -0.000 C 
BRANCH  14  15
ATOM     15  C   UNL     1      17.198  30.249  68.737  1.00  0.00    -0.000 C 
BRANCH  15  16
ATOM     16  C   UNL     1      17.670  30.885  70.055  1.00  0.00    -0.003 C 
ATOM     17  C   UNL     1      16.661  30.726  71.190  1.00  0.00     0.004 C 
ENDBRANCH  15  16
ENDBRANCH  14  15
ENDBRANCH  13  14
ENDBRANCH  12  13
ENDBRANCH  11  12
ENDBRANCH  10  11
ENDBRANCH   1  10
TORSDOF 13
ENDMDL
MODEL 8
REMARK VINA RESULT:    -4.081      1.804      4.219
REMARK INTER + INTRA:          -8.694
REMARK INTER:                  -6.867
REMARK INTRA:                  -1.827
REMARK UNBOUND:                -1.511
REMARK SMILES CCCCCCCCCCCCCCC(=O)[O-]
REMARK SMILES IDX 9 1 10 2 11 3 12 4 13 5 14 6 15 7 16 8 17 9 8 10 7 11 6 12
REMARK SMILES IDX 5 13 4 14 3 15 2 16 1 17
REMARK H PARENT
REMARK Flexibility Score: inf
ROOT
ATOM      1  C   UNL     1      19.198  31.184  69.063  1.00  0.00     0.000 C 
ENDROOT
BRANCH   1   2
ATOM      2  C   UNL     1      18.497  30.179  68.130  1.00  0.00     0.000 C 
BRANCH   2   3
ATOM      3  C   UNL     1      18.097  30.738  66.752  1.00  0.00     0.000 C 
BRANCH   3   4
ATOM      4  C   UNL     1      19.303  31.194  65.918  1.00  0.00     0.000 C 
BRANCH   4   5
ATOM      5  C   UNL     1      19.003  32.513  65.196  1.00  0.00     0.006 C 
BRANCH   5   6
ATOM      6  C   UNL     1      19.741  33.681  65.856  1.00  0.00     0.053 C 
BRANCH   6   7
ATOM      7  C   UNL     1      19.083  34.979  65.510  1.00  0.00     0.041 C 
ATOM      8  O   UNL     1      17.833  35.102  65.609  1.00  0.00    -0.550 OA
ATOM      9  O   UNL     1      19.852  36.070  65.124  1.00  0.00    -0.550 OA
ENDBRANCH   6   7
ENDBRANCH   5   6
ENDBRANCH   4   5
ENDBRANCH   3   4
ENDBRANCH   2   3
ENDBRANCH   1   2
BRANCH   1  10
ATOM     10  C   UNL     1      18.856  30.964  70.547  1.00  0.00     0.000 C 
BRANCH  10  11
ATOM     11  C   UNL     1      17.972  29.726  70.768  1.00  0.00    -0.000 C 
BRANCH  11  12
ATOM     12  C   UNL     1      16.684  30.058  71.543  1.00  0.00    -0.000 C 
BRANCH  12  13
ATOM     13  C   UNL     1      15.707  30.919  70.727  1.00  0.00    -0.000 C 
BRANCH  13  14
ATOM     14  C   UNL     1      15.004  30.126  69.610  1.00  0.00    -0.000 C 
BRANCH  14  15
ATOM     15  C   UNL     1      14.702  31.004  68.377  1.00  0.00    -0.000 C 
BRANCH  15  16
ATOM     16  C   UNL     1      15.058  32.487  68.576  1.00  0.00    -0.003 C 
ATOM     17  C   UNL     1      15.484  33.178  67.283  1.00  0.00     0.004 C 
ENDBRANCH  15  16
ENDBRANCH  14  15
ENDBRANCH  13  14
ENDBRANCH  12  13
ENDBRANCH  11  12
ENDBRANCH  10  11
ENDBRANCH   1  10
TORSDOF 13
ENDMDL
MODEL 9
REMARK VINA RESULT:    -4.076      1.587      4.057
REMARK INTER + INTRA:          -8.684
REMARK INTER:                  -7.021
REMARK INTRA:                  -1.663
REMARK UNBOUND:                -1.511
REMARK SMILES CCCCCCCCCCCCCCC(=O)[O-]
REMARK SMILES IDX 9 1 10 2 11 3 12 4 13 5 14 6 15 7 16 8 17 9 8 10 7 11 6 12
REMARK SMILES IDX 5 13 4 14 3 15 2 16 1 17
REMARK H PARENT
REMARK Flexibility Score: inf
ROOT
ATOM      1  C   UNL     1      18.067  31.098  64.037  1.00  0.00     0.000 C 
ENDROOT
BRANCH   1   2
ATOM      2  C   UNL     1      16.691  30.509  64.398  1.00  0.00     0.000 C 
BRANCH   2   3
ATOM      3  C   UNL     1      16.297  30.635  65.882  1.00  0.00     0.000 C 
BRANCH   3   4
ATOM      4  C   UNL     1      14.990  31.414  66.090  1.00  0.00     0.000 C 
BRANCH   4   5
ATOM      5  C   UNL     1      15.044  32.240  67.381  1.00  0.00     0.006 C 
BRANCH   5   6
ATOM      6  C   UNL     1      15.338  33.712  67.080  1.00  0.00     0.053 C 
BRANCH   6   7
ATOM      7  C   UNL     1      14.194  34.573  67.514  1.00  0.00     0.041 C 
ATOM      8  O   UNL     1      13.062  34.063  67.727  1.00  0.00    -0.550 OA
ATOM      9  O   UNL     1      14.389  35.932  67.733  1.00  0.00    -0.550 OA
ENDBRANCH   6   7
ENDBRANCH   5   6
ENDBRANCH   4   5
ENDBRANCH   3   4
ENDBRANCH   2   3
ENDBRANCH   1   2
BRANCH   1  10
ATOM     10  C   UNL     1      19.049  31.098  65.221  1.00  0.00     0.000 C 
BRANCH  10  11
ATOM     11  C   UNL     1      19.402  32.519  65.690  1.00  0.00    -0.000 C 
BRANCH  11  12
ATOM     12  C   UNL     1      19.077  32.741  67.179  1.00  0.00    -0.000 C 
BRANCH  12  13
ATOM     13  C   UNL     1      19.299  31.479  68.028  1.00  0.00    -0.000 C 
BRANCH  13  14
ATOM     14  C   UNL     1      18.110  31.166  68.954  1.00  0.00    -0.000 C 
BRANCH  14  15
ATOM     15  C   UNL     1      18.566  30.836  70.391  1.00  0.00    -0.000 C 
BRANCH  15  16
ATOM     16  C   UNL     1      17.415  30.814  71.411  1.00  0.00    -0.003 C 
ATOM     17  C   UNL     1      16.037  30.780  70.756  1.00  0.00     0.004 C 
ENDBRANCH  15  16
ENDBRANCH  14  15
ENDBRANCH  13  14
ENDBRANCH  12  13
ENDBRANCH  11  12
ENDBRANCH  10  11
ENDBRANCH   1  10
TORSDOF 13
ENDMDL
