MODEL 1
REMARK VINA RESULT:    -6.605      0.000      0.000
REMARK INTER + INTRA:         -11.771
REMARK INTER:                  -9.887
REMARK INTRA:                  -1.884
REMARK UNBOUND:                -1.884
REMARK SMILES O=c1c(O[C@@H]2O[C@H](CO)[C@H](O)[C@H](O)[C@H]2O)c(-c2cc(O)c(O)c(O)c2)oc2cc(O)cc(O)c12
REMARK SMILES IDX 4 1 3 2 16 3 26 4 2 5 27 6 1 7 34 8 28 9 32 10 29 11 31 12
REMARK SMILES IDX 17 13 18 14 19 15 25 16 21 17 23 18 20 19 22 21 24 23 33 25
REMARK SMILES IDX 30 27 5 29 14 30 6 31 12 32 7 33 10 34 15 35 13 37 8 39 9 40
REMARK SMILES IDX 11 42
REMARK H PARENT 20 20 22 22 24 24 33 26 30 28 15 36 13 38 9 41 11 43
REMARK Flexibility Score: inf
ROOT
ATOM      1  O   UNL     1       8.958  85.101  81.504  1.00  0.00    -0.454 OA
ENDROOT
BRANCH   1   2
ATOM      2  C   UNL     1       9.390  86.033  80.538  1.00  0.00     0.214 A 
ATOM      3  C   UNL     1       8.858  85.944  79.239  1.00  0.00     0.181 A 
ATOM      4  O   UNL     1       9.179  86.846  78.322  1.00  0.00    -0.452 OA
ATOM      5  C   UNL     1      10.311  87.068  80.815  1.00  0.00     0.239 A 
ATOM      6  C   UNL     1      10.037  87.834  78.537  1.00  0.00     0.146 A 
ATOM      7  O   UNL     1      10.771  87.193  81.977  1.00  0.00    -0.285 OA
ATOM      8  C   UNL     1      10.687  87.971  79.790  1.00  0.00     0.111 A 
ATOM      9  C   UNL     1      10.280  88.743  77.505  1.00  0.00     0.094 A 
ATOM     10  C   UNL     1      11.641  89.024  79.947  1.00  0.00     0.134 A 
ATOM     11  C   UNL     1      11.165  89.805  77.694  1.00  0.00     0.123 A 
ATOM     12  C   UNL     1      11.835  89.942  78.908  1.00  0.00     0.093 A 
BRANCH   3  13
ATOM     13  C   UNL     1       7.890  84.891  78.865  1.00  0.00     0.029 A 
ATOM     14  C   UNL     1       6.507  85.128  78.909  1.00  0.00     0.062 A 
ATOM     15  C   UNL     1       5.600  84.121  78.553  1.00  0.00     0.162 A 
ATOM     16  C   UNL     1       8.355  83.620  78.499  1.00  0.00     0.062 A 
ATOM     17  C   UNL     1       6.074  82.857  78.164  1.00  0.00     0.200 A 
ATOM     18  C   UNL     1       7.459  82.608  78.143  1.00  0.00     0.162 A 
BRANCH  15  19
ATOM     19  O   UNL     1       4.229  84.372  78.590  1.00  0.00    -0.504 OA
ATOM     20  H   UNL     1       3.755  84.845  77.829  1.00  0.00     0.293 HD
ENDBRANCH  15  19
BRANCH  17  21
ATOM     21  O   UNL     1       5.186  81.843  77.802  1.00  0.00    -0.502 OA
ATOM     22  H   UNL     1       5.135  80.965  78.306  1.00  0.00     0.293 HD
ENDBRANCH  17  21
BRANCH  18  23
ATOM     23  O   UNL     1       7.960  81.361  77.770  1.00  0.00    -0.504 OA
ATOM     24  H   UNL     1       7.537  80.494  78.081  1.00  0.00     0.293 HD
ENDBRANCH  18  23
ENDBRANCH   3  13
BRANCH  10  25
ATOM     25  O   UNL     1      12.437  89.192  81.084  1.00  0.00    -0.507 OA
ATOM     26  H   UNL     1      12.812  88.438  81.639  1.00  0.00     0.293 HD
ENDBRANCH  10  25
BRANCH  11  27
ATOM     27  O   UNL     1      11.395  90.728  76.675  1.00  0.00    -0.508 OA
ATOM     28  H   UNL     1      10.888  90.687  75.798  1.00  0.00     0.293 HD
ENDBRANCH  11  27
ENDBRANCH   1   2
BRANCH   1  29
ATOM     29  C   UNL     1       8.076  85.362  82.601  1.00  0.00     0.339 C 
ATOM     30  C   UNL     1       6.769  84.561  82.434  1.00  0.00     0.214 C 
ATOM     31  O   UNL     1       8.703  85.130  83.857  1.00  0.00    -0.332 OA
ATOM     32  C   UNL     1       6.986  83.061  82.686  1.00  0.00     0.180 C 
ATOM     33  C   UNL     1       8.998  83.765  84.125  1.00  0.00     0.179 C 
ATOM     34  C   UNL     1       7.755  82.841  84.001  1.00  0.00     0.177 C 
BRANCH  30  35
ATOM     35  O   UNL     1       5.750  85.068  83.262  1.00  0.00    -0.384 OA
ATOM     36  H   UNL     1       5.816  86.058  83.266  1.00  0.00     0.211 HD
ENDBRANCH  30  35
BRANCH  32  37
ATOM     37  O   UNL     1       7.675  82.498  81.598  1.00  0.00    -0.387 OA
ATOM     38  H   UNL     1       7.785  81.531  81.790  1.00  0.00     0.211 HD
ENDBRANCH  32  37
BRANCH  33  39
ATOM     39  C   UNL     1      10.254  83.281  83.366  1.00  0.00     0.191 C 
BRANCH  39  40
ATOM     40  O   UNL     1      11.209  84.305  83.272  1.00  0.00    -0.394 OA
ATOM     41  H   UNL     1      12.095  83.865  83.201  1.00  0.00     0.210 HD
ENDBRANCH  39  40
ENDBRANCH  33  39
BRANCH  34  42
ATOM     42  O   UNL     1       8.112  81.488  84.124  1.00  0.00    -0.387 OA
ATOM     43  H   UNL     1       8.320  81.161  83.209  1.00  0.00     0.211 HD
ENDBRANCH  34  42
ENDBRANCH   1  29
TORSDOF 13
ENDMDL
MODEL 2
REMARK VINA RESULT:    -6.336      2.021      6.399
REMARK INTER + INTRA:         -11.369
REMARK INTER:                  -9.819
REMARK INTRA:                  -1.549
REMARK UNBOUND:                -1.884
REMARK SMILES O=c1c(O[C@@H]2O[C@H](CO)[C@H](O)[C@H](O)[C@H]2O)c(-c2cc(O)c(O)c(O)c2)oc2cc(O)cc(O)c12
REMARK SMILES IDX 4 1 3 2 16 3 26 4 2 5 27 6 1 7 34 8 28 9 32 10 29 11 31 12
REMARK SMILES IDX 17 13 18 14 19 15 25 16 21 17 23 18 20 19 22 21 24 23 33 25
REMARK SMILES IDX 30 27 5 29 14 30 6 31 12 32 7 33 10 34 15 35 13 37 8 39 9 40
REMARK SMILES IDX 11 42
REMARK H PARENT 20 20 22 22 24 24 33 26 30 28 15 36 13 38 9 41 11 43
REMARK Flexibility Score: inf
ROOT
ATOM      1  O   UNL     1       8.691  85.809  81.454  1.00  0.00    -0.454 OA
ENDROOT
BRANCH   1   2
ATOM      2  C   UNL     1       7.821  85.254  80.493  1.00  0.00     0.214 A 
ATOM      3  C   UNL     1       8.170  85.364  79.134  1.00  0.00     0.181 A 
ATOM      4  O   UNL     1       7.419  84.790  78.203  1.00  0.00    -0.452 OA
ATOM      5  C   UNL     1       6.631  84.569  80.826  1.00  0.00     0.239 A 
ATOM      6  C   UNL     1       6.297  84.137  78.469  1.00  0.00     0.146 A 
ATOM      7  O   UNL     1       6.317  84.423  82.033  1.00  0.00    -0.285 OA
ATOM      8  C   UNL     1       5.815  84.031  79.799  1.00  0.00     0.111 A 
ATOM      9  C   UNL     1       5.601  83.548  77.411  1.00  0.00     0.094 A 
ATOM     10  C   UNL     1       4.573  83.361  80.019  1.00  0.00     0.134 A 
ATOM     11  C   UNL     1       4.421  82.841  77.648  1.00  0.00     0.123 A 
ATOM     12  C   UNL     1       3.918  82.748  78.944  1.00  0.00     0.093 A 
BRANCH   3  13
ATOM     13  C   UNL     1       9.397  86.064  78.699  1.00  0.00     0.029 A 
ATOM     14  C   UNL     1      10.663  85.488  78.879  1.00  0.00     0.062 A 
ATOM     15  C   UNL     1      11.819  86.163  78.463  1.00  0.00     0.162 A 
ATOM     16  C   UNL     1       9.302  87.345  78.136  1.00  0.00     0.062 A 
ATOM     17  C   UNL     1      11.714  87.435  77.877  1.00  0.00     0.200 A 
ATOM     18  C   UNL     1      10.448  88.028  77.720  1.00  0.00     0.162 A 
BRANCH  15  19
ATOM     19  O   UNL     1      13.071  85.574  78.636  1.00  0.00    -0.504 OA
ATOM     20  H   UNL     1      13.413  84.857  78.005  1.00  0.00     0.293 HD
ENDBRANCH  15  19
BRANCH  17  21
ATOM     21  O   UNL     1      12.854  88.121  77.454  1.00  0.00    -0.502 OA
ATOM     22  H   UNL     1      13.344  87.878  76.601  1.00  0.00     0.293 HD
ENDBRANCH  17  21
BRANCH  18  23
ATOM     23  O   UNL     1      10.312  89.293  77.149  1.00  0.00    -0.504 OA
ATOM     24  H   UNL     1       9.486  89.564  76.629  1.00  0.00     0.293 HD
ENDBRANCH  18  23
ENDBRANCH   3  13
BRANCH  10  25
ATOM     25  O   UNL     1       3.931  83.295  81.259  1.00  0.00    -0.507 OA
ATOM     26  H   UNL     1       4.164  83.866  82.058  1.00  0.00     0.293 HD
ENDBRANCH  10  25
BRANCH  11  27
ATOM     27  O   UNL     1       3.735  82.233  76.599  1.00  0.00    -0.508 OA
ATOM     28  H   UNL     1       3.699  81.225  76.501  1.00  0.00     0.293 HD
ENDBRANCH  11  27
ENDBRANCH   1   2
BRANCH   1  29
ATOM     29  C   UNL     1       9.497  85.085  82.388  1.00  0.00     0.339 C 
ATOM     30  C   UNL     1      10.992  85.295  82.074  1.00  0.00     0.214 C 
ATOM     31  O   UNL     1       9.171  85.406  83.736  1.00  0.00    -0.332 OA
ATOM     32  C   UNL     1      11.457  86.712  82.444  1.00  0.00     0.180 C 
ATOM     33  C   UNL     1       9.511  86.730  84.125  1.00  0.00     0.179 C 
ATOM     34  C   UNL     1      11.004  87.073  83.870  1.00  0.00     0.177 C 
BRANCH  30  35
ATOM     35  O   UNL     1      11.789  84.323  82.709  1.00  0.00    -0.384 OA
ATOM     36  H   UNL     1      11.462  84.211  83.639  1.00  0.00     0.211 HD
ENDBRANCH  30  35
BRANCH  32  37
ATOM     37  O   UNL     1      10.952  87.629  81.507  1.00  0.00    -0.387 OA
ATOM     38  H   UNL     1      11.474  88.468  81.606  1.00  0.00     0.211 HD
ENDBRANCH  32  37
BRANCH  33  39
ATOM     39  C   UNL     1       8.498  87.770  83.593  1.00  0.00     0.191 C 
BRANCH  39  40
ATOM     40  O   UNL     1       7.229  87.196  83.428  1.00  0.00    -0.394 OA
ATOM     41  H   UNL     1       7.131  86.991  82.462  1.00  0.00     0.210 HD
ENDBRANCH  39  40
ENDBRANCH  33  39
BRANCH  34  42
ATOM     42  O   UNL     1      11.267  88.429  84.125  1.00  0.00    -0.387 OA
ATOM     43  H   UNL     1      10.415  88.833  84.440  1.00  0.00     0.211 HD
ENDBRANCH  34  42
ENDBRANCH   1  29
TORSDOF 13
ENDMDL
MODEL 3
REMARK VINA RESULT:    -6.095      2.047      3.601
REMARK INTER + INTRA:         -11.008
REMARK INTER:                  -9.414
REMARK INTRA:                  -1.594
REMARK UNBOUND:                -1.884
REMARK SMILES O=c1c(O[C@@H]2O[C@H](CO)[C@H](O)[C@H](O)[C@H]2O)c(-c2cc(O)c(O)c(O)c2)oc2cc(O)cc(O)c12
REMARK SMILES IDX 4 1 3 2 16 3 26 4 2 5 27 6 1 7 34 8 28 9 32 10 29 11 31 12
REMARK SMILES IDX 17 13 18 14 19 15 25 16 21 17 23 18 20 19 22 21 24 23 33 25
REMARK SMILES IDX 30 27 5 29 14 30 6 31 12 32 7 33 10 34 15 35 13 37 8 39 9 40
REMARK SMILES IDX 11 42
REMARK H PARENT 20 20 22 22 24 24 33 26 30 28 15 36 13 38 9 41 11 43
REMARK Flexibility Score: inf
ROOT
ATOM      1  O   UNL     1       9.142  86.201  80.076  1.00  0.00    -0.454 OA
ENDROOT
BRANCH   1   2
ATOM      2  C   UNL     1       8.741  86.993  78.980  1.00  0.00     0.214 A 
ATOM      3  C   UNL     1       7.510  86.705  78.363  1.00  0.00     0.181 A 
ATOM      4  O   UNL     1       7.060  87.472  77.380  1.00  0.00    -0.452 OA
ATOM      5  C   UNL     1       9.499  88.079  78.488  1.00  0.00     0.239 A 
ATOM      6  C   UNL     1       7.736  88.501  76.887  1.00  0.00     0.146 A 
ATOM      7  O   UNL     1      10.583  88.382  79.046  1.00  0.00    -0.285 OA
ATOM      8  C   UNL     1       9.020  88.833  77.387  1.00  0.00     0.111 A 
ATOM      9  C   UNL     1       7.151  89.256  75.868  1.00  0.00     0.094 A 
ATOM     10  C   UNL     1       9.724  89.919  76.782  1.00  0.00     0.134 A 
ATOM     11  C   UNL     1       7.823  90.355  75.329  1.00  0.00     0.123 A 
ATOM     12  C   UNL     1       9.097  90.681  75.789  1.00  0.00     0.093 A 
BRANCH   3  13
ATOM     13  C   UNL     1       6.655  85.587  78.816  1.00  0.00     0.029 A 
ATOM     14  C   UNL     1       6.201  85.511  80.141  1.00  0.00     0.062 A 
ATOM     15  C   UNL     1       5.392  84.445  80.557  1.00  0.00     0.162 A 
ATOM     16  C   UNL     1       6.325  84.560  77.919  1.00  0.00     0.062 A 
ATOM     17  C   UNL     1       5.045  83.433  79.647  1.00  0.00     0.200 A 
ATOM     18  C   UNL     1       5.520  83.491  78.325  1.00  0.00     0.162 A 
BRANCH  15  19
ATOM     19  O   UNL     1       4.937  84.388  81.874  1.00  0.00    -0.504 OA
ATOM     20  H   UNL     1       5.568  84.499  82.660  1.00  0.00     0.293 HD
ENDBRANCH  15  19
BRANCH  17  21
ATOM     21  O   UNL     1       4.237  82.365  80.043  1.00  0.00    -0.502 OA
ATOM     22  H   UNL     1       3.692  82.389  80.897  1.00  0.00     0.293 HD
ENDBRANCH  17  21
BRANCH  18  23
ATOM     23  O   UNL     1       5.201  82.497  77.401  1.00  0.00    -0.504 OA
ATOM     24  H   UNL     1       4.308  82.018  77.411  1.00  0.00     0.293 HD
ENDBRANCH  18  23
ENDBRANCH   3  13
BRANCH  10  25
ATOM     25  O   UNL     1      11.040  90.269  77.097  1.00  0.00    -0.507 OA
ATOM     26  H   UNL     1      11.304  90.913  77.827  1.00  0.00     0.293 HD
ENDBRANCH  10  25
BRANCH  11  27
ATOM     27  O   UNL     1       7.235  91.125  74.327  1.00  0.00    -0.508 OA
ATOM     28  H   UNL     1       7.004  90.732  73.422  1.00  0.00     0.293 HD
ENDBRANCH  11  27
ENDBRANCH   1   2
BRANCH   1  29
ATOM     29  C   UNL     1       9.970  85.035  80.023  1.00  0.00     0.339 C 
ATOM     30  C   UNL     1      11.453  85.428  80.181  1.00  0.00     0.214 C 
ATOM     31  O   UNL     1       9.563  84.047  80.962  1.00  0.00    -0.332 OA
ATOM     32  C   UNL     1      11.777  85.854  81.621  1.00  0.00     0.180 C 
ATOM     33  C   UNL     1       9.769  84.408  82.322  1.00  0.00     0.179 C 
ATOM     34  C   UNL     1      11.236  84.820  82.625  1.00  0.00     0.177 C 
BRANCH  30  35
ATOM     35  O   UNL     1      12.304  84.389  79.761  1.00  0.00    -0.384 OA
ATOM     36  H   UNL     1      12.518  84.529  78.802  1.00  0.00     0.211 HD
ENDBRANCH  30  35
BRANCH  32  37
ATOM     37  O   UNL     1      11.232  87.127  81.866  1.00  0.00    -0.387 OA
ATOM     38  H   UNL     1      11.057  87.546  80.984  1.00  0.00     0.211 HD
ENDBRANCH  32  37
BRANCH  33  39
ATOM     39  C   UNL     1       8.692  85.392  82.833  1.00  0.00     0.191 C 
BRANCH  39  40
ATOM     40  O   UNL     1       7.573  84.702  83.322  1.00  0.00    -0.394 OA
ATOM     41  H   UNL     1       6.792  85.304  83.207  1.00  0.00     0.210 HD
ENDBRANCH  39  40
ENDBRANCH  33  39
BRANCH  34  42
ATOM     42  O   UNL     1      11.369  85.311  83.934  1.00  0.00    -0.387 OA
ATOM     43  H   UNL     1      12.031  86.050  83.898  1.00  0.00     0.211 HD
ENDBRANCH  34  42
ENDBRANCH   1  29
TORSDOF 13
ENDMDL
MODEL 4
REMARK VINA RESULT:    -6.000      2.538      4.204
REMARK INTER + INTRA:         -10.866
REMARK INTER:                  -9.429
REMARK INTRA:                  -1.437
REMARK UNBOUND:                -1.884
REMARK SMILES O=c1c(O[C@@H]2O[C@H](CO)[C@H](O)[C@H](O)[C@H]2O)c(-c2cc(O)c(O)c(O)c2)oc2cc(O)cc(O)c12
REMARK SMILES IDX 4 1 3 2 16 3 26 4 2 5 27 6 1 7 34 8 28 9 32 10 29 11 31 12
REMARK SMILES IDX 17 13 18 14 19 15 25 16 21 17 23 18 20 19 22 21 24 23 33 25
REMARK SMILES IDX 30 27 5 29 14 30 6 31 12 32 7 33 10 34 15 35 13 37 8 39 9 40
REMARK SMILES IDX 11 42
REMARK H PARENT 20 20 22 22 24 24 33 26 30 28 15 36 13 38 9 41 11 43
REMARK Flexibility Score: inf
ROOT
ATOM      1  O   UNL     1       9.302  86.643  79.776  1.00  0.00    -0.454 OA
ENDROOT
BRANCH   1   2
ATOM      2  C   UNL     1       8.499  87.325  78.839  1.00  0.00     0.214 A 
ATOM      3  C   UNL     1       7.157  86.927  78.695  1.00  0.00     0.181 A 
ATOM      4  O   UNL     1       6.347  87.591  77.881  1.00  0.00    -0.452 OA
ATOM      5  C   UNL     1       8.965  88.405  78.057  1.00  0.00     0.239 A 
ATOM      6  C   UNL     1       6.741  88.610  77.129  1.00  0.00     0.146 A 
ATOM      7  O   UNL     1      10.148  88.804  78.195  1.00  0.00    -0.285 OA
ATOM      8  C   UNL     1       8.090  89.044  77.143  1.00  0.00     0.111 A 
ATOM      9  C   UNL     1       5.794  89.252  76.329  1.00  0.00     0.094 A 
ATOM     10  C   UNL     1       8.468  90.113  76.274  1.00  0.00     0.134 A 
ATOM     11  C   UNL     1       6.163  90.337  75.531  1.00  0.00     0.123 A 
ATOM     12  C   UNL     1       7.490  90.762  75.511  1.00  0.00     0.093 A 
BRANCH   3  13
ATOM     13  C   UNL     1       6.588  85.807  79.475  1.00  0.00     0.029 A 
ATOM     14  C   UNL     1       6.057  84.676  78.838  1.00  0.00     0.062 A 
ATOM     15  C   UNL     1       5.519  83.622  79.589  1.00  0.00     0.162 A 
ATOM     16  C   UNL     1       6.539  85.891  80.874  1.00  0.00     0.062 A 
ATOM     17  C   UNL     1       5.496  83.702  80.991  1.00  0.00     0.200 A 
ATOM     18  C   UNL     1       6.004  84.847  81.632  1.00  0.00     0.162 A 
BRANCH  15  19
ATOM     19  O   UNL     1       5.005  82.497  78.945  1.00  0.00    -0.504 OA
ATOM     20  H   UNL     1       4.200  81.998  79.307  1.00  0.00     0.293 HD
ENDBRANCH  15  19
BRANCH  17  21
ATOM     21  O   UNL     1       4.968  82.661  81.756  1.00  0.00    -0.502 OA
ATOM     22  H   UNL     1       5.463  82.269  82.549  1.00  0.00     0.293 HD
ENDBRANCH  17  21
BRANCH  18  23
ATOM     23  O   UNL     1       5.987  84.960  83.022  1.00  0.00    -0.504 OA
ATOM     24  H   UNL     1       6.838  85.023  83.569  1.00  0.00     0.293 HD
ENDBRANCH  18  23
ENDBRANCH   3  13
BRANCH  10  25
ATOM     25  O   UNL     1       9.784  90.552  76.102  1.00  0.00    -0.507 OA
ATOM     26  H   UNL     1      10.059  91.328  75.518  1.00  0.00     0.293 HD
ENDBRANCH  10  25
BRANCH  11  27
ATOM     27  O   UNL     1       5.218  90.995  74.747  1.00  0.00    -0.508 OA
ATOM     28  H   UNL     1       4.722  90.520  74.002  1.00  0.00     0.293 HD
ENDBRANCH  11  27
ENDBRANCH   1   2
BRANCH   1  29
ATOM     29  C   UNL     1       9.925  87.210  80.933  1.00  0.00     0.339 C 
ATOM     30  C   UNL     1       9.584  86.374  82.184  1.00  0.00     0.214 C 
ATOM     31  O   UNL     1      11.326  87.382  80.755  1.00  0.00    -0.332 OA
ATOM     32  C   UNL     1      10.320  85.027  82.184  1.00  0.00     0.180 C 
ATOM     33  C   UNL     1      12.063  86.168  80.676  1.00  0.00     0.179 C 
ATOM     34  C   UNL     1      11.817  85.229  81.889  1.00  0.00     0.177 C 
BRANCH  30  35
ATOM     35  O   UNL     1       9.848  87.093  83.365  1.00  0.00    -0.384 OA
ATOM     36  H   UNL     1       9.378  86.644  84.115  1.00  0.00     0.211 HD
ENDBRANCH  30  35
BRANCH  32  37
ATOM     37  O   UNL     1       9.731  84.171  81.237  1.00  0.00    -0.387 OA
ATOM     38  H   UNL     1      10.469  83.715  80.755  1.00  0.00     0.211 HD
ENDBRANCH  32  37
BRANCH  33  39
ATOM     39  C   UNL     1      11.931  85.498  79.290  1.00  0.00     0.191 C 
BRANCH  39  40
ATOM     40  O   UNL     1      11.932  86.457  78.266  1.00  0.00    -0.394 OA
ATOM     41  H   UNL     1      12.479  86.085  77.526  1.00  0.00     0.210 HD
ENDBRANCH  39  40
ENDBRANCH  33  39
BRANCH  34  42
ATOM     42  O   UNL     1      12.440  83.984  81.705  1.00  0.00    -0.387 OA
ATOM     43  H   UNL     1      12.234  83.438  82.508  1.00  0.00     0.211 HD
ENDBRANCH  34  42
ENDBRANCH   1  29
TORSDOF 13
ENDMDL
MODEL 5
REMARK VINA RESULT:    -5.947      2.463      6.616
REMARK INTER + INTRA:         -10.787
REMARK INTER:                  -9.233
REMARK INTRA:                  -1.554
REMARK UNBOUND:                -1.884
REMARK SMILES O=c1c(O[C@@H]2O[C@H](CO)[C@H](O)[C@H](O)[C@H]2O)c(-c2cc(O)c(O)c(O)c2)oc2cc(O)cc(O)c12
REMARK SMILES IDX 4 1 3 2 16 3 26 4 2 5 27 6 1 7 34 8 28 9 32 10 29 11 31 12
REMARK SMILES IDX 17 13 18 14 19 15 25 16 21 17 23 18 20 19 22 21 24 23 33 25
REMARK SMILES IDX 30 27 5 29 14 30 6 31 12 32 7 33 10 34 15 35 13 37 8 39 9 40
REMARK SMILES IDX 11 42
REMARK H PARENT 20 20 22 22 24 24 33 26 30 28 15 36 13 38 9 41 11 43
REMARK Flexibility Score: inf
ROOT
ATOM      1  O   UNL     1       9.404  86.306  80.001  1.00  0.00    -0.454 OA
ENDROOT
BRANCH   1   2
ATOM      2  C   UNL     1       8.399  85.642  80.734  1.00  0.00     0.214 A 
ATOM      3  C   UNL     1       7.054  85.934  80.439  1.00  0.00     0.181 A 
ATOM      4  O   UNL     1       6.079  85.276  81.051  1.00  0.00    -0.452 OA
ATOM      5  C   UNL     1       8.673  84.678  81.731  1.00  0.00     0.239 A 
ATOM      6  C   UNL     1       6.289  84.364  81.991  1.00  0.00     0.146 A 
ATOM      7  O   UNL     1       9.864  84.372  81.985  1.00  0.00    -0.285 OA
ATOM      8  C   UNL     1       7.604  84.048  82.416  1.00  0.00     0.111 A 
ATOM      9  C   UNL     1       5.185  83.715  82.548  1.00  0.00     0.094 A 
ATOM     10  C   UNL     1       7.766  83.096  83.468  1.00  0.00     0.134 A 
ATOM     11  C   UNL     1       5.361  82.740  83.531  1.00  0.00     0.123 A 
ATOM     12  C   UNL     1       6.644  82.434  83.981  1.00  0.00     0.093 A 
BRANCH   3  13
ATOM     13  C   UNL     1       6.681  86.928  79.411  1.00  0.00     0.029 A 
ATOM     14  C   UNL     1       5.993  88.102  79.753  1.00  0.00     0.062 A 
ATOM     15  C   UNL     1       5.643  89.035  78.768  1.00  0.00     0.162 A 
ATOM     16  C   UNL     1       6.979  86.677  78.064  1.00  0.00     0.062 A 
ATOM     17  C   UNL     1       5.967  88.789  77.424  1.00  0.00     0.200 A 
ATOM     18  C   UNL     1       6.633  87.601  77.074  1.00  0.00     0.162 A 
BRANCH  15  19
ATOM     19  O   UNL     1       4.971  90.204  79.123  1.00  0.00    -0.504 OA
ATOM     20  H   UNL     1       5.053  90.604  80.051  1.00  0.00     0.293 HD
ENDBRANCH  15  19
BRANCH  17  21
ATOM     21  O   UNL     1       5.630  89.709  76.430  1.00  0.00    -0.502 OA
ATOM     22  H   UNL     1       6.310  90.348  76.033  1.00  0.00     0.293 HD
ENDBRANCH  17  21
BRANCH  18  23
ATOM     23  O   UNL     1       6.960  87.324  75.746  1.00  0.00    -0.504 OA
ATOM     24  H   UNL     1       7.206  86.392  75.435  1.00  0.00     0.293 HD
ENDBRANCH  18  23
ENDBRANCH   3  13
BRANCH  10  25
ATOM     25  O   UNL     1       8.995  82.789  84.061  1.00  0.00    -0.507 OA
ATOM     26  H   UNL     1       9.873  83.224  83.820  1.00  0.00     0.293 HD
ENDBRANCH  10  25
BRANCH  11  27
ATOM     27  O   UNL     1       4.265  82.074  84.075  1.00  0.00    -0.508 OA
ATOM     28  H   UNL     1       4.377  81.238  84.637  1.00  0.00     0.293 HD
ENDBRANCH  11  27
ENDBRANCH   1   2
BRANCH   1  29
ATOM     29  C   UNL     1       9.910  87.621  80.252  1.00  0.00     0.339 C 
ATOM     30  C   UNL     1      11.064  87.560  81.272  1.00  0.00     0.214 C 
ATOM     31  O   UNL     1      10.276  88.291  79.051  1.00  0.00    -0.332 OA
ATOM     32  C   UNL     1      12.336  86.957  80.657  1.00  0.00     0.180 C 
ATOM     33  C   UNL     1      11.406  87.738  78.389  1.00  0.00     0.179 C 
ATOM     34  C   UNL     1      12.654  87.629  79.309  1.00  0.00     0.177 C 
BRANCH  30  35
ATOM     35  O   UNL     1      11.326  88.830  81.824  1.00  0.00    -0.384 OA
ATOM     36  H   UNL     1      12.030  88.730  82.515  1.00  0.00     0.211 HD
ENDBRANCH  30  35
BRANCH  32  37
ATOM     37  O   UNL     1      12.167  85.570  80.502  1.00  0.00    -0.387 OA
ATOM     38  H   UNL     1      11.689  85.241  81.306  1.00  0.00     0.211 HD
ENDBRANCH  32  37
BRANCH  33  39
ATOM     39  C   UNL     1      11.052  86.452  77.608  1.00  0.00     0.191 C 
BRANCH  39  40
ATOM     40  O   UNL     1       9.820  86.588  76.951  1.00  0.00    -0.394 OA
ATOM     41  H   UNL     1       9.543  87.535  77.052  1.00  0.00     0.210 HD
ENDBRANCH  39  40
ENDBRANCH  33  39
BRANCH  34  42
ATOM     42  O   UNL     1      13.700  86.944  78.669  1.00  0.00    -0.387 OA
ATOM     43  H   UNL     1      14.034  87.539  77.948  1.00  0.00     0.211 HD
ENDBRANCH  34  42
ENDBRANCH   1  29
TORSDOF 13
ENDMDL
MODEL 6
REMARK VINA RESULT:    -5.915      2.554      5.627
REMARK INTER + INTRA:         -10.738
REMARK INTER:                  -9.073
REMARK INTRA:                  -1.664
REMARK UNBOUND:                -1.884
REMARK SMILES O=c1c(O[C@@H]2O[C@H](CO)[C@H](O)[C@H](O)[C@H]2O)c(-c2cc(O)c(O)c(O)c2)oc2cc(O)cc(O)c12
REMARK SMILES IDX 4 1 3 2 16 3 26 4 2 5 27 6 1 7 34 8 28 9 32 10 29 11 31 12
REMARK SMILES IDX 17 13 18 14 19 15 25 16 21 17 23 18 20 19 22 21 24 23 33 25
REMARK SMILES IDX 30 27 5 29 14 30 6 31 12 32 7 33 10 34 15 35 13 37 8 39 9 40
REMARK SMILES IDX 11 42
REMARK H PARENT 20 20 22 22 24 24 33 26 30 28 15 36 13 38 9 41 11 43
REMARK Flexibility Score: inf
ROOT
ATOM      1  O   UNL     1       8.046  87.067  79.554  1.00  0.00    -0.454 OA
ENDROOT
BRANCH   1   2
ATOM      2  C   UNL     1       8.918  86.403  80.441  1.00  0.00     0.214 A 
ATOM      3  C   UNL     1       8.563  85.116  80.888  1.00  0.00     0.181 A 
ATOM      4  O   UNL     1       9.391  84.426  81.661  1.00  0.00    -0.452 OA
ATOM      5  C   UNL     1      10.144  86.951  80.882  1.00  0.00     0.239 A 
ATOM      6  C   UNL     1      10.550  84.900  82.098  1.00  0.00     0.146 A 
ATOM      7  O   UNL     1      10.502  88.081  80.467  1.00  0.00    -0.285 OA
ATOM      8  C   UNL     1      10.969  86.213  81.767  1.00  0.00     0.111 A 
ATOM      9  C   UNL     1      11.353  84.073  82.886  1.00  0.00     0.094 A 
ATOM     10  C   UNL     1      12.202  86.689  82.310  1.00  0.00     0.134 A 
ATOM     11  C   UNL     1      12.586  84.527  83.357  1.00  0.00     0.123 A 
ATOM     12  C   UNL     1      13.004  85.824  83.065  1.00  0.00     0.093 A 
BRANCH   3  13
ATOM     13  C   UNL     1       7.300  84.469  80.475  1.00  0.00     0.029 A 
ATOM     14  C   UNL     1       6.231  84.326  81.372  1.00  0.00     0.062 A 
ATOM     15  C   UNL     1       5.040  83.709  80.967  1.00  0.00     0.162 A 
ATOM     16  C   UNL     1       7.180  83.951  79.177  1.00  0.00     0.062 A 
ATOM     17  C   UNL     1       4.917  83.214  79.658  1.00  0.00     0.200 A 
ATOM     18  C   UNL     1       5.996  83.332  78.764  1.00  0.00     0.162 A 
BRANCH  15  19
ATOM     19  O   UNL     1       3.980  83.583  81.865  1.00  0.00    -0.504 OA
ATOM     20  H   UNL     1       3.200  82.961  81.683  1.00  0.00     0.293 HD
ENDBRANCH  15  19
BRANCH  17  21
ATOM     21  O   UNL     1       3.736  82.599  79.237  1.00  0.00    -0.502 OA
ATOM     22  H   UNL     1       3.389  81.748  79.663  1.00  0.00     0.293 HD
ENDBRANCH  17  21
BRANCH  18  23
ATOM     23  O   UNL     1       5.908  82.842  77.461  1.00  0.00    -0.504 OA
ATOM     24  H   UNL     1       5.196  83.158  76.813  1.00  0.00     0.293 HD
ENDBRANCH  18  23
ENDBRANCH   3  13
BRANCH  10  25
ATOM     25  O   UNL     1      12.667  87.999  82.162  1.00  0.00    -0.507 OA
ATOM     26  H   UNL     1      12.633  88.527  81.302  1.00  0.00     0.293 HD
ENDBRANCH  10  25
BRANCH  11  27
ATOM     27  O   UNL     1      13.402  83.699  84.125  1.00  0.00    -0.508 OA
ATOM     28  H   UNL     1      13.304  82.690  84.103  1.00  0.00     0.293 HD
ENDBRANCH  11  27
ENDBRANCH   1   2
BRANCH   1  29
ATOM     29  C   UNL     1       6.942  87.902  79.915  1.00  0.00     0.339 C 
ATOM     30  C   UNL     1       7.409  89.364  80.067  1.00  0.00     0.214 C 
ATOM     31  O   UNL     1       5.851  87.767  79.011  1.00  0.00    -0.332 OA
ATOM     32  C   UNL     1       7.723  90.004  78.707  1.00  0.00     0.180 C 
ATOM     33  C   UNL     1       6.101  88.277  77.707  1.00  0.00     0.179 C 
ATOM     34  C   UNL     1       6.573  89.757  77.715  1.00  0.00     0.177 C 
BRANCH  30  35
ATOM     35  O   UNL     1       6.464  90.130  80.777  1.00  0.00    -0.384 OA
ATOM     36  H   UNL     1       6.889  90.989  81.034  1.00  0.00     0.211 HD
ENDBRANCH  30  35
BRANCH  32  37
ATOM     37  O   UNL     1       8.934  89.485  78.215  1.00  0.00    -0.387 OA
ATOM     38  H   UNL     1       9.365  88.991  78.960  1.00  0.00     0.211 HD
ENDBRANCH  32  37
BRANCH  33  39
ATOM     39  C   UNL     1       6.969  87.315  76.864  1.00  0.00     0.191 C 
BRANCH  39  40
ATOM     40  O   UNL     1       6.931  87.666  75.506  1.00  0.00    -0.394 OA
ATOM     41  H   UNL     1       6.683  86.846  75.005  1.00  0.00     0.210 HD
ENDBRANCH  39  40
ENDBRANCH  33  39
BRANCH  34  42
ATOM     42  O   UNL     1       6.952  90.178  76.429  1.00  0.00    -0.387 OA
ATOM     43  H   UNL     1       6.127  90.191  75.877  1.00  0.00     0.211 HD
ENDBRANCH  34  42
ENDBRANCH   1  29
TORSDOF 13
ENDMDL
MODEL 7
REMARK VINA RESULT:    -5.913      1.762      2.327
REMARK INTER + INTRA:         -10.736
REMARK INTER:                  -9.938
REMARK INTRA:                  -0.798
REMARK UNBOUND:                -1.884
REMARK SMILES O=c1c(O[C@@H]2O[C@H](CO)[C@H](O)[C@H](O)[C@H]2O)c(-c2cc(O)c(O)c(O)c2)oc2cc(O)cc(O)c12
REMARK SMILES IDX 4 1 3 2 16 3 26 4 2 5 27 6 1 7 34 8 28 9 32 10 29 11 31 12
REMARK SMILES IDX 17 13 18 14 19 15 25 16 21 17 23 18 20 19 22 21 24 23 33 25
REMARK SMILES IDX 30 27 5 29 14 30 6 31 12 32 7 33 10 34 15 35 13 37 8 39 9 40
REMARK SMILES IDX 11 42
REMARK H PARENT 20 20 22 22 24 24 33 26 30 28 15 36 13 38 9 41 11 43
REMARK Flexibility Score: inf
ROOT
ATOM      1  O   UNL     1       8.804  85.856  80.769  1.00  0.00    -0.454 OA
ENDROOT
BRANCH   1   2
ATOM      2  C   UNL     1       8.632  86.656  79.620  1.00  0.00     0.214 A 
ATOM      3  C   UNL     1       7.528  86.398  78.786  1.00  0.00     0.181 A 
ATOM      4  O   UNL     1       7.287  87.175  77.739  1.00  0.00    -0.452 OA
ATOM      5  C   UNL     1       9.495  87.721  79.279  1.00  0.00     0.239 A 
ATOM      6  C   UNL     1       8.068  88.185  77.382  1.00  0.00     0.146 A 
ATOM      7  O   UNL     1      10.465  87.997  80.028  1.00  0.00    -0.285 OA
ATOM      8  C   UNL     1       9.247  88.485  78.111  1.00  0.00     0.111 A 
ATOM      9  C   UNL     1       7.701  88.953  76.275  1.00  0.00     0.094 A 
ATOM     10  C   UNL     1      10.077  89.551  77.649  1.00  0.00     0.134 A 
ATOM     11  C   UNL     1       8.488  90.033  75.872  1.00  0.00     0.123 A 
ATOM     12  C   UNL     1       9.664  90.327  76.559  1.00  0.00     0.093 A 
BRANCH   3  13
ATOM     13  C   UNL     1       6.576  85.304  79.070  1.00  0.00     0.029 A 
ATOM     14  C   UNL     1       5.993  85.160  80.338  1.00  0.00     0.062 A 
ATOM     15  C   UNL     1       5.093  84.117  80.595  1.00  0.00     0.162 A 
ATOM     16  C   UNL     1       6.281  84.365  78.071  1.00  0.00     0.062 A 
ATOM     17  C   UNL     1       4.783  83.195  79.581  1.00  0.00     0.200 A 
ATOM     18  C   UNL     1       5.386  83.320  78.317  1.00  0.00     0.162 A 
BRANCH  15  19
ATOM     19  O   UNL     1       4.511  83.992  81.856  1.00  0.00    -0.504 OA
ATOM     20  H   UNL     1       4.774  83.248  82.492  1.00  0.00     0.293 HD
ENDBRANCH  15  19
BRANCH  17  21
ATOM     21  O   UNL     1       3.886  82.152  79.817  1.00  0.00    -0.502 OA
ATOM     22  H   UNL     1       3.484  81.982  80.732  1.00  0.00     0.293 HD
ENDBRANCH  17  21
BRANCH  18  23
ATOM     23  O   UNL     1       5.105  82.416  77.293  1.00  0.00    -0.504 OA
ATOM     24  H   UNL     1       4.349  81.744  77.359  1.00  0.00     0.293 HD
ENDBRANCH  18  23
ENDBRANCH   3  13
BRANCH  10  25
ATOM     25  O   UNL     1      11.322  89.868  78.202  1.00  0.00    -0.507 OA
ATOM     26  H   UNL     1      11.858  89.254  78.797  1.00  0.00     0.293 HD
ENDBRANCH  10  25
BRANCH  11  27
ATOM     27  O   UNL     1       8.115  90.816  74.781  1.00  0.00    -0.508 OA
ATOM     28  H   UNL     1       8.796  91.346  74.250  1.00  0.00     0.293 HD
ENDBRANCH  11  27
ENDBRANCH   1   2
BRANCH   1  29
ATOM     29  C   UNL     1       8.687  86.287  82.129  1.00  0.00     0.339 C 
ATOM     30  C   UNL     1       7.761  85.333  82.910  1.00  0.00     0.214 C 
ATOM     31  O   UNL     1       9.958  86.445  82.750  1.00  0.00    -0.332 OA
ATOM     32  C   UNL     1       8.432  83.977  83.172  1.00  0.00     0.180 C 
ATOM     33  C   UNL     1      10.667  85.231  82.958  1.00  0.00     0.179 C 
ATOM     34  C   UNL     1       9.845  84.176  83.749  1.00  0.00     0.177 C 
BRANCH  30  35
ATOM     35  O   UNL     1       7.323  85.919  84.113  1.00  0.00    -0.384 OA
ATOM     36  H   UNL     1       7.325  86.905  83.999  1.00  0.00     0.211 HD
ENDBRANCH  30  35
BRANCH  32  37
ATOM     37  O   UNL     1       8.475  83.237  81.977  1.00  0.00    -0.387 OA
ATOM     38  H   UNL     1       9.234  83.589  81.443  1.00  0.00     0.211 HD
ENDBRANCH  32  37
BRANCH  33  39
ATOM     39  C   UNL     1      11.325  84.711  81.660  1.00  0.00     0.191 C 
BRANCH  39  40
ATOM     40  O   UNL     1      12.505  84.007  81.942  1.00  0.00    -0.394 OA
ATOM     41  H   UNL     1      13.095  84.626  82.444  1.00  0.00     0.210 HD
ENDBRANCH  39  40
ENDBRANCH  33  39
BRANCH  34  42
ATOM     42  O   UNL     1      10.516  82.943  83.806  1.00  0.00    -0.387 OA
ATOM     43  H   UNL     1      10.786  82.807  84.752  1.00  0.00     0.211 HD
ENDBRANCH  34  42
ENDBRANCH   1  29
TORSDOF 13
ENDMDL
MODEL 8
REMARK VINA RESULT:    -5.895      2.506      6.723
REMARK INTER + INTRA:         -10.709
REMARK INTER:                  -9.470
REMARK INTRA:                  -1.239
REMARK UNBOUND:                -1.884
REMARK SMILES O=c1c(O[C@@H]2O[C@H](CO)[C@H](O)[C@H](O)[C@H]2O)c(-c2cc(O)c(O)c(O)c2)oc2cc(O)cc(O)c12
REMARK SMILES IDX 4 1 3 2 16 3 26 4 2 5 27 6 1 7 34 8 28 9 32 10 29 11 31 12
REMARK SMILES IDX 17 13 18 14 19 15 25 16 21 17 23 18 20 19 22 21 24 23 33 25
REMARK SMILES IDX 30 27 5 29 14 30 6 31 12 32 7 33 10 34 15 35 13 37 8 39 9 40
REMARK SMILES IDX 11 42
REMARK H PARENT 20 20 22 22 24 24 33 26 30 28 15 36 13 38 9 41 11 43
REMARK Flexibility Score: inf
ROOT
ATOM      1  O   UNL     1       9.603  85.980  80.124  1.00  0.00    -0.454 OA
ENDROOT
BRANCH   1   2
ATOM      2  C   UNL     1       8.554  85.338  80.813  1.00  0.00     0.214 A 
ATOM      3  C   UNL     1       7.231  85.712  80.513  1.00  0.00     0.181 A 
ATOM      4  O   UNL     1       6.214  85.079  81.082  1.00  0.00    -0.452 OA
ATOM      5  C   UNL     1       8.762  84.318  81.769  1.00  0.00     0.239 A 
ATOM      6  C   UNL     1       6.361  84.118  81.982  1.00  0.00     0.146 A 
ATOM      7  O   UNL     1       9.932  83.940  82.026  1.00  0.00    -0.285 OA
ATOM      8  C   UNL     1       7.652  83.715  82.411  1.00  0.00     0.111 A 
ATOM      9  C   UNL     1       5.217  83.503  82.495  1.00  0.00     0.094 A 
ATOM     10  C   UNL     1       7.748  82.710  83.422  1.00  0.00     0.134 A 
ATOM     11  C   UNL     1       5.327  82.477  83.436  1.00  0.00     0.123 A 
ATOM     12  C   UNL     1       6.586  82.086  83.889  1.00  0.00     0.093 A 
BRANCH   3  13
ATOM     13  C   UNL     1       6.925  86.768  79.526  1.00  0.00     0.029 A 
ATOM     14  C   UNL     1       7.021  86.523  78.148  1.00  0.00     0.062 A 
ATOM     15  C   UNL     1       6.729  87.535  77.222  1.00  0.00     0.162 A 
ATOM     16  C   UNL     1       6.574  88.051  79.970  1.00  0.00     0.062 A 
ATOM     17  C   UNL     1       6.354  88.811  77.675  1.00  0.00     0.200 A 
ATOM     18  C   UNL     1       6.282  89.067  79.056  1.00  0.00     0.162 A 
BRANCH  15  19
ATOM     19  O   UNL     1       6.816  87.275  75.855  1.00  0.00    -0.504 OA
ATOM     20  H   UNL     1       7.205  87.953  75.209  1.00  0.00     0.293 HD
ENDBRANCH  15  19
BRANCH  17  21
ATOM     21  O   UNL     1       6.056  89.829  76.768  1.00  0.00    -0.502 OA
ATOM     22  H   UNL     1       6.378  89.807  75.807  1.00  0.00     0.293 HD
ENDBRANCH  17  21
BRANCH  18  23
ATOM     23  O   UNL     1       5.921  90.326  79.536  1.00  0.00    -0.504 OA
ATOM     24  H   UNL     1       6.573  91.101  79.562  1.00  0.00     0.293 HD
ENDBRANCH  18  23
ENDBRANCH   3  13
BRANCH  10  25
ATOM     25  O   UNL     1       8.950  82.314  84.016  1.00  0.00    -0.507 OA
ATOM     26  H   UNL     1       9.073  81.469  84.554  1.00  0.00     0.293 HD
ENDBRANCH  10  25
BRANCH  11  27
ATOM     27  O   UNL     1       4.190  81.846  83.934  1.00  0.00    -0.508 OA
ATOM     28  H   UNL     1       4.255  81.073  84.586  1.00  0.00     0.293 HD
ENDBRANCH  11  27
ENDBRANCH   1   2
BRANCH   1  29
ATOM     29  C   UNL     1      10.209  85.546  78.902  1.00  0.00     0.339 C 
ATOM     30  C   UNL     1      10.474  86.755  77.982  1.00  0.00     0.214 C 
ATOM     31  O   UNL     1      11.377  84.767  79.132  1.00  0.00    -0.332 OA
ATOM     32  C   UNL     1      11.634  87.618  78.499  1.00  0.00     0.180 C 
ATOM     33  C   UNL     1      12.470  85.492  79.679  1.00  0.00     0.179 C 
ATOM     34  C   UNL     1      12.852  86.741  78.837  1.00  0.00     0.177 C 
BRANCH  30  35
ATOM     35  O   UNL     1      10.705  86.344  76.655  1.00  0.00    -0.384 OA
ATOM     36  H   UNL     1      11.674  86.435  76.465  1.00  0.00     0.211 HD
ENDBRANCH  30  35
BRANCH  32  37
ATOM     37  O   UNL     1      11.209  88.346  79.624  1.00  0.00    -0.387 OA
ATOM     38  H   UNL     1      10.648  89.096  79.294  1.00  0.00     0.211 HD
ENDBRANCH  32  37
BRANCH  33  39
ATOM     39  C   UNL     1      12.299  85.750  81.193  1.00  0.00     0.191 C 
BRANCH  39  40
ATOM     40  O   UNL     1      12.558  84.586  81.933  1.00  0.00    -0.394 OA
ATOM     41  H   UNL     1      12.131  83.835  81.445  1.00  0.00     0.210 HD
ENDBRANCH  39  40
ENDBRANCH  33  39
BRANCH  34  42
ATOM     42  O   UNL     1      13.832  87.512  79.483  1.00  0.00    -0.387 OA
ATOM     43  H   UNL     1      13.588  88.464  79.340  1.00  0.00     0.211 HD
ENDBRANCH  34  42
ENDBRANCH   1  29
TORSDOF 13
ENDMDL
