MODEL 1
REMARK VINA RESULT:    13.255      0.000      0.000
REMARK INTER + INTRA:          17.404
REMARK INTER:                  17.517
REMARK INTRA:                  -0.113
REMARK UNBOUND:                -0.113
REMARK SMILES CC(C)=CCC[C@@H](C(=O)[O-])[C@@H]1CC[C@]2(C)C3=C(CC[C@]12C)[C@@]1(C)CC[C@H](O)C(C)(C)[C@H]1CC3
REMARK SMILES IDX 6 1 7 2 8 3 9 4 10 5 11 6 12 7 20 8 13 9 14 10 19 11 21 12
REMARK SMILES IDX 15 13 16 14 18 15 17 16 33 17 22 18 32 19 31 20 24 21 23 22
REMARK SMILES IDX 28 23 25 24 26 25 29 26 30 27 27 28 5 30 4 31 2 32 1 33 3 34
REMARK H PARENT 27 29
REMARK Flexibility Score: inf
ROOT
ATOM      1  C   UNL     1      -5.920  33.906  26.655  1.00  0.00     0.014 C 
ENDROOT
BRANCH   1   2
ATOM      2  C   UNL     1      -4.840  32.819  26.912  1.00  0.00     0.039 C 
BRANCH   2   3
ATOM      3  C   UNL     1      -3.498  33.487  27.132  1.00  0.00     0.045 C 
ATOM      4  O   UNL     1      -2.457  32.804  27.331  1.00  0.00    -0.550 OA
ATOM      5  O   UNL     1      -3.416  34.875  27.164  1.00  0.00    -0.550 OA
ENDBRANCH   2   3
BRANCH   2   6
ATOM      6  C   UNL     1      -5.185  31.758  28.025  1.00  0.00     0.004 C 
ATOM      7  C   UNL     1      -4.389  32.034  29.320  1.00  0.00     0.006 C 
ATOM      8  C   UNL     1      -4.929  30.233  27.720  1.00  0.00    -0.020 C 
ATOM      9  C   UNL     1      -3.967  30.698  29.919  1.00  0.00     0.012 C 
ATOM     10  C   UNL     1      -4.705  29.599  29.142  1.00  0.00    -0.006 C 
ATOM     11  C   UNL     1      -3.646  30.046  26.873  1.00  0.00     0.012 C 
ATOM     12  C   UNL     1      -6.125  29.566  26.980  1.00  0.00     0.012 C 
ATOM     13  C   UNL     1      -6.069  29.320  29.854  1.00  0.00     0.017 C 
ATOM     14  C   UNL     1      -3.849  28.309  29.153  1.00  0.00    -0.064 C 
ATOM     15  C   UNL     1      -3.263  28.579  26.735  1.00  0.00     0.032 C 
ATOM     16  C   UNL     1      -3.123  27.874  28.075  1.00  0.00    -0.064 C 
ATOM     17  C   UNL     1      -3.684  27.579  30.473  1.00  0.00     0.032 C 
ATOM     18  C   UNL     1      -2.375  26.512  28.151  1.00  0.00    -0.008 C 
ATOM     19  C   UNL     1      -2.228  27.221  30.688  1.00  0.00     0.009 C 
ATOM     20  C   UNL     1      -1.689  26.281  29.578  1.00  0.00     0.007 C 
ATOM     21  C   UNL     1      -1.324  26.377  26.996  1.00  0.00     0.014 C 
ATOM     22  C   UNL     1      -3.450  25.414  27.908  1.00  0.00     0.016 C 
ATOM     23  C   UNL     1      -0.112  26.267  29.561  1.00  0.00    -0.006 C 
ATOM     24  C   UNL     1      -0.369  25.200  27.175  1.00  0.00     0.033 C 
ATOM     25  C   UNL     1       0.389  25.197  28.519  1.00  0.00     0.120 C 
ATOM     26  C   UNL     1       0.435  25.867  30.963  1.00  0.00     0.014 C 
ATOM     27  C   UNL     1       0.470  27.682  29.231  1.00  0.00     0.014 C 
BRANCH  25  28
ATOM     28  O   UNL     1       0.292  23.895  29.054  1.00  0.00    -0.393 OA
ATOM     29  H   UNL     1       1.068  23.373  28.717  1.00  0.00     0.210 HD
ENDBRANCH  25  28
ENDBRANCH   2   6
ENDBRANCH   1   2
BRANCH   1  30
ATOM     30  C   UNL     1      -6.032  34.440  25.209  1.00  0.00     0.028 C 
BRANCH  30  31
ATOM     31  C   UNL     1      -6.104  33.337  24.181  1.00  0.00    -0.028 C 
ATOM     32  C   UNL     1      -5.664  33.436  22.904  1.00  0.00    -0.080 C 
ATOM     33  C   UNL     1      -5.726  32.215  22.022  1.00  0.00     0.039 C 
ATOM     34  C   UNL     1      -5.110  34.723  22.342  1.00  0.00     0.039 C 
ENDBRANCH  30  31
ENDBRANCH   1  30
TORSDOF 6
ENDMDL
MODEL 2
REMARK VINA RESULT:    14.783      0.971      1.227
REMARK INTER + INTRA:          19.423
REMARK INTER:                  18.235
REMARK INTRA:                   1.188
REMARK UNBOUND:                -0.113
REMARK SMILES CC(C)=CCC[C@@H](C(=O)[O-])[C@@H]1CC[C@]2(C)C3=C(CC[C@]12C)[C@@]1(C)CC[C@H](O)C(C)(C)[C@H]1CC3
REMARK SMILES IDX 6 1 7 2 8 3 9 4 10 5 11 6 12 7 20 8 13 9 14 10 19 11 21 12
REMARK SMILES IDX 15 13 16 14 18 15 17 16 33 17 22 18 32 19 31 20 24 21 23 22
REMARK SMILES IDX 28 23 25 24 26 25 29 26 30 27 27 28 5 30 4 31 2 32 1 33 3 34
REMARK H PARENT 27 29
REMARK Flexibility Score: inf
ROOT
ATOM      1  C   UNL     1      -3.285  32.722  25.942  1.00  0.00     0.014 C 
ENDROOT
BRANCH   1   2
ATOM      2  C   UNL     1      -4.181  33.184  27.124  1.00  0.00     0.039 C 
BRANCH   2   3
ATOM      3  C   UNL     1      -5.242  34.134  26.608  1.00  0.00     0.045 C 
ATOM      4  O   UNL     1      -6.124  33.744  25.796  1.00  0.00    -0.550 OA
ATOM      5  O   UNL     1      -5.218  35.469  26.995  1.00  0.00    -0.550 OA
ENDBRANCH   2   3
BRANCH   2   6
ATOM      6  C   UNL     1      -4.776  32.035  28.025  1.00  0.00     0.004 C 
ATOM      7  C   UNL     1      -4.234  32.126  29.469  1.00  0.00     0.006 C 
ATOM      8  C   UNL     1      -4.527  30.537  27.602  1.00  0.00    -0.020 C 
ATOM      9  C   UNL     1      -3.988  30.712  29.981  1.00  0.00     0.012 C 
ATOM     10  C   UNL     1      -4.607  29.746  28.959  1.00  0.00    -0.006 C 
ATOM     11  C   UNL     1      -3.114  30.362  26.994  1.00  0.00     0.012 C 
ATOM     12  C   UNL     1      -5.584  30.025  26.581  1.00  0.00     0.012 C 
ATOM     13  C   UNL     1      -6.092  29.478  29.368  1.00  0.00     0.017 C 
ATOM     14  C   UNL     1      -3.820  28.412  28.984  1.00  0.00    -0.064 C 
ATOM     15  C   UNL     1      -2.770  28.897  26.764  1.00  0.00     0.032 C 
ATOM     16  C   UNL     1      -2.919  28.049  28.018  1.00  0.00    -0.064 C 
ATOM     17  C   UNL     1      -3.942  27.540  30.219  1.00  0.00     0.032 C 
ATOM     18  C   UNL     1      -2.253  26.643  28.077  1.00  0.00    -0.008 C 
ATOM     19  C   UNL     1      -2.570  27.074  30.660  1.00  0.00     0.009 C 
ATOM     20  C   UNL     1      -1.865  26.224  29.571  1.00  0.00     0.007 C 
ATOM     21  C   UNL     1      -1.006  26.566  27.131  1.00  0.00     0.014 C 
ATOM     22  C   UNL     1      -3.304  25.644  27.514  1.00  0.00     0.016 C 
ATOM     23  C   UNL     1      -0.316  26.116  29.847  1.00  0.00    -0.006 C 
ATOM     24  C   UNL     1      -0.151  25.321  27.350  1.00  0.00     0.033 C 
ATOM     25  C   UNL     1       0.334  25.132  28.803  1.00  0.00     0.120 C 
ATOM     26  C   UNL     1      -0.065  25.540  31.272  1.00  0.00     0.014 C 
ATOM     27  C   UNL     1       0.375  27.520  29.796  1.00  0.00     0.014 C 
BRANCH  25  28
ATOM     28  O   UNL     1       0.084  23.790  29.159  1.00  0.00    -0.393 OA
ATOM     29  H   UNL     1       0.619  23.213  28.551  1.00  0.00     0.210 HD
ENDBRANCH  25  28
ENDBRANCH   2   6
ENDBRANCH   1   2
BRANCH   1  30
ATOM     30  C   UNL     1      -3.468  33.471  24.603  1.00  0.00     0.028 C 
BRANCH  30  31
ATOM     31  C   UNL     1      -4.460  32.798  23.686  1.00  0.00    -0.028 C 
ATOM     32  C   UNL     1      -5.238  33.439  22.782  1.00  0.00    -0.080 C 
ATOM     33  C   UNL     1      -6.118  32.617  21.875  1.00  0.00     0.039 C 
ATOM     34  C   UNL     1      -5.246  34.943  22.649  1.00  0.00     0.039 C 
ENDBRANCH  30  31
ENDBRANCH   1  30
TORSDOF 6
ENDMDL
