MODEL 1
REMARK VINA RESULT:     0.113      0.000      0.000
REMARK INTER + INTRA:           1.000
REMARK INTER:                   0.173
REMARK INTRA:                   0.828
REMARK UNBOUND:                 0.828
REMARK SMILES O=C([O-])CCCCCCCCC(=O)[O-]
REMARK SMILES IDX 7 1 6 2 5 3 4 4 2 5 1 6 3 7 8 8 9 9 10 10 11 11 12 12 13 13
REMARK SMILES IDX 14 14
REMARK H PARENT
REMARK Flexibility Score: inf
ROOT
ATOM      1  C   UNL     1     -18.722   4.681 -19.199  1.00  0.00     0.000 C 
ENDROOT
BRANCH   1   2
ATOM      2  C   UNL     1     -18.355   3.505 -20.125  1.00  0.00     0.000 C 
BRANCH   2   3
ATOM      3  C   UNL     1     -16.878   3.066 -20.075  1.00  0.00     0.006 C 
BRANCH   3   4
ATOM      4  C   UNL     1     -16.311   2.908 -18.655  1.00  0.00     0.053 C 
BRANCH   4   5
ATOM      5  C   UNL     1     -15.021   3.650 -18.484  1.00  0.00     0.041 C 
ATOM      6  O   UNL     1     -14.943   4.866 -18.798  1.00  0.00    -0.550 OA
ATOM      7  O   UNL     1     -13.896   2.987 -18.008  1.00  0.00    -0.550 OA
ENDBRANCH   4   5
ENDBRANCH   3   4
ENDBRANCH   2   3
ENDBRANCH   1   2
BRANCH   1   8
ATOM      8  C   UNL     1     -20.181   5.161 -19.306  1.00  0.00     0.000 C 
BRANCH   8   9
ATOM      9  C   UNL     1     -21.160   4.019 -19.632  1.00  0.00     0.000 C 
BRANCH   9  10
ATOM     10  C   UNL     1     -21.103   2.876 -18.602  1.00  0.00     0.006 C 
BRANCH  10  11
ATOM     11  C   UNL     1     -20.114   3.115 -17.450  1.00  0.00     0.053 C 
BRANCH  11  12
ATOM     12  C   UNL     1     -20.771   2.985 -16.110  1.00  0.00     0.041 C 
ATOM     13  O   UNL     1     -22.024   2.894 -16.026  1.00  0.00    -0.550 OA
ATOM     14  O   UNL     1     -19.998   2.937 -14.957  1.00  0.00    -0.550 OA
ENDBRANCH  11  12
ENDBRANCH  10  11
ENDBRANCH   9  10
ENDBRANCH   8   9
ENDBRANCH   1   8
TORSDOF 9
ENDMDL
MODEL 2
REMARK VINA RESULT:     1.023     20.105     22.260
REMARK INTER + INTRA:           2.388
REMARK INTER:                   2.874
REMARK INTRA:                  -0.486
REMARK UNBOUND:                 0.828
REMARK SMILES O=C([O-])CCCCCCCCC(=O)[O-]
REMARK SMILES IDX 7 1 6 2 5 3 4 4 2 5 1 6 3 7 8 8 9 9 10 10 11 11 12 12 13 13
REMARK SMILES IDX 14 14
REMARK H PARENT
REMARK Flexibility Score: inf
ROOT
ATOM      1  C   UNL     1     -33.060  18.500 -10.767  1.00  0.00     0.000 C 
ENDROOT
BRANCH   1   2
ATOM      2  C   UNL     1     -32.922  19.960 -10.291  1.00  0.00     0.000 C 
BRANCH   2   3
ATOM      3  C   UNL     1     -31.619  20.667 -10.713  1.00  0.00     0.006 C 
BRANCH   3   4
ATOM      4  C   UNL     1     -31.775  22.168 -11.003  1.00  0.00     0.053 C 
BRANCH   4   5
ATOM      5  C   UNL     1     -32.661  22.841  -9.999  1.00  0.00     0.041 C 
ATOM      6  O   UNL     1     -32.221  23.125  -8.855  1.00  0.00    -0.550 OA
ATOM      7  O   UNL     1     -33.983  23.125 -10.319  1.00  0.00    -0.550 OA
ENDBRANCH   4   5
ENDBRANCH   3   4
ENDBRANCH   2   3
ENDBRANCH   1   2
BRANCH   1   8
ATOM      8  C   UNL     1     -32.252  17.474  -9.952  1.00  0.00     0.000 C 
BRANCH   8   9
ATOM      9  C   UNL     1     -31.910  16.210 -10.761  1.00  0.00     0.000 C 
BRANCH   9  10
ATOM     10  C   UNL     1     -30.407  16.089 -11.069  1.00  0.00     0.006 C 
BRANCH  10  11
ATOM     11  C   UNL     1     -29.700  17.436 -11.291  1.00  0.00     0.053 C 
BRANCH  11  12
ATOM     12  C   UNL     1     -29.225  17.595 -12.703  1.00  0.00     0.041 C 
ATOM     13  O   UNL     1     -29.394  16.665 -13.536  1.00  0.00    -0.550 OA
ATOM     14  O   UNL     1     -28.622  18.779 -13.106  1.00  0.00    -0.550 OA
ENDBRANCH  11  12
ENDBRANCH  10  11
ENDBRANCH   9  10
ENDBRANCH   8   9
ENDBRANCH   1   8
TORSDOF 9
ENDMDL
MODEL 3
REMARK VINA RESULT:     1.162     20.081     21.881
REMARK INTER + INTRA:           2.601
REMARK INTER:                   3.126
REMARK INTRA:                  -0.526
REMARK UNBOUND:                 0.828
REMARK SMILES O=C([O-])CCCCCCCCC(=O)[O-]
REMARK SMILES IDX 7 1 6 2 5 3 4 4 2 5 1 6 3 7 8 8 9 9 10 10 11 11 12 12 13 13
REMARK SMILES IDX 14 14
REMARK H PARENT
REMARK Flexibility Score: inf
ROOT
ATOM      1  C   UNL     1     -32.233  17.484  -9.998  1.00  0.00     0.000 C 
ENDROOT
BRANCH   1   2
ATOM      2  C   UNL     1     -31.895  16.179 -10.747  1.00  0.00     0.000 C 
BRANCH   2   3
ATOM      3  C   UNL     1     -30.410  16.004 -11.120  1.00  0.00     0.006 C 
BRANCH   3   4
ATOM      4  C   UNL     1     -29.621  17.319 -11.224  1.00  0.00     0.053 C 
BRANCH   4   5
ATOM      5  C   UNL     1     -29.238  17.630 -12.638  1.00  0.00     0.041 C 
ATOM      6  O   UNL     1     -29.294  16.736 -13.521  1.00  0.00    -0.550 OA
ATOM      7  O   UNL     1     -28.789  18.901 -12.972  1.00  0.00    -0.550 OA
ENDBRANCH   4   5
ENDBRANCH   3   4
ENDBRANCH   2   3
ENDBRANCH   1   2
BRANCH   1   8
ATOM      8  C   UNL     1     -33.103  18.479 -10.788  1.00  0.00     0.000 C 
BRANCH   8   9
ATOM      9  C   UNL     1     -32.961  19.925 -10.280  1.00  0.00     0.000 C 
BRANCH   9  10
ATOM     10  C   UNL     1     -31.649  20.588 -10.735  1.00  0.00     0.006 C 
BRANCH  10  11
ATOM     11  C   UNL     1     -31.782  22.082 -11.071  1.00  0.00     0.053 C 
BRANCH  11  12
ATOM     12  C   UNL     1     -32.636  22.807 -10.077  1.00  0.00     0.041 C 
ATOM     13  O   UNL     1     -33.824  23.109 -10.364  1.00  0.00    -0.550 OA
ATOM     14  O   UNL     1     -32.129  23.124  -8.823  1.00  0.00    -0.550 OA
ENDBRANCH  11  12
ENDBRANCH  10  11
ENDBRANCH   9  10
ENDBRANCH   8   9
ENDBRANCH   1   8
TORSDOF 9
ENDMDL
MODEL 4
REMARK VINA RESULT:     1.459     20.002     22.145
REMARK INTER + INTRA:           3.055
REMARK INTER:                   3.296
REMARK INTRA:                  -0.241
REMARK UNBOUND:                 0.828
REMARK SMILES O=C([O-])CCCCCCCCC(=O)[O-]
REMARK SMILES IDX 7 1 6 2 5 3 4 4 2 5 1 6 3 7 8 8 9 9 10 10 11 11 12 12 13 13
REMARK SMILES IDX 14 14
REMARK H PARENT
REMARK Flexibility Score: inf
ROOT
ATOM      1  C   UNL     1     -33.175  18.357 -10.438  1.00  0.00     0.000 C 
ENDROOT
BRANCH   1   2
ATOM      2  C   UNL     1     -33.137  19.897 -10.391  1.00  0.00     0.000 C 
BRANCH   2   3
ATOM      3  C   UNL     1     -31.777  20.531 -10.746  1.00  0.00     0.006 C 
BRANCH   3   4
ATOM      4  C   UNL     1     -31.841  22.033 -11.065  1.00  0.00     0.053 C 
BRANCH   4   5
ATOM      5  C   UNL     1     -32.674  22.780 -10.069  1.00  0.00     0.041 C 
ATOM      6  O   UNL     1     -33.849  23.124 -10.357  1.00  0.00    -0.550 OA
ATOM      7  O   UNL     1     -32.138  23.124  -8.834  1.00  0.00    -0.550 OA
ENDBRANCH   4   5
ENDBRANCH   3   4
ENDBRANCH   2   3
ENDBRANCH   1   2
BRANCH   1   8
ATOM      8  C   UNL     1     -31.801  17.671 -10.331  1.00  0.00     0.000 C 
BRANCH   8   9
ATOM      9  C   UNL     1     -31.888  16.141 -10.474  1.00  0.00     0.000 C 
BRANCH   9  10
ATOM     10  C   UNL     1     -30.763  15.560 -11.349  1.00  0.00     0.006 C 
BRANCH  10  11
ATOM     11  C   UNL     1     -29.465  16.384 -11.335  1.00  0.00     0.053 C 
BRANCH  11  12
ATOM     12  C   UNL     1     -29.332  17.242 -12.557  1.00  0.00     0.041 C 
ATOM     13  O   UNL     1     -29.128  18.479 -12.442  1.00  0.00    -0.550 OA
ATOM     14  O   UNL     1     -29.404  16.670 -13.820  1.00  0.00    -0.550 OA
ENDBRANCH  11  12
ENDBRANCH  10  11
ENDBRANCH   9  10
ENDBRANCH   8   9
ENDBRANCH   1   8
TORSDOF 9
ENDMDL
MODEL 5
REMARK VINA RESULT:     1.617     19.927     21.728
REMARK INTER + INTRA:           3.296
REMARK INTER:                   3.638
REMARK INTRA:                  -0.342
REMARK UNBOUND:                 0.828
REMARK SMILES O=C([O-])CCCCCCCCC(=O)[O-]
REMARK SMILES IDX 7 1 6 2 5 3 4 4 2 5 1 6 3 7 8 8 9 9 10 10 11 11 12 12 13 13
REMARK SMILES IDX 14 14
REMARK H PARENT
REMARK Flexibility Score: inf
ROOT
ATOM      1  C   UNL     1     -31.648  17.675 -10.465  1.00  0.00     0.000 C 
ENDROOT
BRANCH   1   2
ATOM      2  C   UNL     1     -31.731  16.166 -10.771  1.00  0.00     0.000 C 
BRANCH   2   3
ATOM      3  C   UNL     1     -30.430  15.533 -11.303  1.00  0.00     0.006 C 
BRANCH   3   4
ATOM      4  C   UNL     1     -29.256  16.515 -11.442  1.00  0.00     0.053 C 
BRANCH   4   5
ATOM      5  C   UNL     1     -29.162  17.082 -12.825  1.00  0.00     0.041 C 
ATOM      6  O   UNL     1     -28.826  18.282 -12.996  1.00  0.00    -0.550 OA
ATOM      7  O   UNL     1     -29.480  16.292 -13.922  1.00  0.00    -0.550 OA
ENDBRANCH   4   5
ENDBRANCH   3   4
ENDBRANCH   2   3
ENDBRANCH   1   2
BRANCH   1   8
ATOM      8  C   UNL     1     -32.999  18.414 -10.477  1.00  0.00     0.000 C 
BRANCH   8   9
ATOM      9  C   UNL     1     -32.873  19.888 -10.051  1.00  0.00     0.000 C 
BRANCH   9  10
ATOM     10  C   UNL     1     -31.742  20.625 -10.788  1.00  0.00     0.006 C 
BRANCH  10  11
ATOM     11  C   UNL     1     -32.071  22.083 -11.151  1.00  0.00     0.053 C 
BRANCH  11  12
ATOM     12  C   UNL     1     -32.776  22.793 -10.036  1.00  0.00     0.041 C 
ATOM     13  O   UNL     1     -32.146  23.124  -8.998  1.00  0.00    -0.550 OA
ATOM     14  O   UNL     1     -34.122  23.115 -10.157  1.00  0.00    -0.550 OA
ENDBRANCH  11  12
ENDBRANCH  10  11
ENDBRANCH   9  10
ENDBRANCH   8   9
ENDBRANCH   1   8
TORSDOF 9
ENDMDL
MODEL 6
REMARK VINA RESULT:     2.577     19.806     21.961
REMARK INTER + INTRA:           4.760
REMARK INTER:                   4.140
REMARK INTRA:                   0.620
REMARK UNBOUND:                 0.828
REMARK SMILES O=C([O-])CCCCCCCCC(=O)[O-]
REMARK SMILES IDX 7 1 6 2 5 3 4 4 2 5 1 6 3 7 8 8 9 9 10 10 11 11 12 12 13 13
REMARK SMILES IDX 14 14
REMARK H PARENT
REMARK Flexibility Score: inf
ROOT
ATOM      1  C   UNL     1     -32.202  17.954 -10.683  1.00  0.00     0.000 C 
ENDROOT
BRANCH   1   2
ATOM      2  C   UNL     1     -33.520  18.686 -10.365  1.00  0.00     0.000 C 
BRANCH   2   3
ATOM      3  C   UNL     1     -33.364  20.148  -9.901  1.00  0.00     0.006 C 
BRANCH   3   4
ATOM      4  C   UNL     1     -32.282  20.940 -10.652  1.00  0.00     0.053 C 
BRANCH   4   5
ATOM      5  C   UNL     1     -32.402  22.414 -10.414  1.00  0.00     0.041 C 
ATOM      6  O   UNL     1     -31.370  23.125 -10.305  1.00  0.00    -0.550 OA
ATOM      7  O   UNL     1     -33.657  22.995 -10.281  1.00  0.00    -0.550 OA
ENDBRANCH   4   5
ENDBRANCH   3   4
ENDBRANCH   2   3
ENDBRANCH   1   2
BRANCH   1   8
ATOM      8  C   UNL     1     -32.179  16.463 -10.299  1.00  0.00     0.000 C 
BRANCH   8   9
ATOM      9  C   UNL     1     -31.096  15.672 -11.055  1.00  0.00     0.000 C 
BRANCH   9  10
ATOM     10  C   UNL     1     -29.710  16.333 -10.971  1.00  0.00     0.006 C 
BRANCH  10  11
ATOM     11  C   UNL     1     -29.675  17.789 -11.466  1.00  0.00     0.053 C 
BRANCH  11  12
ATOM     12  C   UNL     1     -29.120  17.897 -12.853  1.00  0.00     0.041 C 
ATOM     13  O   UNL     1     -29.280  16.956 -13.674  1.00  0.00    -0.550 OA
ATOM     14  O   UNL     1     -28.450  19.048 -13.247  1.00  0.00    -0.550 OA
ENDBRANCH  11  12
ENDBRANCH  10  11
ENDBRANCH   9  10
ENDBRANCH   8   9
ENDBRANCH   1   8
TORSDOF 9
ENDMDL
MODEL 7
REMARK VINA RESULT:     2.712      3.649      6.786
REMARK INTER + INTRA:           4.966
REMARK INTER:                   5.247
REMARK INTRA:                  -0.281
REMARK UNBOUND:                 0.828
REMARK SMILES O=C([O-])CCCCCCCCC(=O)[O-]
REMARK SMILES IDX 7 1 6 2 5 3 4 4 2 5 1 6 3 7 8 8 9 9 10 10 11 11 12 12 13 13
REMARK SMILES IDX 14 14
REMARK H PARENT
REMARK Flexibility Score: inf
ROOT
ATOM      1  C   UNL     1     -20.241   6.219 -19.433  1.00  0.00     0.000 C 
ENDROOT
BRANCH   1   2
ATOM      2  C   UNL     1     -21.428   7.192 -19.291  1.00  0.00     0.000 C 
BRANCH   2   3
ATOM      3  C   UNL     1     -21.593   7.825 -17.895  1.00  0.00     0.006 C 
BRANCH   3   4
ATOM      4  C   UNL     1     -22.733   8.851 -17.793  1.00  0.00     0.053 C 
BRANCH   4   5
ATOM      5  C   UNL     1     -22.713   9.580 -16.485  1.00  0.00     0.041 C 
ATOM      6  O   UNL     1     -23.791   9.930 -15.938  1.00  0.00    -0.550 OA
ATOM      7  O   UNL     1     -21.501   9.900 -15.886  1.00  0.00    -0.550 OA
ENDBRANCH   4   5
ENDBRANCH   3   4
ENDBRANCH   2   3
ENDBRANCH   1   2
BRANCH   1   8
ATOM      8  C   UNL     1     -20.631   4.736 -19.573  1.00  0.00     0.000 C 
BRANCH   8   9
ATOM      9  C   UNL     1     -19.509   3.782 -19.128  1.00  0.00     0.000 C 
BRANCH   9  10
ATOM     10  C   UNL     1     -18.111   4.273 -19.543  1.00  0.00     0.006 C 
BRANCH  10  11
ATOM     11  C   UNL     1     -17.011   3.990 -18.508  1.00  0.00     0.053 C 
BRANCH  11  12
ATOM     12  C   UNL     1     -15.654   3.910 -19.138  1.00  0.00     0.041 C 
ATOM     13  O   UNL     1     -15.458   3.153 -20.125  1.00  0.00    -0.550 OA
ATOM     14  O   UNL     1     -14.614   4.693 -18.653  1.00  0.00    -0.550 OA
ENDBRANCH  11  12
ENDBRANCH  10  11
ENDBRANCH   9  10
ENDBRANCH   8   9
ENDBRANCH   1   8
TORSDOF 9
ENDMDL
MODEL 8
REMARK VINA RESULT:     2.851      3.634      4.238
REMARK INTER + INTRA:           5.179
REMARK INTER:                   5.405
REMARK INTRA:                  -0.225
REMARK UNBOUND:                 0.828
REMARK SMILES O=C([O-])CCCCCCCCC(=O)[O-]
REMARK SMILES IDX 7 1 6 2 5 3 4 4 2 5 1 6 3 7 8 8 9 9 10 10 11 11 12 12 13 13
REMARK SMILES IDX 14 14
REMARK H PARENT
REMARK Flexibility Score: inf
ROOT
ATOM      1  C   UNL     1     -20.572   4.784 -19.764  1.00  0.00     0.000 C 
ENDROOT
BRANCH   1   2
ATOM      2  C   UNL     1     -19.790   3.723 -18.963  1.00  0.00     0.000 C 
BRANCH   2   3
ATOM      3  C   UNL     1     -18.535   3.166 -19.663  1.00  0.00     0.006 C 
BRANCH   3   4
ATOM      4  C   UNL     1     -17.377   4.170 -19.785  1.00  0.00     0.053 C 
BRANCH   4   5
ATOM      5  C   UNL     1     -16.297   3.901 -18.782  1.00  0.00     0.041 C 
ATOM      6  O   UNL     1     -16.510   3.125 -17.815  1.00  0.00    -0.550 OA
ATOM      7  O   UNL     1     -15.066   4.534 -18.901  1.00  0.00    -0.550 OA
ENDBRANCH   4   5
ENDBRANCH   3   4
ENDBRANCH   2   3
ENDBRANCH   1   2
BRANCH   1   8
ATOM      8  C   UNL     1     -20.215   6.243 -19.427  1.00  0.00     0.000 C 
BRANCH   8   9
ATOM      9  C   UNL     1     -21.456   7.144 -19.299  1.00  0.00     0.000 C 
BRANCH   9  10
ATOM     10  C   UNL     1     -21.549   7.835 -17.927  1.00  0.00     0.006 C 
BRANCH  10  11
ATOM     11  C   UNL     1     -22.678   8.874 -17.821  1.00  0.00     0.053 C 
BRANCH  11  12
ATOM     12  C   UNL     1     -22.702   9.541 -16.479  1.00  0.00     0.041 C 
ATOM     13  O   UNL     1     -23.794   9.925 -15.983  1.00  0.00    -0.550 OA
ATOM     14  O   UNL     1     -21.523   9.713 -15.765  1.00  0.00    -0.550 OA
ENDBRANCH  11  12
ENDBRANCH  10  11
ENDBRANCH   9  10
ENDBRANCH   8   9
ENDBRANCH   1   8
TORSDOF 9
ENDMDL
MODEL 9
REMARK VINA RESULT:     2.856      3.934      6.564
REMARK INTER + INTRA:           5.186
REMARK INTER:                   5.364
REMARK INTRA:                  -0.178
REMARK UNBOUND:                 0.828
REMARK SMILES O=C([O-])CCCCCCCCC(=O)[O-]
REMARK SMILES IDX 7 1 6 2 5 3 4 4 2 5 1 6 3 7 8 8 9 9 10 10 11 11 12 12 13 13
REMARK SMILES IDX 14 14
REMARK H PARENT
REMARK Flexibility Score: inf
ROOT
ATOM      1  C   UNL     1     -21.357   7.310 -19.479  1.00  0.00     0.000 C 
ENDROOT
BRANCH   1   2
ATOM      2  C   UNL     1     -21.912   7.830 -18.138  1.00  0.00     0.000 C 
BRANCH   2   3
ATOM      3  C   UNL     1     -23.025   8.890 -18.257  1.00  0.00     0.006 C 
BRANCH   3   4
ATOM      4  C   UNL     1     -23.230   9.740 -16.993  1.00  0.00     0.053 C 
BRANCH   4   5
ATOM      5  C   UNL     1     -22.122   9.546 -16.004  1.00  0.00     0.041 C 
ATOM      6  O   UNL     1     -22.265   8.754 -15.038  1.00  0.00    -0.550 OA
ATOM      7  O   UNL     1     -20.941  10.267 -16.134  1.00  0.00    -0.550 OA
ENDBRANCH   4   5
ENDBRANCH   3   4
ENDBRANCH   2   3
ENDBRANCH   1   2
BRANCH   1   8
ATOM      8  C   UNL     1     -20.189   6.314 -19.354  1.00  0.00     0.000 C 
BRANCH   8   9
ATOM      9  C   UNL     1     -20.618   4.859 -19.615  1.00  0.00     0.000 C 
BRANCH   9  10
ATOM     10  C   UNL     1     -19.489   3.849 -19.345  1.00  0.00     0.006 C 
BRANCH  10  11
ATOM     11  C   UNL     1     -18.098   4.323 -19.797  1.00  0.00     0.053 C 
BRANCH  11  12
ATOM     12  C   UNL     1     -17.047   4.044 -18.766  1.00  0.00     0.041 C 
ATOM     13  O   UNL     1     -17.375   3.617 -17.628  1.00  0.00    -0.550 OA
ATOM     14  O   UNL     1     -15.705   4.229 -19.072  1.00  0.00    -0.550 OA
ENDBRANCH  11  12
ENDBRANCH  10  11
ENDBRANCH   9  10
ENDBRANCH   8   9
ENDBRANCH   1   8
TORSDOF 9
ENDMDL
