MODEL 1
REMARK VINA RESULT:    -3.763      0.000      0.000
REMARK INTER + INTRA:          -4.317
REMARK INTER:                  -4.093
REMARK INTRA:                  -0.224
REMARK UNBOUND:                -0.224
REMARK SMILES O=C([O-])c1ccccc1O
REMARK SMILES IDX 4 1 9 2 5 3 8 4 6 5 7 6 2 7 1 8 3 9 10 10
REMARK H PARENT 10 11
REMARK Flexibility Score: inf
ROOT
ATOM      1  C   UNL     1      23.937   4.599  24.184  1.00  0.00     0.039 A 
ATOM      2  C   UNL     1      24.395   3.476  24.919  1.00  0.00     0.124 A 
ATOM      3  C   UNL     1      22.557   4.876  24.156  1.00  0.00     0.014 A 
ATOM      4  C   UNL     1      23.480   2.705  25.649  1.00  0.00     0.047 A 
ATOM      5  C   UNL     1      21.656   4.085  24.872  1.00  0.00     0.001 A 
ATOM      6  C   UNL     1      22.118   3.006  25.625  1.00  0.00     0.004 A 
ENDROOT
BRANCH   1   7
ATOM      7  C   UNL     1      24.850   5.517  23.469  1.00  0.00     0.075 C 
ATOM      8  O   UNL     1      24.825   6.757  23.690  1.00  0.00    -0.545 OA
ATOM      9  O   UNL     1      25.703   5.025  22.488  1.00  0.00    -0.545 OA
ENDBRANCH   1   7
BRANCH   2  10
ATOM     10  O   UNL     1      25.733   3.072  24.926  1.00  0.00    -0.507 OA
ATOM     11  H   UNL     1      26.024   2.105  24.953  1.00  0.00     0.293 HD
ENDBRANCH   2  10
TORSDOF 2
ENDMDL
MODEL 2
REMARK VINA RESULT:    -3.711      1.879      3.786
REMARK INTER + INTRA:          -4.260
REMARK INTER:                  -4.024
REMARK INTRA:                  -0.236
REMARK UNBOUND:                -0.224
REMARK SMILES O=C([O-])c1ccccc1O
REMARK SMILES IDX 4 1 9 2 5 3 8 4 6 5 7 6 2 7 1 8 3 9 10 10
REMARK H PARENT 10 11
REMARK Flexibility Score: inf
ROOT
ATOM      1  C   UNL     1      23.411   2.861  26.207  1.00  0.00     0.039 A 
ATOM      2  C   UNL     1      24.379   3.327  25.281  1.00  0.00     0.124 A 
ATOM      3  C   UNL     1      22.077   3.289  26.069  1.00  0.00     0.014 A 
ATOM      4  C   UNL     1      23.983   4.149  24.218  1.00  0.00     0.047 A 
ATOM      5  C   UNL     1      21.703   4.126  25.015  1.00  0.00     0.001 A 
ATOM      6  C   UNL     1      22.652   4.548  24.085  1.00  0.00     0.004 A 
ENDROOT
BRANCH   1   7
ATOM      7  C   UNL     1      23.733   1.914  27.297  1.00  0.00     0.075 C 
ATOM      8  O   UNL     1      22.842   1.180  27.801  1.00  0.00    -0.545 OA
ATOM      9  O   UNL     1      25.017   1.874  27.827  1.00  0.00    -0.545 OA
ENDBRANCH   1   7
BRANCH   2  10
ATOM     10  O   UNL     1      25.740   3.029  25.397  1.00  0.00    -0.507 OA
ATOM     11  H   UNL     1      26.459   3.732  25.491  1.00  0.00     0.293 HD
ENDBRANCH   2  10
TORSDOF 2
ENDMDL
MODEL 3
REMARK VINA RESULT:    -3.690      1.659      2.203
REMARK INTER + INTRA:          -4.237
REMARK INTER:                  -3.985
REMARK INTRA:                  -0.252
REMARK UNBOUND:                -0.224
REMARK SMILES O=C([O-])c1ccccc1O
REMARK SMILES IDX 4 1 9 2 5 3 8 4 6 5 7 6 2 7 1 8 3 9 10 10
REMARK H PARENT 10 11
REMARK Flexibility Score: inf
ROOT
ATOM      1  C   UNL     1      23.040   4.926  24.525  1.00  0.00     0.039 A 
ATOM      2  C   UNL     1      22.201   3.844  24.897  1.00  0.00     0.124 A 
ATOM      3  C   UNL     1      22.493   6.222  24.469  1.00  0.00     0.014 A 
ATOM      4  C   UNL     1      20.870   4.091  25.260  1.00  0.00     0.047 A 
ATOM      5  C   UNL     1      21.158   6.447  24.813  1.00  0.00     0.001 A 
ATOM      6  C   UNL     1      20.350   5.385  25.217  1.00  0.00     0.004 A 
ENDROOT
BRANCH   1   7
ATOM      7  C   UNL     1      24.478   4.759  24.224  1.00  0.00     0.075 C 
ATOM      8  O   UNL     1      25.320   5.621  24.589  1.00  0.00    -0.545 OA
ATOM      9  O   UNL     1      24.909   3.675  23.467  1.00  0.00    -0.545 OA
ENDBRANCH   1   7
BRANCH   2  10
ATOM     10  O   UNL     1      22.634   2.515  24.888  1.00  0.00    -0.507 OA
ATOM     11  H   UNL     1      22.033   1.731  25.103  1.00  0.00     0.293 HD
ENDBRANCH   2  10
TORSDOF 2
ENDMDL
MODEL 4
REMARK VINA RESULT:    -3.519     10.158     11.921
REMARK INTER + INTRA:          -4.051
REMARK INTER:                  -3.804
REMARK INTRA:                  -0.248
REMARK UNBOUND:                -0.224
REMARK SMILES O=C([O-])c1ccccc1O
REMARK SMILES IDX 4 1 9 2 5 3 8 4 6 5 7 6 2 7 1 8 3 9 10 10
REMARK H PARENT 10 11
REMARK Flexibility Score: inf
ROOT
ATOM      1  C   UNL     1      18.228  -5.306  28.251  1.00  0.00     0.039 A 
ATOM      2  C   UNL     1      19.524  -4.746  28.101  1.00  0.00     0.124 A 
ATOM      3  C   UNL     1      17.162  -4.462  28.619  1.00  0.00     0.014 A 
ATOM      4  C   UNL     1      19.705  -3.366  28.258  1.00  0.00     0.047 A 
ATOM      5  C   UNL     1      17.366  -3.091  28.792  1.00  0.00     0.001 A 
ATOM      6  C   UNL     1      18.633  -2.542  28.603  1.00  0.00     0.004 A 
ENDROOT
BRANCH   1   7
ATOM      7  C   UNL     1      17.938  -6.735  28.007  1.00  0.00     0.075 C 
ATOM      8  O   UNL     1      18.664  -7.637  28.502  1.00  0.00    -0.545 OA
ATOM      9  O   UNL     1      16.894  -7.098  27.163  1.00  0.00    -0.545 OA
ENDBRANCH   1   7
BRANCH   2  10
ATOM     10  O   UNL     1      20.654  -5.522  27.832  1.00  0.00    -0.507 OA
ATOM     11  H   UNL     1      20.618  -6.419  27.368  1.00  0.00     0.293 HD
ENDBRANCH   2  10
TORSDOF 2
ENDMDL
MODEL 5
REMARK VINA RESULT:    -3.505      2.649      3.670
REMARK INTER + INTRA:          -4.036
REMARK INTER:                  -3.811
REMARK INTRA:                  -0.225
REMARK UNBOUND:                -0.224
REMARK SMILES O=C([O-])c1ccccc1O
REMARK SMILES IDX 4 1 9 2 5 3 8 4 6 5 7 6 2 7 1 8 3 9 10 10
REMARK H PARENT 10 11
REMARK Flexibility Score: inf
ROOT
ATOM      1  C   UNL     1      22.452   4.872  24.928  1.00  0.00     0.039 A 
ATOM      2  C   UNL     1      23.216   3.706  24.663  1.00  0.00     0.124 A 
ATOM      3  C   UNL     1      22.985   6.128  24.579  1.00  0.00     0.014 A 
ATOM      4  C   UNL     1      24.449   3.819  24.006  1.00  0.00     0.047 A 
ATOM      5  C   UNL     1      24.225   6.223  23.944  1.00  0.00     0.001 A 
ATOM      6  C   UNL     1      24.952   5.070  23.649  1.00  0.00     0.004 A 
ENDROOT
BRANCH   1   7
ATOM      7  C   UNL     1      21.101   4.827  25.528  1.00  0.00     0.075 C 
ATOM      8  O   UNL     1      20.124   5.387  24.965  1.00  0.00    -0.545 OA
ATOM      9  O   UNL     1      20.909   4.221  26.765  1.00  0.00    -0.545 OA
ENDBRANCH   1   7
BRANCH   2  10
ATOM     10  O   UNL     1      22.808   2.430  25.060  1.00  0.00    -0.507 OA
ATOM     11  H   UNL     1      23.187   1.577  24.673  1.00  0.00     0.293 HD
ENDBRANCH   2  10
TORSDOF 2
ENDMDL
MODEL 6
REMARK VINA RESULT:    -3.471      2.403      3.072
REMARK INTER + INTRA:          -3.999
REMARK INTER:                  -3.788
REMARK INTRA:                  -0.212
REMARK UNBOUND:                -0.224
REMARK SMILES O=C([O-])c1ccccc1O
REMARK SMILES IDX 4 1 9 2 5 3 8 4 6 5 7 6 2 7 1 8 3 9 10 10
REMARK H PARENT 10 11
REMARK Flexibility Score: inf
ROOT
ATOM      1  C   UNL     1      24.651   3.891  26.226  1.00  0.00     0.039 A 
ATOM      2  C   UNL     1      23.865   2.711  26.177  1.00  0.00     0.124 A 
ATOM      3  C   UNL     1      24.174   5.052  25.587  1.00  0.00     0.014 A 
ATOM      4  C   UNL     1      22.611   2.738  25.551  1.00  0.00     0.047 A 
ATOM      5  C   UNL     1      22.932   5.055  24.949  1.00  0.00     0.001 A 
ATOM      6  C   UNL     1      22.147   3.903  24.940  1.00  0.00     0.004 A 
ENDROOT
BRANCH   1   7
ATOM      7  C   UNL     1      25.938   3.968  26.950  1.00  0.00     0.075 C 
ATOM      8  O   UNL     1      26.477   2.933  27.424  1.00  0.00    -0.545 OA
ATOM      9  O   UNL     1      26.535   5.203  27.177  1.00  0.00    -0.545 OA
ENDBRANCH   1   7
BRANCH   2  10
ATOM     10  O   UNL     1      24.301   1.491  26.701  1.00  0.00    -0.507 OA
ATOM     11  H   UNL     1      23.863   0.605  26.491  1.00  0.00     0.293 HD
ENDBRANCH   2  10
TORSDOF 2
ENDMDL
MODEL 7
REMARK VINA RESULT:    -3.419     18.065     19.153
REMARK INTER + INTRA:          -3.943
REMARK INTER:                  -3.708
REMARK INTRA:                  -0.235
REMARK UNBOUND:                -0.224
REMARK SMILES O=C([O-])c1ccccc1O
REMARK SMILES IDX 4 1 9 2 5 3 8 4 6 5 7 6 2 7 1 8 3 9 10 10
REMARK H PARENT 10 11
REMARK Flexibility Score: inf
ROOT
ATOM      1  C   UNL     1      13.653 -10.840  18.607  1.00  0.00     0.039 A 
ATOM      2  C   UNL     1      13.454  -9.510  19.061  1.00  0.00     0.124 A 
ATOM      3  C   UNL     1      12.979 -11.889  19.260  1.00  0.00     0.014 A 
ATOM      4  C   UNL     1      12.549  -9.262  20.102  1.00  0.00     0.047 A 
ATOM      5  C   UNL     1      12.097 -11.625  20.310  1.00  0.00     0.001 A 
ATOM      6  C   UNL     1      11.875 -10.312  20.724  1.00  0.00     0.004 A 
ENDROOT
BRANCH   1   7
ATOM      7  C   UNL     1      14.515 -11.173  17.452  1.00  0.00     0.075 C 
ATOM      8  O   UNL     1      14.084 -11.886  16.508  1.00  0.00    -0.545 OA
ATOM      9  O   UNL     1      15.841 -10.757  17.431  1.00  0.00    -0.545 OA
ENDBRANCH   1   7
BRANCH   2  10
ATOM     10  O   UNL     1      14.152  -8.420  18.534  1.00  0.00    -0.507 OA
ATOM     11  H   UNL     1      15.009  -8.509  18.007  1.00  0.00     0.293 HD
ENDBRANCH   2  10
TORSDOF 2
ENDMDL
MODEL 8
REMARK VINA RESULT:    -3.409      2.000      2.930
REMARK INTER + INTRA:          -3.932
REMARK INTER:                  -3.682
REMARK INTRA:                  -0.249
REMARK UNBOUND:                -0.224
REMARK SMILES O=C([O-])c1ccccc1O
REMARK SMILES IDX 4 1 9 2 5 3 8 4 6 5 7 6 2 7 1 8 3 9 10 10
REMARK H PARENT 10 11
REMARK Flexibility Score: inf
ROOT
ATOM      1  C   UNL     1      24.601   3.724  25.607  1.00  0.00     0.039 A 
ATOM      2  C   UNL     1      23.652   2.703  25.876  1.00  0.00     0.124 A 
ATOM      3  C   UNL     1      25.529   4.071  26.607  1.00  0.00     0.014 A 
ATOM      4  C   UNL     1      23.696   2.022  27.100  1.00  0.00     0.047 A 
ATOM      5  C   UNL     1      25.544   3.395  27.830  1.00  0.00     0.001 A 
ATOM      6  C   UNL     1      24.635   2.366  28.072  1.00  0.00     0.004 A 
ENDROOT
BRANCH   1   7
ATOM      7  C   UNL     1      24.682   4.420  24.304  1.00  0.00     0.075 C 
ATOM      8  O   UNL     1      24.545   3.789  23.223  1.00  0.00    -0.545 OA
ATOM      9  O   UNL     1      24.982   5.777  24.259  1.00  0.00    -0.545 OA
ENDBRANCH   1   7
BRANCH   2  10
ATOM     10  O   UNL     1      22.637   2.360  24.979  1.00  0.00    -0.507 OA
ATOM     11  H   UNL     1      22.028   1.564  25.104  1.00  0.00     0.293 HD
ENDBRANCH   2  10
TORSDOF 2
ENDMDL
MODEL 9
REMARK VINA RESULT:    -3.371      9.306     10.751
REMARK INTER + INTRA:          -3.891
REMARK INTER:                  -3.670
REMARK INTRA:                  -0.220
REMARK UNBOUND:                -0.224
REMARK SMILES O=C([O-])c1ccccc1O
REMARK SMILES IDX 4 1 9 2 5 3 8 4 6 5 7 6 2 7 1 8 3 9 10 10
REMARK H PARENT 10 11
REMARK Flexibility Score: inf
ROOT
ATOM      1  C   UNL     1      18.829  -3.647  28.648  1.00  0.00     0.039 A 
ATOM      2  C   UNL     1      19.196  -4.915  28.128  1.00  0.00     0.124 A 
ATOM      3  C   UNL     1      17.462  -3.349  28.808  1.00  0.00     0.014 A 
ATOM      4  C   UNL     1      18.204  -5.863  27.844  1.00  0.00     0.047 A 
ATOM      5  C   UNL     1      16.485  -4.298  28.499  1.00  0.00     0.001 A 
ATOM      6  C   UNL     1      16.855  -5.557  28.027  1.00  0.00     0.004 A 
ENDROOT
BRANCH   1   7
ATOM      7  C   UNL     1      19.820  -2.632  29.064  1.00  0.00     0.075 C 
ATOM      8  O   UNL     1      21.015  -2.696  28.672  1.00  0.00    -0.545 OA
ATOM      9  O   UNL     1      19.456  -1.628  29.954  1.00  0.00    -0.545 OA
ENDBRANCH   1   7
BRANCH   2  10
ATOM     10  O   UNL     1      20.521  -5.261  27.849  1.00  0.00    -0.507 OA
ATOM     11  H   UNL     1      20.855  -5.488  26.923  1.00  0.00     0.293 HD
ENDBRANCH   2  10
TORSDOF 2
ENDMDL
