MODEL 1
REMARK VINA RESULT:     0.753      0.000      0.000
REMARK INTER + INTRA:           0.771
REMARK INTER:                   0.995
REMARK INTRA:                  -0.224
REMARK UNBOUND:                -0.224
REMARK SMILES CC[C@H](C=C[C@@H](C)[C@@H]1CC[C@H]2[C@H]3CC=C4C[C@H](O)CC[C@@]4(C)[C@H]3CC[C@]21C)C(C)C
REMARK SMILES IDX 6 1 7 2 5 3 4 4 3 5 2 6 1 7 28 8 29 9 30 10 8 11 9 12 26 13
REMARK SMILES IDX 10 14 11 15 25 16 27 17 12 18 24 19 23 20 13 21 21 22 14 23
REMARK SMILES IDX 15 24 20 25 22 26 16 27 19 28 17 29 18 30
REMARK H PARENT 18 31
REMARK Flexibility Score: inf
ROOT
ATOM      1  C   UNL     1      28.340  32.294  25.179  1.00  0.00     0.012 C 
ATOM      2  C   UNL     1      29.090  32.073  26.508  1.00  0.00     0.012 C 
ENDROOT
BRANCH   1   3
ATOM      3  C   UNL     1      28.294  30.970  24.438  1.00  0.00    -0.028 C 
ATOM      4  C   UNL     1      27.482  29.974  24.825  1.00  0.00    -0.027 C 
BRANCH   4   5
ATOM      5  C   UNL     1      27.647  28.570  24.280  1.00  0.00     0.014 C 
BRANCH   5   6
ATOM      6  C   UNL     1      29.041  28.388  23.604  1.00  0.00     0.004 C 
ATOM      7  C   UNL     1      29.080  28.647  22.098  1.00  0.00     0.004 C 
ENDBRANCH   5   6
BRANCH   5   8
ATOM      8  C   UNL     1      27.202  27.461  25.292  1.00  0.00    -0.011 C 
ATOM      9  C   UNL     1      28.369  26.563  25.737  1.00  0.00     0.008 C 
ATOM     10  C   UNL     1      26.401  27.970  26.503  1.00  0.00     0.008 C 
ENDBRANCH   5   8
ENDBRANCH   4   5
ENDBRANCH   1   3
BRANCH   1  11
ATOM     11  C   UNL     1      28.914  33.431  24.257  1.00  0.00     0.002 C 
ATOM     12  C   UNL     1      29.084  34.772  24.993  1.00  0.00     0.005 C 
ATOM     13  C   UNL     1      28.118  33.809  22.954  1.00  0.00    -0.026 C 
ATOM     14  C   UNL     1      27.959  35.696  24.524  1.00  0.00     0.005 C 
ATOM     15  C   UNL     1      27.170  34.939  23.438  1.00  0.00    -0.001 C 
ATOM     16  C   UNL     1      29.123  34.318  21.843  1.00  0.00     0.007 C 
ATOM     17  C   UNL     1      27.306  32.629  22.357  1.00  0.00     0.012 C 
ATOM     18  C   UNL     1      26.539  35.809  22.302  1.00  0.00     0.000 C 
ATOM     19  C   UNL     1      28.964  35.782  21.420  1.00  0.00     0.005 C 
ATOM     20  C   UNL     1      27.491  36.140  21.111  1.00  0.00     0.003 C 
ATOM     21  C   UNL     1      25.817  37.037  22.869  1.00  0.00     0.031 C 
ATOM     22  C   UNL     1      27.305  37.573  20.430  1.00  0.00    -0.008 C 
ATOM     23  C   UNL     1      25.206  37.853  21.776  1.00  0.00    -0.027 C 
ATOM     24  C   UNL     1      25.910  38.165  20.677  1.00  0.00    -0.065 C 
ATOM     25  C   UNL     1      28.315  38.637  20.959  1.00  0.00     0.014 C 
ATOM     26  C   UNL     1      27.515  37.373  18.902  1.00  0.00     0.016 C 
ATOM     27  C   UNL     1      25.605  39.494  20.025  1.00  0.00     0.063 C 
ATOM     28  C   UNL     1      28.059  40.064  20.408  1.00  0.00     0.033 C 
ATOM     29  C   UNL     1      26.601  40.533  20.586  1.00  0.00     0.118 C 
BRANCH  29  30
ATOM     30  O   UNL     1      26.442  41.772  19.953  1.00  0.00    -0.393 OA
ATOM     31  H   UNL     1      25.747  41.656  19.256  1.00  0.00     0.210 HD
ENDBRANCH  29  30
ENDBRANCH   1  11
TORSDOF 6
ENDMDL
MODEL 2
REMARK VINA RESULT:     1.018      1.613      2.979
REMARK INTER + INTRA:           1.121
REMARK INTER:                   1.826
REMARK INTRA:                  -0.705
REMARK UNBOUND:                -0.224
REMARK SMILES CC[C@H](C=C[C@@H](C)[C@@H]1CC[C@H]2[C@H]3CC=C4C[C@H](O)CC[C@@]4(C)[C@H]3CC[C@]21C)C(C)C
REMARK SMILES IDX 6 1 7 2 5 3 4 4 3 5 2 6 1 7 28 8 29 9 30 10 8 11 9 12 26 13
REMARK SMILES IDX 10 14 11 15 25 16 27 17 12 18 24 19 23 20 13 21 21 22 14 23
REMARK SMILES IDX 15 24 20 25 22 26 16 27 19 28 17 29 18 30
REMARK H PARENT 18 31
REMARK Flexibility Score: inf
ROOT
ATOM      1  C   UNL     1      27.640  33.947  23.858  1.00  0.00     0.012 C 
ATOM      2  C   UNL     1      28.404  34.849  24.848  1.00  0.00     0.012 C 
ENDROOT
BRANCH   1   3
ATOM      3  C   UNL     1      28.214  32.546  23.957  1.00  0.00    -0.028 C 
ATOM      4  C   UNL     1      27.432  31.478  24.183  1.00  0.00    -0.027 C 
BRANCH   4   5
ATOM      5  C   UNL     1      28.025  30.140  24.574  1.00  0.00     0.014 C 
BRANCH   5   6
ATOM      6  C   UNL     1      29.125  30.308  25.666  1.00  0.00     0.004 C 
ATOM      7  C   UNL     1      28.644  30.872  27.003  1.00  0.00     0.004 C 
ENDBRANCH   5   6
BRANCH   5   8
ATOM      8  C   UNL     1      26.941  29.037  24.825  1.00  0.00    -0.011 C 
ATOM      9  C   UNL     1      27.497  27.826  25.592  1.00  0.00     0.008 C 
ATOM     10  C   UNL     1      25.635  29.544  25.461  1.00  0.00     0.008 C 
ENDBRANCH   5   8
ENDBRANCH   4   5
ENDBRANCH   1   3
BRANCH   1  11
ATOM     11  C   UNL     1      27.621  34.440  22.365  1.00  0.00     0.002 C 
ATOM     12  C   UNL     1      29.021  34.790  21.830  1.00  0.00     0.005 C 
ATOM     13  C   UNL     1      26.749  35.698  22.004  1.00  0.00    -0.026 C 
ATOM     14  C   UNL     1      29.119  36.315  21.771  1.00  0.00     0.005 C 
ATOM     15  C   UNL     1      27.744  36.876  22.182  1.00  0.00    -0.001 C 
ATOM     16  C   UNL     1      26.235  35.581  20.512  1.00  0.00     0.007 C 
ATOM     17  C   UNL     1      25.511  35.881  22.922  1.00  0.00     0.012 C 
ATOM     18  C   UNL     1      27.311  38.219  21.508  1.00  0.00     0.000 C 
ATOM     19  C   UNL     1      26.760  36.644  19.541  1.00  0.00     0.005 C 
ATOM     20  C   UNL     1      26.622  38.074  20.116  1.00  0.00     0.003 C 
ATOM     21  C   UNL     1      28.446  39.250  21.527  1.00  0.00     0.031 C 
ATOM     22  C   UNL     1      26.920  39.227  19.053  1.00  0.00    -0.008 C 
ATOM     23  C   UNL     1      28.016  40.533  20.893  1.00  0.00    -0.027 C 
ATOM     24  C   UNL     1      27.373  40.536  19.716  1.00  0.00    -0.065 C 
ATOM     25  C   UNL     1      28.048  38.853  18.043  1.00  0.00     0.014 C 
ATOM     26  C   UNL     1      25.593  39.476  18.279  1.00  0.00     0.016 C 
ATOM     27  C   UNL     1      27.623  41.715  18.804  1.00  0.00     0.063 C 
ATOM     28  C   UNL     1      28.441  40.013  17.092  1.00  0.00     0.033 C 
ATOM     29  C   UNL     1      28.761  41.327  17.834  1.00  0.00     0.118 C 
BRANCH  29  30
ATOM     30  O   UNL     1      28.983  42.339  16.891  1.00  0.00    -0.393 OA
ATOM     31  H   UNL     1      29.629  42.974  17.293  1.00  0.00     0.210 HD
ENDBRANCH  29  30
ENDBRANCH   1  11
TORSDOF 6
ENDMDL
MODEL 3
REMARK VINA RESULT:     1.076      1.515      3.387
REMARK INTER + INTRA:           1.198
REMARK INTER:                   1.273
REMARK INTRA:                  -0.075
REMARK UNBOUND:                -0.224
REMARK SMILES CC[C@H](C=C[C@@H](C)[C@@H]1CC[C@H]2[C@H]3CC=C4C[C@H](O)CC[C@@]4(C)[C@H]3CC[C@]21C)C(C)C
REMARK SMILES IDX 6 1 7 2 5 3 4 4 3 5 2 6 1 7 28 8 29 9 30 10 8 11 9 12 26 13
REMARK SMILES IDX 10 14 11 15 25 16 27 17 12 18 24 19 23 20 13 21 21 22 14 23
REMARK SMILES IDX 15 24 20 25 22 26 16 27 19 28 17 29 18 30
REMARK H PARENT 18 31
REMARK Flexibility Score: inf
ROOT
ATOM      1  C   UNL     1      28.682  33.241  22.122  1.00  0.00     0.012 C 
ATOM      2  C   UNL     1      29.083  32.019  21.271  1.00  0.00     0.012 C 
ENDROOT
BRANCH   1   3
ATOM      3  C   UNL     1      28.100  32.734  23.429  1.00  0.00    -0.028 C 
ATOM      4  C   UNL     1      28.558  31.620  24.020  1.00  0.00    -0.027 C 
BRANCH   4   5
ATOM      5  C   UNL     1      27.793  30.958  25.148  1.00  0.00     0.014 C 
BRANCH   5   6
ATOM      6  C   UNL     1      26.586  30.134  24.604  1.00  0.00     0.004 C 
ATOM      7  C   UNL     1      26.930  29.077  23.556  1.00  0.00     0.004 C 
ENDBRANCH   5   6
BRANCH   5   8
ATOM      8  C   UNL     1      28.724  30.247  26.188  1.00  0.00    -0.011 C 
ATOM      9  C   UNL     1      28.981  31.106  27.437  1.00  0.00     0.008 C 
ATOM     10  C   UNL     1      28.294  28.821  26.575  1.00  0.00     0.008 C 
ENDBRANCH   5   8
ENDBRANCH   4   5
ENDBRANCH   1   3
BRANCH   1  11
ATOM     11  C   UNL     1      27.702  34.257  21.430  1.00  0.00     0.002 C 
ATOM     12  C   UNL     1      28.197  34.725  20.050  1.00  0.00     0.005 C 
ATOM     13  C   UNL     1      27.357  35.593  22.185  1.00  0.00    -0.026 C 
ATOM     14  C   UNL     1      28.714  36.156  20.212  1.00  0.00     0.005 C 
ATOM     15  C   UNL     1      28.441  36.577  21.669  1.00  0.00    -0.001 C 
ATOM     16  C   UNL     1      25.898  36.066  21.795  1.00  0.00     0.007 C 
ATOM     17  C   UNL     1      27.420  35.469  23.731  1.00  0.00     0.012 C 
ATOM     18  C   UNL     1      28.133  38.092  21.909  1.00  0.00     0.000 C 
ATOM     19  C   UNL     1      25.808  37.393  21.034  1.00  0.00     0.005 C 
ATOM     20  C   UNL     1      26.642  38.507  21.711  1.00  0.00     0.003 C 
ATOM     21  C   UNL     1      29.125  38.993  21.165  1.00  0.00     0.031 C 
ATOM     22  C   UNL     1      26.385  39.962  21.105  1.00  0.00    -0.008 C 
ATOM     23  C   UNL     1      28.829  40.437  21.413  1.00  0.00    -0.027 C 
ATOM     24  C   UNL     1      27.577  40.907  21.318  1.00  0.00    -0.065 C 
ATOM     25  C   UNL     1      26.128  39.949  19.567  1.00  0.00     0.014 C 
ATOM     26  C   UNL     1      25.137  40.537  21.834  1.00  0.00     0.016 C 
ATOM     27  C   UNL     1      27.417  42.331  20.837  1.00  0.00     0.063 C 
ATOM     28  C   UNL     1      26.012  41.363  18.944  1.00  0.00     0.033 C 
ATOM     29  C   UNL     1      27.190  42.289  19.311  1.00  0.00     0.118 C 
BRANCH  29  30
ATOM     30  O   UNL     1      26.935  43.570  18.806  1.00  0.00    -0.393 OA
ATOM     31  H   UNL     1      27.800  44.054  18.791  1.00  0.00     0.210 HD
ENDBRANCH  29  30
ENDBRANCH   1  11
TORSDOF 6
ENDMDL
MODEL 4
REMARK VINA RESULT:     1.730      1.462      2.748
REMARK INTER + INTRA:           2.063
REMARK INTER:                   2.804
REMARK INTRA:                  -0.742
REMARK UNBOUND:                -0.224
REMARK SMILES CC[C@H](C=C[C@@H](C)[C@@H]1CC[C@H]2[C@H]3CC=C4C[C@H](O)CC[C@@]4(C)[C@H]3CC[C@]21C)C(C)C
REMARK SMILES IDX 6 1 7 2 5 3 4 4 3 5 2 6 1 7 28 8 29 9 30 10 8 11 9 12 26 13
REMARK SMILES IDX 10 14 11 15 25 16 27 17 12 18 24 19 23 20 13 21 21 22 14 23
REMARK SMILES IDX 15 24 20 25 22 26 16 27 19 28 17 29 18 30
REMARK H PARENT 18 31
REMARK Flexibility Score: inf
ROOT
ATOM      1  C   UNL     1      27.556  33.500  22.927  1.00  0.00     0.012 C 
ATOM      2  C   UNL     1      26.760  33.867  24.195  1.00  0.00     0.012 C 
ENDROOT
BRANCH   1   3
ATOM      3  C   UNL     1      28.436  32.306  23.251  1.00  0.00    -0.028 C 
ATOM      4  C   UNL     1      27.995  31.290  24.010  1.00  0.00    -0.027 C 
BRANCH   4   5
ATOM      5  C   UNL     1      28.950  30.259  24.574  1.00  0.00     0.014 C 
BRANCH   5   6
ATOM      6  C   UNL     1      28.676  30.005  26.088  1.00  0.00     0.004 C 
ATOM      7  C   UNL     1      29.035  31.158  27.024  1.00  0.00     0.004 C 
ENDBRANCH   5   6
BRANCH   5   8
ATOM      8  C   UNL     1      29.100  28.995  23.661  1.00  0.00    -0.011 C 
ATOM      9  C   UNL     1      28.715  27.694  24.384  1.00  0.00     0.008 C 
ATOM     10  C   UNL     1      28.404  29.096  22.292  1.00  0.00     0.008 C 
ENDBRANCH   5   8
ENDBRANCH   4   5
ENDBRANCH   1   3
BRANCH   1  11
ATOM     11  C   UNL     1      28.404  34.664  22.296  1.00  0.00     0.002 C 
ATOM     12  C   UNL     1      28.753  35.770  23.308  1.00  0.00     0.005 C 
ATOM     13  C   UNL     1      27.805  35.444  21.069  1.00  0.00    -0.026 C 
ATOM     14  C   UNL     1      27.858  36.972  22.996  1.00  0.00     0.005 C 
ATOM     15  C   UNL     1      27.041  36.617  21.739  1.00  0.00    -0.001 C 
ATOM     16  C   UNL     1      28.977  35.959  20.139  1.00  0.00     0.007 C 
ATOM     17  C   UNL     1      26.846  34.591  20.198  1.00  0.00     0.012 C 
ATOM     18  C   UNL     1      26.679  37.805  20.788  1.00  0.00     0.000 C 
ATOM     19  C   UNL     1      29.125  37.480  20.032  1.00  0.00     0.005 C 
ATOM     20  C   UNL     1      27.773  38.175  19.739  1.00  0.00     0.003 C 
ATOM     21  C   UNL     1      26.146  39.011  21.570  1.00  0.00     0.031 C 
ATOM     22  C   UNL     1      27.910  39.723  19.372  1.00  0.00    -0.008 C 
ATOM     23  C   UNL     1      25.791  40.133  20.650  1.00  0.00    -0.027 C 
ATOM     24  C   UNL     1      26.631  40.516  19.676  1.00  0.00    -0.065 C 
ATOM     25  C   UNL     1      29.048  40.441  20.161  1.00  0.00     0.014 C 
ATOM     26  C   UNL     1      28.211  39.797  17.848  1.00  0.00     0.016 C 
ATOM     27  C   UNL     1      26.629  41.981  19.310  1.00  0.00     0.063 C 
ATOM     28  C   UNL     1      29.105  41.970  19.917  1.00  0.00     0.033 C 
ATOM     29  C   UNL     1      27.746  42.671  20.124  1.00  0.00     0.118 C 
BRANCH  29  30
ATOM     30  O   UNL     1      27.870  44.019  19.764  1.00  0.00    -0.393 OA
ATOM     31  H   UNL     1      28.793  44.298  19.996  1.00  0.00     0.210 HD
ENDBRANCH  29  30
ENDBRANCH   1  11
TORSDOF 6
ENDMDL
MODEL 5
REMARK VINA RESULT:     3.161      4.739     10.003
REMARK INTER + INTRA:           3.954
REMARK INTER:                   1.792
REMARK INTRA:                   2.162
REMARK UNBOUND:                -0.224
REMARK SMILES CC[C@H](C=C[C@@H](C)[C@@H]1CC[C@H]2[C@H]3CC=C4C[C@H](O)CC[C@@]4(C)[C@H]3CC[C@]21C)C(C)C
REMARK SMILES IDX 6 1 7 2 5 3 4 4 3 5 2 6 1 7 28 8 29 9 30 10 8 11 9 12 26 13
REMARK SMILES IDX 10 14 11 15 25 16 27 17 12 18 24 19 23 20 13 21 21 22 14 23
REMARK SMILES IDX 15 24 20 25 22 26 16 27 19 28 17 29 18 30
REMARK H PARENT 18 31
REMARK Flexibility Score: inf
ROOT
ATOM      1  C   UNL     1      26.714  43.132  19.832  1.00  0.00     0.012 C 
ATOM      2  C   UNL     1      26.775  44.104  18.636  1.00  0.00     0.012 C 
ENDROOT
BRANCH   1   3
ATOM      3  C   UNL     1      26.917  43.936  21.103  1.00  0.00    -0.028 C 
ATOM      4  C   UNL     1      27.434  43.383  22.212  1.00  0.00    -0.027 C 
BRANCH   4   5
ATOM      5  C   UNL     1      27.362  44.090  23.549  1.00  0.00     0.014 C 
BRANCH   5   6
ATOM      6  C   UNL     1      25.927  44.006  24.155  1.00  0.00     0.004 C 
ATOM      7  C   UNL     1      25.860  43.928  25.679  1.00  0.00     0.004 C 
ENDBRANCH   5   6
BRANCH   5   8
ATOM      8  C   UNL     1      28.553  43.731  24.500  1.00  0.00    -0.011 C 
ATOM      9  C   UNL     1      28.281  44.122  25.963  1.00  0.00     0.008 C 
ATOM     10  C   UNL     1      29.049  42.278  24.399  1.00  0.00     0.008 C 
ENDBRANCH   5   8
ENDBRANCH   4   5
ENDBRANCH   1   3
BRANCH   1  11
ATOM     11  C   UNL     1      27.711  41.918  19.772  1.00  0.00     0.002 C 
ATOM     12  C   UNL     1      27.872  41.342  18.354  1.00  0.00     0.005 C 
ATOM     13  C   UNL     1      27.409  40.658  20.664  1.00  0.00    -0.026 C 
ATOM     14  C   UNL     1      27.101  40.022  18.307  1.00  0.00     0.005 C 
ATOM     15  C   UNL     1      26.557  39.762  19.725  1.00  0.00    -0.001 C 
ATOM     16  C   UNL     1      28.766  39.957  21.076  1.00  0.00     0.007 C 
ATOM     17  C   UNL     1      26.629  40.989  21.964  1.00  0.00     0.012 C 
ATOM     18  C   UNL     1      26.440  38.265  20.162  1.00  0.00     0.000 C 
ATOM     19  C   UNL     1      28.980  38.543  20.528  1.00  0.00     0.005 C 
ATOM     20  C   UNL     1      27.742  37.641  20.754  1.00  0.00     0.003 C 
ATOM     21  C   UNL     1      25.792  37.408  19.069  1.00  0.00     0.031 C 
ATOM     22  C   UNL     1      28.001  36.099  20.430  1.00  0.00    -0.008 C 
ATOM     23  C   UNL     1      25.673  35.983  19.502  1.00  0.00    -0.027 C 
ATOM     24  C   UNL     1      26.711  35.348  20.068  1.00  0.00    -0.065 C 
ATOM     25  C   UNL     1      28.968  35.880  19.226  1.00  0.00     0.014 C 
ATOM     26  C   UNL     1      28.619  35.469  21.712  1.00  0.00     0.016 C 
ATOM     27  C   UNL     1      26.832  33.866  19.802  1.00  0.00     0.063 C 
ATOM     28  C   UNL     1      29.122  34.393  18.815  1.00  0.00     0.033 C 
ATOM     29  C   UNL     1      27.773  33.680  18.591  1.00  0.00     0.118 C 
BRANCH  29  30
ATOM     30  O   UNL     1      28.012  32.322  18.345  1.00  0.00    -0.393 OA
ATOM     31  H   UNL     1      28.339  32.249  17.412  1.00  0.00     0.210 HD
ENDBRANCH  29  30
ENDBRANCH   1  11
TORSDOF 6
ENDMDL
