MODEL 1
REMARK VINA RESULT:    -2.780      0.000      0.000
REMARK INTER + INTRA:          -3.300
REMARK INTER:                  -3.268
REMARK INTRA:                  -0.032
REMARK UNBOUND:                -0.032
REMARK SMILES CCCCC(=O)[O-]
REMARK SMILES IDX 4 1 5 2 6 3 7 4 3 5 2 6 1 7
REMARK H PARENT
REMARK Flexibility Score: inf
ROOT
ATOM      1  C   UNL     1      62.348  31.428  60.382  1.00  0.00     0.053 C 
ENDROOT
BRANCH   1   2
ATOM      2  C   UNL     1      61.661  30.485  61.321  1.00  0.00     0.041 C 
ATOM      3  O   UNL     1      60.586  30.820  61.883  1.00  0.00    -0.550 OA
ATOM      4  O   UNL     1      62.193  29.221  61.550  1.00  0.00    -0.550 OA
ENDBRANCH   1   2
BRANCH   1   5
ATOM      5  C   UNL     1      61.628  32.781  60.307  1.00  0.00     0.006 C 
BRANCH   5   6
ATOM      6  C   UNL     1      62.599  33.963  60.440  1.00  0.00    -0.003 C 
ATOM      7  C   UNL     1      61.844  35.281  60.587  1.00  0.00     0.004 C 
ENDBRANCH   5   6
ENDBRANCH   1   5
TORSDOF 3
ENDMDL
MODEL 2
REMARK VINA RESULT:    -2.708      1.302      1.716
REMARK INTER + INTRA:          -3.215
REMARK INTER:                  -3.181
REMARK INTRA:                  -0.033
REMARK UNBOUND:                -0.032
REMARK SMILES CCCCC(=O)[O-]
REMARK SMILES IDX 4 1 5 2 6 3 7 4 3 5 2 6 1 7
REMARK H PARENT
REMARK Flexibility Score: inf
ROOT
ATOM      1  C   UNL     1      62.198  32.414  60.515  1.00  0.00     0.053 C 
ENDROOT
BRANCH   1   2
ATOM      2  C   UNL     1      61.068  31.438  60.632  1.00  0.00     0.041 C 
ATOM      3  O   UNL     1      60.343  31.185  59.634  1.00  0.00    -0.550 OA
ATOM      4  O   UNL     1      60.835  30.784  61.836  1.00  0.00    -0.550 OA
ENDBRANCH   1   2
BRANCH   1   5
ATOM      5  C   UNL     1      61.696  33.838  60.246  1.00  0.00     0.006 C 
BRANCH   5   6
ATOM      6  C   UNL     1      62.729  34.902  60.643  1.00  0.00    -0.003 C 
ATOM      7  C   UNL     1      64.085  34.268  60.941  1.00  0.00     0.004 C 
ENDBRANCH   5   6
ENDBRANCH   1   5
TORSDOF 3
ENDMDL
MODEL 3
REMARK VINA RESULT:    -2.640     12.319     12.781
REMARK INTER + INTRA:          -3.135
REMARK INTER:                  -3.104
REMARK INTRA:                  -0.032
REMARK UNBOUND:                -0.032
REMARK SMILES CCCCC(=O)[O-]
REMARK SMILES IDX 4 1 5 2 6 3 7 4 3 5 2 6 1 7
REMARK H PARENT
REMARK Flexibility Score: inf
ROOT
ATOM      1  C   UNL     1      58.584  28.074  50.304  1.00  0.00     0.053 C 
ENDROOT
BRANCH   1   2
ATOM      2  C   UNL     1      59.519  28.574  49.246  1.00  0.00     0.041 C 
ATOM      3  O   UNL     1      59.322  29.691  48.701  1.00  0.00    -0.550 OA
ATOM      4  O   UNL     1      60.629  27.819  48.885  1.00  0.00    -0.550 OA
ENDBRANCH   1   2
BRANCH   1   5
ATOM      5  C   UNL     1      57.264  28.855  50.312  1.00  0.00     0.006 C 
BRANCH   5   6
ATOM      6  C   UNL     1      56.043  27.933  50.187  1.00  0.00    -0.003 C 
ATOM      7  C   UNL     1      54.747  28.739  50.145  1.00  0.00     0.004 C 
ENDBRANCH   5   6
ENDBRANCH   1   5
TORSDOF 3
ENDMDL
MODEL 4
REMARK VINA RESULT:    -2.625     12.740     13.076
REMARK INTER + INTRA:          -3.117
REMARK INTER:                  -3.099
REMARK INTRA:                  -0.018
REMARK UNBOUND:                -0.032
REMARK SMILES CCCCC(=O)[O-]
REMARK SMILES IDX 4 1 5 2 6 3 7 4 3 5 2 6 1 7
REMARK H PARENT
REMARK Flexibility Score: inf
ROOT
ATOM      1  C   UNL     1      56.075  28.496  50.427  1.00  0.00     0.053 C 
ENDROOT
BRANCH   1   2
ATOM      2  C   UNL     1      55.131  27.526  49.785  1.00  0.00     0.041 C 
ATOM      3  O   UNL     1      53.959  27.880  49.493  1.00  0.00    -0.550 OA
ATOM      4  O   UNL     1      55.558  26.240  49.479  1.00  0.00    -0.550 OA
ENDBRANCH   1   2
BRANCH   1   5
ATOM      5  C   UNL     1      57.539  28.151  50.125  1.00  0.00     0.006 C 
BRANCH   5   6
ATOM      6  C   UNL     1      58.445  29.390  50.155  1.00  0.00    -0.003 C 
ATOM      7  C   UNL     1      59.453  29.362  49.009  1.00  0.00     0.004 C 
ENDBRANCH   5   6
ENDBRANCH   1   5
TORSDOF 3
ENDMDL
MODEL 5
REMARK VINA RESULT:    -2.619      3.120      4.324
REMARK INTER + INTRA:          -3.110
REMARK INTER:                  -3.088
REMARK INTRA:                  -0.022
REMARK UNBOUND:                -0.032
REMARK SMILES CCCCC(=O)[O-]
REMARK SMILES IDX 4 1 5 2 6 3 7 4 3 5 2 6 1 7
REMARK H PARENT
REMARK Flexibility Score: inf
ROOT
ATOM      1  C   UNL     1      62.703  33.794  60.336  1.00  0.00     0.053 C 
ENDROOT
BRANCH   1   2
ATOM      2  C   UNL     1      62.330  35.194  60.717  1.00  0.00     0.041 C 
ATOM      3  O   UNL     1      61.130  35.568  60.665  1.00  0.00    -0.550 OA
ATOM      4  O   UNL     1      63.307  36.077  61.161  1.00  0.00    -0.550 OA
ENDBRANCH   1   2
BRANCH   1   5
ATOM      5  C   UNL     1      61.480  32.867  60.311  1.00  0.00     0.006 C 
BRANCH   5   6
ATOM      6  C   UNL     1      61.841  31.421  60.677  1.00  0.00    -0.003 C 
ATOM      7  C   UNL     1      60.748  30.780  61.529  1.00  0.00     0.004 C 
ENDBRANCH   5   6
ENDBRANCH   1   5
TORSDOF 3
ENDMDL
MODEL 6
REMARK VINA RESULT:    -2.614      4.169      5.139
REMARK INTER + INTRA:          -3.105
REMARK INTER:                  -3.073
REMARK INTRA:                  -0.032
REMARK UNBOUND:                -0.032
REMARK SMILES CCCCC(=O)[O-]
REMARK SMILES IDX 4 1 5 2 6 3 7 4 3 5 2 6 1 7
REMARK H PARENT
REMARK Flexibility Score: inf
ROOT
ATOM      1  C   UNL     1      64.067  34.526  61.047  1.00  0.00     0.053 C 
ENDROOT
BRANCH   1   2
ATOM      2  C   UNL     1      64.989  35.682  61.292  1.00  0.00     0.041 C 
ATOM      3  O   UNL     1      66.147  35.684  60.800  1.00  0.00    -0.550 OA
ATOM      4  O   UNL     1      64.556  36.771  62.038  1.00  0.00    -0.550 OA
ENDBRANCH   1   2
BRANCH   1   5
ATOM      5  C   UNL     1      62.715  34.986  60.488  1.00  0.00     0.006 C 
BRANCH   5   6
ATOM      6  C   UNL     1      61.736  33.817  60.304  1.00  0.00    -0.003 C 
ATOM      7  C   UNL     1      62.475  32.482  60.264  1.00  0.00     0.004 C 
ENDBRANCH   5   6
ENDBRANCH   1   5
TORSDOF 3
ENDMDL
MODEL 7
REMARK VINA RESULT:    -2.593      1.561      1.847
REMARK INTER + INTRA:          -3.080
REMARK INTER:                  -2.981
REMARK INTRA:                  -0.099
REMARK UNBOUND:                -0.032
REMARK SMILES CCCCC(=O)[O-]
REMARK SMILES IDX 4 1 5 2 6 3 7 4 3 5 2 6 1 7
REMARK H PARENT
REMARK Flexibility Score: inf
ROOT
ATOM      1  C   UNL     1      61.209  30.708  61.424  1.00  0.00     0.053 C 
ENDROOT
BRANCH   1   2
ATOM      2  C   UNL     1      62.243  29.624  61.381  1.00  0.00     0.041 C 
ATOM      3  O   UNL     1      63.467  29.915  61.378  1.00  0.00    -0.550 OA
ATOM      4  O   UNL     1      61.852  28.290  61.377  1.00  0.00    -0.550 OA
ENDBRANCH   1   2
BRANCH   1   5
ATOM      5  C   UNL     1      61.191  31.529  60.128  1.00  0.00     0.006 C 
BRANCH   5   6
ATOM      6  C   UNL     1      61.523  33.007  60.374  1.00  0.00    -0.003 C 
ATOM      7  C   UNL     1      63.032  33.238  60.383  1.00  0.00     0.004 C 
ENDBRANCH   5   6
ENDBRANCH   1   5
TORSDOF 3
ENDMDL
MODEL 8
REMARK VINA RESULT:    -2.587     12.163     12.596
REMARK INTER + INTRA:          -3.073
REMARK INTER:                  -3.034
REMARK INTRA:                  -0.040
REMARK UNBOUND:                -0.032
REMARK SMILES CCCCC(=O)[O-]
REMARK SMILES IDX 4 1 5 2 6 3 7 4 3 5 2 6 1 7
REMARK H PARENT
REMARK Flexibility Score: inf
ROOT
ATOM      1  C   UNL     1      59.723  26.796  49.347  1.00  0.00     0.053 C 
ENDROOT
BRANCH   1   2
ATOM      2  C   UNL     1      60.682  25.725  49.768  1.00  0.00     0.041 C 
ATOM      3  O   UNL     1      60.262  24.574  50.054  1.00  0.00    -0.550 OA
ATOM      4  O   UNL     1      62.046  25.991  49.812  1.00  0.00    -0.550 OA
ENDBRANCH   1   2
BRANCH   1   5
ATOM      5  C   UNL     1      60.446  28.106  49.005  1.00  0.00     0.006 C 
BRANCH   5   6
ATOM      6  C   UNL     1      59.493  29.309  48.997  1.00  0.00    -0.003 C 
ATOM      7  C   UNL     1      58.342  29.106  49.980  1.00  0.00     0.004 C 
ENDBRANCH   5   6
ENDBRANCH   1   5
TORSDOF 3
ENDMDL
MODEL 9
REMARK VINA RESULT:    -2.479      2.651      3.255
REMARK INTER + INTRA:          -2.946
REMARK INTER:                  -2.903
REMARK INTRA:                  -0.043
REMARK UNBOUND:                -0.032
REMARK SMILES CCCCC(=O)[O-]
REMARK SMILES IDX 4 1 5 2 6 3 7 4 3 5 2 6 1 7
REMARK H PARENT
REMARK Flexibility Score: inf
ROOT
ATOM      1  C   UNL     1      63.523  33.394  60.653  1.00  0.00     0.053 C 
ENDROOT
BRANCH   1   2
ATOM      2  C   UNL     1      64.351  32.315  60.024  1.00  0.00     0.041 C 
ATOM      3  O   UNL     1      64.934  32.521  58.928  1.00  0.00    -0.550 OA
ATOM      4  O   UNL     1      64.505  31.093  60.666  1.00  0.00    -0.550 OA
ENDBRANCH   1   2
BRANCH   1   5
ATOM      5  C   UNL     1      64.352  34.652  60.943  1.00  0.00     0.006 C 
BRANCH   5   6
ATOM      6  C   UNL     1      63.484  35.916  61.008  1.00  0.00    -0.003 C 
ATOM      7  C   UNL     1      62.021  35.596  60.711  1.00  0.00     0.004 C 
ENDBRANCH   5   6
ENDBRANCH   1   5
TORSDOF 3
ENDMDL
