MODEL 1
REMARK VINA RESULT:    -2.106      0.000      0.000
REMARK INTER + INTRA:          -1.916
REMARK INTER:                  -3.214
REMARK INTRA:                   1.299
REMARK UNBOUND:                 1.299
REMARK SMILES CCCCCCCCCC=CC(=O)[O-]
REMARK SMILES IDX 7 1 8 2 9 3 10 4 11 5 12 6 13 7 14 8 6 9 5 10 4 11 3 12 2 13
REMARK SMILES IDX 1 14
REMARK H PARENT
REMARK Flexibility Score: inf
ROOT
ATOM      1  C   UNL     1       6.124  40.022  14.811  1.00  0.00     0.000 C 
ENDROOT
BRANCH   1   2
ATOM      2  C   UNL     1       6.205  41.296  15.661  1.00  0.00     0.004 C 
BRANCH   2   3
ATOM      3  C   UNL     1       7.644  41.561  16.118  1.00  0.00     0.027 C 
BRANCH   3   4
ATOM      4  C   UNL     1       8.454  40.296  16.122  1.00  0.00    -0.025 C 
ATOM      5  C   UNL     1       9.507  40.139  15.312  1.00  0.00     0.020 C 
BRANCH   5   6
ATOM      6  C   UNL     1      10.307  38.903  15.290  1.00  0.00     0.064 C 
ATOM      7  O   UNL     1       9.900  37.875  14.686  1.00  0.00    -0.545 OA
ATOM      8  O   UNL     1      11.529  38.870  15.948  1.00  0.00    -0.545 OA
ENDBRANCH   5   6
ENDBRANCH   3   4
ENDBRANCH   2   3
ENDBRANCH   1   2
BRANCH   1   9
ATOM      9  C   UNL     1       6.639  38.806  15.592  1.00  0.00     0.000 C 
BRANCH   9  10
ATOM     10  C   UNL     1       5.475  37.961  16.125  1.00  0.00     0.000 C 
BRANCH  10  11
ATOM     11  C   UNL     1       4.235  38.110  15.232  1.00  0.00    -0.000 C 
BRANCH  11  12
ATOM     12  C   UNL     1       2.932  38.218  16.041  1.00  0.00    -0.000 C 
BRANCH  12  13
ATOM     13  C   UNL     1       1.688  37.875  15.207  1.00  0.00    -0.003 C 
ATOM     14  C   UNL     1       1.980  37.988  13.714  1.00  0.00     0.004 C 
ENDBRANCH  12  13
ENDBRANCH  11  12
ENDBRANCH  10  11
ENDBRANCH   9  10
ENDBRANCH   1   9
TORSDOF 9
ENDMDL
MODEL 2
REMARK VINA RESULT:    -1.641      3.584      6.996
REMARK INTER + INTRA:          -1.205
REMARK INTER:                  -0.880
REMARK INTRA:                  -0.325
REMARK UNBOUND:                 1.299
REMARK SMILES CCCCCCCCCC=CC(=O)[O-]
REMARK SMILES IDX 7 1 8 2 9 3 10 4 11 5 12 6 13 7 14 8 6 9 5 10 4 11 3 12 2 13
REMARK SMILES IDX 1 14
REMARK H PARENT
REMARK Flexibility Score: inf
ROOT
ATOM      1  C   UNL     1       7.062  40.478  14.616  1.00  0.00     0.000 C 
ENDROOT
BRANCH   1   2
ATOM      2  C   UNL     1       5.985  40.249  15.683  1.00  0.00     0.004 C 
BRANCH   2   3
ATOM      3  C   UNL     1       5.697  38.754  15.861  1.00  0.00     0.027 C 
BRANCH   3   4
ATOM      4  C   UNL     1       4.396  38.370  15.218  1.00  0.00    -0.025 C 
ATOM      5  C   UNL     1       3.224  38.602  15.819  1.00  0.00     0.020 C 
BRANCH   5   6
ATOM      6  C   UNL     1       1.938  38.221  15.213  1.00  0.00     0.064 C 
ATOM      7  O   UNL     1       1.788  38.196  13.962  1.00  0.00    -0.545 OA
ATOM      8  O   UNL     1       0.870  37.884  16.035  1.00  0.00    -0.545 OA
ENDBRANCH   5   6
ENDBRANCH   3   4
ENDBRANCH   2   3
ENDBRANCH   1   2
BRANCH   1   9
ATOM      9  C   UNL     1       8.091  39.340  14.619  1.00  0.00     0.000 C 
BRANCH   9  10
ATOM     10  C   UNL     1       8.946  39.375  15.892  1.00  0.00     0.000 C 
BRANCH  10  11
ATOM     11  C   UNL     1       9.641  38.025  16.123  1.00  0.00    -0.000 C 
BRANCH  11  12
ATOM     12  C   UNL     1      10.934  37.878  15.304  1.00  0.00    -0.000 C 
BRANCH  12  13
ATOM     13  C   UNL     1      12.098  38.695  15.885  1.00  0.00    -0.003 C 
ATOM     14  C   UNL     1      13.435  38.012  15.617  1.00  0.00     0.004 C 
ENDBRANCH  12  13
ENDBRANCH  11  12
ENDBRANCH  10  11
ENDBRANCH   9  10
ENDBRANCH   1   9
TORSDOF 9
ENDMDL
