MODEL 1
REMARK VINA RESULT:    -4.075      0.000      0.000
REMARK INTER + INTRA:          -5.315
REMARK INTER:                  -5.028
REMARK INTRA:                  -0.287
REMARK UNBOUND:                -0.287
REMARK SMILES C=CCc1ccc(OC)c(OC)c1
REMARK SMILES IDX 7 1 10 2 13 3 4 4 5 5 6 6 8 7 9 8 11 9 12 10 3 11 2 12 1 13
REMARK H PARENT
REMARK Flexibility Score: inf
ROOT
ATOM      1  C   UNL     1      15.021   8.901   2.394  1.00  0.00     0.160 A 
ATOM      2  C   UNL     1      14.795   7.705   1.694  1.00  0.00     0.160 A 
ATOM      3  C   UNL     1      13.474   7.272   1.464  1.00  0.00     0.054 A 
ATOM      4  C   UNL     1      12.385   8.022   1.932  1.00  0.00    -0.040 A 
ATOM      5  C   UNL     1      12.619   9.219   2.620  1.00  0.00     0.008 A 
ATOM      6  C   UNL     1      13.925   9.655   2.853  1.00  0.00     0.051 A 
ENDROOT
BRANCH   1   7
ATOM      7  O   UNL     1      16.347   9.307   2.609  1.00  0.00    -0.493 OA
ATOM      8  C   UNL     1      16.825  10.635   2.422  1.00  0.00     0.278 C 
ENDBRANCH   1   7
BRANCH   2   9
ATOM      9  O   UNL     1      15.907   6.978   1.241  1.00  0.00    -0.493 OA
ATOM     10  C   UNL     1      16.392   5.785   1.848  1.00  0.00     0.278 C 
ENDBRANCH   2   9
BRANCH   4  11
ATOM     11  C   UNL     1      10.974   7.573   1.656  1.00  0.00     0.062 C 
BRANCH  11  12
ATOM     12  C   UNL     1      10.495   8.102   0.334  1.00  0.00    -0.030 C 
ATOM     13  C   UNL     1      10.268   7.294  -0.706  1.00  0.00     0.004 C 
ENDBRANCH  11  12
ENDBRANCH   4  11
TORSDOF 4
ENDMDL
MODEL 2
REMARK VINA RESULT:    -3.809      1.820      4.521
REMARK INTER + INTRA:          -4.987
REMARK INTER:                  -4.762
REMARK INTRA:                  -0.225
REMARK UNBOUND:                -0.287
REMARK SMILES C=CCc1ccc(OC)c(OC)c1
REMARK SMILES IDX 7 1 10 2 13 3 4 4 5 5 6 6 8 7 9 8 11 9 12 10 3 11 2 12 1 13
REMARK H PARENT
REMARK Flexibility Score: inf
ROOT
ATOM      1  C   UNL     1      14.593   8.671   2.011  1.00  0.00     0.160 A 
ATOM      2  C   UNL     1      13.986   7.418   1.836  1.00  0.00     0.160 A 
ATOM      3  C   UNL     1      14.788   6.271   1.674  1.00  0.00     0.054 A 
ATOM      4  C   UNL     1      16.188   6.372   1.682  1.00  0.00    -0.040 A 
ATOM      5  C   UNL     1      16.786   7.625   1.868  1.00  0.00     0.008 A 
ATOM      6  C   UNL     1      15.998   8.766   2.028  1.00  0.00     0.051 A 
ENDROOT
BRANCH   1   7
ATOM      7  O   UNL     1      13.769   9.796   2.168  1.00  0.00    -0.493 OA
ATOM      8  C   UNL     1      14.199  11.043   2.706  1.00  0.00     0.278 C 
ENDBRANCH   1   7
BRANCH   2   9
ATOM      9  O   UNL     1      12.584   7.352   1.831  1.00  0.00    -0.493 OA
ATOM     10  C   UNL     1      11.790   7.134   0.669  1.00  0.00     0.278 C 
ENDBRANCH   2   9
BRANCH   4  11
ATOM     11  C   UNL     1      17.042   5.140   1.541  1.00  0.00     0.062 C 
BRANCH  11  12
ATOM     12  C   UNL     1      16.889   4.246   2.739  1.00  0.00    -0.030 C 
ATOM     13  C   UNL     1      16.180   3.115   2.686  1.00  0.00     0.004 C 
ENDBRANCH  11  12
ENDBRANCH   4  11
TORSDOF 4
ENDMDL
MODEL 3
REMARK VINA RESULT:    -3.802      0.968      2.849
REMARK INTER + INTRA:          -4.978
REMARK INTER:                  -4.690
REMARK INTRA:                  -0.288
REMARK UNBOUND:                -0.287
REMARK SMILES C=CCc1ccc(OC)c(OC)c1
REMARK SMILES IDX 7 1 10 2 13 3 4 4 5 5 6 6 8 7 9 8 11 9 12 10 3 11 2 12 1 13
REMARK H PARENT
REMARK Flexibility Score: inf
ROOT
ATOM      1  C   UNL     1      16.049   7.269   1.865  1.00  0.00     0.160 A 
ATOM      2  C   UNL     1      15.762   8.579   2.279  1.00  0.00     0.160 A 
ATOM      3  C   UNL     1      14.429   9.034   2.276  1.00  0.00     0.054 A 
ATOM      4  C   UNL     1      13.388   8.192   1.859  1.00  0.00    -0.040 A 
ATOM      5  C   UNL     1      13.682   6.883   1.457  1.00  0.00     0.008 A 
ATOM      6  C   UNL     1      15.000   6.423   1.456  1.00  0.00     0.051 A 
ENDROOT
BRANCH   1   7
ATOM      7  O   UNL     1      17.387   6.842   1.877  1.00  0.00    -0.493 OA
ATOM      8  C   UNL     1      17.803   5.487   1.747  1.00  0.00     0.278 C 
ENDBRANCH   1   7
BRANCH   2   9
ATOM      9  O   UNL     1      16.828   9.396   2.689  1.00  0.00    -0.493 OA
ATOM     10  C   UNL     1      17.387  10.447   1.907  1.00  0.00     0.278 C 
ENDBRANCH   2   9
BRANCH   4  11
ATOM     11  C   UNL     1      11.961   8.672   1.888  1.00  0.00     0.062 C 
BRANCH  11  12
ATOM     12  C   UNL     1      11.028   7.597   1.405  1.00  0.00    -0.030 C 
ATOM     13  C   UNL     1      10.287   7.752   0.304  1.00  0.00     0.004 C 
ENDBRANCH  11  12
ENDBRANCH   4  11
TORSDOF 4
ENDMDL
MODEL 4
REMARK VINA RESULT:    -3.539     17.509     18.546
REMARK INTER + INTRA:          -4.654
REMARK INTER:                  -4.341
REMARK INTRA:                  -0.313
REMARK UNBOUND:                -0.287
REMARK SMILES C=CCc1ccc(OC)c(OC)c1
REMARK SMILES IDX 7 1 10 2 13 3 4 4 5 5 6 6 8 7 9 8 11 9 12 10 3 11 2 12 1 13
REMARK H PARENT
REMARK Flexibility Score: inf
ROOT
ATOM      1  C   UNL     1      16.467  -5.689  12.974  1.00  0.00     0.160 A 
ATOM      2  C   UNL     1      17.870  -5.736  12.937  1.00  0.00     0.160 A 
ATOM      3  C   UNL     1      18.617  -4.674  13.482  1.00  0.00     0.054 A 
ATOM      4  C   UNL     1      17.972  -3.568  14.057  1.00  0.00    -0.040 A 
ATOM      5  C   UNL     1      16.573  -3.534  14.099  1.00  0.00     0.008 A 
ATOM      6  C   UNL     1      15.825  -4.582  13.560  1.00  0.00     0.051 A 
ENDROOT
BRANCH   1   7
ATOM      7  O   UNL     1      15.749  -6.761  12.422  1.00  0.00    -0.493 OA
ATOM      8  C   UNL     1      14.791  -7.541  13.132  1.00  0.00     0.278 C 
ENDBRANCH   1   7
BRANCH   2   9
ATOM      9  O   UNL     1      18.483  -6.856  12.353  1.00  0.00    -0.493 OA
ATOM     10  C   UNL     1      19.009  -7.960  13.082  1.00  0.00     0.278 C 
ENDBRANCH   2   9
BRANCH   4  11
ATOM     11  C   UNL     1      18.775  -2.449  14.667  1.00  0.00     0.062 C 
BRANCH  11  12
ATOM     12  C   UNL     1      17.870  -1.398  15.244  1.00  0.00    -0.030 C 
ATOM     13  C   UNL     1      17.895  -1.084  16.543  1.00  0.00     0.004 C 
ENDBRANCH  11  12
ENDBRANCH   4  11
TORSDOF 4
ENDMDL
MODEL 5
REMARK VINA RESULT:    -3.499     16.469     18.318
REMARK INTER + INTRA:          -4.605
REMARK INTER:                  -4.267
REMARK INTRA:                  -0.337
REMARK UNBOUND:                -0.287
REMARK SMILES C=CCc1ccc(OC)c(OC)c1
REMARK SMILES IDX 7 1 10 2 13 3 4 4 5 5 6 6 8 7 9 8 11 9 12 10 3 11 2 12 1 13
REMARK H PARENT
REMARK Flexibility Score: inf
ROOT
ATOM      1  C   UNL     1       4.147  -7.631   5.371  1.00  0.00     0.160 A 
ATOM      2  C   UNL     1       4.291  -6.364   4.785  1.00  0.00     0.160 A 
ATOM      3  C   UNL     1       5.297  -6.152   3.822  1.00  0.00     0.054 A 
ATOM      4  C   UNL     1       6.157  -7.194   3.447  1.00  0.00    -0.040 A 
ATOM      5  C   UNL     1       6.000  -8.458   4.029  1.00  0.00     0.008 A 
ATOM      6  C   UNL     1       5.007  -8.677   4.985  1.00  0.00     0.051 A 
ENDROOT
BRANCH   1   7
ATOM      7  O   UNL     1       3.137  -7.813   6.330  1.00  0.00    -0.493 OA
ATOM      8  C   UNL     1       1.876  -8.418   6.067  1.00  0.00     0.278 C 
ENDBRANCH   1   7
BRANCH   2   9
ATOM      9  O   UNL     1       3.415  -5.343   5.185  1.00  0.00    -0.493 OA
ATOM     10  C   UNL     1       2.259  -4.939   4.457  1.00  0.00     0.278 C 
ENDBRANCH   2   9
BRANCH   4  11
ATOM     11  C   UNL     1       7.211  -6.972   2.393  1.00  0.00     0.062 C 
BRANCH  11  12
ATOM     12  C   UNL     1       7.948  -5.687   2.640  1.00  0.00    -0.030 C 
ATOM     13  C   UNL     1       9.033  -5.638   3.419  1.00  0.00     0.004 C 
ENDBRANCH  11  12
ENDBRANCH   4  11
TORSDOF 4
ENDMDL
MODEL 6
REMARK VINA RESULT:    -3.468     17.070     18.902
REMARK INTER + INTRA:          -4.566
REMARK INTER:                  -4.317
REMARK INTRA:                  -0.249
REMARK UNBOUND:                -0.287
REMARK SMILES C=CCc1ccc(OC)c(OC)c1
REMARK SMILES IDX 7 1 10 2 13 3 4 4 5 5 6 6 8 7 9 8 11 9 12 10 3 11 2 12 1 13
REMARK H PARENT
REMARK Flexibility Score: inf
ROOT
ATOM      1  C   UNL     1      17.220  -4.775  13.687  1.00  0.00     0.160 A 
ATOM      2  C   UNL     1      17.388  -4.943  15.070  1.00  0.00     0.160 A 
ATOM      3  C   UNL     1      17.619  -3.817  15.885  1.00  0.00     0.054 A 
ATOM      4  C   UNL     1      17.688  -2.533  15.325  1.00  0.00    -0.040 A 
ATOM      5  C   UNL     1      17.509  -2.373  13.946  1.00  0.00     0.008 A 
ATOM      6  C   UNL     1      17.280  -3.484  13.131  1.00  0.00     0.051 A 
ENDROOT
BRANCH   1   7
ATOM      7  O   UNL     1      16.993  -5.915  12.899  1.00  0.00    -0.493 OA
ATOM      8  C   UNL     1      15.708  -6.468  12.632  1.00  0.00     0.278 C 
ENDBRANCH   1   7
BRANCH   2   9
ATOM      9  O   UNL     1      17.316  -6.242  15.597  1.00  0.00    -0.493 OA
ATOM     10  C   UNL     1      16.390  -6.658  16.596  1.00  0.00     0.278 C 
ENDBRANCH   2   9
BRANCH   4  11
ATOM     11  C   UNL     1      17.903  -1.328  16.204  1.00  0.00     0.062 C 
BRANCH  11  12
ATOM     12  C   UNL     1      16.851  -1.255  17.274  1.00  0.00    -0.030 C 
ATOM     13  C   UNL     1      17.170  -1.212  18.571  1.00  0.00     0.004 C 
ENDBRANCH  11  12
ENDBRANCH   4  11
TORSDOF 4
ENDMDL
MODEL 7
REMARK VINA RESULT:    -3.436      3.275      5.726
REMARK INTER + INTRA:          -4.527
REMARK INTER:                  -4.230
REMARK INTRA:                  -0.296
REMARK UNBOUND:                -0.287
REMARK SMILES C=CCc1ccc(OC)c(OC)c1
REMARK SMILES IDX 7 1 10 2 13 3 4 4 5 5 6 6 8 7 9 8 11 9 12 10 3 11 2 12 1 13
REMARK H PARENT
REMARK Flexibility Score: inf
ROOT
ATOM      1  C   UNL     1      17.537   3.193   1.780  1.00  0.00     0.160 A 
ATOM      2  C   UNL     1      18.001   4.249   0.981  1.00  0.00     0.160 A 
ATOM      3  C   UNL     1      17.338   5.491   1.016  1.00  0.00     0.054 A 
ATOM      4  C   UNL     1      16.216   5.679   1.837  1.00  0.00    -0.040 A 
ATOM      5  C   UNL     1      15.766   4.623   2.638  1.00  0.00     0.008 A 
ATOM      6  C   UNL     1      16.417   3.388   2.610  1.00  0.00     0.051 A 
ENDROOT
BRANCH   1   7
ATOM      7  O   UNL     1      18.218   1.965   1.724  1.00  0.00    -0.493 OA
ATOM      8  C   UNL     1      17.683   0.772   1.161  1.00  0.00     0.278 C 
ENDBRANCH   1   7
BRANCH   2   9
ATOM      9  O   UNL     1      19.125   4.027   0.170  1.00  0.00    -0.493 OA
ATOM     10  C   UNL     1      19.082   3.435  -1.125  1.00  0.00     0.278 C 
ENDBRANCH   2   9
BRANCH   4  11
ATOM     11  C   UNL     1      15.529   7.018   1.895  1.00  0.00     0.062 C 
BRANCH  11  12
ATOM     12  C   UNL     1      14.091   6.897   1.479  1.00  0.00    -0.030 C 
ATOM     13  C   UNL     1      13.715   7.027   0.203  1.00  0.00     0.004 C 
ENDBRANCH  11  12
ENDBRANCH   4  11
TORSDOF 4
ENDMDL
MODEL 8
REMARK VINA RESULT:    -3.377     17.324     18.687
REMARK INTER + INTRA:          -4.454
REMARK INTER:                  -4.189
REMARK INTRA:                  -0.265
REMARK UNBOUND:                -0.287
REMARK SMILES C=CCc1ccc(OC)c(OC)c1
REMARK SMILES IDX 7 1 10 2 13 3 4 4 5 5 6 6 8 7 9 8 11 9 12 10 3 11 2 12 1 13
REMARK H PARENT
REMARK Flexibility Score: inf
ROOT
ATOM      1  C   UNL     1      17.524  -5.896  12.948  1.00  0.00     0.160 A 
ATOM      2  C   UNL     1      16.444  -5.327  13.640  1.00  0.00     0.160 A 
ATOM      3  C   UNL     1      16.552  -4.015  14.141  1.00  0.00     0.054 A 
ATOM      4  C   UNL     1      17.730  -3.275  13.958  1.00  0.00    -0.040 A 
ATOM      5  C   UNL     1      18.799  -3.846  13.257  1.00  0.00     0.008 A 
ATOM      6  C   UNL     1      18.701  -5.147  12.758  1.00  0.00     0.051 A 
ENDROOT
BRANCH   1   7
ATOM      7  O   UNL     1      17.389  -7.206  12.461  1.00  0.00    -0.493 OA
ATOM      8  C   UNL     1      18.332  -8.250  12.681  1.00  0.00     0.278 C 
ENDBRANCH   1   7
BRANCH   2   9
ATOM      9  O   UNL     1      15.281  -6.095  13.807  1.00  0.00    -0.493 OA
ATOM     10  C   UNL     1      15.001  -6.897  14.950  1.00  0.00     0.278 C 
ENDBRANCH   2   9
BRANCH   4  11
ATOM     11  C   UNL     1      17.830  -1.861  14.468  1.00  0.00     0.062 C 
BRANCH  11  12
ATOM     12  C   UNL     1      18.106  -1.845  15.944  1.00  0.00    -0.030 C 
ATOM     13  C   UNL     1      17.335  -1.163  16.796  1.00  0.00     0.004 C 
ENDBRANCH  11  12
ENDBRANCH   4  11
TORSDOF 4
ENDMDL
MODEL 9
REMARK VINA RESULT:    -3.354     17.898     19.600
REMARK INTER + INTRA:          -4.425
REMARK INTER:                  -4.087
REMARK INTRA:                  -0.338
REMARK UNBOUND:                -0.287
REMARK SMILES C=CCc1ccc(OC)c(OC)c1
REMARK SMILES IDX 7 1 10 2 13 3 4 4 5 5 6 6 8 7 9 8 11 9 12 10 3 11 2 12 1 13
REMARK H PARENT
REMARK Flexibility Score: inf
ROOT
ATOM      1  C   UNL     1      15.551  -6.125  14.365  1.00  0.00     0.160 A 
ATOM      2  C   UNL     1      16.462  -6.206  15.430  1.00  0.00     0.160 A 
ATOM      3  C   UNL     1      17.389  -5.165  15.634  1.00  0.00     0.054 A 
ATOM      4  C   UNL     1      17.412  -4.052  14.780  1.00  0.00    -0.040 A 
ATOM      5  C   UNL     1      16.493  -3.974  13.727  1.00  0.00     0.008 A 
ATOM      6  C   UNL     1      15.572  -5.002  13.517  1.00  0.00     0.051 A 
ENDROOT
BRANCH   1   7
ATOM      7  O   UNL     1      14.640  -7.178  14.185  1.00  0.00    -0.493 OA
ATOM      8  C   UNL     1      14.690  -8.113  13.112  1.00  0.00     0.278 C 
ENDBRANCH   1   7
BRANCH   2   9
ATOM      9  O   UNL     1      16.413  -7.334  16.264  1.00  0.00    -0.493 OA
ATOM     10  C   UNL     1      15.774  -7.371  17.536  1.00  0.00     0.278 C 
ENDBRANCH   2   9
BRANCH   4  11
ATOM     11  C   UNL     1      18.383  -2.925  15.021  1.00  0.00     0.062 C 
BRANCH  11  12
ATOM     12  C   UNL     1      17.671  -1.713  15.551  1.00  0.00    -0.030 C 
ATOM     13  C   UNL     1      17.290  -1.625  16.829  1.00  0.00     0.004 C 
ENDBRANCH  11  12
ENDBRANCH   4  11
TORSDOF 4
ENDMDL
