MODEL 1
REMARK VINA RESULT:    -3.535      0.000      0.000
REMARK INTER + INTRA:          -4.482
REMARK INTER:                  -4.258
REMARK INTRA:                  -0.224
REMARK UNBOUND:                -0.224
REMARK SMILES OCC(O)CO
REMARK SMILES IDX 3 1 5 2 6 3 2 5 1 6 4 8
REMARK H PARENT 6 4 1 7 4 9
REMARK Flexibility Score: inf
ROOT
ATOM      1  C   UNL     1      -1.792 -15.345  20.473  1.00  0.00     0.165 C 
ENDROOT
BRANCH   1   2
ATOM      2  C   UNL     1      -2.479 -14.359  19.511  1.00  0.00     0.190 C 
BRANCH   2   3
ATOM      3  O   UNL     1      -1.706 -14.160  18.356  1.00  0.00    -0.394 OA
ATOM      4  H   UNL     1      -1.616 -13.179  18.233  1.00  0.00     0.210 HD
ENDBRANCH   2   3
ENDBRANCH   1   2
BRANCH   1   5
ATOM      5  C   UNL     1      -1.393 -16.653  19.777  1.00  0.00     0.190 C 
BRANCH   5   6
ATOM      6  O   UNL     1      -0.150 -16.517  19.144  1.00  0.00    -0.394 OA
ATOM      7  H   UNL     1       0.434 -17.220  19.531  1.00  0.00     0.210 HD
ENDBRANCH   5   6
ENDBRANCH   1   5
BRANCH   1   8
ATOM      8  O   UNL     1      -2.628 -15.627  21.565  1.00  0.00    -0.388 OA
ATOM      9  H   UNL     1      -3.093 -14.781  21.798  1.00  0.00     0.211 HD
ENDBRANCH   1   8
TORSDOF 5
ENDMDL
MODEL 2
REMARK VINA RESULT:    -3.446      0.439      2.264
REMARK INTER + INTRA:          -4.375
REMARK INTER:                  -4.152
REMARK INTRA:                  -0.224
REMARK UNBOUND:                -0.224
REMARK SMILES OCC(O)CO
REMARK SMILES IDX 3 1 5 2 6 3 2 5 1 6 4 8
REMARK H PARENT 6 4 1 7 4 9
REMARK Flexibility Score: inf
ROOT
ATOM      1  C   UNL     1      -2.271 -15.569  20.112  1.00  0.00     0.165 C 
ENDROOT
BRANCH   1   2
ATOM      2  C   UNL     1      -1.290 -16.715  19.809  1.00  0.00     0.190 C 
BRANCH   2   3
ATOM      3  O   UNL     1      -0.150 -16.239  19.142  1.00  0.00    -0.394 OA
ATOM      4  H   UNL     1       0.638 -16.526  19.673  1.00  0.00     0.210 HD
ENDBRANCH   2   3
ENDBRANCH   1   2
BRANCH   1   5
ATOM      5  C   UNL     1      -1.751 -14.212  19.621  1.00  0.00     0.190 C 
BRANCH   5   6
ATOM      6  O   UNL     1      -1.911 -14.093  18.234  1.00  0.00    -0.394 OA
ATOM      7  H   UNL     1      -1.131 -13.571  17.911  1.00  0.00     0.210 HD
ENDBRANCH   5   6
ENDBRANCH   1   5
BRANCH   1   8
ATOM      8  O   UNL     1      -2.536 -15.502  21.490  1.00  0.00    -0.388 OA
ATOM      9  H   UNL     1      -3.009 -16.340  21.733  1.00  0.00     0.211 HD
ENDBRANCH   1   8
TORSDOF 5
ENDMDL
MODEL 3
REMARK VINA RESULT:    -3.362      1.647      2.032
REMARK INTER + INTRA:          -4.274
REMARK INTER:                  -4.093
REMARK INTRA:                  -0.181
REMARK UNBOUND:                -0.224
REMARK SMILES OCC(O)CO
REMARK SMILES IDX 3 1 5 2 6 3 2 5 1 6 4 8
REMARK H PARENT 6 4 1 7 4 9
REMARK Flexibility Score: inf
ROOT
ATOM      1  C   UNL     1      -1.707 -14.820  19.403  1.00  0.00     0.165 C 
ENDROOT
BRANCH   1   2
ATOM      2  C   UNL     1      -0.576 -13.799  19.624  1.00  0.00     0.190 C 
BRANCH   2   3
ATOM      3  O   UNL     1       0.618 -14.232  19.027  1.00  0.00    -0.394 OA
ATOM      4  H   UNL     1       0.747 -15.180  19.288  1.00  0.00     0.210 HD
ENDBRANCH   2   3
ENDBRANCH   1   2
BRANCH   1   5
ATOM      5  C   UNL     1      -1.314 -16.231  19.860  1.00  0.00     0.190 C 
BRANCH   5   6
ATOM      6  O   UNL     1      -0.320 -16.762  19.028  1.00  0.00    -0.394 OA
ATOM      7  H   UNL     1       0.313 -17.240  19.625  1.00  0.00     0.210 HD
ENDBRANCH   5   6
ENDBRANCH   1   5
BRANCH   1   8
ATOM      8  O   UNL     1      -2.081 -14.851  18.049  1.00  0.00    -0.388 OA
ATOM      9  H   UNL     1      -3.053 -14.652  18.015  1.00  0.00     0.211 HD
ENDBRANCH   1   8
TORSDOF 5
ENDMDL
MODEL 4
REMARK VINA RESULT:    -3.290      0.872      2.863
REMARK INTER + INTRA:          -4.187
REMARK INTER:                  -4.171
REMARK INTRA:                  -0.016
REMARK UNBOUND:                -0.224
REMARK SMILES OCC(O)CO
REMARK SMILES IDX 3 1 5 2 6 3 2 5 1 6 4 8
REMARK H PARENT 6 4 1 7 4 9
REMARK Flexibility Score: inf
ROOT
ATOM      1  C   UNL     1      -1.017 -15.908  19.930  1.00  0.00     0.165 C 
ENDROOT
BRANCH   1   2
ATOM      2  C   UNL     1      -2.389 -16.577  20.126  1.00  0.00     0.190 C 
BRANCH   2   3
ATOM      3  O   UNL     1      -2.839 -16.425  21.447  1.00  0.00    -0.394 OA
ATOM      4  H   UNL     1      -3.831 -16.404  21.415  1.00  0.00     0.210 HD
ENDBRANCH   2   3
ENDBRANCH   1   2
BRANCH   1   5
ATOM      5  C   UNL     1      -1.141 -14.452  19.464  1.00  0.00     0.190 C 
BRANCH   5   6
ATOM      6  O   UNL     1      -1.925 -14.368  18.306  1.00  0.00    -0.394 OA
ATOM      7  H   UNL     1      -2.555 -13.616  18.454  1.00  0.00     0.210 HD
ENDBRANCH   5   6
ENDBRANCH   1   5
BRANCH   1   8
ATOM      8  O   UNL     1      -0.245 -16.634  19.008  1.00  0.00    -0.388 OA
ATOM      9  H   UNL     1       0.417 -16.002  18.625  1.00  0.00     0.211 HD
ENDBRANCH   1   8
TORSDOF 5
ENDMDL
MODEL 5
REMARK VINA RESULT:    -3.250      0.848      2.230
REMARK INTER + INTRA:          -4.139
REMARK INTER:                  -4.127
REMARK INTRA:                  -0.012
REMARK UNBOUND:                -0.224
REMARK SMILES OCC(O)CO
REMARK SMILES IDX 3 1 5 2 6 3 2 5 1 6 4 8
REMARK H PARENT 6 4 1 7 4 9
REMARK Flexibility Score: inf
ROOT
ATOM      1  C   UNL     1      -1.416 -16.007  19.413  1.00  0.00     0.165 C 
ENDROOT
BRANCH   1   2
ATOM      2  C   UNL     1      -1.262 -14.511  19.741  1.00  0.00     0.190 C 
BRANCH   2   3
ATOM      3  O   UNL     1      -1.068 -13.756  18.574  1.00  0.00    -0.394 OA
ATOM      4  H   UNL     1      -1.578 -12.912  18.685  1.00  0.00     0.210 HD
ENDBRANCH   2   3
ENDBRANCH   1   2
BRANCH   1   5
ATOM      5  C   UNL     1      -2.131 -16.777  20.531  1.00  0.00     0.190 C 
BRANCH   5   6
ATOM      6  O   UNL     1      -2.628 -15.894  21.499  1.00  0.00    -0.394 OA
ATOM      7  H   UNL     1      -3.573 -16.156  21.651  1.00  0.00     0.210 HD
ENDBRANCH   5   6
ENDBRANCH   1   5
BRANCH   1   8
ATOM      8  O   UNL     1      -0.161 -16.587  19.168  1.00  0.00    -0.388 OA
ATOM      9  H   UNL     1       0.522 -15.927  19.457  1.00  0.00     0.211 HD
ENDBRANCH   1   8
TORSDOF 5
ENDMDL
MODEL 6
REMARK VINA RESULT:    -3.211      0.746      2.966
REMARK INTER + INTRA:          -4.092
REMARK INTER:                  -4.081
REMARK INTRA:                  -0.011
REMARK UNBOUND:                -0.224
REMARK SMILES OCC(O)CO
REMARK SMILES IDX 3 1 5 2 6 3 2 5 1 6 4 8
REMARK H PARENT 6 4 1 7 4 9
REMARK Flexibility Score: inf
ROOT
ATOM      1  C   UNL     1      -1.484 -14.560  19.540  1.00  0.00     0.165 C 
ENDROOT
BRANCH   1   2
ATOM      2  C   UNL     1      -1.308 -16.076  19.737  1.00  0.00     0.190 C 
BRANCH   2   3
ATOM      3  O   UNL     1      -0.119 -16.527  19.143  1.00  0.00    -0.394 OA
ATOM      4  H   UNL     1       0.109 -17.393  19.570  1.00  0.00     0.210 HD
ENDBRANCH   2   3
ENDBRANCH   1   2
BRANCH   1   5
ATOM      5  C   UNL     1      -2.508 -13.962  20.514  1.00  0.00     0.190 C 
BRANCH   5   6
ATOM      6  O   UNL     1      -2.822 -14.880  21.526  1.00  0.00    -0.394 OA
ATOM      7  H   UNL     1      -3.122 -15.705  21.064  1.00  0.00     0.210 HD
ENDBRANCH   5   6
ENDBRANCH   1   5
BRANCH   1   8
ATOM      8  O   UNL     1      -1.871 -14.279  18.219  1.00  0.00    -0.388 OA
ATOM      9  H   UNL     1      -1.137 -14.597  17.631  1.00  0.00     0.211 HD
ENDBRANCH   1   8
TORSDOF 5
ENDMDL
MODEL 7
REMARK VINA RESULT:    -3.164      0.678      2.206
REMARK INTER + INTRA:          -4.035
REMARK INTER:                  -4.025
REMARK INTRA:                  -0.010
REMARK UNBOUND:                -0.224
REMARK SMILES OCC(O)CO
REMARK SMILES IDX 3 1 5 2 6 3 2 5 1 6 4 8
REMARK H PARENT 6 4 1 7 4 9
REMARK Flexibility Score: inf
ROOT
ATOM      1  C   UNL     1      -2.030 -15.109  19.477  1.00  0.00     0.165 C 
ENDROOT
BRANCH   1   2
ATOM      2  C   UNL     1      -2.444 -14.397  20.777  1.00  0.00     0.190 C 
BRANCH   2   3
ATOM      3  O   UNL     1      -2.704 -15.324  21.799  1.00  0.00    -0.394 OA
ATOM      4  H   UNL     1      -3.424 -14.940  22.364  1.00  0.00     0.210 HD
ENDBRANCH   2   3
ENDBRANCH   1   2
BRANCH   1   5
ATOM      5  C   UNL     1      -1.229 -16.389  19.745  1.00  0.00     0.190 C 
BRANCH   5   6
ATOM      6  O   UNL     1      -0.024 -16.378  19.030  1.00  0.00    -0.394 OA
ATOM      7  H   UNL     1       0.416 -17.247  19.219  1.00  0.00     0.210 HD
ENDBRANCH   5   6
ENDBRANCH   1   5
BRANCH   1   8
ATOM      8  O   UNL     1      -1.280 -14.244  18.663  1.00  0.00    -0.388 OA
ATOM      9  H   UNL     1      -1.827 -14.063  17.854  1.00  0.00     0.211 HD
ENDBRANCH   1   8
TORSDOF 5
ENDMDL
MODEL 8
REMARK VINA RESULT:    -3.123      5.856      6.570
REMARK INTER + INTRA:          -3.986
REMARK INTER:                  -3.804
REMARK INTRA:                  -0.182
REMARK UNBOUND:                -0.224
REMARK SMILES OCC(O)CO
REMARK SMILES IDX 3 1 5 2 6 3 2 5 1 6 4 8
REMARK H PARENT 6 4 1 7 4 9
REMARK Flexibility Score: inf
ROOT
ATOM      1  C   UNL     1       2.914 -11.158  17.905  1.00  0.00     0.165 C 
ENDROOT
BRANCH   1   2
ATOM      2  C   UNL     1       3.992 -11.920  17.114  1.00  0.00     0.190 C 
BRANCH   2   3
ATOM      3  O   UNL     1       3.437 -12.566  15.999  1.00  0.00    -0.394 OA
ATOM      4  H   UNL     1       2.472 -12.332  15.977  1.00  0.00     0.210 HD
ENDBRANCH   2   3
ENDBRANCH   1   2
BRANCH   1   5
ATOM      5  C   UNL     1       1.782 -12.078  18.380  1.00  0.00     0.190 C 
BRANCH   5   6
ATOM      6  O   UNL     1       2.298 -13.291  18.857  1.00  0.00    -0.394 OA
ATOM      7  H   UNL     1       3.005 -13.560  18.214  1.00  0.00     0.210 HD
ENDBRANCH   5   6
ENDBRANCH   1   5
BRANCH   1   8
ATOM      8  O   UNL     1       2.381 -10.116  17.128  1.00  0.00    -0.388 OA
ATOM      9  H   UNL     1       1.451  -9.968  17.444  1.00  0.00     0.211 HD
ENDBRANCH   1   8
TORSDOF 5
ENDMDL
MODEL 9
REMARK VINA RESULT:    -3.094      3.952      4.769
REMARK INTER + INTRA:          -3.950
REMARK INTER:                  -3.765
REMARK INTRA:                  -0.185
REMARK UNBOUND:                -0.224
REMARK SMILES OCC(O)CO
REMARK SMILES IDX 3 1 5 2 6 3 2 5 1 6 4 8
REMARK H PARENT 6 4 1 7 4 9
REMARK Flexibility Score: inf
ROOT
ATOM      1  C   UNL     1      -4.411 -18.894  21.638  1.00  0.00     0.165 C 
ENDROOT
BRANCH   1   2
ATOM      2  C   UNL     1      -3.364 -18.065  20.874  1.00  0.00     0.190 C 
BRANCH   2   3
ATOM      3  O   UNL     1      -3.003 -16.917  21.597  1.00  0.00    -0.394 OA
ATOM      4  H   UNL     1      -2.025 -16.794  21.477  1.00  0.00     0.210 HD
ENDBRANCH   2   3
ENDBRANCH   1   2
BRANCH   1   5
ATOM      5  C   UNL     1      -3.928 -19.292  23.039  1.00  0.00     0.190 C 
BRANCH   5   6
ATOM      6  O   UNL     1      -2.590 -19.708  23.000  1.00  0.00    -0.394 OA
ATOM      7  H   UNL     1      -2.185 -19.258  22.214  1.00  0.00     0.210 HD
ENDBRANCH   5   6
ENDBRANCH   1   5
BRANCH   1   8
ATOM      8  O   UNL     1      -4.751 -20.046  20.911  1.00  0.00    -0.388 OA
ATOM      9  H   UNL     1      -5.677 -19.914  20.578  1.00  0.00     0.211 HD
ENDBRANCH   1   8
TORSDOF 5
ENDMDL
