MODEL 1
REMARK VINA RESULT:    -4.624      0.000      0.000
REMARK INTER + INTRA:          -4.624
REMARK INTER:                  -4.624
REMARK INTRA:                   0.000
REMARK UNBOUND:                 0.000
REMARK SMILES CC1=CC[C@@H]2C[C@H]1C2(C)C
REMARK SMILES IDX 1 1 2 2 3 3 4 4 5 5 6 6 7 7 8 8 9 9 10 10
REMARK H PARENT
REMARK Flexibility Score: inf
ROOT
ATOM      1  C   UNL     1       4.456   8.266  11.381  1.00  0.00     0.039 C 
ATOM      2  C   UNL     1       5.343   7.482  12.300  1.00  0.00    -0.074 C 
ATOM      3  C   UNL     1       5.166   6.141  12.486  1.00  0.00    -0.027 C 
ATOM      4  C   UNL     1       6.132   5.389  13.424  1.00  0.00     0.031 C 
ATOM      5  C   UNL     1       7.164   6.390  14.047  1.00  0.00    -0.000 C 
ATOM      6  C   UNL     1       6.337   7.600  14.526  1.00  0.00     0.013 C 
ATOM      7  C   UNL     1       6.480   8.145  13.092  1.00  0.00     0.021 C 
ATOM      8  C   UNL     1       7.771   7.299  12.943  1.00  0.00    -0.026 C 
ATOM      9  C   UNL     1       9.031   8.057  13.433  1.00  0.00     0.012 C 
ATOM     10  C   UNL     1       8.088   6.674  11.555  1.00  0.00     0.012 C 
ENDROOT
TORSDOF 0
ENDMDL
MODEL 2
REMARK VINA RESULT:    -4.267      1.052      2.129
REMARK INTER + INTRA:          -4.267
REMARK INTER:                  -4.267
REMARK INTRA:                   0.000
REMARK UNBOUND:                 0.000
REMARK SMILES CC1=CC[C@@H]2C[C@H]1C2(C)C
REMARK SMILES IDX 1 1 2 2 3 3 4 4 5 5 6 6 7 7 8 8 9 9 10 10
REMARK H PARENT
REMARK Flexibility Score: inf
ROOT
ATOM      1  C   UNL     1       4.798   8.618  10.877  1.00  0.00     0.039 C 
ATOM      2  C   UNL     1       5.522   7.997  12.033  1.00  0.00    -0.074 C 
ATOM      3  C   UNL     1       5.063   8.126  13.312  1.00  0.00    -0.027 C 
ATOM      4  C   UNL     1       5.842   7.439  14.452  1.00  0.00     0.031 C 
ATOM      5  C   UNL     1       7.109   6.716  13.878  1.00  0.00    -0.000 C 
ATOM      6  C   UNL     1       7.777   7.733  12.931  1.00  0.00     0.013 C 
ATOM      7  C   UNL     1       6.823   7.203  11.843  1.00  0.00     0.021 C 
ATOM      8  C   UNL     1       6.732   5.870  12.631  1.00  0.00    -0.026 C 
ATOM      9  C   UNL     1       7.852   4.875  12.236  1.00  0.00     0.012 C 
ATOM     10  C   UNL     1       5.378   5.105  12.632  1.00  0.00     0.012 C 
ENDROOT
TORSDOF 0
ENDMDL
MODEL 3
REMARK VINA RESULT:    -3.707      0.923      3.218
REMARK INTER + INTRA:          -3.707
REMARK INTER:                  -3.707
REMARK INTRA:                   0.000
REMARK UNBOUND:                 0.000
REMARK SMILES CC1=CC[C@@H]2C[C@H]1C2(C)C
REMARK SMILES IDX 1 1 2 2 3 3 4 4 5 5 6 6 7 7 8 8 9 9 10 10
REMARK H PARENT
REMARK Flexibility Score: inf
ROOT
ATOM      1  C   UNL     1       8.180   8.642  14.674  1.00  0.00     0.039 C 
ATOM      2  C   UNL     1       7.398   7.676  13.837  1.00  0.00    -0.074 C 
ATOM      3  C   UNL     1       7.099   6.424  14.290  1.00  0.00    -0.027 C 
ATOM      4  C   UNL     1       6.266   5.489  13.389  1.00  0.00     0.031 C 
ATOM      5  C   UNL     1       5.946   6.198  12.029  1.00  0.00    -0.000 C 
ATOM      6  C   UNL     1       7.277   6.816  11.556  1.00  0.00     0.013 C 
ATOM      7  C   UNL     1       6.911   8.035  12.425  1.00  0.00     0.021 C 
ATOM      8  C   UNL     1       5.419   7.638  12.280  1.00  0.00    -0.026 C 
ATOM      9  C   UNL     1       4.767   8.254  11.016  1.00  0.00     0.012 C 
ATOM     10  C   UNL     1       4.469   7.884  13.486  1.00  0.00     0.012 C 
ENDROOT
TORSDOF 0
ENDMDL
MODEL 4
REMARK VINA RESULT:    -3.522      1.134      3.115
REMARK INTER + INTRA:          -3.522
REMARK INTER:                  -3.522
REMARK INTRA:                   0.000
REMARK UNBOUND:                 0.000
REMARK SMILES CC1=CC[C@@H]2C[C@H]1C2(C)C
REMARK SMILES IDX 1 1 2 2 3 3 4 4 5 5 6 6 7 7 8 8 9 9 10 10
REMARK H PARENT
REMARK Flexibility Score: inf
ROOT
ATOM      1  C   UNL     1       9.317   8.562  14.211  1.00  0.00     0.039 C 
ATOM      2  C   UNL     1       8.050   8.139  13.534  1.00  0.00    -0.074 C 
ATOM      3  C   UNL     1       7.706   8.620  12.304  1.00  0.00    -0.027 C 
ATOM      4  C   UNL     1       6.400   8.122  11.651  1.00  0.00     0.031 C 
ATOM      5  C   UNL     1       5.663   7.128  12.614  1.00  0.00    -0.000 C 
ATOM      6  C   UNL     1       5.678   7.802  14.001  1.00  0.00     0.013 C 
ATOM      7  C   UNL     1       7.066   7.161  14.193  1.00  0.00     0.021 C 
ATOM      8  C   UNL     1       6.659   6.072  13.167  1.00  0.00    -0.026 C 
ATOM      9  C   UNL     1       5.934   4.875  13.835  1.00  0.00     0.012 C 
ATOM     10  C   UNL     1       7.752   5.509  12.215  1.00  0.00     0.012 C 
ENDROOT
TORSDOF 0
ENDMDL
MODEL 5
REMARK VINA RESULT:    -3.228      1.094      3.087
REMARK INTER + INTRA:          -3.228
REMARK INTER:                  -3.228
REMARK INTRA:                   0.000
REMARK UNBOUND:                 0.000
REMARK SMILES CC1=CC[C@@H]2C[C@H]1C2(C)C
REMARK SMILES IDX 1 1 2 2 3 3 4 4 5 5 6 6 7 7 8 8 9 9 10 10
REMARK H PARENT
REMARK Flexibility Score: inf
ROOT
ATOM      1  C   UNL     1       6.626   4.875  15.033  1.00  0.00     0.039 C 
ATOM      2  C   UNL     1       6.886   5.734  13.833  1.00  0.00    -0.074 C 
ATOM      3  C   UNL     1       7.527   5.243  12.732  1.00  0.00    -0.027 C 
ATOM      4  C   UNL     1       7.737   6.173  11.520  1.00  0.00     0.031 C 
ATOM      5  C   UNL     1       7.170   7.600  11.833  1.00  0.00    -0.000 C 
ATOM      6  C   UNL     1       7.693   7.959  13.239  1.00  0.00     0.013 C 
ATOM      7  C   UNL     1       6.463   7.209  13.784  1.00  0.00     0.021 C 
ATOM      8  C   UNL     1       5.744   7.495  12.440  1.00  0.00    -0.026 C 
ATOM      9  C   UNL     1       5.006   8.858  12.445  1.00  0.00     0.012 C 
ATOM     10  C   UNL     1       4.773   6.418  11.879  1.00  0.00     0.012 C 
ENDROOT
TORSDOF 0
ENDMDL
MODEL 6
REMARK VINA RESULT:    -3.083      1.111      2.562
REMARK INTER + INTRA:          -3.083
REMARK INTER:                  -3.083
REMARK INTRA:                   0.000
REMARK UNBOUND:                 0.000
REMARK SMILES CC1=CC[C@@H]2C[C@H]1C2(C)C
REMARK SMILES IDX 1 1 2 2 3 3 4 4 5 5 6 6 7 7 8 8 9 9 10 10
REMARK H PARENT
REMARK Flexibility Score: inf
ROOT
ATOM      1  C   UNL     1       4.462   8.280  11.993  1.00  0.00     0.039 C 
ATOM      2  C   UNL     1       5.622   7.342  12.129  1.00  0.00    -0.074 C 
ATOM      3  C   UNL     1       6.791   7.555  11.458  1.00  0.00    -0.027 C 
ATOM      4  C   UNL     1       7.956   6.566  11.665  1.00  0.00     0.031 C 
ATOM      5  C   UNL     1       7.519   5.417  12.638  1.00  0.00    -0.000 C 
ATOM      6  C   UNL     1       6.133   4.955  12.143  1.00  0.00     0.013 C 
ATOM      7  C   UNL     1       5.551   6.087  13.011  1.00  0.00     0.021 C 
ATOM      8  C   UNL     1       6.823   6.007  13.895  1.00  0.00    -0.026 C 
ATOM      9  C   UNL     1       6.685   4.964  15.033  1.00  0.00     0.012 C 
ATOM     10  C   UNL     1       7.381   7.323  14.506  1.00  0.00     0.012 C 
ENDROOT
TORSDOF 0
ENDMDL
