MODEL 1
REMARK VINA RESULT:    -5.108      0.000      0.000
REMARK INTER + INTRA:          -8.664
REMARK INTER:                  -7.646
REMARK INTRA:                  -1.018
REMARK UNBOUND:                -1.018
REMARK SMILES COC(=O)C1=CO[C@H](O[C@H]2O[C@H](CO)[C@H](O)[C@H](O)[C@@H]2O)[C@H]2C(CO)=CC[C@@H]12
REMARK SMILES IDX 9 1 8 2 5 3 6 4 27 5 7 6 21 7 26 8 22 9 25 10 3 11 4 12 2 13
REMARK SMILES IDX 1 14 23 15 24 16 10 18 19 19 11 20 17 21 12 22 15 23 20 24
REMARK SMILES IDX 18 26 13 28 14 29 16 31
REMARK H PARENT 24 17 20 25 18 27 14 30 16 32
REMARK Flexibility Score: inf
ROOT
ATOM      1  O   UNL     1      23.618   2.973  27.834  1.00  0.00    -0.310 OA
ENDROOT
BRANCH   1   2
ATOM      2  C   UNL     1      23.973   1.852  28.624  1.00  0.00     0.316 C 
ATOM      3  C   UNL     1      21.593   2.063  30.161  1.00  0.00     0.076 C 
ATOM      4  C   UNL     1      22.758   2.514  30.646  1.00  0.00     0.202 C 
ATOM      5  C   UNL     1      21.567   1.021  29.043  1.00  0.00     0.047 C 
ATOM      6  O   UNL     1      23.958   2.208  30.004  1.00  0.00    -0.471 OA
ATOM      7  C   UNL     1      22.945   0.736  28.377  1.00  0.00     0.094 C 
ATOM      8  C   UNL     1      21.130  -0.343  29.614  1.00  0.00     0.037 C 
ATOM      9  C   UNL     1      23.362  -0.581  28.965  1.00  0.00    -0.039 C 
ATOM     10  C   UNL     1      22.378  -1.149  29.650  1.00  0.00    -0.024 C 
BRANCH   3  11
ATOM     11  C   UNL     1      20.314   2.530  30.745  1.00  0.00     0.337 C 
ATOM     12  O   UNL     1      19.911   2.040  31.836  1.00  0.00    -0.246 OA
BRANCH  11  13
ATOM     13  O   UNL     1      19.543   3.492  30.082  1.00  0.00    -0.466 OA
ATOM     14  C   UNL     1      20.119   4.487  29.245  1.00  0.00     0.282 C 
ENDBRANCH  11  13
ENDBRANCH   3  11
BRANCH   9  15
ATOM     15  C   UNL     1      24.708  -1.226  28.735  1.00  0.00     0.187 C 
BRANCH  15  16
ATOM     16  O   UNL     1      25.169  -0.996  27.426  1.00  0.00    -0.392 OA
ATOM     17  H   UNL     1      26.050  -0.545  27.510  1.00  0.00     0.211 HD
ENDBRANCH  15  16
ENDBRANCH   9  15
ENDBRANCH   1   2
BRANCH   1  18
ATOM     18  C   UNL     1      23.828   2.737  26.445  1.00  0.00     0.286 C 
ATOM     19  C   UNL     1      25.042   3.547  25.937  1.00  0.00     0.202 C 
ATOM     20  O   UNL     1      22.652   3.045  25.708  1.00  0.00    -0.341 OA
ATOM     21  C   UNL     1      24.728   5.056  25.905  1.00  0.00     0.179 C 
ATOM     22  C   UNL     1      22.284   4.410  25.852  1.00  0.00     0.178 C 
ATOM     23  C   UNL     1      23.361   5.345  25.249  1.00  0.00     0.177 C 
BRANCH  19  24
ATOM     24  O   UNL     1      25.413   3.082  24.664  1.00  0.00    -0.385 OA
ATOM     25  H   UNL     1      25.897   2.228  24.800  1.00  0.00     0.211 HD
ENDBRANCH  19  24
BRANCH  21  26
ATOM     26  O   UNL     1      25.755   5.749  25.243  1.00  0.00    -0.387 OA
ATOM     27  H   UNL     1      26.356   6.109  25.946  1.00  0.00     0.211 HD
ENDBRANCH  21  26
BRANCH  22  28
ATOM     28  C   UNL     1      20.905   4.640  25.217  1.00  0.00     0.191 C 
BRANCH  28  29
ATOM     29  O   UNL     1      20.461   3.486  24.557  1.00  0.00    -0.394 OA
ATOM     30  H   UNL     1      19.917   3.802  23.788  1.00  0.00     0.210 HD
ENDBRANCH  28  29
ENDBRANCH  22  28
BRANCH  23  31
ATOM     31  O   UNL     1      23.425   5.251  23.845  1.00  0.00    -0.387 OA
ATOM     32  H   UNL     1      22.522   5.030  23.508  1.00  0.00     0.211 HD
ENDBRANCH  23  31
ENDBRANCH   1  18
TORSDOF 11
ENDMDL
MODEL 2
REMARK VINA RESULT:    -4.974      2.492      6.629
REMARK INTER + INTRA:          -8.464
REMARK INTER:                  -7.350
REMARK INTRA:                  -1.114
REMARK UNBOUND:                -1.018
REMARK SMILES COC(=O)C1=CO[C@H](O[C@H]2O[C@H](CO)[C@H](O)[C@H](O)[C@@H]2O)[C@H]2C(CO)=CC[C@@H]12
REMARK SMILES IDX 9 1 8 2 5 3 6 4 27 5 7 6 21 7 26 8 22 9 25 10 3 11 4 12 2 13
REMARK SMILES IDX 1 14 23 15 24 16 10 18 19 19 11 20 17 21 12 22 15 23 20 24
REMARK SMILES IDX 18 26 13 28 14 29 16 31
REMARK H PARENT 24 17 20 25 18 27 14 30 16 32
REMARK Flexibility Score: inf
ROOT
ATOM      1  O   UNL     1      22.516   1.205  28.360  1.00  0.00    -0.310 OA
ENDROOT
BRANCH   1   2
ATOM      2  C   UNL     1      22.178   2.469  27.819  1.00  0.00     0.316 C 
ATOM      3  C   UNL     1      24.899   3.285  27.776  1.00  0.00     0.076 C 
ATOM      4  C   UNL     1      24.077   3.709  28.746  1.00  0.00     0.202 C 
ATOM      5  C   UNL     1      24.339   2.784  26.446  1.00  0.00     0.047 C 
ATOM      6  O   UNL     1      22.701   3.505  28.647  1.00  0.00    -0.471 OA
ATOM      7  C   UNL     1      22.796   2.581  26.415  1.00  0.00     0.094 C 
ATOM      8  C   UNL     1      24.607   3.827  25.342  1.00  0.00     0.037 C 
ATOM      9  C   UNL     1      22.292   3.771  25.651  1.00  0.00    -0.039 C 
ATOM     10  C   UNL     1      23.283   4.451  25.089  1.00  0.00    -0.024 C 
BRANCH   3  11
ATOM     11  C   UNL     1      26.367   3.350  27.965  1.00  0.00     0.337 C 
ATOM     12  O   UNL     1      27.079   2.350  27.673  1.00  0.00    -0.246 OA
BRANCH  11  13
ATOM     13  O   UNL     1      26.963   4.505  28.486  1.00  0.00    -0.466 OA
ATOM     14  C   UNL     1      27.490   4.562  29.806  1.00  0.00     0.282 C 
ENDBRANCH  11  13
ENDBRANCH   3  11
BRANCH   9  15
ATOM     15  C   UNL     1      20.831   4.108  25.468  1.00  0.00     0.187 C 
BRANCH  15  16
ATOM     16  O   UNL     1      20.252   3.332  24.448  1.00  0.00    -0.392 OA
ATOM     17  H   UNL     1      19.737   3.957  23.872  1.00  0.00     0.211 HD
ENDBRANCH  15  16
ENDBRANCH   9  15
ENDBRANCH   1   2
BRANCH   1  18
ATOM     18  C   UNL     1      21.842   0.950  29.588  1.00  0.00     0.286 C 
ATOM     19  C   UNL     1      22.860   0.628  30.706  1.00  0.00     0.202 C 
ATOM     20  O   UNL     1      20.898  -0.101  29.425  1.00  0.00    -0.341 OA
ATOM     21  C   UNL     1      23.520  -0.747  30.476  1.00  0.00     0.179 C 
ATOM     22  C   UNL     1      21.525  -1.314  29.029  1.00  0.00     0.178 C 
ATOM     23  C   UNL     1      22.480  -1.834  30.132  1.00  0.00     0.177 C 
BRANCH  19  24
ATOM     24  O   UNL     1      22.214   0.673  31.952  1.00  0.00    -0.385 OA
ATOM     25  H   UNL     1      21.473   0.015  31.915  1.00  0.00     0.211 HD
ENDBRANCH  19  24
BRANCH  21  26
ATOM     26  O   UNL     1      24.273  -1.115  31.603  1.00  0.00    -0.387 OA
ATOM     27  H   UNL     1      24.117  -2.085  31.746  1.00  0.00     0.211 HD
ENDBRANCH  21  26
BRANCH  22  28
ATOM     28  C   UNL     1      20.452  -2.351  28.664  1.00  0.00     0.191 C 
BRANCH  28  29
ATOM     29  O   UNL     1      20.991  -3.645  28.662  1.00  0.00    -0.394 OA
ATOM     30  H   UNL     1      21.189  -3.857  27.712  1.00  0.00     0.210 HD
ENDBRANCH  28  29
ENDBRANCH  22  28
BRANCH  23  31
ATOM     31  O   UNL     1      21.786  -2.274  31.276  1.00  0.00    -0.387 OA
ATOM     32  H   UNL     1      20.818  -2.143  31.121  1.00  0.00     0.211 HD
ENDBRANCH  23  31
ENDBRANCH   1  18
TORSDOF 11
ENDMDL
MODEL 3
REMARK VINA RESULT:    -4.662      2.029      6.035
REMARK INTER + INTRA:          -7.996
REMARK INTER:                  -7.018
REMARK INTRA:                  -0.978
REMARK UNBOUND:                -1.018
REMARK SMILES COC(=O)C1=CO[C@H](O[C@H]2O[C@H](CO)[C@H](O)[C@H](O)[C@@H]2O)[C@H]2C(CO)=CC[C@@H]12
REMARK SMILES IDX 9 1 8 2 5 3 6 4 27 5 7 6 21 7 26 8 22 9 25 10 3 11 4 12 2 13
REMARK SMILES IDX 1 14 23 15 24 16 10 18 19 19 11 20 17 21 12 22 15 23 20 24
REMARK SMILES IDX 18 26 13 28 14 29 16 31
REMARK H PARENT 24 17 20 25 18 27 14 30 16 32
REMARK Flexibility Score: inf
ROOT
ATOM      1  O   UNL     1      22.910   1.137  28.139  1.00  0.00    -0.310 OA
ENDROOT
BRANCH   1   2
ATOM      2  C   UNL     1      23.978   1.865  27.559  1.00  0.00     0.316 C 
ATOM      3  C   UNL     1      22.187   3.706  26.344  1.00  0.00     0.076 C 
ATOM      4  C   UNL     1      22.741   2.721  25.625  1.00  0.00     0.202 C 
ATOM      5  C   UNL     1      22.832   4.175  27.647  1.00  0.00     0.047 C 
ATOM      6  O   UNL     1      23.788   1.963  26.150  1.00  0.00    -0.471 OA
ATOM      7  C   UNL     1      23.992   3.277  28.169  1.00  0.00     0.094 C 
ATOM      8  C   UNL     1      23.485   5.556  27.437  1.00  0.00     0.037 C 
ATOM      9  C   UNL     1      25.230   4.050  27.817  1.00  0.00    -0.039 C 
ATOM     10  C   UNL     1      24.944   5.278  27.403  1.00  0.00    -0.024 C 
BRANCH   3  11
ATOM     11  C   UNL     1      20.969   4.391  25.851  1.00  0.00     0.337 C 
ATOM     12  O   UNL     1      20.655   4.306  24.632  1.00  0.00    -0.246 OA
BRANCH  11  13
ATOM     13  O   UNL     1      20.182   5.150  26.725  1.00  0.00    -0.466 OA
ATOM     14  C   UNL     1      19.310   6.177  26.270  1.00  0.00     0.282 C 
ENDBRANCH  11  13
ENDBRANCH   3  11
BRANCH   9  15
ATOM     15  C   UNL     1      26.636   3.529  27.994  1.00  0.00     0.187 C 
BRANCH  15  16
ATOM     16  O   UNL     1      26.963   2.589  27.000  1.00  0.00    -0.392 OA
ATOM     17  H   UNL     1      27.951   2.610  26.902  1.00  0.00     0.211 HD
ENDBRANCH  15  16
ENDBRANCH   9  15
ENDBRANCH   1   2
BRANCH   1  18
ATOM     18  C   UNL     1      23.298   0.486  29.345  1.00  0.00     0.286 C 
ATOM     19  C   UNL     1      23.155  -1.046  29.203  1.00  0.00     0.202 C 
ATOM     20  O   UNL     1      22.537   0.981  30.440  1.00  0.00    -0.341 OA
ATOM     21  C   UNL     1      21.671  -1.461  29.143  1.00  0.00     0.179 C 
ATOM     22  C   UNL     1      21.147   0.745  30.263  1.00  0.00     0.178 C 
ATOM     23  C   UNL     1      20.837  -0.772  30.244  1.00  0.00     0.177 C 
BRANCH  19  24
ATOM     24  O   UNL     1      23.812  -1.676  30.272  1.00  0.00    -0.385 OA
ATOM     25  H   UNL     1      23.799  -1.040  31.032  1.00  0.00     0.211 HD
ENDBRANCH  19  24
BRANCH  21  26
ATOM     26  O   UNL     1      21.557  -2.858  29.232  1.00  0.00    -0.387 OA
ATOM     27  H   UNL     1      21.094  -3.053  30.088  1.00  0.00     0.211 HD
ENDBRANCH  21  26
BRANCH  22  28
ATOM     28  C   UNL     1      20.358   1.478  31.358  1.00  0.00     0.191 C 
BRANCH  28  29
ATOM     29  O   UNL     1      19.127   0.849  31.591  1.00  0.00    -0.394 OA
ATOM     30  H   UNL     1      18.890   0.390  30.742  1.00  0.00     0.210 HD
ENDBRANCH  28  29
ENDBRANCH  22  28
BRANCH  23  31
ATOM     31  O   UNL     1      21.033  -1.374  31.503  1.00  0.00    -0.387 OA
ATOM     32  H   UNL     1      21.878  -1.027  31.883  1.00  0.00     0.211 HD
ENDBRANCH  23  31
ENDBRANCH   1  18
TORSDOF 11
ENDMDL
MODEL 4
REMARK VINA RESULT:    -4.587      1.986      6.603
REMARK INTER + INTRA:          -7.884
REMARK INTER:                  -6.922
REMARK INTRA:                  -0.962
REMARK UNBOUND:                -1.018
REMARK SMILES COC(=O)C1=CO[C@H](O[C@H]2O[C@H](CO)[C@H](O)[C@H](O)[C@@H]2O)[C@H]2C(CO)=CC[C@@H]12
REMARK SMILES IDX 9 1 8 2 5 3 6 4 27 5 7 6 21 7 26 8 22 9 25 10 3 11 4 12 2 13
REMARK SMILES IDX 1 14 23 15 24 16 10 18 19 19 11 20 17 21 12 22 15 23 20 24
REMARK SMILES IDX 18 26 13 28 14 29 16 31
REMARK H PARENT 24 17 20 25 18 27 14 30 16 32
REMARK Flexibility Score: inf
ROOT
ATOM      1  O   UNL     1      22.641   2.696  28.672  1.00  0.00    -0.310 OA
ENDROOT
BRANCH   1   2
ATOM      2  C   UNL     1      22.142   3.537  27.647  1.00  0.00     0.316 C 
ATOM      3  C   UNL     1      24.694   4.719  27.244  1.00  0.00     0.076 C 
ATOM      4  C   UNL     1      23.750   5.361  27.946  1.00  0.00     0.202 C 
ATOM      5  C   UNL     1      24.313   3.616  26.257  1.00  0.00     0.047 C 
ATOM      6  O   UNL     1      22.434   4.898  27.953  1.00  0.00    -0.471 OA
ATOM      7  C   UNL     1      22.828   3.154  26.325  1.00  0.00     0.094 C 
ATOM      8  C   UNL     1      24.486   4.129  24.813  1.00  0.00     0.037 C 
ATOM      9  C   UNL     1      22.194   3.806  25.131  1.00  0.00    -0.039 C 
ATOM     10  C   UNL     1      23.099   4.348  24.326  1.00  0.00    -0.024 C 
BRANCH   3  11
ATOM     11  C   UNL     1      26.116   5.112  27.378  1.00  0.00     0.337 C 
ATOM     12  O   UNL     1      26.549   6.112  26.742  1.00  0.00    -0.246 OA
BRANCH  11  13
ATOM     13  O   UNL     1      26.983   4.367  28.185  1.00  0.00    -0.466 OA
ATOM     14  C   UNL     1      27.172   4.650  29.566  1.00  0.00     0.282 C 
ENDBRANCH  11  13
ENDBRANCH   3  11
BRANCH   9  15
ATOM     15  C   UNL     1      20.714   3.774  24.831  1.00  0.00     0.187 C 
BRANCH  15  16
ATOM     16  O   UNL     1      20.093   4.983  25.192  1.00  0.00    -0.392 OA
ATOM     17  H   UNL     1      20.783   5.693  25.112  1.00  0.00     0.211 HD
ENDBRANCH  15  16
ENDBRANCH   9  15
ENDBRANCH   1   2
BRANCH   1  18
ATOM     18  C   UNL     1      21.749   1.625  28.968  1.00  0.00     0.286 C 
ATOM     19  C   UNL     1      21.384   1.626  30.470  1.00  0.00     0.202 C 
ATOM     20  O   UNL     1      22.319   0.384  28.571  1.00  0.00    -0.341 OA
ATOM     21  C   UNL     1      22.592   1.211  31.335  1.00  0.00     0.179 C 
ATOM     22  C   UNL     1      23.535   0.121  29.257  1.00  0.00     0.178 C 
ATOM     23  C   UNL     1      23.294  -0.045  30.777  1.00  0.00     0.177 C 
BRANCH  19  24
ATOM     24  O   UNL     1      20.293   0.767  30.684  1.00  0.00    -0.385 OA
ATOM     25  H   UNL     1      20.000   0.904  31.621  1.00  0.00     0.211 HD
ENDBRANCH  19  24
BRANCH  21  26
ATOM     26  O   UNL     1      22.187   1.009  32.664  1.00  0.00    -0.387 OA
ATOM     27  H   UNL     1      21.439   1.639  32.834  1.00  0.00     0.211 HD
ENDBRANCH  21  26
BRANCH  22  28
ATOM     28  C   UNL     1      24.213  -1.115  28.646  1.00  0.00     0.191 C 
BRANCH  28  29
ATOM     29  O   UNL     1      25.016  -0.754  27.555  1.00  0.00    -0.394 OA
ATOM     30  H   UNL     1      24.850  -1.439  26.855  1.00  0.00     0.210 HD
ENDBRANCH  28  29
ENDBRANCH  22  28
BRANCH  23  31
ATOM     31  O   UNL     1      22.578  -1.221  31.079  1.00  0.00    -0.387 OA
ATOM     32  H   UNL     1      23.115  -1.756  31.714  1.00  0.00     0.211 HD
ENDBRANCH  23  31
ENDBRANCH   1  18
TORSDOF 11
ENDMDL
MODEL 5
REMARK VINA RESULT:    -4.570      1.598      2.844
REMARK INTER + INTRA:          -7.859
REMARK INTER:                  -6.934
REMARK INTRA:                  -0.925
REMARK UNBOUND:                -1.018
REMARK SMILES COC(=O)C1=CO[C@H](O[C@H]2O[C@H](CO)[C@H](O)[C@H](O)[C@@H]2O)[C@H]2C(CO)=CC[C@@H]12
REMARK SMILES IDX 9 1 8 2 5 3 6 4 27 5 7 6 21 7 26 8 22 9 25 10 3 11 4 12 2 13
REMARK SMILES IDX 1 14 23 15 24 16 10 18 19 19 11 20 17 21 12 22 15 23 20 24
REMARK SMILES IDX 18 26 13 28 14 29 16 31
REMARK H PARENT 24 17 20 25 18 27 14 30 16 32
REMARK Flexibility Score: inf
ROOT
ATOM      1  O   UNL     1      21.853   2.865  27.893  1.00  0.00    -0.310 OA
ENDROOT
BRANCH   1   2
ATOM      2  C   UNL     1      22.966   2.131  28.373  1.00  0.00     0.316 C 
ATOM      3  C   UNL     1      21.502   1.202  30.624  1.00  0.00     0.076 C 
ATOM      4  C   UNL     1      22.375   2.211  30.749  1.00  0.00     0.202 C 
ATOM      5  C   UNL     1      21.608   0.223  29.455  1.00  0.00     0.047 C 
ATOM      6  O   UNL     1      23.258   2.517  29.714  1.00  0.00    -0.471 OA
ATOM      7  C   UNL     1      22.614   0.634  28.340  1.00  0.00     0.094 C 
ATOM      8  C   UNL     1      22.135  -1.135  29.960  1.00  0.00     0.037 C 
ATOM      9  C   UNL     1      23.803  -0.248  28.586  1.00  0.00    -0.039 C 
ATOM     10  C   UNL     1      23.539  -1.193  29.480  1.00  0.00    -0.024 C 
BRANCH   3  11
ATOM     11  C   UNL     1      20.457   0.991  31.653  1.00  0.00     0.337 C 
ATOM     12  O   UNL     1      20.692   1.299  32.853  1.00  0.00    -0.246 OA
BRANCH  11  13
ATOM     13  O   UNL     1      19.222   0.432  31.302  1.00  0.00    -0.466 OA
ATOM     14  C   UNL     1      18.805  -0.846  31.766  1.00  0.00     0.282 C 
ENDBRANCH  11  13
ENDBRANCH   3  11
BRANCH   9  15
ATOM     15  C   UNL     1      25.113  -0.135  27.844  1.00  0.00     0.187 C 
BRANCH  15  16
ATOM     16  O   UNL     1      25.506  -1.373  27.306  1.00  0.00    -0.392 OA
ATOM     17  H   UNL     1      25.894  -1.184  26.411  1.00  0.00     0.211 HD
ENDBRANCH  15  16
ENDBRANCH   9  15
ENDBRANCH   1   2
BRANCH   1  18
ATOM     18  C   UNL     1      22.177   4.230  27.649  1.00  0.00     0.286 C 
ATOM     19  C   UNL     1      20.948   4.986  27.096  1.00  0.00     0.202 C 
ATOM     20  O   UNL     1      23.287   4.324  26.765  1.00  0.00    -0.341 OA
ATOM     21  C   UNL     1      20.617   4.532  25.660  1.00  0.00     0.179 C 
ATOM     22  C   UNL     1      23.009   3.725  25.507  1.00  0.00     0.178 C 
ATOM     23  C   UNL     1      21.876   4.480  24.769  1.00  0.00     0.177 C 
BRANCH  19  24
ATOM     24  O   UNL     1      21.192   6.369  27.142  1.00  0.00    -0.385 OA
ATOM     25  H   UNL     1      21.812   6.576  26.396  1.00  0.00     0.211 HD
ENDBRANCH  19  24
BRANCH  21  26
ATOM     26  O   UNL     1      19.643   5.374  25.099  1.00  0.00    -0.387 OA
ATOM     27  H   UNL     1      18.777   4.894  25.169  1.00  0.00     0.211 HD
ENDBRANCH  21  26
BRANCH  22  28
ATOM     28  C   UNL     1      24.296   3.664  24.671  1.00  0.00     0.191 C 
BRANCH  28  29
ATOM     29  O   UNL     1      24.003   3.706  23.301  1.00  0.00    -0.394 OA
ATOM     30  H   UNL     1      23.093   4.098  23.227  1.00  0.00     0.210 HD
ENDBRANCH  28  29
ENDBRANCH  22  28
BRANCH  23  31
ATOM     31  O   UNL     1      22.273   5.765  24.351  1.00  0.00    -0.387 OA
ATOM     32  H   UNL     1      23.054   6.039  24.893  1.00  0.00     0.211 HD
ENDBRANCH  23  31
ENDBRANCH   1  18
TORSDOF 11
ENDMDL
MODEL 6
REMARK VINA RESULT:    -4.404      1.943      6.780
REMARK INTER + INTRA:          -7.611
REMARK INTER:                  -6.571
REMARK INTRA:                  -1.041
REMARK UNBOUND:                -1.018
REMARK SMILES COC(=O)C1=CO[C@H](O[C@H]2O[C@H](CO)[C@H](O)[C@H](O)[C@@H]2O)[C@H]2C(CO)=CC[C@@H]12
REMARK SMILES IDX 9 1 8 2 5 3 6 4 27 5 7 6 21 7 26 8 22 9 25 10 3 11 4 12 2 13
REMARK SMILES IDX 1 14 23 15 24 16 10 18 19 19 11 20 17 21 12 22 15 23 20 24
REMARK SMILES IDX 18 26 13 28 14 29 16 31
REMARK H PARENT 24 17 20 25 18 27 14 30 16 32
REMARK Flexibility Score: inf
ROOT
ATOM      1  O   UNL     1      22.405   4.060  28.893  1.00  0.00    -0.310 OA
ENDROOT
BRANCH   1   2
ATOM      2  C   UNL     1      21.798   5.115  28.170  1.00  0.00     0.316 C 
ATOM      3  C   UNL     1      23.401   4.593  25.882  1.00  0.00     0.076 C 
ATOM      4  C   UNL     1      23.700   5.607  26.706  1.00  0.00     0.202 C 
ATOM      5  C   UNL     1      21.987   4.015  25.844  1.00  0.00     0.047 C 
ATOM      6  O   UNL     1      22.798   6.011  27.690  1.00  0.00    -0.471 OA
ATOM      7  C   UNL     1      21.040   4.513  26.974  1.00  0.00     0.094 C 
ATOM      8  C   UNL     1      21.284   4.445  24.541  1.00  0.00     0.037 C 
ATOM      9  C   UNL     1      20.154   5.511  26.286  1.00  0.00    -0.039 C 
ATOM     10  C   UNL     1      20.306   5.480  24.968  1.00  0.00    -0.024 C 
BRANCH   3  11
ATOM     11  C   UNL     1      24.427   4.060  24.956  1.00  0.00     0.337 C 
ATOM     12  O   UNL     1      25.020   2.982  25.237  1.00  0.00    -0.246 OA
BRANCH  11  13
ATOM     13  O   UNL     1      24.757   4.757  23.788  1.00  0.00    -0.466 OA
ATOM     14  C   UNL     1      25.120   4.095  22.582  1.00  0.00     0.282 C 
ENDBRANCH  11  13
ENDBRANCH   3  11
BRANCH   9  15
ATOM     15  C   UNL     1      19.145   6.383  26.995  1.00  0.00     0.187 C 
BRANCH  15  16
ATOM     16  O   UNL     1      17.902   6.368  26.336  1.00  0.00    -0.392 OA
ATOM     17  H   UNL     1      17.331   5.715  26.819  1.00  0.00     0.211 HD
ENDBRANCH  15  16
ENDBRANCH   9  15
ENDBRANCH   1   2
BRANCH   1  18
ATOM     18  C   UNL     1      21.505   2.979  29.120  1.00  0.00     0.286 C 
ATOM     19  C   UNL     1      21.203   2.836  30.629  1.00  0.00     0.202 C 
ATOM     20  O   UNL     1      22.032   1.775  28.578  1.00  0.00    -0.341 OA
ATOM     21  C   UNL     1      22.437   2.318  31.395  1.00  0.00     0.179 C 
ATOM     22  C   UNL     1      23.270   1.425  29.181  1.00  0.00     0.178 C 
ATOM     23  C   UNL     1      23.089   1.112  30.686  1.00  0.00     0.177 C 
BRANCH  19  24
ATOM     24  O   UNL     1      20.105   1.978  30.805  1.00  0.00    -0.385 OA
ATOM     25  H   UNL     1      19.323   2.551  31.015  1.00  0.00     0.211 HD
ENDBRANCH  19  24
BRANCH  21  26
ATOM     26  O   UNL     1      22.084   1.990  32.714  1.00  0.00    -0.387 OA
ATOM     27  H   UNL     1      22.330   2.769  33.277  1.00  0.00     0.211 HD
ENDBRANCH  21  26
BRANCH  22  28
ATOM     28  C   UNL     1      23.896   0.246  28.421  1.00  0.00     0.191 C 
BRANCH  28  29
ATOM     29  O   UNL     1      24.645   0.700  27.327  1.00  0.00    -0.394 OA
ATOM     30  H   UNL     1      25.537   0.269  27.409  1.00  0.00     0.210 HD
ENDBRANCH  28  29
ENDBRANCH  22  28
BRANCH  23  31
ATOM     31  O   UNL     1      22.363  -0.076  30.902  1.00  0.00    -0.387 OA
ATOM     32  H   UNL     1      22.874  -0.827  30.512  1.00  0.00     0.211 HD
ENDBRANCH  23  31
ENDBRANCH   1  18
TORSDOF 11
ENDMDL
MODEL 7
REMARK VINA RESULT:    -4.238      2.471      6.496
REMARK INTER + INTRA:          -7.362
REMARK INTER:                  -6.183
REMARK INTRA:                  -1.179
REMARK UNBOUND:                -1.018
REMARK SMILES COC(=O)C1=CO[C@H](O[C@H]2O[C@H](CO)[C@H](O)[C@H](O)[C@@H]2O)[C@H]2C(CO)=CC[C@@H]12
REMARK SMILES IDX 9 1 8 2 5 3 6 4 27 5 7 6 21 7 26 8 22 9 25 10 3 11 4 12 2 13
REMARK SMILES IDX 1 14 23 15 24 16 10 18 19 19 11 20 17 21 12 22 15 23 20 24
REMARK SMILES IDX 18 26 13 28 14 29 16 31
REMARK H PARENT 24 17 20 25 18 27 14 30 16 32
REMARK Flexibility Score: inf
ROOT
ATOM      1  O   UNL     1      22.373   0.984  28.704  1.00  0.00    -0.310 OA
ENDROOT
BRANCH   1   2
ATOM      2  C   UNL     1      23.385   1.944  28.948  1.00  0.00     0.316 C 
ATOM      3  C   UNL     1      22.794   3.320  26.533  1.00  0.00     0.076 C 
ATOM      4  C   UNL     1      23.847   2.494  26.606  1.00  0.00     0.202 C 
ATOM      5  C   UNL     1      22.189   3.922  27.800  1.00  0.00     0.047 C 
ATOM      6  O   UNL     1      24.277   2.000  27.838  1.00  0.00    -0.471 OA
ATOM      7  C   UNL     1      22.719   3.318  29.134  1.00  0.00     0.094 C 
ATOM      8  C   UNL     1      22.551   5.418  27.890  1.00  0.00     0.037 C 
ATOM      9  C   UNL     1      23.669   4.361  29.647  1.00  0.00    -0.039 C 
ATOM     10  C   UNL     1      23.585   5.489  28.955  1.00  0.00    -0.024 C 
BRANCH   3  11
ATOM     11  C   UNL     1      22.240   3.702  25.213  1.00  0.00     0.337 C 
ATOM     12  O   UNL     1      21.002   3.585  24.999  1.00  0.00    -0.246 OA
BRANCH  11  13
ATOM     13  O   UNL     1      23.085   4.170  24.200  1.00  0.00    -0.466 OA
ATOM     14  C   UNL     1      23.760   5.419  24.286  1.00  0.00     0.282 C 
ENDBRANCH  11  13
ENDBRANCH   3  11
BRANCH   9  15
ATOM     15  C   UNL     1      24.553   4.182  30.859  1.00  0.00     0.187 C 
BRANCH  15  16
ATOM     16  O   UNL     1      23.822   3.695  31.958  1.00  0.00    -0.392 OA
ATOM     17  H   UNL     1      23.731   2.714  31.826  1.00  0.00     0.211 HD
ENDBRANCH  15  16
ENDBRANCH   9  15
ENDBRANCH   1   2
BRANCH   1  18
ATOM     18  C   UNL     1      21.745   0.550  29.906  1.00  0.00     0.286 C 
ATOM     19  C   UNL     1      22.805   0.106  30.939  1.00  0.00     0.202 C 
ATOM     20  O   UNL     1      20.818  -0.492  29.631  1.00  0.00    -0.341 OA
ATOM     21  C   UNL     1      23.485  -1.208  30.507  1.00  0.00     0.179 C 
ATOM     22  C   UNL     1      21.455  -1.625  29.057  1.00  0.00     0.178 C 
ATOM     23  C   UNL     1      22.457  -2.265  30.050  1.00  0.00     0.177 C 
BRANCH  19  24
ATOM     24  O   UNL     1      22.199  -0.032  32.199  1.00  0.00    -0.385 OA
ATOM     25  H   UNL     1      21.838   0.859  32.443  1.00  0.00     0.211 HD
ENDBRANCH  19  24
BRANCH  21  26
ATOM     26  O   UNL     1      24.282  -1.706  31.551  1.00  0.00    -0.387 OA
ATOM     27  H   UNL     1      24.357  -0.980  32.223  1.00  0.00     0.211 HD
ENDBRANCH  21  26
BRANCH  22  28
ATOM     28  C   UNL     1      20.393  -2.630  28.587  1.00  0.00     0.191 C 
BRANCH  28  29
ATOM     29  O   UNL     1      20.930  -3.923  28.511  1.00  0.00    -0.394 OA
ATOM     30  H   UNL     1      21.737  -3.919  29.090  1.00  0.00     0.210 HD
ENDBRANCH  28  29
ENDBRANCH  22  28
BRANCH  23  31
ATOM     31  O   UNL     1      21.810  -2.871  31.145  1.00  0.00    -0.387 OA
ATOM     32  H   UNL     1      21.383  -3.705  30.829  1.00  0.00     0.211 HD
ENDBRANCH  23  31
ENDBRANCH   1  18
TORSDOF 11
ENDMDL
MODEL 8
REMARK VINA RESULT:    -4.162      4.168      6.558
REMARK INTER + INTRA:          -7.249
REMARK INTER:                  -6.266
REMARK INTRA:                  -0.982
REMARK UNBOUND:                -1.018
REMARK SMILES COC(=O)C1=CO[C@H](O[C@H]2O[C@H](CO)[C@H](O)[C@H](O)[C@@H]2O)[C@H]2C(CO)=CC[C@@H]12
REMARK SMILES IDX 9 1 8 2 5 3 6 4 27 5 7 6 21 7 26 8 22 9 25 10 3 11 4 12 2 13
REMARK SMILES IDX 1 14 23 15 24 16 10 18 19 19 11 20 17 21 12 22 15 23 20 24
REMARK SMILES IDX 18 26 13 28 14 29 16 31
REMARK H PARENT 24 17 20 25 18 27 14 30 16 32
REMARK Flexibility Score: inf
ROOT
ATOM      1  O   UNL     1      20.295  -1.641  29.454  1.00  0.00    -0.310 OA
ENDROOT
BRANCH   1   2
ATOM      2  C   UNL     1      19.916  -2.985  29.691  1.00  0.00     0.316 C 
ATOM      3  C   UNL     1      17.254  -2.220  30.327  1.00  0.00     0.076 C 
ATOM      4  C   UNL     1      18.129  -2.512  31.299  1.00  0.00     0.202 C 
ATOM      5  C   UNL     1      17.471  -2.737  28.906  1.00  0.00     0.047 C 
ATOM      6  O   UNL     1      19.354  -3.106  30.996  1.00  0.00    -0.471 OA
ATOM      7  C   UNL     1      18.862  -3.386  28.645  1.00  0.00     0.094 C 
ATOM      8  C   UNL     1      16.463  -3.864  28.603  1.00  0.00     0.037 C 
ATOM      9  C   UNL     1      18.576  -4.860  28.644  1.00  0.00    -0.039 C 
ATOM     10  C   UNL     1      17.273  -5.109  28.639  1.00  0.00    -0.024 C 
BRANCH   3  11
ATOM     11  C   UNL     1      16.034  -1.438  30.635  1.00  0.00     0.337 C 
ATOM     12  O   UNL     1      15.506  -1.530  31.777  1.00  0.00    -0.246 OA
BRANCH  11  13
ATOM     13  O   UNL     1      15.455  -0.618  29.659  1.00  0.00    -0.466 OA
ATOM     14  C   UNL     1      14.193  -0.910  29.070  1.00  0.00     0.282 C 
ENDBRANCH  11  13
ENDBRANCH   3  11
BRANCH   9  15
ATOM     15  C   UNL     1      19.637  -5.931  28.566  1.00  0.00     0.187 C 
BRANCH  15  16
ATOM     16  O   UNL     1      20.721  -5.522  27.768  1.00  0.00    -0.392 OA
ATOM     17  H   UNL     1      20.846  -6.224  27.077  1.00  0.00     0.211 HD
ENDBRANCH  15  16
ENDBRANCH   9  15
ENDBRANCH   1   2
BRANCH   1  18
ATOM     18  C   UNL     1      21.114  -1.124  30.498  1.00  0.00     0.286 C 
ATOM     19  C   UNL     1      20.710   0.330  30.832  1.00  0.00     0.202 C 
ATOM     20  O   UNL     1      22.487  -1.212  30.137  1.00  0.00    -0.341 OA
ATOM     21  C   UNL     1      21.097   1.291  29.690  1.00  0.00     0.179 C 
ATOM     22  C   UNL     1      22.773  -0.460  28.966  1.00  0.00     0.178 C 
ATOM     23  C   UNL     1      22.543   1.053  29.205  1.00  0.00     0.177 C 
BRANCH  19  24
ATOM     24  O   UNL     1      21.313   0.715  32.041  1.00  0.00    -0.385 OA
ATOM     25  H   UNL     1      22.041   0.065  32.218  1.00  0.00     0.211 HD
ENDBRANCH  19  24
BRANCH  21  26
ATOM     26  O   UNL     1      20.921   2.622  30.099  1.00  0.00    -0.387 OA
ATOM     27  H   UNL     1      20.565   3.117  29.316  1.00  0.00     0.211 HD
ENDBRANCH  21  26
BRANCH  22  28
ATOM     28  C   UNL     1      24.207  -0.755  28.502  1.00  0.00     0.191 C 
BRANCH  28  29
ATOM     29  O   UNL     1      24.665   0.244  27.633  1.00  0.00    -0.394 OA
ATOM     30  H   UNL     1      25.233   0.846  28.183  1.00  0.00     0.210 HD
ENDBRANCH  28  29
ENDBRANCH  22  28
BRANCH  23  31
ATOM     31  O   UNL     1      23.489   1.604  30.092  1.00  0.00    -0.387 OA
ATOM     32  H   UNL     1      23.133   1.527  31.011  1.00  0.00     0.211 HD
ENDBRANCH  23  31
ENDBRANCH   1  18
TORSDOF 11
ENDMDL
MODEL 9
REMARK VINA RESULT:    -4.066      1.756      2.184
REMARK INTER + INTRA:          -7.104
REMARK INTER:                  -5.990
REMARK INTRA:                  -1.114
REMARK UNBOUND:                -1.018
REMARK SMILES COC(=O)C1=CO[C@H](O[C@H]2O[C@H](CO)[C@H](O)[C@H](O)[C@@H]2O)[C@H]2C(CO)=CC[C@@H]12
REMARK SMILES IDX 9 1 8 2 5 3 6 4 27 5 7 6 21 7 26 8 22 9 25 10 3 11 4 12 2 13
REMARK SMILES IDX 1 14 23 15 24 16 10 18 19 19 11 20 17 21 12 22 15 23 20 24
REMARK SMILES IDX 18 26 13 28 14 29 16 31
REMARK H PARENT 24 17 20 25 18 27 14 30 16 32
REMARK Flexibility Score: inf
ROOT
ATOM      1  O   UNL     1      23.195   2.372  28.018  1.00  0.00    -0.310 OA
ENDROOT
BRANCH   1   2
ATOM      2  C   UNL     1      23.100   1.234  28.856  1.00  0.00     0.316 C 
ATOM      3  C   UNL     1      21.978   2.767  30.969  1.00  0.00     0.076 C 
ATOM      4  C   UNL     1      23.272   2.420  30.993  1.00  0.00     0.202 C 
ATOM      5  C   UNL     1      20.979   1.984  30.119  1.00  0.00     0.047 C 
ATOM      6  O   UNL     1      23.771   1.483  30.089  1.00  0.00    -0.471 OA
ATOM      7  C   UNL     1      21.613   0.958  29.135  1.00  0.00     0.094 C 
ATOM      8  C   UNL     1      20.077   1.128  31.032  1.00  0.00     0.037 C 
ATOM      9  C   UNL     1      21.382  -0.368  29.801  1.00  0.00    -0.039 C 
ATOM     10  C   UNL     1      20.564  -0.263  30.840  1.00  0.00    -0.024 C 
BRANCH   3  11
ATOM     11  C   UNL     1      21.492   3.883  31.814  1.00  0.00     0.337 C 
ATOM     12  O   UNL     1      22.125   4.196  32.860  1.00  0.00    -0.246 OA
BRANCH  11  13
ATOM     13  O   UNL     1      20.324   4.574  31.470  1.00  0.00    -0.466 OA
ATOM     14  C   UNL     1      19.168   4.576  32.298  1.00  0.00     0.282 C 
ENDBRANCH  11  13
ENDBRANCH   3  11
BRANCH   9  15
ATOM     15  C   UNL     1      21.941  -1.679  29.301  1.00  0.00     0.187 C 
BRANCH  15  16
ATOM     16  O   UNL     1      21.890  -2.670  30.297  1.00  0.00    -0.392 OA
ATOM     17  H   UNL     1      22.737  -2.600  30.812  1.00  0.00     0.211 HD
ENDBRANCH  15  16
ENDBRANCH   9  15
ENDBRANCH   1   2
BRANCH   1  18
ATOM     18  C   UNL     1      24.249   2.250  27.067  1.00  0.00     0.286 C 
ATOM     19  C   UNL     1      25.494   3.035  27.537  1.00  0.00     0.202 C 
ATOM     20  O   UNL     1      23.810   2.685  25.787  1.00  0.00    -0.341 OA
ATOM     21  C   UNL     1      25.250   4.556  27.467  1.00  0.00     0.179 C 
ATOM     22  C   UNL     1      23.415   4.050  25.803  1.00  0.00     0.178 C 
ATOM     23  C   UNL     1      24.614   4.975  26.125  1.00  0.00     0.177 C 
BRANCH  19  24
ATOM     24  O   UNL     1      26.600   2.666  26.753  1.00  0.00    -0.385 OA
ATOM     25  H   UNL     1      27.305   3.344  26.915  1.00  0.00     0.211 HD
ENDBRANCH  19  24
BRANCH  21  26
ATOM     26  O   UNL     1      26.452   5.248  27.688  1.00  0.00    -0.387 OA
ATOM     27  H   UNL     1      26.212   6.100  28.137  1.00  0.00     0.211 HD
ENDBRANCH  21  26
BRANCH  22  28
ATOM     28  C   UNL     1      22.757   4.410  24.462  1.00  0.00     0.191 C 
BRANCH  28  29
ATOM     29  O   UNL     1      23.477   3.863  23.391  1.00  0.00    -0.394 OA
ATOM     30  H   UNL     1      24.430   4.086  23.560  1.00  0.00     0.210 HD
ENDBRANCH  28  29
ENDBRANCH  22  28
BRANCH  23  31
ATOM     31  O   UNL     1      25.562   5.003  25.084  1.00  0.00    -0.387 OA
ATOM     32  H   UNL     1      26.007   5.887  25.093  1.00  0.00     0.211 HD
ENDBRANCH  23  31
ENDBRANCH   1  18
TORSDOF 11
ENDMDL
