MODEL 1
REMARK VINA RESULT:    -5.115      0.000      0.000
REMARK INTER + INTRA:          -5.264
REMARK INTER:                  -5.264
REMARK INTRA:                   0.000
REMARK UNBOUND:                 0.000
REMARK SMILES Cc1ccccc1O
REMARK SMILES IDX 1 1 2 2 3 3 4 4 5 5 6 6 7 7 8 8
REMARK H PARENT 8 9
REMARK Flexibility Score: inf
ROOT
ATOM      1  C   UNL     1     -14.614   2.037  -9.277  1.00  0.00     0.048 C 
ATOM      2  C   UNL     1     -13.705   0.916  -9.697  1.00  0.00    -0.009 A 
ATOM      3  C   UNL     1     -14.259  -0.311 -10.106  1.00  0.00     0.007 A 
ATOM      4  C   UNL     1     -13.431  -1.366 -10.500  1.00  0.00     0.001 A 
ATOM      5  C   UNL     1     -12.045  -1.207 -10.490  1.00  0.00     0.004 A 
ATOM      6  C   UNL     1     -11.482   0.005 -10.085  1.00  0.00     0.046 A 
ATOM      7  C   UNL     1     -12.300   1.070  -9.688  1.00  0.00     0.118 A 
ENDROOT
BRANCH   7   8
ATOM      8  O   UNL     1     -11.688   2.262  -9.293  1.00  0.00    -0.508 OA
ATOM      9  H   UNL     1     -10.789   2.292  -8.829  1.00  0.00     0.293 HD
ENDBRANCH   7   8
TORSDOF 1
ENDMDL
MODEL 2
REMARK VINA RESULT:    -4.993      1.914      3.477
REMARK INTER + INTRA:          -5.139
REMARK INTER:                  -5.139
REMARK INTRA:                   0.000
REMARK UNBOUND:                 0.000
REMARK SMILES Cc1ccccc1O
REMARK SMILES IDX 1 1 2 2 3 3 4 4 5 5 6 6 7 7 8 8
REMARK H PARENT 8 9
REMARK Flexibility Score: inf
ROOT
ATOM      1  C   UNL     1     -10.351  -0.825 -10.098  1.00  0.00     0.048 C 
ATOM      2  C   UNL     1     -11.743  -0.256 -10.093  1.00  0.00    -0.009 A 
ATOM      3  C   UNL     1     -11.963   1.035  -9.577  1.00  0.00     0.007 A 
ATOM      4  C   UNL     1     -13.249   1.582  -9.562  1.00  0.00     0.001 A 
ATOM      5  C   UNL     1     -14.326   0.850 -10.063  1.00  0.00     0.004 A 
ATOM      6  C   UNL     1     -14.121  -0.432 -10.578  1.00  0.00     0.046 A 
ATOM      7  C   UNL     1     -12.838  -0.993 -10.598  1.00  0.00     0.118 A 
ENDROOT
BRANCH   7   8
ATOM      8  O   UNL     1     -12.686  -2.277 -11.124  1.00  0.00    -0.508 OA
ATOM      9  H   UNL     1     -11.782  -2.691 -11.317  1.00  0.00     0.293 HD
ENDBRANCH   7   8
TORSDOF 1
ENDMDL
MODEL 3
REMARK VINA RESULT:    -4.969      1.259      2.771
REMARK INTER + INTRA:          -5.114
REMARK INTER:                  -5.114
REMARK INTRA:                   0.000
REMARK UNBOUND:                 0.000
REMARK SMILES Cc1ccccc1O
REMARK SMILES IDX 1 1 2 2 3 3 4 4 5 5 6 6 7 7 8 8
REMARK H PARENT 8 9
REMARK Flexibility Score: inf
ROOT
ATOM      1  C   UNL     1     -12.931  -1.397 -10.455  1.00  0.00     0.048 C 
ATOM      2  C   UNL     1     -12.984   0.048 -10.044  1.00  0.00    -0.009 A 
ATOM      3  C   UNL     1     -14.216   0.726 -10.045  1.00  0.00     0.007 A 
ATOM      4  C   UNL     1     -14.287   2.070  -9.668  1.00  0.00     0.001 A 
ATOM      5  C   UNL     1     -13.130   2.749  -9.286  1.00  0.00     0.004 A 
ATOM      6  C   UNL     1     -11.899   2.089  -9.280  1.00  0.00     0.046 A 
ATOM      7  C   UNL     1     -11.814   0.742  -9.656  1.00  0.00     0.118 A 
ENDROOT
BRANCH   7   8
ATOM      8  O   UNL     1     -10.562   0.127  -9.633  1.00  0.00    -0.508 OA
ATOM      9  H   UNL     1     -10.441  -0.878  -9.665  1.00  0.00     0.293 HD
ENDBRANCH   7   8
TORSDOF 1
ENDMDL
MODEL 4
REMARK VINA RESULT:    -4.959      1.414      2.304
REMARK INTER + INTRA:          -5.104
REMARK INTER:                  -5.104
REMARK INTRA:                   0.000
REMARK UNBOUND:                 0.000
REMARK SMILES Cc1ccccc1O
REMARK SMILES IDX 1 1 2 2 3 3 4 4 5 5 6 6 7 7 8 8
REMARK H PARENT 8 9
REMARK Flexibility Score: inf
ROOT
ATOM      1  C   UNL     1     -12.182   2.871  -9.179  1.00  0.00     0.048 C 
ATOM      2  C   UNL     1     -12.664   1.504  -9.579  1.00  0.00    -0.009 A 
ATOM      3  C   UNL     1     -11.728   0.508  -9.912  1.00  0.00     0.007 A 
ATOM      4  C   UNL     1     -12.155  -0.769 -10.287  1.00  0.00     0.001 A 
ATOM      5  C   UNL     1     -13.518  -1.064 -10.333  1.00  0.00     0.004 A 
ATOM      6  C   UNL     1     -14.458  -0.084 -10.005  1.00  0.00     0.046 A 
ATOM      7  C   UNL     1     -14.044   1.200  -9.628  1.00  0.00     0.118 A 
ENDROOT
BRANCH   7   8
ATOM      8  O   UNL     1     -15.022   2.143  -9.310  1.00  0.00    -0.508 OA
ATOM      9  H   UNL     1     -14.943   2.774  -8.522  1.00  0.00     0.293 HD
ENDBRANCH   7   8
TORSDOF 1
ENDMDL
MODEL 5
REMARK VINA RESULT:    -4.944      0.863      2.592
REMARK INTER + INTRA:          -5.088
REMARK INTER:                  -5.088
REMARK INTRA:                   0.000
REMARK UNBOUND:                 0.000
REMARK SMILES Cc1ccccc1O
REMARK SMILES IDX 1 1 2 2 3 3 4 4 5 5 6 6 7 7 8 8
REMARK H PARENT 8 9
REMARK Flexibility Score: inf
ROOT
ATOM      1  C   UNL     1     -10.346  -0.930 -10.042  1.00  0.00     0.048 C 
ATOM      2  C   UNL     1     -11.714  -0.308 -10.078  1.00  0.00    -0.009 A 
ATOM      3  C   UNL     1     -12.768  -0.984 -10.719  1.00  0.00     0.007 A 
ATOM      4  C   UNL     1     -14.047  -0.424 -10.764  1.00  0.00     0.001 A 
ATOM      5  C   UNL     1     -14.287   0.815 -10.169  1.00  0.00     0.004 A 
ATOM      6  C   UNL     1     -13.251   1.498  -9.529  1.00  0.00     0.046 A 
ATOM      7  C   UNL     1     -11.964   0.947  -9.477  1.00  0.00     0.118 A 
ENDROOT
BRANCH   7   8
ATOM      8  O   UNL     1     -10.962   1.669  -8.825  1.00  0.00    -0.508 OA
ATOM      9  H   UNL     1     -11.159   2.414  -8.168  1.00  0.00     0.293 HD
ENDBRANCH   7   8
TORSDOF 1
ENDMDL
MODEL 6
REMARK VINA RESULT:    -4.837      1.898      3.168
REMARK INTER + INTRA:          -4.978
REMARK INTER:                  -4.978
REMARK INTRA:                   0.000
REMARK UNBOUND:                 0.000
REMARK SMILES Cc1ccccc1O
REMARK SMILES IDX 1 1 2 2 3 3 4 4 5 5 6 6 7 7 8 8
REMARK H PARENT 8 9
REMARK Flexibility Score: inf
ROOT
ATOM      1  C   UNL     1     -11.124   3.784  -8.459  1.00  0.00     0.048 C 
ATOM      2  C   UNL     1     -12.200   2.824  -8.885  1.00  0.00    -0.009 A 
ATOM      3  C   UNL     1     -11.843   1.593  -9.464  1.00  0.00     0.007 A 
ATOM      4  C   UNL     1     -12.828   0.687  -9.867  1.00  0.00     0.001 A 
ATOM      5  C   UNL     1     -14.177   0.999  -9.695  1.00  0.00     0.004 A 
ATOM      6  C   UNL     1     -14.546   2.217  -9.121  1.00  0.00     0.046 A 
ATOM      7  C   UNL     1     -13.569   3.135  -8.713  1.00  0.00     0.118 A 
ENDROOT
BRANCH   7   8
ATOM      8  O   UNL     1     -13.989   4.339  -8.145  1.00  0.00    -0.508 OA
ATOM      9  H   UNL     1     -13.538   5.225  -8.335  1.00  0.00     0.293 HD
ENDBRANCH   7   8
TORSDOF 1
ENDMDL
MODEL 7
REMARK VINA RESULT:    -4.804      1.887      2.908
REMARK INTER + INTRA:          -4.945
REMARK INTER:                  -4.945
REMARK INTRA:                   0.000
REMARK UNBOUND:                 0.000
REMARK SMILES Cc1ccccc1O
REMARK SMILES IDX 1 1 2 2 3 3 4 4 5 5 6 6 7 7 8 8
REMARK H PARENT 8 9
REMARK Flexibility Score: inf
ROOT
ATOM      1  C   UNL     1     -14.846  -2.052 -10.785  1.00  0.00     0.048 C 
ATOM      2  C   UNL     1     -13.860  -0.982 -10.409  1.00  0.00    -0.009 A 
ATOM      3  C   UNL     1     -14.326   0.285 -10.013  1.00  0.00     0.007 A 
ATOM      4  C   UNL     1     -13.426   1.293  -9.660  1.00  0.00     0.001 A 
ATOM      5  C   UNL     1     -12.053   1.049  -9.698  1.00  0.00     0.004 A 
ATOM      6  C   UNL     1     -11.576  -0.204 -10.089  1.00  0.00     0.046 A 
ATOM      7  C   UNL     1     -12.467  -1.224 -10.446  1.00  0.00     0.118 A 
ENDROOT
BRANCH   7   8
ATOM      8  O   UNL     1     -11.940  -2.459 -10.829  1.00  0.00    -0.508 OA
ATOM      9  H   UNL     1     -12.435  -3.107 -11.428  1.00  0.00     0.293 HD
ENDBRANCH   7   8
TORSDOF 1
ENDMDL
MODEL 8
REMARK VINA RESULT:    -4.650     17.060     17.920
REMARK INTER + INTRA:          -4.786
REMARK INTER:                  -4.786
REMARK INTRA:                   0.000
REMARK UNBOUND:                 0.000
REMARK SMILES Cc1ccccc1O
REMARK SMILES IDX 1 1 2 2 3 3 4 4 5 5 6 6 7 7 8 8
REMARK H PARENT 8 9
REMARK Flexibility Score: inf
ROOT
ATOM      1  C   UNL     1     -12.209   5.368   5.008  1.00  0.00     0.048 C 
ATOM      2  C   UNL     1     -11.584   5.255   6.371  1.00  0.00    -0.009 A 
ATOM      3  C   UNL     1     -11.427   6.409   7.161  1.00  0.00     0.007 A 
ATOM      4  C   UNL     1     -10.848   6.326   8.430  1.00  0.00     0.001 A 
ATOM      5  C   UNL     1     -10.422   5.093   8.924  1.00  0.00     0.004 A 
ATOM      6  C   UNL     1     -10.571   3.939   8.151  1.00  0.00     0.046 A 
ATOM      7  C   UNL     1     -11.149   4.008   6.877  1.00  0.00     0.118 A 
ENDROOT
BRANCH   7   8
ATOM      8  O   UNL     1     -11.276   2.827   6.144  1.00  0.00    -0.508 OA
ATOM      9  H   UNL     1     -11.990   2.690   5.439  1.00  0.00     0.293 HD
ENDBRANCH   7   8
TORSDOF 1
ENDMDL
MODEL 9
REMARK VINA RESULT:    -4.543     17.082     17.891
REMARK INTER + INTRA:          -4.676
REMARK INTER:                  -4.676
REMARK INTRA:                   0.000
REMARK UNBOUND:                 0.000
REMARK SMILES Cc1ccccc1O
REMARK SMILES IDX 1 1 2 2 3 3 4 4 5 5 6 6 7 7 8 8
REMARK H PARENT 8 9
REMARK Flexibility Score: inf
ROOT
ATOM      1  C   UNL     1     -10.983   3.923   9.118  1.00  0.00     0.048 C 
ATOM      2  C   UNL     1     -10.597   4.675   7.874  1.00  0.00    -0.009 A 
ATOM      3  C   UNL     1      -9.725   5.775   7.971  1.00  0.00     0.007 A 
ATOM      4  C   UNL     1      -9.354   6.487   6.828  1.00  0.00     0.001 A 
ATOM      5  C   UNL     1      -9.848   6.110   5.578  1.00  0.00     0.004 A 
ATOM      6  C   UNL     1     -10.715   5.021   5.468  1.00  0.00     0.046 A 
ATOM      7  C   UNL     1     -11.095   4.298   6.606  1.00  0.00     0.118 A 
ENDROOT
BRANCH   7   8
ATOM      8  O   UNL     1     -11.964   3.217   6.443  1.00  0.00    -0.508 OA
ATOM      9  H   UNL     1     -12.907   3.317   6.088  1.00  0.00     0.293 HD
ENDBRANCH   7   8
TORSDOF 1
ENDMDL
