MODEL 1
REMARK VINA RESULT:    -3.952      0.000      0.000
REMARK INTER + INTRA:          -6.559
REMARK INTER:                  -6.031
REMARK INTRA:                  -0.529
REMARK UNBOUND:                -0.529
REMARK SMILES O=C([O-])CCCCCCCCC(=O)[O-]
REMARK SMILES IDX 7 1 6 2 5 3 4 4 2 5 1 6 3 7 8 8 9 9 10 10 11 11 12 12 13 13
REMARK SMILES IDX 14 14
REMARK H PARENT
REMARK Flexibility Score: inf
ROOT
ATOM      1  C   UNL     1      10.879  18.245  14.158  1.00  0.00     0.000 C 
ENDROOT
BRANCH   1   2
ATOM      2  C   UNL     1      11.443  16.877  14.559  1.00  0.00     0.000 C 
BRANCH   2   3
ATOM      3  C   UNL     1      10.931  16.453  15.941  1.00  0.00     0.006 C 
BRANCH   3   4
ATOM      4  C   UNL     1      12.038  15.772  16.753  1.00  0.00     0.053 C 
BRANCH   4   5
ATOM      5  C   UNL     1      13.223  16.674  16.883  1.00  0.00     0.041 C 
ATOM      6  O   UNL     1      14.357  16.294  16.488  1.00  0.00    -0.550 OA
ATOM      7  O   UNL     1      13.068  17.955  17.398  1.00  0.00    -0.550 OA
ENDBRANCH   4   5
ENDBRANCH   3   4
ENDBRANCH   2   3
ENDBRANCH   1   2
BRANCH   1   8
ATOM      8  C   UNL     1      10.158  18.168  12.807  1.00  0.00     0.000 C 
BRANCH   8   9
ATOM      9  C   UNL     1      10.155  16.733  12.266  1.00  0.00     0.000 C 
BRANCH   9  10
ATOM     10  C   UNL     1       8.740  16.300  11.863  1.00  0.00     0.006 C 
BRANCH  10  11
ATOM     11  C   UNL     1       8.668  15.981  10.367  1.00  0.00     0.053 C 
BRANCH  11  12
ATOM     12  C   UNL     1       8.269  17.196   9.590  1.00  0.00     0.041 C 
ATOM     13  O   UNL     1       7.059  17.540   9.530  1.00  0.00    -0.550 OA
ATOM     14  O   UNL     1       9.238  17.978   8.976  1.00  0.00    -0.550 OA
ENDBRANCH  11  12
ENDBRANCH  10  11
ENDBRANCH   9  10
ENDBRANCH   8   9
ENDBRANCH   1   8
TORSDOF 9
ENDMDL
MODEL 2
REMARK VINA RESULT:    -3.901      1.410      1.990
REMARK INTER + INTRA:          -6.482
REMARK INTER:                  -6.004
REMARK INTRA:                  -0.478
REMARK UNBOUND:                -0.529
REMARK SMILES O=C([O-])CCCCCCCCC(=O)[O-]
REMARK SMILES IDX 7 1 6 2 5 3 4 4 2 5 1 6 3 7 8 8 9 9 10 10 11 11 12 12 13 13
REMARK SMILES IDX 14 14
REMARK H PARENT
REMARK Flexibility Score: inf
ROOT
ATOM      1  C   UNL     1      10.111  18.087  12.881  1.00  0.00     0.000 C 
ENDROOT
BRANCH   1   2
ATOM      2  C   UNL     1      11.020  18.178  14.113  1.00  0.00     0.000 C 
BRANCH   2   3
ATOM      3  C   UNL     1      11.159  16.813  14.797  1.00  0.00     0.006 C 
BRANCH   3   4
ATOM      4  C   UNL     1      12.253  16.844  15.869  1.00  0.00     0.053 C 
BRANCH   4   5
ATOM      5  C   UNL     1      12.025  15.765  16.880  1.00  0.00     0.041 C 
ATOM      6  O   UNL     1      10.993  15.046  16.819  1.00  0.00    -0.550 OA
ATOM      7  O   UNL     1      12.976  15.521  17.863  1.00  0.00    -0.550 OA
ENDBRANCH   4   5
ENDBRANCH   3   4
ENDBRANCH   2   3
ENDBRANCH   1   2
BRANCH   1   8
ATOM      8  C   UNL     1      10.189  16.695  12.242  1.00  0.00     0.000 C 
BRANCH   8   9
ATOM      9  C   UNL     1       8.795  16.192  11.847  1.00  0.00     0.000 C 
BRANCH   9  10
ATOM     10  C   UNL     1       8.609  16.226  10.325  1.00  0.00     0.006 C 
BRANCH  10  11
ATOM     11  C   UNL     1       7.793  17.450   9.900  1.00  0.00     0.053 C 
BRANCH  11  12
ATOM     12  C   UNL     1       8.699  18.591   9.557  1.00  0.00     0.041 C 
ATOM     13  O   UNL     1       9.803  18.374   8.990  1.00  0.00    -0.550 OA
ATOM     14  O   UNL     1       8.303  19.896   9.818  1.00  0.00    -0.550 OA
ENDBRANCH  11  12
ENDBRANCH  10  11
ENDBRANCH   9  10
ENDBRANCH   8   9
ENDBRANCH   1   8
TORSDOF 9
ENDMDL
MODEL 3
REMARK VINA RESULT:    -3.871      2.854      7.019
REMARK INTER + INTRA:          -6.436
REMARK INTER:                  -5.559
REMARK INTRA:                  -0.877
REMARK UNBOUND:                -0.529
REMARK SMILES O=C([O-])CCCCCCCCC(=O)[O-]
REMARK SMILES IDX 7 1 6 2 5 3 4 4 2 5 1 6 3 7 8 8 9 9 10 10 11 11 12 12 13 13
REMARK SMILES IDX 14 14
REMARK H PARENT
REMARK Flexibility Score: inf
ROOT
ATOM      1  C   UNL     1      11.657  16.025  16.672  1.00  0.00     0.000 C 
ENDROOT
BRANCH   1   2
ATOM      2  C   UNL     1      11.373  17.515  16.896  1.00  0.00     0.000 C 
BRANCH   2   3
ATOM      3  C   UNL     1      11.530  18.307  15.591  1.00  0.00     0.006 C 
BRANCH   3   4
ATOM      4  C   UNL     1      11.599  17.368  14.383  1.00  0.00     0.053 C 
BRANCH   4   5
ATOM      5  C   UNL     1      10.554  17.731  13.377  1.00  0.00     0.041 C 
ATOM      6  O   UNL     1      10.084  18.900  13.344  1.00  0.00    -0.550 OA
ATOM      7  O   UNL     1      10.130  16.793  12.444  1.00  0.00    -0.550 OA
ENDBRANCH   4   5
ENDBRANCH   3   4
ENDBRANCH   2   3
ENDBRANCH   1   2
BRANCH   1   8
ATOM      8  C   UNL     1      12.819  15.548  17.552  1.00  0.00     0.000 C 
BRANCH   8   9
ATOM      9  C   UNL     1      14.009  16.511  17.460  1.00  0.00     0.000 C 
BRANCH   9  10
ATOM     10  C   UNL     1      14.835  16.246  16.195  1.00  0.00     0.006 C 
BRANCH  10  11
ATOM     11  C   UNL     1      15.245  17.559  15.522  1.00  0.00     0.053 C 
BRANCH  11  12
ATOM     12  C   UNL     1      16.735  17.690  15.492  1.00  0.00     0.041 C 
ATOM     13  O   UNL     1      17.327  17.927  14.406  1.00  0.00    -0.550 OA
ATOM     14  O   UNL     1      17.465  17.600  16.669  1.00  0.00    -0.550 OA
ENDBRANCH  11  12
ENDBRANCH  10  11
ENDBRANCH   9  10
ENDBRANCH   8   9
ENDBRANCH   1   8
TORSDOF 9
ENDMDL
MODEL 4
REMARK VINA RESULT:    -3.851      1.020      7.096
REMARK INTER + INTRA:          -6.406
REMARK INTER:                  -5.963
REMARK INTRA:                  -0.443
REMARK UNBOUND:                -0.529
REMARK SMILES O=C([O-])CCCCCCCCC(=O)[O-]
REMARK SMILES IDX 7 1 6 2 5 3 4 4 2 5 1 6 3 7 8 8 9 9 10 10 11 11 12 12 13 13
REMARK SMILES IDX 14 14
REMARK H PARENT
REMARK Flexibility Score: inf
ROOT
ATOM      1  C   UNL     1      11.161  18.090  14.230  1.00  0.00     0.000 C 
ENDROOT
BRANCH   1   2
ATOM      2  C   UNL     1      10.269  18.278  12.997  1.00  0.00     0.000 C 
BRANCH   2   3
ATOM      3  C   UNL     1       9.943  16.930  12.343  1.00  0.00     0.006 C 
BRANCH   3   4
ATOM      4  C   UNL     1       9.945  17.045  10.815  1.00  0.00     0.053 C 
BRANCH   4   5
ATOM      5  C   UNL     1       8.618  16.639  10.258  1.00  0.00     0.041 C 
ATOM      6  O   UNL     1       8.335  16.879   9.055  1.00  0.00    -0.550 OA
ATOM      7  O   UNL     1       7.710  15.952  11.054  1.00  0.00    -0.550 OA
ENDBRANCH   4   5
ENDBRANCH   3   4
ENDBRANCH   2   3
ENDBRANCH   1   2
BRANCH   1   8
ATOM      8  C   UNL     1      11.063  16.656  14.767  1.00  0.00     0.000 C 
BRANCH   8   9
ATOM      9  C   UNL     1      11.104  16.639  16.299  1.00  0.00     0.000 C 
BRANCH   9  10
ATOM     10  C   UNL     1      11.823  15.386  16.816  1.00  0.00     0.006 C 
BRANCH  10  11
ATOM     11  C   UNL     1      13.005  15.762  17.714  1.00  0.00     0.053 C 
BRANCH  11  12
ATOM     12  C   UNL     1      13.981  16.615  16.967  1.00  0.00     0.041 C 
ATOM     13  O   UNL     1      14.611  16.143  15.984  1.00  0.00    -0.550 OA
ATOM     14  O   UNL     1      14.158  17.945  17.323  1.00  0.00    -0.550 OA
ENDBRANCH  11  12
ENDBRANCH  10  11
ENDBRANCH   9  10
ENDBRANCH   8   9
ENDBRANCH   1   8
TORSDOF 9
ENDMDL
MODEL 5
REMARK VINA RESULT:    -3.848      3.792      5.399
REMARK INTER + INTRA:          -6.401
REMARK INTER:                  -5.430
REMARK INTRA:                  -0.971
REMARK UNBOUND:                -0.529
REMARK SMILES O=C([O-])CCCCCCCCC(=O)[O-]
REMARK SMILES IDX 7 1 6 2 5 3 4 4 2 5 1 6 3 7 8 8 9 9 10 10 11 11 12 12 13 13
REMARK SMILES IDX 14 14
REMARK H PARENT
REMARK Flexibility Score: inf
ROOT
ATOM      1  C   UNL     1      14.174  16.417  16.967  1.00  0.00     0.000 C 
ENDROOT
BRANCH   1   2
ATOM      2  C   UNL     1      14.557  17.759  17.601  1.00  0.00     0.000 C 
BRANCH   2   3
ATOM      3  C   UNL     1      15.180  18.701  16.563  1.00  0.00     0.006 C 
BRANCH   3   4
ATOM      4  C   UNL     1      15.266  18.026  15.190  1.00  0.00     0.053 C 
BRANCH   4   5
ATOM      5  C   UNL     1      16.684  17.979  14.718  1.00  0.00     0.041 C 
ATOM      6  O   UNL     1      16.948  18.083  13.491  1.00  0.00    -0.550 OA
ATOM      7  O   UNL     1      17.720  17.867  15.637  1.00  0.00    -0.550 OA
ENDBRANCH   4   5
ENDBRANCH   3   4
ENDBRANCH   2   3
ENDBRANCH   1   2
BRANCH   1   8
ATOM      8  C   UNL     1      13.014  15.761  17.726  1.00  0.00     0.000 C 
BRANCH   8   9
ATOM      9  C   UNL     1      11.884  15.366  16.769  1.00  0.00     0.000 C 
BRANCH   9  10
ATOM     10  C   UNL     1      10.941  16.548  16.512  1.00  0.00     0.006 C 
BRANCH  10  11
ATOM     11  C   UNL     1      11.096  17.074  15.083  1.00  0.00     0.053 C 
BRANCH  11  12
ATOM     12  C   UNL     1      11.562  18.495  15.094  1.00  0.00     0.041 C 
ATOM     13  O   UNL     1      11.654  19.123  16.182  1.00  0.00    -0.550 OA
ATOM     14  O   UNL     1      11.944  19.112  13.909  1.00  0.00    -0.550 OA
ENDBRANCH  11  12
ENDBRANCH  10  11
ENDBRANCH   9  10
ENDBRANCH   8   9
ENDBRANCH   1   8
TORSDOF 9
ENDMDL
MODEL 6
REMARK VINA RESULT:    -3.825      1.377      6.988
REMARK INTER + INTRA:          -6.366
REMARK INTER:                  -5.916
REMARK INTRA:                  -0.450
REMARK UNBOUND:                -0.529
REMARK SMILES O=C([O-])CCCCCCCCC(=O)[O-]
REMARK SMILES IDX 7 1 6 2 5 3 4 4 2 5 1 6 3 7 8 8 9 9 10 10 11 11 12 12 13 13
REMARK SMILES IDX 14 14
REMARK H PARENT
REMARK Flexibility Score: inf
ROOT
ATOM      1  C   UNL     1      10.269  16.925  12.215  1.00  0.00     0.000 C 
ENDROOT
BRANCH   1   2
ATOM      2  C   UNL     1       8.932  16.236  11.915  1.00  0.00     0.000 C 
BRANCH   2   3
ATOM      3  C   UNL     1       8.716  16.090  10.404  1.00  0.00     0.006 C 
BRANCH   3   4
ATOM      4  C   UNL     1       7.744  17.153   9.882  1.00  0.00     0.053 C 
BRANCH   4   5
ATOM      5  C   UNL     1       8.470  18.427   9.587  1.00  0.00     0.041 C 
ATOM      6  O   UNL     1       9.531  18.409   8.908  1.00  0.00    -0.550 OA
ATOM      7  O   UNL     1       7.952  19.640  10.021  1.00  0.00    -0.550 OA
ENDBRANCH   4   5
ENDBRANCH   3   4
ENDBRANCH   2   3
ENDBRANCH   1   2
BRANCH   1   8
ATOM      8  C   UNL     1      10.050  18.256  12.945  1.00  0.00     0.000 C 
BRANCH   8   9
ATOM      9  C   UNL     1      11.043  18.419  14.102  1.00  0.00     0.000 C 
BRANCH   9  10
ATOM     10  C   UNL     1      11.326  17.071  14.778  1.00  0.00     0.006 C 
BRANCH  10  11
ATOM     11  C   UNL     1      11.701  17.263  16.250  1.00  0.00     0.053 C 
BRANCH  11  12
ATOM     12  C   UNL     1      11.908  15.939  16.915  1.00  0.00     0.041 C 
ATOM     13  O   UNL     1      12.924  15.744  17.633  1.00  0.00    -0.550 OA
ATOM     14  O   UNL     1      10.955  14.937  16.783  1.00  0.00    -0.550 OA
ENDBRANCH  11  12
ENDBRANCH  10  11
ENDBRANCH   9  10
ENDBRANCH   8   9
ENDBRANCH   1   8
TORSDOF 9
ENDMDL
MODEL 7
REMARK VINA RESULT:    -3.820      1.604      1.946
REMARK INTER + INTRA:          -6.358
REMARK INTER:                  -5.696
REMARK INTRA:                  -0.663
REMARK UNBOUND:                -0.529
REMARK SMILES O=C([O-])CCCCCCCCC(=O)[O-]
REMARK SMILES IDX 7 1 6 2 5 3 4 4 2 5 1 6 3 7 8 8 9 9 10 10 11 11 12 12 13 13
REMARK SMILES IDX 14 14
REMARK H PARENT
REMARK Flexibility Score: inf
ROOT
ATOM      1  C   UNL     1      11.323  19.173  13.582  1.00  0.00     0.000 C 
ENDROOT
BRANCH   1   2
ATOM      2  C   UNL     1      11.549  18.532  14.957  1.00  0.00     0.000 C 
BRANCH   2   3
ATOM      3  C   UNL     1      11.667  17.007  14.840  1.00  0.00     0.006 C 
BRANCH   3   4
ATOM      4  C   UNL     1      12.784  16.472  15.741  1.00  0.00     0.053 C 
BRANCH   4   5
ATOM      5  C   UNL     1      12.209  15.700  16.885  1.00  0.00     0.041 C 
ATOM      6  O   UNL     1      12.932  15.394  17.871  1.00  0.00    -0.550 OA
ATOM      7  O   UNL     1      10.863  15.359  16.888  1.00  0.00    -0.550 OA
ENDBRANCH   4   5
ENDBRANCH   3   4
ENDBRANCH   2   3
ENDBRANCH   1   2
BRANCH   1   8
ATOM      8  C   UNL     1       9.879  19.668  13.436  1.00  0.00     0.000 C 
BRANCH   8   9
ATOM      9  C   UNL     1       9.139  18.889  12.342  1.00  0.00     0.000 C 
BRANCH   9  10
ATOM     10  C   UNL     1      10.098  17.968  11.578  1.00  0.00     0.006 C 
BRANCH  10  11
ATOM     11  C   UNL     1       9.619  16.514  11.627  1.00  0.00     0.053 C 
BRANCH  11  12
ATOM     12  C   UNL     1       8.437  16.321  10.731  1.00  0.00     0.041 C 
ATOM     13  O   UNL     1       7.348  15.898  11.202  1.00  0.00    -0.550 OA
ATOM     14  O   UNL     1       8.521  16.656   9.385  1.00  0.00    -0.550 OA
ENDBRANCH  11  12
ENDBRANCH  10  11
ENDBRANCH   9  10
ENDBRANCH   8   9
ENDBRANCH   1   8
TORSDOF 9
ENDMDL
MODEL 8
REMARK VINA RESULT:    -3.809      1.575      6.914
REMARK INTER + INTRA:          -6.342
REMARK INTER:                  -5.750
REMARK INTRA:                  -0.593
REMARK UNBOUND:                -0.529
REMARK SMILES O=C([O-])CCCCCCCCC(=O)[O-]
REMARK SMILES IDX 7 1 6 2 5 3 4 4 2 5 1 6 3 7 8 8 9 9 10 10 11 11 12 12 13 13
REMARK SMILES IDX 14 14
REMARK H PARENT
REMARK Flexibility Score: inf
ROOT
ATOM      1  C   UNL     1      11.015  17.709  15.551  1.00  0.00     0.000 C 
ENDROOT
BRANCH   1   2
ATOM      2  C   UNL     1      11.454  17.235  14.161  1.00  0.00     0.000 C 
BRANCH   2   3
ATOM      3  C   UNL     1      10.492  17.740  13.078  1.00  0.00     0.006 C 
BRANCH   3   4
ATOM      4  C   UNL     1      10.086  16.607  12.131  1.00  0.00     0.053 C 
BRANCH   4   5
ATOM      5  C   UNL     1       8.710  16.841  11.594  1.00  0.00     0.041 C 
ATOM      6  O   UNL     1       8.147  17.957  11.756  1.00  0.00    -0.550 OA
ATOM      7  O   UNL     1       8.066  15.844  10.873  1.00  0.00    -0.550 OA
ENDBRANCH   4   5
ENDBRANCH   3   4
ENDBRANCH   2   3
ENDBRANCH   1   2
BRANCH   1   8
ATOM      8  C   UNL     1      11.004  16.546  16.551  1.00  0.00     0.000 C 
BRANCH   8   9
ATOM      9  C   UNL     1      12.268  15.690  16.412  1.00  0.00     0.000 C 
BRANCH   9  10
ATOM     10  C   UNL     1      13.165  15.826  17.649  1.00  0.00     0.006 C 
BRANCH  10  11
ATOM     11  C   UNL     1      14.149  16.987  17.488  1.00  0.00     0.053 C 
BRANCH  11  12
ATOM     12  C   UNL     1      14.831  16.916  16.158  1.00  0.00     0.041 C 
ATOM     13  O   UNL     1      14.734  17.873  15.345  1.00  0.00    -0.550 OA
ATOM     14  O   UNL     1      15.616  15.816  15.836  1.00  0.00    -0.550 OA
ENDBRANCH  11  12
ENDBRANCH  10  11
ENDBRANCH   9  10
ENDBRANCH   8   9
ENDBRANCH   1   8
TORSDOF 9
ENDMDL
MODEL 9
REMARK VINA RESULT:    -3.770      1.692      6.601
REMARK INTER + INTRA:          -6.282
REMARK INTER:                  -5.617
REMARK INTRA:                  -0.665
REMARK UNBOUND:                -0.529
REMARK SMILES O=C([O-])CCCCCCCCC(=O)[O-]
REMARK SMILES IDX 7 1 6 2 5 3 4 4 2 5 1 6 3 7 8 8 9 9 10 10 11 11 12 12 13 13
REMARK SMILES IDX 14 14
REMARK H PARENT
REMARK Flexibility Score: inf
ROOT
ATOM      1  C   UNL     1      10.137  19.863  13.525  1.00  0.00     0.000 C 
ENDROOT
BRANCH   1   2
ATOM      2  C   UNL     1       9.312  18.862  12.707  1.00  0.00     0.000 C 
BRANCH   2   3
ATOM      3  C   UNL     1      10.202  18.081  11.733  1.00  0.00     0.006 C 
BRANCH   3   4
ATOM      4  C   UNL     1       9.927  16.577  11.821  1.00  0.00     0.053 C 
BRANCH   4   5
ATOM      5  C   UNL     1       8.664  16.233  11.097  1.00  0.00     0.041 C 
ATOM      6  O   UNL     1       8.651  16.167   9.839  1.00  0.00    -0.550 OA
ATOM      7  O   UNL     1       7.510  15.938  11.813  1.00  0.00    -0.550 OA
ENDBRANCH   4   5
ENDBRANCH   3   4
ENDBRANCH   2   3
ENDBRANCH   1   2
BRANCH   1   8
ATOM      8  C   UNL     1      11.532  19.306  13.831  1.00  0.00     0.000 C 
BRANCH   8   9
ATOM      9  C   UNL     1      11.549  18.573  15.178  1.00  0.00     0.000 C 
BRANCH   9  10
ATOM     10  C   UNL     1      11.811  17.075  14.986  1.00  0.00     0.006 C 
BRANCH  10  11
ATOM     11  C   UNL     1      12.937  16.592  15.905  1.00  0.00     0.053 C 
BRANCH  11  12
ATOM     12  C   UNL     1      12.394  15.692  16.970  1.00  0.00     0.041 C 
ATOM     13  O   UNL     1      13.100  15.398  17.971  1.00  0.00    -0.550 OA
ATOM     14  O   UNL     1      11.091  15.220  16.885  1.00  0.00    -0.550 OA
ENDBRANCH  11  12
ENDBRANCH  10  11
ENDBRANCH   9  10
ENDBRANCH   8   9
ENDBRANCH   1   8
TORSDOF 9
ENDMDL
