MODEL 1
REMARK VINA RESULT:    -3.323      0.000      0.000
REMARK INTER + INTRA:          -4.770
REMARK INTER:                  -4.585
REMARK INTRA:                  -0.185
REMARK UNBOUND:                -0.185
REMARK SMILES CCCCCCCCO
REMARK SMILES IDX 5 1 4 2 3 3 2 4 1 5 6 6 7 7 8 8 9 9
REMARK H PARENT 9 10
REMARK Flexibility Score: inf
ROOT
ATOM      1  C   UNL     1     136.441 135.409 129.693  1.00  0.00     0.000 C 
ENDROOT
BRANCH   1   2
ATOM      2  C   UNL     1     137.333 135.092 128.479  1.00  0.00    -0.000 C 
BRANCH   2   3
ATOM      3  C   UNL     1     138.385 134.014 128.784  1.00  0.00    -0.000 C 
BRANCH   3   4
ATOM      4  C   UNL     1     139.819 134.503 128.539  1.00  0.00    -0.003 C 
ATOM      5  C   UNL     1     140.420 135.102 129.808  1.00  0.00     0.004 C 
ENDBRANCH   3   4
ENDBRANCH   2   3
ENDBRANCH   1   2
BRANCH   1   6
ATOM      6  C   UNL     1     134.996 134.920 129.507  1.00  0.00     0.002 C 
BRANCH   6   7
ATOM      7  C   UNL     1     134.318 135.540 128.275  1.00  0.00     0.028 C 
BRANCH   7   8
ATOM      8  C   UNL     1     133.494 136.778 128.645  1.00  0.00     0.156 C 
BRANCH   8   9
ATOM      9  O   UNL     1     132.148 136.609 128.291  1.00  0.00    -0.396 OA
ATOM     10  H   UNL     1     131.891 137.410 127.761  1.00  0.00     0.210 HD
ENDBRANCH   8   9
ENDBRANCH   7   8
ENDBRANCH   6   7
ENDBRANCH   1   6
TORSDOF 7
ENDMDL
MODEL 2
REMARK VINA RESULT:    -3.262      3.969      5.317
REMARK INTER + INTRA:          -4.686
REMARK INTER:                  -4.496
REMARK INTRA:                  -0.189
REMARK UNBOUND:                -0.185
REMARK SMILES CCCCCCCCO
REMARK SMILES IDX 5 1 4 2 3 3 2 4 1 5 6 6 7 7 8 8 9 9
REMARK H PARENT 9 10
REMARK Flexibility Score: inf
ROOT
ATOM      1  C   UNL     1     135.331 138.692 129.904  1.00  0.00     0.000 C 
ENDROOT
BRANCH   1   2
ATOM      2  C   UNL     1     135.030 137.809 128.680  1.00  0.00    -0.000 C 
BRANCH   2   3
ATOM      3  C   UNL     1     134.120 136.618 129.020  1.00  0.00    -0.000 C 
BRANCH   3   4
ATOM      4  C   UNL     1     134.893 135.296 129.127  1.00  0.00    -0.003 C 
ATOM      5  C   UNL     1     135.032 134.857 130.583  1.00  0.00     0.004 C 
ENDBRANCH   3   4
ENDBRANCH   2   3
ENDBRANCH   1   2
BRANCH   1   6
ATOM      6  C   UNL     1     134.858 140.142 129.716  1.00  0.00     0.002 C 
BRANCH   6   7
ATOM      7  C   UNL     1     135.456 140.798 128.461  1.00  0.00     0.028 C 
BRANCH   7   8
ATOM      8  C   UNL     1     136.738 141.574 128.785  1.00  0.00     0.156 C 
BRANCH   8   9
ATOM      9  O   UNL     1     136.640 142.906 128.359  1.00  0.00    -0.396 OA
ATOM     10  H   UNL     1     136.740 142.897 127.371  1.00  0.00     0.210 HD
ENDBRANCH   8   9
ENDBRANCH   7   8
ENDBRANCH   6   7
ENDBRANCH   1   6
TORSDOF 7
ENDMDL
MODEL 3
REMARK VINA RESULT:    -3.255      1.585      2.656
REMARK INTER + INTRA:          -4.676
REMARK INTER:                  -4.251
REMARK INTRA:                  -0.424
REMARK UNBOUND:                -0.185
REMARK SMILES CCCCCCCCO
REMARK SMILES IDX 5 1 4 2 3 3 2 4 1 5 6 6 7 7 8 8 9 9
REMARK H PARENT 9 10
REMARK Flexibility Score: inf
ROOT
ATOM      1  C   UNL     1     138.377 133.957 128.898  1.00  0.00     0.000 C 
ENDROOT
BRANCH   1   2
ATOM      2  C   UNL     1     139.752 134.562 128.561  1.00  0.00    -0.000 C 
BRANCH   2   3
ATOM      3  C   UNL     1     140.455 135.155 129.792  1.00  0.00    -0.000 C 
BRANCH   3   4
ATOM      4  C   UNL     1     140.219 136.665 129.937  1.00  0.00    -0.003 C 
ATOM      5  C   UNL     1     140.142 137.342 128.571  1.00  0.00     0.004 C 
ENDBRANCH   3   4
ENDBRANCH   2   3
ENDBRANCH   1   2
BRANCH   1   6
ATOM      6  C   UNL     1     137.223 134.938 128.640  1.00  0.00     0.002 C 
BRANCH   6   7
ATOM      7  C   UNL     1     136.475 135.320 129.928  1.00  0.00     0.028 C 
BRANCH   7   8
ATOM      8  C   UNL     1     135.103 134.641 130.007  1.00  0.00     0.156 C 
BRANCH   8   9
ATOM      9  O   UNL     1     134.401 134.784 128.802  1.00  0.00    -0.396 OA
ATOM     10  H   UNL     1     133.931 133.923 128.643  1.00  0.00     0.210 HD
ENDBRANCH   8   9
ENDBRANCH   7   8
ENDBRANCH   6   7
ENDBRANCH   1   6
TORSDOF 7
ENDMDL
MODEL 4
REMARK VINA RESULT:    -3.228      3.918      5.396
REMARK INTER + INTRA:          -4.639
REMARK INTER:                  -4.433
REMARK INTRA:                  -0.207
REMARK UNBOUND:                -0.185
REMARK SMILES CCCCCCCCO
REMARK SMILES IDX 5 1 4 2 3 3 2 4 1 5 6 6 7 7 8 8 9 9
REMARK H PARENT 9 10
REMARK Flexibility Score: inf
ROOT
ATOM      1  C   UNL     1     139.958 136.243 130.435  1.00  0.00     0.000 C 
ENDROOT
BRANCH   1   2
ATOM      2  C   UNL     1     139.782 137.344 129.374  1.00  0.00    -0.000 C 
BRANCH   2   3
ATOM      3  C   UNL     1     141.001 138.275 129.280  1.00  0.00    -0.000 C 
BRANCH   3   4
ATOM      4  C   UNL     1     140.648 139.655 128.706  1.00  0.00    -0.003 C 
ATOM      5  C   UNL     1     140.119 140.584 129.795  1.00  0.00     0.004 C 
ENDBRANCH   3   4
ENDBRANCH   2   3
ENDBRANCH   1   2
BRANCH   1   6
ATOM      6  C   UNL     1     140.482 134.928 129.838  1.00  0.00     0.002 C 
BRANCH   6   7
ATOM      7  C   UNL     1     139.797 134.569 128.510  1.00  0.00     0.028 C 
BRANCH   7   8
ATOM      8  C   UNL     1     138.488 133.805 128.737  1.00  0.00     0.156 C 
BRANCH   8   9
ATOM      9  O   UNL     1     138.612 132.467 128.338  1.00  0.00    -0.396 OA
ATOM     10  H   UNL     1     138.558 131.918 129.164  1.00  0.00     0.210 HD
ENDBRANCH   8   9
ENDBRANCH   7   8
ENDBRANCH   6   7
ENDBRANCH   1   6
TORSDOF 7
ENDMDL
MODEL 5
REMARK VINA RESULT:    -3.204      5.009      5.477
REMARK INTER + INTRA:          -4.607
REMARK INTER:                  -4.300
REMARK INTRA:                  -0.307
REMARK UNBOUND:                -0.185
REMARK SMILES CCCCCCCCO
REMARK SMILES IDX 5 1 4 2 3 3 2 4 1 5 6 6 7 7 8 8 9 9
REMARK H PARENT 9 10
REMARK Flexibility Score: inf
ROOT
ATOM      1  C   UNL     1     138.792 139.738 128.322  1.00  0.00     0.000 C 
ENDROOT
BRANCH   1   2
ATOM      2  C   UNL     1     139.460 140.221 129.622  1.00  0.00    -0.000 C 
BRANCH   2   3
ATOM      3  C   UNL     1     140.302 139.126 130.295  1.00  0.00    -0.000 C 
BRANCH   3   4
ATOM      4  C   UNL     1     140.761 138.043 129.308  1.00  0.00    -0.003 C 
ATOM      5  C   UNL     1     140.287 136.661 129.748  1.00  0.00     0.004 C 
ENDBRANCH   3   4
ENDBRANCH   2   3
ENDBRANCH   1   2
BRANCH   1   6
ATOM      6  C   UNL     1     137.262 139.670 128.435  1.00  0.00     0.002 C 
BRANCH   6   7
ATOM      7  C   UNL     1     136.654 140.966 128.996  1.00  0.00     0.028 C 
BRANCH   7   8
ATOM      8  C   UNL     1     136.241 141.927 127.875  1.00  0.00     0.156 C 
BRANCH   8   9
ATOM      9  O   UNL     1     136.659 143.235 128.157  1.00  0.00    -0.396 OA
ATOM     10  H   UNL     1     137.646 143.248 128.046  1.00  0.00     0.210 HD
ENDBRANCH   8   9
ENDBRANCH   7   8
ENDBRANCH   6   7
ENDBRANCH   1   6
TORSDOF 7
ENDMDL
MODEL 6
REMARK VINA RESULT:    -3.195      5.579      7.408
REMARK INTER + INTRA:          -4.594
REMARK INTER:                  -4.372
REMARK INTRA:                  -0.222
REMARK UNBOUND:                -0.185
REMARK SMILES CCCCCCCCO
REMARK SMILES IDX 5 1 4 2 3 3 2 4 1 5 6 6 7 7 8 8 9 9
REMARK H PARENT 9 10
REMARK Flexibility Score: inf
ROOT
ATOM      1  C   UNL     1     138.489 139.965 129.497  1.00  0.00     0.000 C 
ENDROOT
BRANCH   1   2
ATOM      2  C   UNL     1     137.939 139.839 128.065  1.00  0.00    -0.000 C 
BRANCH   2   3
ATOM      3  C   UNL     1     136.439 139.506 128.036  1.00  0.00    -0.000 C 
BRANCH   3   4
ATOM      4  C   UNL     1     135.578 140.602 128.681  1.00  0.00    -0.003 C 
ATOM      5  C   UNL     1     134.690 140.026 129.782  1.00  0.00     0.004 C 
ENDBRANCH   3   4
ENDBRANCH   2   3
ENDBRANCH   1   2
BRANCH   1   6
ATOM      6  C   UNL     1     140.005 140.210 129.527  1.00  0.00     0.002 C 
BRANCH   6   7
ATOM      7  C   UNL     1     140.732 139.550 128.344  1.00  0.00     0.028 C 
BRANCH   7   8
ATOM      8  C   UNL     1     141.610 138.380 128.800  1.00  0.00     0.156 C 
BRANCH   8   9
ATOM      9  O   UNL     1     142.942 138.566 128.403  1.00  0.00    -0.396 OA
ATOM     10  H   UNL     1     143.379 139.102 129.116  1.00  0.00     0.210 HD
ENDBRANCH   8   9
ENDBRANCH   7   8
ENDBRANCH   6   7
ENDBRANCH   1   6
TORSDOF 7
ENDMDL
MODEL 7
REMARK VINA RESULT:    -3.192      4.784      6.484
REMARK INTER + INTRA:          -4.590
REMARK INTER:                  -4.173
REMARK INTRA:                  -0.417
REMARK UNBOUND:                -0.185
REMARK SMILES CCCCCCCCO
REMARK SMILES IDX 5 1 4 2 3 3 2 4 1 5 6 6 7 7 8 8 9 9
REMARK H PARENT 9 10
REMARK Flexibility Score: inf
ROOT
ATOM      1  C   UNL     1     141.234 138.376 128.967  1.00  0.00     0.000 C 
ENDROOT
BRANCH   1   2
ATOM      2  C   UNL     1     140.527 139.703 128.640  1.00  0.00    -0.000 C 
BRANCH   2   3
ATOM      3  C   UNL     1     139.748 140.269 129.838  1.00  0.00    -0.000 C 
BRANCH   3   4
ATOM      4  C   UNL     1     138.249 140.427 129.546  1.00  0.00    -0.003 C 
ATOM      5  C   UNL     1     137.907 139.931 128.143  1.00  0.00     0.004 C 
ENDBRANCH   3   4
ENDBRANCH   2   3
ENDBRANCH   1   2
BRANCH   1   6
ATOM      6  C   UNL     1     140.291 137.167 128.875  1.00  0.00     0.002 C 
BRANCH   6   7
ATOM      7  C   UNL     1     139.953 136.577 130.253  1.00  0.00     0.028 C 
BRANCH   7   8
ATOM      8  C   UNL     1     140.416 135.121 130.375  1.00  0.00     0.156 C 
BRANCH   8   9
ATOM      9  O   UNL     1     140.684 134.572 129.112  1.00  0.00    -0.396 OA
ATOM     10  H   UNL     1     139.903 134.005 128.877  1.00  0.00     0.210 HD
ENDBRANCH   8   9
ENDBRANCH   7   8
ENDBRANCH   6   7
ENDBRANCH   1   6
TORSDOF 7
ENDMDL
MODEL 8
REMARK VINA RESULT:    -3.104      3.408      4.346
REMARK INTER + INTRA:          -4.468
REMARK INTER:                  -4.178
REMARK INTRA:                  -0.290
REMARK UNBOUND:                -0.185
REMARK SMILES CCCCCCCCO
REMARK SMILES IDX 5 1 4 2 3 3 2 4 1 5 6 6 7 7 8 8 9 9
REMARK H PARENT 9 10
REMARK Flexibility Score: inf
ROOT
ATOM      1  C   UNL     1     134.266 136.830 128.841  1.00  0.00     0.000 C 
ENDROOT
BRANCH   1   2
ATOM      2  C   UNL     1     134.811 135.409 128.611  1.00  0.00    -0.000 C 
BRANCH   2   3
ATOM      3  C   UNL     1     135.110 134.671 129.925  1.00  0.00    -0.000 C 
BRANCH   3   4
ATOM      4  C   UNL     1     134.916 135.562 131.160  1.00  0.00    -0.003 C 
ATOM      5  C   UNL     1     134.276 134.782 132.306  1.00  0.00     0.004 C 
ENDBRANCH   3   4
ENDBRANCH   2   3
ENDBRANCH   1   2
BRANCH   1   6
ATOM      6  C   UNL     1     135.103 137.905 128.130  1.00  0.00     0.002 C 
BRANCH   6   7
ATOM      7  C   UNL     1     135.752 138.893 129.113  1.00  0.00     0.028 C 
BRANCH   7   8
ATOM      8  C   UNL     1     134.819 140.065 129.436  1.00  0.00     0.156 C 
BRANCH   8   9
ATOM      9  O   UNL     1     135.086 141.163 128.607  1.00  0.00    -0.396 OA
ATOM     10  H   UNL     1     135.007 141.974 129.175  1.00  0.00     0.210 HD
ENDBRANCH   8   9
ENDBRANCH   7   8
ENDBRANCH   6   7
ENDBRANCH   1   6
TORSDOF 7
ENDMDL
