MODEL 1
REMARK VINA RESULT:    -3.423      0.000      0.000
REMARK INTER + INTRA:          -7.950
REMARK INTER:                  -5.825
REMARK INTRA:                  -2.125
REMARK UNBOUND:                -2.125
REMARK SMILES CC(=O)CCC[C@@H](C)CCC[C@H](C)CCCC(C)C
REMARK SMILES IDX 10 1 11 2 12 3 13 4 14 5 15 6 16 7 17 8 18 9 19 10 9 11 7 12
REMARK SMILES IDX 8 13 6 14 5 15 4 16 2 17 3 18 1 19
REMARK H PARENT
REMARK Flexibility Score: inf
ROOT
ATOM      1  C   UNL     1     142.788 139.099 141.543  1.00  0.00     0.001 C 
ENDROOT
BRANCH   1   2
ATOM      2  C   UNL     1     141.710 138.000 141.516  1.00  0.00     0.003 C 
BRANCH   2   3
ATOM      3  C   UNL     1     142.036 136.750 142.371  1.00  0.00    -0.014 C 
ATOM      4  C   UNL     1     141.954 135.445 141.558  1.00  0.00     0.007 C 
BRANCH   3   5
ATOM      5  C   UNL     1     141.206 136.692 143.683  1.00  0.00     0.003 C 
BRANCH   5   6
ATOM      6  C   UNL     1     140.166 137.809 143.916  1.00  0.00     0.001 C 
BRANCH   6   7
ATOM      7  C   UNL     1     138.707 137.325 143.849  1.00  0.00     0.003 C 
BRANCH   7   8
ATOM      8  C   UNL     1     137.776 138.331 143.134  1.00  0.00    -0.017 C 
ATOM      9  C   UNL     1     137.967 139.760 143.665  1.00  0.00     0.007 C 
ATOM     10  C   UNL     1     138.028 138.298 141.622  1.00  0.00     0.007 C 
ENDBRANCH   7   8
ENDBRANCH   6   7
ENDBRANCH   5   6
ENDBRANCH   3   5
ENDBRANCH   2   3
ENDBRANCH   1   2
BRANCH   1  11
ATOM     11  C   UNL     1     143.900 138.827 142.573  1.00  0.00     0.003 C 
BRANCH  11  12
ATOM     12  C   UNL     1     143.811 139.766 143.801  1.00  0.00    -0.014 C 
ATOM     13  C   UNL     1     142.615 140.728 143.702  1.00  0.00     0.007 C 
BRANCH  12  14
ATOM     14  C   UNL     1     145.138 140.525 144.045  1.00  0.00     0.004 C 
BRANCH  14  15
ATOM     15  C   UNL     1     145.181 141.944 143.443  1.00  0.00     0.008 C 
BRANCH  15  16
ATOM     16  C   UNL     1     145.941 141.982 142.110  1.00  0.00     0.075 C 
BRANCH  16  17
ATOM     17  C   UNL     1     145.008 142.004 140.928  1.00  0.00     0.129 C 
ATOM     18  O   UNL     1     143.964 142.638 140.994  1.00  0.00    -0.300 OA
ATOM     19  C   UNL     1     145.323 141.237 139.680  1.00  0.00     0.087 C 
ENDBRANCH  16  17
ENDBRANCH  15  16
ENDBRANCH  14  15
ENDBRANCH  12  14
ENDBRANCH  11  12
ENDBRANCH   1  11
TORSDOF 12
ENDMDL
MODEL 2
REMARK VINA RESULT:    -3.411      3.208      5.672
REMARK INTER + INTRA:          -7.928
REMARK INTER:                  -5.670
REMARK INTRA:                  -2.259
REMARK UNBOUND:                -2.125
REMARK SMILES CC(=O)CCC[C@@H](C)CCC[C@H](C)CCCC(C)C
REMARK SMILES IDX 10 1 11 2 12 3 13 4 14 5 15 6 16 7 17 8 18 9 19 10 9 11 7 12
REMARK SMILES IDX 8 13 6 14 5 15 4 16 2 17 3 18 1 19
REMARK H PARENT
REMARK Flexibility Score: inf
ROOT
ATOM      1  C   UNL     1     143.368 143.019 141.485  1.00  0.00     0.001 C 
ENDROOT
BRANCH   1   2
ATOM      2  C   UNL     1     144.219 143.134 142.763  1.00  0.00     0.003 C 
BRANCH   2   3
ATOM      3  C   UNL     1     145.510 142.276 142.763  1.00  0.00    -0.014 C 
ATOM      4  C   UNL     1     145.831 141.701 141.372  1.00  0.00     0.007 C 
BRANCH   3   5
ATOM      5  C   UNL     1     145.502 141.189 143.873  1.00  0.00     0.003 C 
BRANCH   5   6
ATOM      6  C   UNL     1     144.208 140.368 144.056  1.00  0.00     0.001 C 
BRANCH   6   7
ATOM      7  C   UNL     1     144.299 138.933 143.506  1.00  0.00     0.003 C 
BRANCH   7   8
ATOM      8  C   UNL     1     143.143 138.591 142.538  1.00  0.00    -0.017 C 
ATOM      9  C   UNL     1     143.513 138.893 141.078  1.00  0.00     0.007 C 
ATOM     10  C   UNL     1     142.755 137.114 142.684  1.00  0.00     0.007 C 
ENDBRANCH   7   8
ENDBRANCH   6   7
ENDBRANCH   5   6
ENDBRANCH   3   5
ENDBRANCH   2   3
ENDBRANCH   1   2
BRANCH   1  11
ATOM     11  C   UNL     1     141.983 142.395 141.737  1.00  0.00     0.003 C 
BRANCH  11  12
ATOM     12  C   UNL     1     141.458 142.680 143.166  1.00  0.00    -0.014 C 
ATOM     13  C   UNL     1     140.559 141.543 143.684  1.00  0.00     0.007 C 
BRANCH  12  14
ATOM     14  C   UNL     1     140.752 144.054 143.258  1.00  0.00     0.004 C 
BRANCH  14  15
ATOM     15  C   UNL     1     139.241 144.017 142.952  1.00  0.00     0.008 C 
BRANCH  15  16
ATOM     16  C   UNL     1     138.941 144.372 141.489  1.00  0.00     0.075 C 
BRANCH  16  17
ATOM     17  C   UNL     1     139.772 145.531 141.007  1.00  0.00     0.129 C 
ATOM     18  O   UNL     1     139.599 146.642 141.489  1.00  0.00    -0.300 OA
ATOM     19  C   UNL     1     140.792 145.353 139.923  1.00  0.00     0.087 C 
ENDBRANCH  16  17
ENDBRANCH  15  16
ENDBRANCH  14  15
ENDBRANCH  12  14
ENDBRANCH  11  12
ENDBRANCH   1  11
TORSDOF 12
ENDMDL
MODEL 3
REMARK VINA RESULT:    -3.355      3.149      6.213
REMARK INTER + INTRA:          -7.833
REMARK INTER:                  -5.174
REMARK INTRA:                  -2.660
REMARK UNBOUND:                -2.125
REMARK SMILES CC(=O)CCC[C@@H](C)CCC[C@H](C)CCCC(C)C
REMARK SMILES IDX 10 1 11 2 12 3 13 4 14 5 15 6 16 7 17 8 18 9 19 10 9 11 7 12
REMARK SMILES IDX 8 13 6 14 5 15 4 16 2 17 3 18 1 19
REMARK H PARENT
REMARK Flexibility Score: inf
ROOT
ATOM      1  C   UNL     1     141.351 142.220 140.665  1.00  0.00     0.001 C 
ENDROOT
BRANCH   1   2
ATOM      2  C   UNL     1     142.006 142.986 141.830  1.00  0.00     0.003 C 
BRANCH   2   3
ATOM      3  C   UNL     1     143.475 143.412 141.580  1.00  0.00    -0.014 C 
ATOM      4  C   UNL     1     144.004 142.924 140.220  1.00  0.00     0.007 C 
BRANCH   3   5
ATOM      5  C   UNL     1     144.412 143.031 142.759  1.00  0.00     0.003 C 
BRANCH   5   6
ATOM      6  C   UNL     1     144.050 141.775 143.580  1.00  0.00     0.001 C 
BRANCH   6   7
ATOM      7  C   UNL     1     144.663 140.475 143.032  1.00  0.00     0.003 C 
BRANCH   7   8
ATOM      8  C   UNL     1     143.612 139.545 142.385  1.00  0.00    -0.017 C 
ATOM      9  C   UNL     1     143.914 139.287 140.902  1.00  0.00     0.007 C 
ATOM     10  C   UNL     1     143.548 138.214 143.145  1.00  0.00     0.007 C 
ENDBRANCH   7   8
ENDBRANCH   6   7
ENDBRANCH   5   6
ENDBRANCH   3   5
ENDBRANCH   2   3
ENDBRANCH   1   2
BRANCH   1  11
ATOM     11  C   UNL     1     140.451 141.062 141.136  1.00  0.00     0.003 C 
BRANCH  11  12
ATOM     12  C   UNL     1     139.864 141.305 142.548  1.00  0.00    -0.014 C 
ATOM     13  C   UNL     1     140.101 140.107 143.482  1.00  0.00     0.007 C 
BRANCH  12  14
ATOM     14  C   UNL     1     138.368 141.699 142.490  1.00  0.00     0.004 C 
BRANCH  14  15
ATOM     15  C   UNL     1     138.108 143.219 142.477  1.00  0.00     0.008 C 
BRANCH  15  16
ATOM     16  C   UNL     1     138.773 143.928 143.666  1.00  0.00     0.075 C 
BRANCH  16  17
ATOM     17  C   UNL     1     139.483 145.187 143.246  1.00  0.00     0.129 C 
ATOM     18  O   UNL     1     139.104 145.795 142.255  1.00  0.00    -0.300 OA
ATOM     19  C   UNL     1     140.671 145.695 144.007  1.00  0.00     0.087 C 
ENDBRANCH  16  17
ENDBRANCH  15  16
ENDBRANCH  14  15
ENDBRANCH  12  14
ENDBRANCH  11  12
ENDBRANCH   1  11
TORSDOF 12
ENDMDL
MODEL 4
REMARK VINA RESULT:    -3.298      2.835      5.060
REMARK INTER + INTRA:          -7.736
REMARK INTER:                  -5.344
REMARK INTRA:                  -2.392
REMARK UNBOUND:                -2.125
REMARK SMILES CC(=O)CCC[C@@H](C)CCC[C@H](C)CCCC(C)C
REMARK SMILES IDX 10 1 11 2 12 3 13 4 14 5 15 6 16 7 17 8 18 9 19 10 9 11 7 12
REMARK SMILES IDX 8 13 6 14 5 15 4 16 2 17 3 18 1 19
REMARK H PARENT
REMARK Flexibility Score: inf
ROOT
ATOM      1  C   UNL     1     137.646 140.923 141.080  1.00  0.00     0.001 C 
ENDROOT
BRANCH   1   2
ATOM      2  C   UNL     1     136.363 140.231 141.575  1.00  0.00     0.003 C 
BRANCH   2   3
ATOM      3  C   UNL     1     136.592 139.115 142.625  1.00  0.00    -0.014 C 
ATOM      4  C   UNL     1     136.490 139.637 144.069  1.00  0.00     0.007 C 
BRANCH   3   5
ATOM      5  C   UNL     1     137.899 138.316 142.368  1.00  0.00     0.003 C 
BRANCH   5   6
ATOM      6  C   UNL     1     138.912 138.214 143.528  1.00  0.00     0.001 C 
BRANCH   6   7
ATOM      7  C   UNL     1     140.381 138.207 143.072  1.00  0.00     0.003 C 
BRANCH   7   8
ATOM      8  C   UNL     1     141.044 139.600 143.171  1.00  0.00    -0.017 C 
ATOM      9  C   UNL     1     141.164 140.273 141.796  1.00  0.00     0.007 C 
ATOM     10  C   UNL     1     140.243 140.497 144.123  1.00  0.00     0.007 C 
ENDBRANCH   7   8
ENDBRANCH   6   7
ENDBRANCH   5   6
ENDBRANCH   3   5
ENDBRANCH   2   3
ENDBRANCH   1   2
BRANCH   1  11
ATOM     11  C   UNL     1     137.568 142.459 141.146  1.00  0.00     0.003 C 
BRANCH  11  12
ATOM     12  C   UNL     1     138.361 143.040 142.342  1.00  0.00    -0.014 C 
ATOM     13  C   UNL     1     137.503 143.118 143.617  1.00  0.00     0.007 C 
BRANCH  12  14
ATOM     14  C   UNL     1     139.002 144.407 142.001  1.00  0.00     0.004 C 
BRANCH  14  15
ATOM     15  C   UNL     1     140.532 144.460 142.188  1.00  0.00     0.008 C 
BRANCH  15  16
ATOM     16  C   UNL     1     141.279 143.806 141.017  1.00  0.00     0.075 C 
BRANCH  16  17
ATOM     17  C   UNL     1     142.763 143.739 141.262  1.00  0.00     0.129 C 
ATOM     18  O   UNL     1     143.538 143.937 140.338  1.00  0.00    -0.300 OA
ATOM     19  C   UNL     1     143.309 143.404 142.617  1.00  0.00     0.087 C 
ENDBRANCH  16  17
ENDBRANCH  15  16
ENDBRANCH  14  15
ENDBRANCH  12  14
ENDBRANCH  11  12
ENDBRANCH   1  11
TORSDOF 12
ENDMDL
MODEL 5
REMARK VINA RESULT:    -3.288      3.239      5.671
REMARK INTER + INTRA:          -7.720
REMARK INTER:                  -5.536
REMARK INTRA:                  -2.184
REMARK UNBOUND:                -2.125
REMARK SMILES CC(=O)CCC[C@@H](C)CCC[C@H](C)CCCC(C)C
REMARK SMILES IDX 10 1 11 2 12 3 13 4 14 5 15 6 16 7 17 8 18 9 19 10 9 11 7 12
REMARK SMILES IDX 8 13 6 14 5 15 4 16 2 17 3 18 1 19
REMARK H PARENT
REMARK Flexibility Score: inf
ROOT
ATOM      1  C   UNL     1     144.349 143.017 142.476  1.00  0.00     0.001 C 
ENDROOT
BRANCH   1   2
ATOM      2  C   UNL     1     143.875 142.996 143.941  1.00  0.00     0.003 C 
BRANCH   2   3
ATOM      3  C   UNL     1     142.337 143.055 144.125  1.00  0.00    -0.014 C 
ATOM      4  C   UNL     1     141.594 142.104 143.169  1.00  0.00     0.007 C 
BRANCH   3   5
ATOM      5  C   UNL     1     141.787 144.507 144.073  1.00  0.00     0.003 C 
BRANCH   5   6
ATOM      6  C   UNL     1     140.255 144.687 144.029  1.00  0.00     0.001 C 
BRANCH   6   7
ATOM      7  C   UNL     1     139.780 145.727 142.999  1.00  0.00     0.003 C 
BRANCH   7   8
ATOM      8  C   UNL     1     139.204 145.079 141.720  1.00  0.00    -0.017 C 
ATOM      9  C   UNL     1     140.305 144.757 140.699  1.00  0.00     0.007 C 
ATOM     10  C   UNL     1     138.433 143.801 142.078  1.00  0.00     0.007 C 
ENDBRANCH   7   8
ENDBRANCH   6   7
ENDBRANCH   5   6
ENDBRANCH   3   5
ENDBRANCH   2   3
ENDBRANCH   1   2
BRANCH   1  11
ATOM     11  C   UNL     1     145.623 142.184 142.242  1.00  0.00     0.003 C 
BRANCH  11  12
ATOM     12  C   UNL     1     145.566 141.374 140.924  1.00  0.00    -0.014 C 
ATOM     13  C   UNL     1     146.696 141.771 139.958  1.00  0.00     0.007 C 
BRANCH  12  14
ATOM     14  C   UNL     1     144.177 141.467 140.249  1.00  0.00     0.004 C 
BRANCH  14  15
ATOM     15  C   UNL     1     143.358 140.161 140.290  1.00  0.00     0.008 C 
BRANCH  15  16
ATOM     16  C   UNL     1     144.015 139.097 141.179  1.00  0.00     0.075 C 
BRANCH  16  17
ATOM     17  C   UNL     1     143.269 138.903 142.472  1.00  0.00     0.129 C 
ATOM     18  O   UNL     1     142.091 138.576 142.448  1.00  0.00    -0.300 OA
ATOM     19  C   UNL     1     143.940 139.133 143.793  1.00  0.00     0.087 C 
ENDBRANCH  16  17
ENDBRANCH  15  16
ENDBRANCH  14  15
ENDBRANCH  12  14
ENDBRANCH  11  12
ENDBRANCH   1  11
TORSDOF 12
ENDMDL
MODEL 6
REMARK VINA RESULT:    -3.281      2.989      4.315
REMARK INTER + INTRA:          -7.708
REMARK INTER:                  -5.463
REMARK INTRA:                  -2.245
REMARK UNBOUND:                -2.125
REMARK SMILES CC(=O)CCC[C@@H](C)CCC[C@H](C)CCCC(C)C
REMARK SMILES IDX 10 1 11 2 12 3 13 4 14 5 15 6 16 7 17 8 18 9 19 10 9 11 7 12
REMARK SMILES IDX 8 13 6 14 5 15 4 16 2 17 3 18 1 19
REMARK H PARENT
REMARK Flexibility Score: inf
ROOT
ATOM      1  C   UNL     1     139.038 142.710 142.695  1.00  0.00     0.001 C 
ENDROOT
BRANCH   1   2
ATOM      2  C   UNL     1     139.589 141.651 143.669  1.00  0.00     0.003 C 
BRANCH   2   3
ATOM      3  C   UNL     1     140.574 140.637 143.034  1.00  0.00    -0.014 C 
ATOM      4  C   UNL     1     141.090 141.100 141.660  1.00  0.00     0.007 C 
BRANCH   3   5
ATOM      5  C   UNL     1     140.002 139.192 143.004  1.00  0.00     0.003 C 
BRANCH   5   6
ATOM      6  C   UNL     1     138.821 138.914 142.050  1.00  0.00     0.001 C 
BRANCH   6   7
ATOM      7  C   UNL     1     137.467 138.763 142.764  1.00  0.00     0.003 C 
BRANCH   7   8
ATOM      8  C   UNL     1     136.525 139.965 142.517  1.00  0.00    -0.017 C 
ATOM      9  C   UNL     1     135.404 139.617 141.528  1.00  0.00     0.007 C 
ATOM     10  C   UNL     1     135.922 140.440 143.845  1.00  0.00     0.007 C 
ENDBRANCH   7   8
ENDBRANCH   6   7
ENDBRANCH   5   6
ENDBRANCH   3   5
ENDBRANCH   2   3
ENDBRANCH   1   2
BRANCH   1  11
ATOM     11  C   UNL     1     138.923 144.109 143.327  1.00  0.00     0.003 C 
BRANCH  11  12
ATOM     12  C   UNL     1     140.118 145.023 142.964  1.00  0.00    -0.014 C 
ATOM     13  C   UNL     1     140.499 144.905 141.478  1.00  0.00     0.007 C 
BRANCH  12  14
ATOM     14  C   UNL     1     141.335 144.775 143.887  1.00  0.00     0.004 C 
BRANCH  14  15
ATOM     15  C   UNL     1     142.546 144.126 143.187  1.00  0.00     0.008 C 
BRANCH  15  16
ATOM     16  C   UNL     1     143.258 143.110 144.092  1.00  0.00     0.075 C 
BRANCH  16  17
ATOM     17  C   UNL     1     144.201 142.228 143.317  1.00  0.00     0.129 C 
ATOM     18  O   UNL     1     144.556 141.158 143.790  1.00  0.00    -0.300 OA
ATOM     19  C   UNL     1     144.738 142.654 141.984  1.00  0.00     0.087 C 
ENDBRANCH  16  17
ENDBRANCH  15  16
ENDBRANCH  14  15
ENDBRANCH  12  14
ENDBRANCH  11  12
ENDBRANCH   1  11
TORSDOF 12
ENDMDL
MODEL 7
REMARK VINA RESULT:    -3.276      3.358      5.229
REMARK INTER + INTRA:          -7.699
REMARK INTER:                  -6.168
REMARK INTRA:                  -1.531
REMARK UNBOUND:                -2.125
REMARK SMILES CC(=O)CCC[C@@H](C)CCC[C@H](C)CCCC(C)C
REMARK SMILES IDX 10 1 11 2 12 3 13 4 14 5 15 6 16 7 17 8 18 9 19 10 9 11 7 12
REMARK SMILES IDX 8 13 6 14 5 15 4 16 2 17 3 18 1 19
REMARK H PARENT
REMARK Flexibility Score: inf
ROOT
ATOM      1  C   UNL     1     138.358 143.457 142.369  1.00  0.00     0.001 C 
ENDROOT
BRANCH   1   2
ATOM      2  C   UNL     1     137.629 143.019 143.653  1.00  0.00     0.003 C 
BRANCH   2   3
ATOM      3  C   UNL     1     137.818 141.528 144.029  1.00  0.00    -0.014 C 
ATOM      4  C   UNL     1     138.984 140.873 143.265  1.00  0.00     0.007 C 
BRANCH   3   5
ATOM      5  C   UNL     1     136.498 140.715 143.918  1.00  0.00     0.003 C 
BRANCH   5   6
ATOM      6  C   UNL     1     136.386 139.692 142.768  1.00  0.00     0.001 C 
BRANCH   6   7
ATOM      7  C   UNL     1     135.162 139.908 141.861  1.00  0.00     0.003 C 
BRANCH   7   8
ATOM      8  C   UNL     1     135.539 140.020 140.366  1.00  0.00    -0.017 C 
ATOM      9  C   UNL     1     134.337 140.437 139.505  1.00  0.00     0.007 C 
ATOM     10  C   UNL     1     136.684 141.024 140.186  1.00  0.00     0.007 C 
ENDBRANCH   7   8
ENDBRANCH   6   7
ENDBRANCH   5   6
ENDBRANCH   3   5
ENDBRANCH   2   3
ENDBRANCH   1   2
BRANCH   1  11
ATOM     11  C   UNL     1     138.795 144.934 142.397  1.00  0.00     0.003 C 
BRANCH  11  12
ATOM     12  C   UNL     1     140.321 145.102 142.199  1.00  0.00    -0.014 C 
ATOM     13  C   UNL     1     140.816 144.394 140.926  1.00  0.00     0.007 C 
BRANCH  12  14
ATOM     14  C   UNL     1     141.118 144.655 143.448  1.00  0.00     0.004 C 
BRANCH  14  15
ATOM     15  C   UNL     1     141.915 143.347 143.263  1.00  0.00     0.008 C 
BRANCH  15  16
ATOM     16  C   UNL     1     143.417 143.548 143.507  1.00  0.00     0.075 C 
BRANCH  16  17
ATOM     17  C   UNL     1     144.215 142.322 143.151  1.00  0.00     0.129 C 
ATOM     18  O   UNL     1     143.864 141.229 143.569  1.00  0.00    -0.300 OA
ATOM     19  C   UNL     1     145.454 142.424 142.313  1.00  0.00     0.087 C 
ENDBRANCH  16  17
ENDBRANCH  15  16
ENDBRANCH  14  15
ENDBRANCH  12  14
ENDBRANCH  11  12
ENDBRANCH   1  11
TORSDOF 12
ENDMDL
MODEL 8
REMARK VINA RESULT:    -3.198      3.141      6.449
REMARK INTER + INTRA:          -7.566
REMARK INTER:                  -4.823
REMARK INTRA:                  -2.743
REMARK UNBOUND:                -2.125
REMARK SMILES CC(=O)CCC[C@@H](C)CCC[C@H](C)CCCC(C)C
REMARK SMILES IDX 10 1 11 2 12 3 13 4 14 5 15 6 16 7 17 8 18 9 19 10 9 11 7 12
REMARK SMILES IDX 8 13 6 14 5 15 4 16 2 17 3 18 1 19
REMARK H PARENT
REMARK Flexibility Score: inf
ROOT
ATOM      1  C   UNL     1     138.222 141.787 143.353  1.00  0.00     0.001 C 
ENDROOT
BRANCH   1   2
ATOM      2  C   UNL     1     137.940 143.135 142.663  1.00  0.00     0.003 C 
BRANCH   2   3
ATOM      3  C   UNL     1     138.770 144.326 143.205  1.00  0.00    -0.014 C 
ATOM      4  C   UNL     1     139.178 145.311 142.095  1.00  0.00     0.007 C 
BRANCH   3   5
ATOM      5  C   UNL     1     139.976 143.866 144.070  1.00  0.00     0.003 C 
BRANCH   5   6
ATOM      6  C   UNL     1     141.385 143.994 143.453  1.00  0.00     0.001 C 
BRANCH   6   7
ATOM      7  C   UNL     1     141.988 142.655 142.996  1.00  0.00     0.003 C 
BRANCH   7   8
ATOM      8  C   UNL     1     142.195 142.585 141.465  1.00  0.00    -0.017 C 
ATOM      9  C   UNL     1     140.969 141.996 140.751  1.00  0.00     0.007 C 
ATOM     10  C   UNL     1     142.502 143.981 140.912  1.00  0.00     0.007 C 
ENDBRANCH   7   8
ENDBRANCH   6   7
ENDBRANCH   5   6
ENDBRANCH   3   5
ENDBRANCH   2   3
ENDBRANCH   1   2
BRANCH   1  11
ATOM     11  C   UNL     1     137.962 140.576 142.437  1.00  0.00     0.003 C 
BRANCH  11  12
ATOM     12  C   UNL     1     138.856 139.363 142.794  1.00  0.00    -0.014 C 
ATOM     13  C   UNL     1     138.026 138.166 143.290  1.00  0.00     0.007 C 
BRANCH  12  14
ATOM     14  C   UNL     1     139.970 139.743 143.799  1.00  0.00     0.004 C 
BRANCH  14  15
ATOM     15  C   UNL     1     141.283 138.953 143.624  1.00  0.00     0.008 C 
BRANCH  15  16
ATOM     16  C   UNL     1     141.609 138.695 142.146  1.00  0.00     0.075 C 
BRANCH  16  17
ATOM     17  C   UNL     1     141.778 137.228 141.854  1.00  0.00     0.129 C 
ATOM     18  O   UNL     1     142.117 136.869 140.735  1.00  0.00    -0.300 OA
ATOM     19  C   UNL     1     141.509 136.194 142.905  1.00  0.00     0.087 C 
ENDBRANCH  16  17
ENDBRANCH  15  16
ENDBRANCH  14  15
ENDBRANCH  12  14
ENDBRANCH  11  12
ENDBRANCH   1  11
TORSDOF 12
ENDMDL
