MODEL 1
REMARK VINA RESULT:    -4.528      0.000      0.000
REMARK INTER + INTRA:         -10.272
REMARK INTER:                  -8.498
REMARK INTRA:                  -1.774
REMARK UNBOUND:                -1.774
REMARK SMILES CCCCCCCCC=CCCCCCCCC(=O)[O-]
REMARK SMILES IDX 10 1 9 2 11 3 12 4 13 5 14 6 15 7 16 8 17 9 18 10 19 11
REMARK SMILES IDX 20 12 8 13 7 14 6 15 5 16 4 17 3 18 2 19 1 20
REMARK H PARENT
REMARK Flexibility Score: inf
ROOT
ATOM      1  C   UNL     1      -8.577  16.144 -21.212  1.00  0.00    -0.031 C 
ATOM      2  C   UNL     1      -8.221  16.211 -22.508  1.00  0.00    -0.031 C 
ENDROOT
BRANCH   1   3
ATOM      3  C   UNL     1      -7.787  15.454 -20.127  1.00  0.00     0.027 C 
BRANCH   3   4
ATOM      4  C   UNL     1      -6.915  16.428 -19.316  1.00  0.00     0.004 C 
BRANCH   4   5
ATOM      5  C   UNL     1      -7.576  17.791 -19.033  1.00  0.00     0.000 C 
BRANCH   5   6
ATOM      6  C   UNL     1      -6.972  18.983 -19.803  1.00  0.00     0.000 C 
BRANCH   6   7
ATOM      7  C   UNL     1      -7.978  19.803 -20.629  1.00  0.00     0.000 C 
BRANCH   7   8
ATOM      8  C   UNL     1      -8.727  20.851 -19.788  1.00  0.00     0.006 C 
BRANCH   8   9
ATOM      9  C   UNL     1      -7.787  21.930 -19.236  1.00  0.00     0.053 C 
BRANCH   9  10
ATOM     10  C   UNL     1      -8.364  22.606 -18.030  1.00  0.00     0.041 C 
ATOM     11  O   UNL     1      -9.553  23.024 -18.045  1.00  0.00    -0.550 OA
ATOM     12  O   UNL     1      -7.600  22.748 -16.879  1.00  0.00    -0.550 OA
ENDBRANCH   9  10
ENDBRANCH   8   9
ENDBRANCH   7   8
ENDBRANCH   6   7
ENDBRANCH   5   6
ENDBRANCH   4   5
ENDBRANCH   3   4
ENDBRANCH   1   3
BRANCH   2  13
ATOM     13  C   UNL     1      -6.938  15.663 -23.090  1.00  0.00     0.027 C 
BRANCH  13  14
ATOM     14  C   UNL     1      -7.173  14.315 -23.791  1.00  0.00     0.004 C 
BRANCH  14  15
ATOM     15  C   UNL     1      -7.380  13.146 -22.806  1.00  0.00     0.000 C 
BRANCH  15  16
ATOM     16  C   UNL     1      -8.366  12.081 -23.320  1.00  0.00     0.000 C 
BRANCH  16  17
ATOM     17  C   UNL     1      -9.361  11.637 -22.235  1.00  0.00    -0.000 C 
BRANCH  17  18
ATOM     18  C   UNL     1      -9.927  12.817 -21.424  1.00  0.00    -0.000 C 
BRANCH  18  19
ATOM     19  C   UNL     1     -11.427  13.086 -21.635  1.00  0.00    -0.003 C 
ATOM     20  C   UNL     1     -11.859  14.470 -21.154  1.00  0.00     0.004 C 
ENDBRANCH  18  19
ENDBRANCH  17  18
ENDBRANCH  16  17
ENDBRANCH  15  16
ENDBRANCH  14  15
ENDBRANCH  13  14
ENDBRANCH   2  13
TORSDOF 15
ENDMDL
MODEL 2
REMARK VINA RESULT:    -4.498      3.531      8.156
REMARK INTER + INTRA:         -10.216
REMARK INTER:                  -9.103
REMARK INTRA:                  -1.113
REMARK UNBOUND:                -1.774
REMARK SMILES CCCCCCCCC=CCCCCCCCC(=O)[O-]
REMARK SMILES IDX 10 1 9 2 11 3 12 4 13 5 14 6 15 7 16 8 17 9 18 10 19 11
REMARK SMILES IDX 20 12 8 13 7 14 6 15 5 16 4 17 3 18 2 19 1 20
REMARK H PARENT
REMARK Flexibility Score: inf
ROOT
ATOM      1  C   UNL     1      -8.342  16.107 -20.038  1.00  0.00    -0.031 C 
ATOM      2  C   UNL     1      -8.219  17.381 -19.622  1.00  0.00    -0.031 C 
ENDROOT
BRANCH   1   3
ATOM      3  C   UNL     1      -7.323  15.359 -20.862  1.00  0.00     0.027 C 
BRANCH   3   4
ATOM      4  C   UNL     1      -7.657  15.358 -22.364  1.00  0.00     0.004 C 
BRANCH   4   5
ATOM      5  C   UNL     1      -7.184  14.102 -23.122  1.00  0.00     0.000 C 
BRANCH   5   6
ATOM      6  C   UNL     1      -7.081  12.822 -22.269  1.00  0.00     0.000 C 
BRANCH   6   7
ATOM      7  C   UNL     1      -8.001  11.670 -22.708  1.00  0.00     0.000 C 
BRANCH   7   8
ATOM      8  C   UNL     1      -9.487  12.063 -22.716  1.00  0.00     0.006 C 
BRANCH   8   9
ATOM      9  C   UNL     1      -9.949  12.610 -21.359  1.00  0.00     0.053 C 
BRANCH   9  10
ATOM     10  C   UNL     1     -11.421  12.888 -21.343  1.00  0.00     0.041 C 
ATOM     11  O   UNL     1     -12.247  11.937 -21.395  1.00  0.00    -0.550 OA
ATOM     12  O   UNL     1     -11.882  14.194 -21.240  1.00  0.00    -0.550 OA
ENDBRANCH   9  10
ENDBRANCH   8   9
ENDBRANCH   7   8
ENDBRANCH   6   7
ENDBRANCH   5   6
ENDBRANCH   4   5
ENDBRANCH   3   4
ENDBRANCH   1   3
BRANCH   2  13
ATOM     13  C   UNL     1      -7.011  18.261 -19.852  1.00  0.00     0.027 C 
BRANCH  13  14
ATOM     14  C   UNL     1      -7.009  18.846 -21.274  1.00  0.00     0.004 C 
BRANCH  14  15
ATOM     15  C   UNL     1      -7.551  20.288 -21.337  1.00  0.00     0.000 C 
BRANCH  15  16
ATOM     16  C   UNL     1      -8.733  20.539 -20.383  1.00  0.00     0.000 C 
BRANCH  16  17
ATOM     17  C   UNL     1      -8.769  21.988 -19.869  1.00  0.00    -0.000 C 
BRANCH  17  18
ATOM     18  C   UNL     1      -7.699  22.269 -18.798  1.00  0.00    -0.000 C 
BRANCH  18  19
ATOM     19  C   UNL     1      -8.227  22.936 -17.516  1.00  0.00    -0.003 C 
ATOM     20  C   UNL     1      -9.670  23.420 -17.645  1.00  0.00     0.004 C 
ENDBRANCH  18  19
ENDBRANCH  17  18
ENDBRANCH  16  17
ENDBRANCH  15  16
ENDBRANCH  14  15
ENDBRANCH  13  14
ENDBRANCH   2  13
TORSDOF 15
ENDMDL
MODEL 3
REMARK VINA RESULT:    -4.424      0.945      1.241
REMARK INTER + INTRA:         -10.078
REMARK INTER:                  -8.745
REMARK INTRA:                  -1.333
REMARK UNBOUND:                -1.774
REMARK SMILES CCCCCCCCC=CCCCCCCCC(=O)[O-]
REMARK SMILES IDX 10 1 9 2 11 3 12 4 13 5 14 6 15 7 16 8 17 9 18 10 19 11
REMARK SMILES IDX 20 12 8 13 7 14 6 15 5 16 4 17 3 18 2 19 1 20
REMARK H PARENT
REMARK Flexibility Score: inf
ROOT
ATOM      1  C   UNL     1      -8.731  16.225 -20.521  1.00  0.00    -0.031 C 
ATOM      2  C   UNL     1      -8.364  15.442 -21.553  1.00  0.00    -0.031 C 
ENDROOT
BRANCH   1   3
ATOM      3  C   UNL     1      -7.796  16.786 -19.479  1.00  0.00     0.027 C 
BRANCH   3   4
ATOM      4  C   UNL     1      -6.964  17.970 -20.003  1.00  0.00     0.004 C 
BRANCH   4   5
ATOM      5  C   UNL     1      -7.656  18.798 -21.104  1.00  0.00     0.000 C 
BRANCH   5   6
ATOM      6  C   UNL     1      -6.875  20.039 -21.578  1.00  0.00     0.000 C 
BRANCH   6   7
ATOM      7  C   UNL     1      -7.511  21.391 -21.207  1.00  0.00     0.000 C 
BRANCH   7   8
ATOM      8  C   UNL     1      -7.426  21.697 -19.703  1.00  0.00     0.006 C 
BRANCH   8   9
ATOM      9  C   UNL     1      -8.804  21.984 -19.091  1.00  0.00     0.053 C 
BRANCH   9  10
ATOM     10  C   UNL     1      -8.703  22.865 -17.884  1.00  0.00     0.041 C 
ATOM     11  O   UNL     1      -9.702  23.529 -17.498  1.00  0.00    -0.550 OA
ATOM     12  O   UNL     1      -7.515  22.931 -17.167  1.00  0.00    -0.550 OA
ENDBRANCH   9  10
ENDBRANCH   8   9
ENDBRANCH   7   8
ENDBRANCH   6   7
ENDBRANCH   5   6
ENDBRANCH   4   5
ENDBRANCH   3   4
ENDBRANCH   1   3
BRANCH   2  13
ATOM     13  C   UNL     1      -6.943  15.044 -21.883  1.00  0.00     0.027 C 
BRANCH  13  14
ATOM     14  C   UNL     1      -6.903  13.753 -22.716  1.00  0.00     0.004 C 
BRANCH  14  15
ATOM     15  C   UNL     1      -7.220  12.488 -21.892  1.00  0.00     0.000 C 
BRANCH  15  16
ATOM     16  C   UNL     1      -8.186  11.522 -22.603  1.00  0.00     0.000 C 
BRANCH  16  17
ATOM     17  C   UNL     1      -9.607  12.101 -22.720  1.00  0.00    -0.000 C 
BRANCH  17  18
ATOM     18  C   UNL     1     -10.291  12.286 -21.353  1.00  0.00    -0.000 C 
BRANCH  18  19
ATOM     19  C   UNL     1     -11.727  12.833 -21.419  1.00  0.00    -0.003 C 
ATOM     20  C   UNL     1     -11.798  14.348 -21.236  1.00  0.00     0.004 C 
ENDBRANCH  18  19
ENDBRANCH  17  18
ENDBRANCH  16  17
ENDBRANCH  15  16
ENDBRANCH  14  15
ENDBRANCH  13  14
ENDBRANCH   2  13
TORSDOF 15
ENDMDL
MODEL 4
REMARK VINA RESULT:    -3.902     14.114     16.958
REMARK INTER + INTRA:          -9.098
REMARK INTER:                  -6.857
REMARK INTRA:                  -2.241
REMARK UNBOUND:                -1.774
REMARK SMILES CCCCCCCCC=CCCCCCCCC(=O)[O-]
REMARK SMILES IDX 10 1 9 2 11 3 12 4 13 5 14 6 15 7 16 8 17 9 18 10 19 11
REMARK SMILES IDX 20 12 8 13 7 14 6 15 5 16 4 17 3 18 2 19 1 20
REMARK H PARENT
REMARK Flexibility Score: inf
ROOT
ATOM      1  C   UNL     1     -18.002  28.913 -24.716  1.00  0.00    -0.031 C 
ATOM      2  C   UNL     1     -19.055  29.470 -25.342  1.00  0.00    -0.031 C 
ENDROOT
BRANCH   1   3
ATOM      3  C   UNL     1     -16.712  29.622 -24.384  1.00  0.00     0.027 C 
BRANCH   3   4
ATOM      4  C   UNL     1     -15.512  29.075 -25.178  1.00  0.00     0.004 C 
BRANCH   4   5
ATOM      5  C   UNL     1     -14.734  30.142 -25.973  1.00  0.00     0.000 C 
BRANCH   5   6
ATOM      6  C   UNL     1     -14.724  29.941 -27.501  1.00  0.00     0.000 C 
BRANCH   6   7
ATOM      7  C   UNL     1     -15.958  29.221 -28.072  1.00  0.00     0.000 C 
BRANCH   7   8
ATOM      8  C   UNL     1     -15.596  28.157 -29.122  1.00  0.00     0.006 C 
BRANCH   8   9
ATOM      9  C   UNL     1     -14.097  27.831 -29.123  1.00  0.00     0.053 C 
BRANCH   9  10
ATOM     10  C   UNL     1     -13.821  26.479 -28.542  1.00  0.00     0.041 C 
ATOM     11  O   UNL     1     -14.543  26.029 -27.612  1.00  0.00    -0.550 OA
ATOM     12  O   UNL     1     -12.787  25.701 -29.047  1.00  0.00    -0.550 OA
ENDBRANCH   9  10
ENDBRANCH   8   9
ENDBRANCH   7   8
ENDBRANCH   6   7
ENDBRANCH   5   6
ENDBRANCH   4   5
ENDBRANCH   3   4
ENDBRANCH   1   3
BRANCH   2  13
ATOM     13  C   UNL     1     -19.153  30.919 -25.763  1.00  0.00     0.027 C 
BRANCH  13  14
ATOM     14  C   UNL     1     -19.571  31.045 -27.237  1.00  0.00     0.004 C 
BRANCH  14  15
ATOM     15  C   UNL     1     -20.904  30.338 -27.552  1.00  0.00     0.000 C 
BRANCH  15  16
ATOM     16  C   UNL     1     -20.850  29.471 -28.824  1.00  0.00     0.000 C 
BRANCH  16  17
ATOM     17  C   UNL     1     -20.674  27.977 -28.503  1.00  0.00    -0.000 C 
BRANCH  17  18
ATOM     18  C   UNL     1     -19.199  27.536 -28.498  1.00  0.00    -0.000 C 
BRANCH  18  19
ATOM     19  C   UNL     1     -18.954  26.094 -28.976  1.00  0.00    -0.003 C 
ATOM     20  C   UNL     1     -17.827  25.397 -28.216  1.00  0.00     0.004 C 
ENDBRANCH  18  19
ENDBRANCH  17  18
ENDBRANCH  16  17
ENDBRANCH  15  16
ENDBRANCH  14  15
ENDBRANCH  13  14
ENDBRANCH   2  13
TORSDOF 15
ENDMDL
MODEL 5
REMARK VINA RESULT:    -3.817      3.085      7.623
REMARK INTER + INTRA:          -8.939
REMARK INTER:                  -7.715
REMARK INTRA:                  -1.224
REMARK UNBOUND:                -1.774
REMARK SMILES CCCCCCCCC=CCCCCCCCC(=O)[O-]
REMARK SMILES IDX 10 1 9 2 11 3 12 4 13 5 14 6 15 7 16 8 17 9 18 10 19 11
REMARK SMILES IDX 20 12 8 13 7 14 6 15 5 16 4 17 3 18 2 19 1 20
REMARK H PARENT
REMARK Flexibility Score: inf
ROOT
ATOM      1  C   UNL     1      -8.359  15.157 -20.239  1.00  0.00    -0.031 C 
ATOM      2  C   UNL     1      -7.641  16.062 -19.548  1.00  0.00    -0.031 C 
ENDROOT
BRANCH   1   3
ATOM      3  C   UNL     1      -9.759  15.370 -20.758  1.00  0.00     0.027 C 
BRANCH   3   4
ATOM      4  C   UNL     1     -10.396  14.076 -21.295  1.00  0.00     0.004 C 
BRANCH   4   5
ATOM      5  C   UNL     1      -9.439  12.869 -21.352  1.00  0.00     0.000 C 
BRANCH   5   6
ATOM      6  C   UNL     1      -8.890  12.535 -22.753  1.00  0.00     0.000 C 
BRANCH   6   7
ATOM      7  C   UNL     1      -7.358  12.591 -22.883  1.00  0.00     0.000 C 
BRANCH   7   8
ATOM      8  C   UNL     1      -6.875  13.764 -23.752  1.00  0.00     0.006 C 
BRANCH   8   9
ATOM      9  C   UNL     1      -7.177  15.124 -23.108  1.00  0.00     0.053 C 
BRANCH   9  10
ATOM     10  C   UNL     1      -7.513  16.162 -24.134  1.00  0.00     0.041 C 
ATOM     11  O   UNL     1      -7.600  15.847 -25.351  1.00  0.00    -0.550 OA
ATOM     12  O   UNL     1      -7.761  17.472 -23.744  1.00  0.00    -0.550 OA
ENDBRANCH   9  10
ENDBRANCH   8   9
ENDBRANCH   7   8
ENDBRANCH   6   7
ENDBRANCH   5   6
ENDBRANCH   4   5
ENDBRANCH   3   4
ENDBRANCH   1   3
BRANCH   2  13
ATOM     13  C   UNL     1      -8.089  17.471 -19.230  1.00  0.00     0.027 C 
BRANCH  13  14
ATOM     14  C   UNL     1      -7.221  18.511 -19.957  1.00  0.00     0.004 C 
BRANCH  14  15
ATOM     15  C   UNL     1      -8.036  19.448 -20.872  1.00  0.00     0.000 C 
BRANCH  15  16
ATOM     16  C   UNL     1      -7.286  20.740 -21.247  1.00  0.00     0.000 C 
BRANCH  16  17
ATOM     17  C   UNL     1      -7.354  21.796 -20.130  1.00  0.00    -0.000 C 
BRANCH  17  18
ATOM     18  C   UNL     1      -8.796  22.115 -19.696  1.00  0.00    -0.000 C 
BRANCH  18  19
ATOM     19  C   UNL     1      -8.954  22.499 -18.214  1.00  0.00    -0.003 C 
ATOM     20  C   UNL     1      -7.631  22.876 -17.550  1.00  0.00     0.004 C 
ENDBRANCH  18  19
ENDBRANCH  17  18
ENDBRANCH  16  17
ENDBRANCH  15  16
ENDBRANCH  14  15
ENDBRANCH  13  14
ENDBRANCH   2  13
TORSDOF 15
ENDMDL
MODEL 6
REMARK VINA RESULT:    -3.762      3.083      7.930
REMARK INTER + INTRA:          -8.836
REMARK INTER:                  -7.678
REMARK INTRA:                  -1.158
REMARK UNBOUND:                -1.774
REMARK SMILES CCCCCCCCC=CCCCCCCCC(=O)[O-]
REMARK SMILES IDX 10 1 9 2 11 3 12 4 13 5 14 6 15 7 16 8 17 9 18 10 19 11
REMARK SMILES IDX 20 12 8 13 7 14 6 15 5 16 4 17 3 18 2 19 1 20
REMARK H PARENT
REMARK Flexibility Score: inf
ROOT
ATOM      1  C   UNL     1      -7.990  16.918 -23.368  1.00  0.00    -0.031 C 
ATOM      2  C   UNL     1      -7.982  17.884 -22.430  1.00  0.00    -0.031 C 
ENDROOT
BRANCH   1   3
ATOM      3  C   UNL     1      -6.875  15.930 -23.609  1.00  0.00     0.027 C 
BRANCH   3   4
ATOM      4  C   UNL     1      -6.952  14.709 -22.676  1.00  0.00     0.004 C 
BRANCH   4   5
ATOM      5  C   UNL     1      -7.289  13.384 -23.387  1.00  0.00     0.000 C 
BRANCH   5   6
ATOM      6  C   UNL     1      -7.265  12.133 -22.486  1.00  0.00     0.000 C 
BRANCH   6   7
ATOM      7  C   UNL     1      -8.622  11.428 -22.312  1.00  0.00     0.000 C 
BRANCH   7   8
ATOM      8  C   UNL     1      -9.816  12.359 -22.577  1.00  0.00     0.006 C 
BRANCH   8   9
ATOM      9  C   UNL     1     -10.641  12.617 -21.309  1.00  0.00     0.053 C 
BRANCH   9  10
ATOM     10  C   UNL     1     -10.984  14.067 -21.154  1.00  0.00     0.041 C 
ATOM     11  O   UNL     1     -12.184  14.424 -21.019  1.00  0.00    -0.550 OA
ATOM     12  O   UNL     1      -9.975  15.021 -21.127  1.00  0.00    -0.550 OA
ENDBRANCH   9  10
ENDBRANCH   8   9
ENDBRANCH   7   8
ENDBRANCH   6   7
ENDBRANCH   5   6
ENDBRANCH   4   5
ENDBRANCH   3   4
ENDBRANCH   1   3
BRANCH   2  13
ATOM     13  C   UNL     1      -6.884  18.104 -21.414  1.00  0.00     0.027 C 
BRANCH  13  14
ATOM     14  C   UNL     1      -7.449  18.641 -20.088  1.00  0.00     0.004 C 
BRANCH  14  15
ATOM     15  C   UNL     1      -7.026  20.094 -19.793  1.00  0.00     0.000 C 
BRANCH  15  16
ATOM     16  C   UNL     1      -7.575  21.109 -20.812  1.00  0.00     0.000 C 
BRANCH  16  17
ATOM     17  C   UNL     1      -8.869  21.783 -20.324  1.00  0.00    -0.000 C 
BRANCH  17  18
ATOM     18  C   UNL     1      -8.923  21.932 -18.792  1.00  0.00    -0.000 C 
BRANCH  18  19
ATOM     19  C   UNL     1      -8.053  23.067 -18.222  1.00  0.00    -0.003 C 
ATOM     20  C   UNL     1      -7.169  22.615 -17.062  1.00  0.00     0.004 C 
ENDBRANCH  18  19
ENDBRANCH  17  18
ENDBRANCH  16  17
ENDBRANCH  15  16
ENDBRANCH  14  15
ENDBRANCH  13  14
ENDBRANCH   2  13
TORSDOF 15
ENDMDL
MODEL 7
REMARK VINA RESULT:    -3.755     14.920     17.157
REMARK INTER + INTRA:          -8.821
REMARK INTER:                  -7.012
REMARK INTRA:                  -1.809
REMARK UNBOUND:                -1.774
REMARK SMILES CCCCCCCCC=CCCCCCCCC(=O)[O-]
REMARK SMILES IDX 10 1 9 2 11 3 12 4 13 5 14 6 15 7 16 8 17 9 18 10 19 11
REMARK SMILES IDX 20 12 8 13 7 14 6 15 5 16 4 17 3 18 2 19 1 20
REMARK H PARENT
REMARK Flexibility Score: inf
ROOT
ATOM      1  C   UNL     1     -17.556  30.628 -23.816  1.00  0.00    -0.031 C 
ATOM      2  C   UNL     1     -16.397  30.097 -24.250  1.00  0.00    -0.031 C 
ENDROOT
BRANCH   1   3
ATOM      3  C   UNL     1     -18.931  30.187 -24.251  1.00  0.00     0.027 C 
BRANCH   3   4
ATOM      4  C   UNL     1     -19.521  31.082 -25.355  1.00  0.00     0.004 C 
BRANCH   4   5
ATOM      5  C   UNL     1     -19.753  30.366 -26.700  1.00  0.00     0.000 C 
BRANCH   5   6
ATOM      6  C   UNL     1     -19.524  28.842 -26.678  1.00  0.00     0.000 C 
BRANCH   6   7
ATOM      7  C   UNL     1     -20.476  28.026 -27.571  1.00  0.00     0.000 C 
BRANCH   7   8
ATOM      8  C   UNL     1     -19.754  27.339 -28.742  1.00  0.00     0.006 C 
BRANCH   8   9
ATOM      9  C   UNL     1     -18.234  27.541 -28.684  1.00  0.00     0.053 C 
BRANCH   9  10
ATOM     10  C   UNL     1     -17.513  26.259 -28.402  1.00  0.00     0.041 C 
ATOM     11  O   UNL     1     -18.144  25.169 -28.374  1.00  0.00    -0.550 OA
ATOM     12  O   UNL     1     -16.138  26.263 -28.201  1.00  0.00    -0.550 OA
ENDBRANCH   9  10
ENDBRANCH   8   9
ENDBRANCH   7   8
ENDBRANCH   6   7
ENDBRANCH   5   6
ENDBRANCH   4   5
ENDBRANCH   3   4
ENDBRANCH   1   3
BRANCH   2  13
ATOM     13  C   UNL     1     -16.276  28.926 -25.198  1.00  0.00     0.027 C 
BRANCH  13  14
ATOM     14  C   UNL     1     -15.081  29.099 -26.150  1.00  0.00     0.004 C 
BRANCH  14  15
ATOM     15  C   UNL     1     -15.472  29.714 -27.509  1.00  0.00     0.000 C 
BRANCH  15  16
ATOM     16  C   UNL     1     -14.476  29.386 -28.637  1.00  0.00     0.000 C 
BRANCH  16  17
ATOM     17  C   UNL     1     -13.189  28.731 -28.105  1.00  0.00    -0.000 C 
BRANCH  17  18
ATOM     18  C   UNL     1     -12.055  29.746 -27.873  1.00  0.00    -0.000 C 
BRANCH  18  19
ATOM     19  C   UNL     1     -11.693  29.983 -26.396  1.00  0.00    -0.003 C 
ATOM     20  C   UNL     1     -10.218  30.322 -26.190  1.00  0.00     0.004 C 
ENDBRANCH  18  19
ENDBRANCH  17  18
ENDBRANCH  16  17
ENDBRANCH  15  16
ENDBRANCH  14  15
ENDBRANCH  13  14
ENDBRANCH   2  13
TORSDOF 15
ENDMDL
MODEL 8
REMARK VINA RESULT:    -3.715     14.927     17.090
REMARK INTER + INTRA:          -8.746
REMARK INTER:                  -6.184
REMARK INTRA:                  -2.562
REMARK UNBOUND:                -1.774
REMARK SMILES CCCCCCCCC=CCCCCCCCC(=O)[O-]
REMARK SMILES IDX 10 1 9 2 11 3 12 4 13 5 14 6 15 7 16 8 17 9 18 10 19 11
REMARK SMILES IDX 20 12 8 13 7 14 6 15 5 16 4 17 3 18 2 19 1 20
REMARK H PARENT
REMARK Flexibility Score: inf
ROOT
ATOM      1  C   UNL     1     -18.095  26.045 -27.733  1.00  0.00    -0.031 C 
ATOM      2  C   UNL     1     -19.301  26.644 -27.744  1.00  0.00    -0.031 C 
ENDROOT
BRANCH   1   3
ATOM      3  C   UNL     1     -17.158  25.953 -28.913  1.00  0.00     0.027 C 
BRANCH   3   4
ATOM      4  C   UNL     1     -15.896  26.815 -28.738  1.00  0.00     0.004 C 
BRANCH   4   5
ATOM      5  C   UNL     1     -16.085  28.302 -29.097  1.00  0.00     0.000 C 
BRANCH   5   6
ATOM      6  C   UNL     1     -16.393  29.230 -27.905  1.00  0.00     0.000 C 
BRANCH   6   7
ATOM      7  C   UNL     1     -15.905  28.719 -26.538  1.00  0.00     0.000 C 
BRANCH   7   8
ATOM      8  C   UNL     1     -14.892  29.667 -25.874  1.00  0.00     0.006 C 
BRANCH   8   9
ATOM      9  C   UNL     1     -14.020  30.397 -26.905  1.00  0.00     0.053 C 
BRANCH   9  10
ATOM     10  C   UNL     1     -12.771  29.632 -27.218  1.00  0.00     0.041 C 
ATOM     11  O   UNL     1     -11.703  29.881 -26.599  1.00  0.00    -0.550 OA
ATOM     12  O   UNL     1     -12.795  28.622 -28.172  1.00  0.00    -0.550 OA
ENDBRANCH   9  10
ENDBRANCH   8   9
ENDBRANCH   7   8
ENDBRANCH   6   7
ENDBRANCH   5   6
ENDBRANCH   4   5
ENDBRANCH   3   4
ENDBRANCH   1   3
BRANCH   2  13
ATOM     13  C   UNL     1     -19.896  27.383 -28.920  1.00  0.00     0.027 C 
BRANCH  13  14
ATOM     14  C   UNL     1     -19.794  28.906 -28.733  1.00  0.00     0.004 C 
BRANCH  14  15
ATOM     15  C   UNL     1     -21.124  29.555 -28.299  1.00  0.00     0.000 C 
BRANCH  15  16
ATOM     16  C   UNL     1     -20.941  30.709 -27.296  1.00  0.00     0.000 C 
BRANCH  16  17
ATOM     17  C   UNL     1     -19.536  30.719 -26.670  1.00  0.00    -0.000 C 
BRANCH  17  18
ATOM     18  C   UNL     1     -19.552  31.080 -25.173  1.00  0.00    -0.000 C 
BRANCH  18  19
ATOM     19  C   UNL     1     -18.610  30.237 -24.295  1.00  0.00    -0.003 C 
ATOM     20  C   UNL     1     -18.797  28.734 -24.491  1.00  0.00     0.004 C 
ENDBRANCH  18  19
ENDBRANCH  17  18
ENDBRANCH  16  17
ENDBRANCH  15  16
ENDBRANCH  14  15
ENDBRANCH  13  14
ENDBRANCH   2  13
TORSDOF 15
ENDMDL
MODEL 9
REMARK VINA RESULT:    -3.690     15.038     17.908
REMARK INTER + INTRA:          -8.700
REMARK INTER:                  -7.426
REMARK INTRA:                  -1.274
REMARK UNBOUND:                -1.774
REMARK SMILES CCCCCCCCC=CCCCCCCCC(=O)[O-]
REMARK SMILES IDX 10 1 9 2 11 3 12 4 13 5 14 6 15 7 16 8 17 9 18 10 19 11
REMARK SMILES IDX 20 12 8 13 7 14 6 15 5 16 4 17 3 18 2 19 1 20
REMARK H PARENT
REMARK Flexibility Score: inf
ROOT
ATOM      1  C   UNL     1     -17.750  29.028 -24.193  1.00  0.00    -0.031 C 
ATOM      2  C   UNL     1     -18.911  29.678 -24.393  1.00  0.00    -0.031 C 
ENDROOT
BRANCH   1   3
ATOM      3  C   UNL     1     -16.382  29.564 -24.538  1.00  0.00     0.027 C 
BRANCH   3   4
ATOM      4  C   UNL     1     -15.786  28.908 -25.795  1.00  0.00     0.004 C 
BRANCH   4   5
ATOM      5  C   UNL     1     -16.828  28.280 -26.742  1.00  0.00     0.000 C 
BRANCH   5   6
ATOM      6  C   UNL     1     -16.271  27.782 -28.090  1.00  0.00     0.000 C 
BRANCH   6   7
ATOM      7  C   UNL     1     -15.042  26.861 -27.988  1.00  0.00     0.000 C 
BRANCH   7   8
ATOM      8  C   UNL     1     -13.786  27.468 -28.635  1.00  0.00     0.006 C 
BRANCH   8   9
ATOM      9  C   UNL     1     -14.021  28.905 -29.119  1.00  0.00     0.053 C 
BRANCH   9  10
ATOM     10  C   UNL     1     -13.415  29.911 -28.189  1.00  0.00     0.041 C 
ATOM     11  O   UNL     1     -14.024  30.983 -27.929  1.00  0.00    -0.550 OA
ATOM     12  O   UNL     1     -12.192  29.651 -27.583  1.00  0.00    -0.550 OA
ENDBRANCH   9  10
ENDBRANCH   8   9
ENDBRANCH   7   8
ENDBRANCH   6   7
ENDBRANCH   5   6
ENDBRANCH   4   5
ENDBRANCH   3   4
ENDBRANCH   1   3
BRANCH   2  13
ATOM     13  C   UNL     1     -19.042  31.083 -24.937  1.00  0.00     0.027 C 
BRANCH  13  14
ATOM     14  C   UNL     1     -19.976  31.125 -26.157  1.00  0.00     0.004 C 
BRANCH  14  15
ATOM     15  C   UNL     1     -20.077  29.772 -26.892  1.00  0.00     0.000 C 
BRANCH  15  16
ATOM     16  C   UNL     1     -20.091  29.909 -28.425  1.00  0.00     0.000 C 
BRANCH  16  17
ATOM     17  C   UNL     1     -21.516  30.065 -28.983  1.00  0.00    -0.000 C 
BRANCH  17  18
ATOM     18  C   UNL     1     -22.598  29.954 -27.894  1.00  0.00    -0.000 C 
BRANCH  18  19
ATOM     19  C   UNL     1     -23.952  30.587 -28.261  1.00  0.00    -0.003 C 
ATOM     20  C   UNL     1     -25.146  29.750 -27.806  1.00  0.00     0.004 C 
ENDBRANCH  18  19
ENDBRANCH  17  18
ENDBRANCH  16  17
ENDBRANCH  15  16
ENDBRANCH  14  15
ENDBRANCH  13  14
ENDBRANCH   2  13
TORSDOF 15
ENDMDL
