MODEL 1
REMARK VINA RESULT:     1.799      0.000      0.000
REMARK INTER + INTRA:           3.309
REMARK INTER:                   3.272
REMARK INTRA:                   0.037
REMARK UNBOUND:                 0.037
REMARK SMILES CCCCCCCCCCCCCCCC(=O)[O-]
REMARK SMILES IDX 9 1 10 2 11 3 12 4 13 5 14 6 15 7 16 8 17 9 18 10 8 11 7 12
REMARK SMILES IDX 6 13 5 14 4 15 3 16 2 17 1 18
REMARK H PARENT
REMARK Flexibility Score: inf
ROOT
ATOM      1  C   UNL     1     -37.294  20.015   8.168  1.00  0.00     0.000 C 
ENDROOT
BRANCH   1   2
ATOM      2  C   UNL     1     -38.076  21.150   7.475  1.00  0.00     0.000 C 
BRANCH   2   3
ATOM      3  C   UNL     1     -37.945  21.198   5.941  1.00  0.00     0.000 C 
BRANCH   3   4
ATOM      4  C   UNL     1     -36.848  22.168   5.466  1.00  0.00     0.000 C 
BRANCH   4   5
ATOM      5  C   UNL     1     -37.425  23.459   4.863  1.00  0.00     0.000 C 
BRANCH   5   6
ATOM      6  C   UNL     1     -38.125  24.341   5.912  1.00  0.00     0.006 C 
BRANCH   6   7
ATOM      7  C   UNL     1     -37.737  25.820   5.777  1.00  0.00     0.053 C 
BRANCH   7   8
ATOM      8  C   UNL     1     -38.007  26.344   4.399  1.00  0.00     0.041 C 
ATOM      9  O   UNL     1     -38.123  25.549   3.431  1.00  0.00    -0.550 OA
ATOM     10  O   UNL     1     -38.099  27.713   4.181  1.00  0.00    -0.550 OA
ENDBRANCH   7   8
ENDBRANCH   6   7
ENDBRANCH   5   6
ENDBRANCH   4   5
ENDBRANCH   3   4
ENDBRANCH   2   3
ENDBRANCH   1   2
BRANCH   1  11
ATOM     11  C   UNL     1     -35.803  19.923   7.794  1.00  0.00     0.000 C 
BRANCH  11  12
ATOM     12  C   UNL     1     -34.942  21.106   8.276  1.00  0.00    -0.000 C 
BRANCH  12  13
ATOM     13  C   UNL     1     -33.892  21.568   7.242  1.00  0.00    -0.000 C 
BRANCH  13  14
ATOM     14  C   UNL     1     -33.450  23.024   7.467  1.00  0.00    -0.000 C 
BRANCH  14  15
ATOM     15  C   UNL     1     -32.196  23.398   6.660  1.00  0.00    -0.000 C 
BRANCH  15  16
ATOM     16  C   UNL     1     -31.825  24.885   6.796  1.00  0.00    -0.000 C 
BRANCH  16  17
ATOM     17  C   UNL     1     -30.684  25.295   5.851  1.00  0.00    -0.003 C 
ATOM     18  C   UNL     1     -31.089  26.402   4.877  1.00  0.00     0.004 C 
ENDBRANCH  16  17
ENDBRANCH  15  16
ENDBRANCH  14  15
ENDBRANCH  13  14
ENDBRANCH  12  13
ENDBRANCH  11  12
ENDBRANCH   1  11
TORSDOF 14
ENDMDL
MODEL 2
REMARK VINA RESULT:     2.551      1.888      2.339
REMARK INTER + INTRA:           4.676
REMARK INTER:                   3.069
REMARK INTRA:                   1.607
REMARK UNBOUND:                 0.037
REMARK SMILES CCCCCCCCCCCCCCCC(=O)[O-]
REMARK SMILES IDX 9 1 10 2 11 3 12 4 13 5 14 6 15 7 16 8 17 9 18 10 8 11 7 12
REMARK SMILES IDX 6 13 5 14 4 15 3 16 2 17 1 18
REMARK H PARENT
REMARK Flexibility Score: inf
ROOT
ATOM      1  C   UNL     1     -36.125  19.908   7.930  1.00  0.00     0.000 C 
ENDROOT
BRANCH   1   2
ATOM      2  C   UNL     1     -37.653  20.129   7.930  1.00  0.00     0.000 C 
BRANCH   2   3
ATOM      3  C   UNL     1     -38.105  21.591   8.102  1.00  0.00     0.000 C 
BRANCH   3   4
ATOM      4  C   UNL     1     -38.122  22.372   6.776  1.00  0.00     0.000 C 
BRANCH   4   5
ATOM      5  C   UNL     1     -37.387  23.718   6.876  1.00  0.00     0.000 C 
BRANCH   5   6
ATOM      6  C   UNL     1     -37.684  24.645   5.684  1.00  0.00     0.006 C 
BRANCH   6   7
ATOM      7  C   UNL     1     -37.837  23.868   4.370  1.00  0.00     0.053 C 
BRANCH   7   8
ATOM      8  C   UNL     1     -37.176  22.525   4.435  1.00  0.00     0.041 C 
ATOM      9  O   UNL     1     -37.871  21.475   4.409  1.00  0.00    -0.550 OA
ATOM     10  O   UNL     1     -35.795  22.433   4.555  1.00  0.00    -0.550 OA
ENDBRANCH   7   8
ENDBRANCH   6   7
ENDBRANCH   5   6
ENDBRANCH   4   5
ENDBRANCH   3   4
ENDBRANCH   2   3
ENDBRANCH   1   2
BRANCH   1  11
ATOM     11  C   UNL     1     -35.284  21.142   8.303  1.00  0.00     0.000 C 
BRANCH  11  12
ATOM     12  C   UNL     1     -34.088  21.415   7.371  1.00  0.00    -0.000 C 
BRANCH  12  13
ATOM     13  C   UNL     1     -33.831  22.917   7.119  1.00  0.00    -0.000 C 
BRANCH  13  14
ATOM     14  C   UNL     1     -32.369  23.314   7.388  1.00  0.00    -0.000 C 
BRANCH  14  15
ATOM     15  C   UNL     1     -31.676  23.908   6.152  1.00  0.00    -0.000 C 
BRANCH  15  16
ATOM     16  C   UNL     1     -30.806  25.131   6.491  1.00  0.00    -0.000 C 
BRANCH  16  17
ATOM     17  C   UNL     1     -31.088  26.328   5.570  1.00  0.00    -0.003 C 
ATOM     18  C   UNL     1     -31.330  25.915   4.118  1.00  0.00     0.004 C 
ENDBRANCH  16  17
ENDBRANCH  15  16
ENDBRANCH  14  15
ENDBRANCH  13  14
ENDBRANCH  12  13
ENDBRANCH  11  12
ENDBRANCH   1  11
TORSDOF 14
ENDMDL
MODEL 3
REMARK VINA RESULT:     2.625      1.148      2.020
REMARK INTER + INTRA:           4.811
REMARK INTER:                   5.409
REMARK INTRA:                  -0.598
REMARK UNBOUND:                 0.037
REMARK SMILES CCCCCCCCCCCCCCCC(=O)[O-]
REMARK SMILES IDX 9 1 10 2 11 3 12 4 13 5 14 6 15 7 16 8 17 9 18 10 8 11 7 12
REMARK SMILES IDX 6 13 5 14 4 15 3 16 2 17 1 18
REMARK H PARENT
REMARK Flexibility Score: inf
ROOT
ATOM      1  C   UNL     1     -35.686  21.263   8.417  1.00  0.00     0.000 C 
ENDROOT
BRANCH   1   2
ATOM      2  C   UNL     1     -36.227  19.824   8.281  1.00  0.00     0.000 C 
BRANCH   2   3
ATOM      3  C   UNL     1     -37.578  19.695   7.554  1.00  0.00     0.000 C 
BRANCH   3   4
ATOM      4  C   UNL     1     -38.014  21.002   6.867  1.00  0.00     0.000 C 
BRANCH   4   5
ATOM      5  C   UNL     1     -37.572  21.070   5.397  1.00  0.00     0.000 C 
BRANCH   5   6
ATOM      6  C   UNL     1     -37.839  22.446   4.761  1.00  0.00     0.006 C 
BRANCH   6   7
ATOM      7  C   UNL     1     -37.817  23.578   5.798  1.00  0.00     0.053 C 
BRANCH   7   8
ATOM      8  C   UNL     1     -38.010  24.921   5.162  1.00  0.00     0.041 C 
ATOM      9  O   UNL     1     -38.041  25.029   3.908  1.00  0.00    -0.550 OA
ATOM     10  O   UNL     1     -38.125  26.056   5.954  1.00  0.00    -0.550 OA
ENDBRANCH   7   8
ENDBRANCH   6   7
ENDBRANCH   5   6
ENDBRANCH   4   5
ENDBRANCH   3   4
ENDBRANCH   2   3
ENDBRANCH   1   2
BRANCH   1  11
ATOM     11  C   UNL     1     -34.236  21.465   7.939  1.00  0.00     0.000 C 
BRANCH  11  12
ATOM     12  C   UNL     1     -34.097  21.927   6.476  1.00  0.00    -0.000 C 
BRANCH  12  13
ATOM     13  C   UNL     1     -33.048  23.043   6.277  1.00  0.00    -0.000 C 
BRANCH  13  14
ATOM     14  C   UNL     1     -32.166  22.804   5.039  1.00  0.00    -0.000 C 
BRANCH  14  15
ATOM     15  C   UNL     1     -30.719  23.282   5.238  1.00  0.00    -0.000 C 
BRANCH  15  16
ATOM     16  C   UNL     1     -30.546  24.139   6.504  1.00  0.00    -0.000 C 
BRANCH  16  17
ATOM     17  C   UNL     1     -31.460  25.374   6.508  1.00  0.00    -0.003 C 
ATOM     18  C   UNL     1     -31.104  26.380   5.412  1.00  0.00     0.004 C 
ENDBRANCH  16  17
ENDBRANCH  15  16
ENDBRANCH  14  15
ENDBRANCH  13  14
ENDBRANCH  12  13
ENDBRANCH  11  12
ENDBRANCH   1  11
TORSDOF 14
ENDMDL
MODEL 4
REMARK VINA RESULT:     2.735      2.669      5.491
REMARK INTER + INTRA:           5.011
REMARK INTER:                   5.832
REMARK INTRA:                  -0.822
REMARK UNBOUND:                 0.037
REMARK SMILES CCCCCCCCCCCCCCCC(=O)[O-]
REMARK SMILES IDX 9 1 10 2 11 3 12 4 13 5 14 6 15 7 16 8 17 9 18 10 8 11 7 12
REMARK SMILES IDX 6 13 5 14 4 15 3 16 2 17 1 18
REMARK H PARENT
REMARK Flexibility Score: inf
ROOT
ATOM      1  C   UNL     1     -36.644  19.964   7.603  1.00  0.00     0.000 C 
ENDROOT
BRANCH   1   2
ATOM      2  C   UNL     1     -36.021  20.818   8.728  1.00  0.00     0.000 C 
BRANCH   2   3
ATOM      3  C   UNL     1     -34.573  21.280   8.478  1.00  0.00     0.000 C 
BRANCH   3   4
ATOM      4  C   UNL     1     -34.415  22.069   7.166  1.00  0.00     0.000 C 
BRANCH   4   5
ATOM      5  C   UNL     1     -32.966  22.078   6.655  1.00  0.00     0.000 C 
BRANCH   5   6
ATOM      6  C   UNL     1     -32.792  22.923   5.380  1.00  0.00     0.006 C 
BRANCH   6   7
ATOM      7  C   UNL     1     -31.418  23.603   5.319  1.00  0.00     0.053 C 
BRANCH   7   8
ATOM      8  C   UNL     1     -31.391  24.878   6.106  1.00  0.00     0.041 C 
ATOM      9  O   UNL     1     -31.567  24.857   7.352  1.00  0.00    -0.550 OA
ATOM     10  O   UNL     1     -31.202  26.093   5.459  1.00  0.00    -0.550 OA
ENDBRANCH   7   8
ENDBRANCH   6   7
ENDBRANCH   5   6
ENDBRANCH   4   5
ENDBRANCH   3   4
ENDBRANCH   2   3
ENDBRANCH   1   2
BRANCH   1  11
ATOM     11  C   UNL     1     -38.062  20.381   7.173  1.00  0.00     0.000 C 
BRANCH  11  12
ATOM     12  C   UNL     1     -38.125  21.229   5.888  1.00  0.00    -0.000 C 
BRANCH  12  13
ATOM     13  C   UNL     1     -37.553  22.653   6.058  1.00  0.00    -0.000 C 
BRANCH  13  14
ATOM     14  C   UNL     1     -36.856  23.161   4.784  1.00  0.00    -0.000 C 
BRANCH  14  15
ATOM     15  C   UNL     1     -37.751  24.087   3.945  1.00  0.00    -0.000 C 
BRANCH  15  16
ATOM     16  C   UNL     1     -38.006  25.443   4.627  1.00  0.00    -0.000 C 
BRANCH  16  17
ATOM     17  C   UNL     1     -38.125  26.596   3.618  1.00  0.00    -0.003 C 
ATOM     18  C   UNL     1     -37.867  27.965   4.249  1.00  0.00     0.004 C 
ENDBRANCH  16  17
ENDBRANCH  15  16
ENDBRANCH  14  15
ENDBRANCH  13  14
ENDBRANCH  12  13
ENDBRANCH  11  12
ENDBRANCH   1  11
TORSDOF 14
ENDMDL
MODEL 5
REMARK VINA RESULT:     3.260      2.625      5.576
REMARK INTER + INTRA:           5.965
REMARK INTER:                   4.138
REMARK INTRA:                   1.826
REMARK UNBOUND:                 0.037
REMARK SMILES CCCCCCCCCCCCCCCC(=O)[O-]
REMARK SMILES IDX 9 1 10 2 11 3 12 4 13 5 14 6 15 7 16 8 17 9 18 10 8 11 7 12
REMARK SMILES IDX 6 13 5 14 4 15 3 16 2 17 1 18
REMARK H PARENT
REMARK Flexibility Score: inf
ROOT
ATOM      1  C   UNL     1     -36.250  20.044   8.040  1.00  0.00     0.000 C 
ENDROOT
BRANCH   1   2
ATOM      2  C   UNL     1     -35.227  21.191   8.178  1.00  0.00     0.000 C 
BRANCH   2   3
ATOM      3  C   UNL     1     -35.115  22.123   6.957  1.00  0.00     0.000 C 
BRANCH   3   4
ATOM      4  C   UNL     1     -34.096  23.259   7.163  1.00  0.00     0.000 C 
BRANCH   4   5
ATOM      5  C   UNL     1     -32.751  22.974   6.476  1.00  0.00     0.000 C 
BRANCH   5   6
ATOM      6  C   UNL     1     -31.570  23.669   7.176  1.00  0.00     0.006 C 
BRANCH   6   7
ATOM      7  C   UNL     1     -31.552  25.182   6.918  1.00  0.00     0.053 C 
BRANCH   7   8
ATOM      8  C   UNL     1     -31.097  25.506   5.528  1.00  0.00     0.041 C 
ATOM      9  O   UNL     1     -31.203  24.650   4.611  1.00  0.00    -0.550 OA
ATOM     10  O   UNL     1     -30.528  26.743   5.252  1.00  0.00    -0.550 OA
ENDBRANCH   7   8
ENDBRANCH   6   7
ENDBRANCH   5   6
ENDBRANCH   4   5
ENDBRANCH   3   4
ENDBRANCH   2   3
ENDBRANCH   1   2
BRANCH   1  11
ATOM     11  C   UNL     1     -37.710  20.429   8.340  1.00  0.00     0.000 C 
BRANCH  11  12
ATOM     12  C   UNL     1     -38.000  21.941   8.303  1.00  0.00    -0.000 C 
BRANCH  12  13
ATOM     13  C   UNL     1     -38.049  22.526   6.874  1.00  0.00    -0.000 C 
BRANCH  13  14
ATOM     14  C   UNL     1     -38.125  24.063   6.873  1.00  0.00    -0.000 C 
BRANCH  14  15
ATOM     15  C   UNL     1     -37.971  24.665   5.467  1.00  0.00    -0.000 C 
BRANCH  15  16
ATOM     16  C   UNL     1     -38.124  23.615   4.352  1.00  0.00    -0.000 C 
BRANCH  16  17
ATOM     17  C   UNL     1     -37.023  22.544   4.397  1.00  0.00    -0.003 C 
ATOM     18  C   UNL     1     -37.579  21.125   4.510  1.00  0.00     0.004 C 
ENDBRANCH  16  17
ENDBRANCH  15  16
ENDBRANCH  14  15
ENDBRANCH  13  14
ENDBRANCH  12  13
ENDBRANCH  11  12
ENDBRANCH   1  11
TORSDOF 14
ENDMDL
MODEL 6
REMARK VINA RESULT:     3.589      1.932      3.300
REMARK INTER + INTRA:           6.563
REMARK INTER:                   7.412
REMARK INTRA:                  -0.849
REMARK UNBOUND:                 0.037
REMARK SMILES CCCCCCCCCCCCCCCC(=O)[O-]
REMARK SMILES IDX 9 1 10 2 11 3 12 4 13 5 14 6 15 7 16 8 17 9 18 10 8 11 7 12
REMARK SMILES IDX 6 13 5 14 4 15 3 16 2 17 1 18
REMARK H PARENT
REMARK Flexibility Score: inf
ROOT
ATOM      1  C   UNL     1     -34.006  21.643   7.249  1.00  0.00     0.000 C 
ENDROOT
BRANCH   1   2
ATOM      2  C   UNL     1     -35.246  21.711   8.166  1.00  0.00     0.000 C 
BRANCH   2   3
ATOM      3  C   UNL     1     -36.017  20.387   8.328  1.00  0.00     0.000 C 
BRANCH   3   4
ATOM      4  C   UNL     1     -37.371  20.390   7.597  1.00  0.00     0.000 C 
BRANCH   4   5
ATOM      5  C   UNL     1     -37.279  21.001   6.189  1.00  0.00     0.000 C 
BRANCH   5   6
ATOM      6  C   UNL     1     -38.026  22.341   6.075  1.00  0.00     0.006 C 
BRANCH   6   7
ATOM      7  C   UNL     1     -37.567  23.159   4.860  1.00  0.00     0.053 C 
BRANCH   7   8
ATOM      8  C   UNL     1     -37.963  24.600   4.975  1.00  0.00     0.041 C 
ATOM      9  O   UNL     1     -38.123  25.297   3.939  1.00  0.00    -0.550 OA
ATOM     10  O   UNL     1     -38.125  25.179   6.227  1.00  0.00    -0.550 OA
ENDBRANCH   7   8
ENDBRANCH   6   7
ENDBRANCH   5   6
ENDBRANCH   4   5
ENDBRANCH   3   4
ENDBRANCH   2   3
ENDBRANCH   1   2
BRANCH   1  11
ATOM     11  C   UNL     1     -33.518  22.999   6.708  1.00  0.00     0.000 C 
BRANCH  11  12
ATOM     12  C   UNL     1     -32.308  22.917   5.757  1.00  0.00    -0.000 C 
BRANCH  12  13
ATOM     13  C   UNL     1     -31.351  24.124   5.868  1.00  0.00    -0.000 C 
BRANCH  13  14
ATOM     14  C   UNL     1     -31.189  24.611   7.318  1.00  0.00    -0.000 C 
BRANCH  14  15
ATOM     15  C   UNL     1     -29.886  24.119   7.969  1.00  0.00    -0.000 C 
BRANCH  15  16
ATOM     16  C   UNL     1     -28.915  23.493   6.953  1.00  0.00    -0.000 C 
BRANCH  16  17
ATOM     17  C   UNL     1     -27.524  23.232   7.552  1.00  0.00    -0.003 C 
ATOM     18  C   UNL     1     -26.604  24.451   7.471  1.00  0.00     0.004 C 
ENDBRANCH  16  17
ENDBRANCH  15  16
ENDBRANCH  14  15
ENDBRANCH  13  14
ENDBRANCH  12  13
ENDBRANCH  11  12
ENDBRANCH   1  11
TORSDOF 14
ENDMDL
