MODEL 1
REMARK VINA RESULT:    -4.634      0.000      0.000
REMARK INTER + INTRA:          -7.499
REMARK INTER:                  -7.072
REMARK INTRA:                  -0.427
REMARK UNBOUND:                -0.427
REMARK SMILES O=C([O-])CCCCCCCCC(=O)[O-]
REMARK SMILES IDX 7 1 6 2 5 3 4 4 2 5 1 6 3 7 8 8 9 9 10 10 11 11 12 12 13 13
REMARK SMILES IDX 14 14
REMARK H PARENT
REMARK Flexibility Score: inf
ROOT
ATOM      1  C   UNL     1      -9.992   5.389   6.451  1.00  0.00     0.000 C 
ENDROOT
BRANCH   1   2
ATOM      2  C   UNL     1     -10.454   6.581   5.603  1.00  0.00     0.000 C 
BRANCH   2   3
ATOM      3  C   UNL     1      -9.256   7.364   5.054  1.00  0.00     0.006 C 
BRANCH   3   4
ATOM      4  C   UNL     1      -9.495   8.873   5.150  1.00  0.00     0.053 C 
BRANCH   4   5
ATOM      5  C   UNL     1      -8.276   9.564   5.674  1.00  0.00     0.041 C 
ATOM      6  O   UNL     1      -7.452  10.086   4.878  1.00  0.00    -0.550 OA
ATOM      7  O   UNL     1      -8.074   9.675   7.044  1.00  0.00    -0.550 OA
ENDBRANCH   4   5
ENDBRANCH   3   4
ENDBRANCH   2   3
ENDBRANCH   1   2
BRANCH   1   8
ATOM      8  C   UNL     1     -11.084   4.966   7.445  1.00  0.00     0.000 C 
BRANCH   8   9
ATOM      9  C   UNL     1     -11.270   3.441   7.507  1.00  0.00     0.000 C 
BRANCH   9  10
ATOM     10  C   UNL     1     -12.545   2.972   6.792  1.00  0.00     0.006 C 
BRANCH  10  11
ATOM     11  C   UNL     1     -13.211   4.131   6.042  1.00  0.00     0.053 C 
BRANCH  11  12
ATOM     12  C   UNL     1     -12.980   4.003   4.569  1.00  0.00     0.041 C 
ATOM     13  O   UNL     1     -13.796   4.507   3.753  1.00  0.00    -0.550 OA
ATOM     14  O   UNL     1     -11.837   3.369   4.097  1.00  0.00    -0.550 OA
ENDBRANCH  11  12
ENDBRANCH  10  11
ENDBRANCH   9  10
ENDBRANCH   8   9
ENDBRANCH   1   8
TORSDOF 9
ENDMDL
MODEL 2
REMARK VINA RESULT:    -4.611      0.918      1.630
REMARK INTER + INTRA:          -7.464
REMARK INTER:                  -7.028
REMARK INTRA:                  -0.436
REMARK UNBOUND:                -0.427
REMARK SMILES O=C([O-])CCCCCCCCC(=O)[O-]
REMARK SMILES IDX 7 1 6 2 5 3 4 4 2 5 1 6 3 7 8 8 9 9 10 10 11 11 12 12 13 13
REMARK SMILES IDX 14 14
REMARK H PARENT
REMARK Flexibility Score: inf
ROOT
ATOM      1  C   UNL     1     -10.409   6.647   5.583  1.00  0.00     0.000 C 
ENDROOT
BRANCH   1   2
ATOM      2  C   UNL     1      -9.337   7.519   4.917  1.00  0.00     0.000 C 
BRANCH   2   3
ATOM      3  C   UNL     1      -8.636   8.413   5.946  1.00  0.00     0.006 C 
BRANCH   3   4
ATOM      4  C   UNL     1      -7.854   9.535   5.258  1.00  0.00     0.053 C 
BRANCH   4   5
ATOM      5  C   UNL     1      -7.005  10.266   6.249  1.00  0.00     0.041 C 
ATOM      6  O   UNL     1      -5.787  10.476   6.007  1.00  0.00    -0.550 OA
ATOM      7  O   UNL     1      -7.569  10.759   7.419  1.00  0.00    -0.550 OA
ENDBRANCH   4   5
ENDBRANCH   3   4
ENDBRANCH   2   3
ENDBRANCH   1   2
BRANCH   1   8
ATOM      8  C   UNL     1      -9.768   5.527   6.416  1.00  0.00     0.000 C 
BRANCH   8   9
ATOM      9  C   UNL     1     -10.775   4.825   7.340  1.00  0.00     0.000 C 
BRANCH   9  10
ATOM     10  C   UNL     1     -11.300   3.508   6.750  1.00  0.00     0.006 C 
BRANCH  10  11
ATOM     11  C   UNL     1     -12.679   3.706   6.111  1.00  0.00     0.053 C 
BRANCH  11  12
ATOM     12  C   UNL     1     -12.560   3.776   4.621  1.00  0.00     0.041 C 
ATOM     13  O   UNL     1     -11.558   3.281   4.041  1.00  0.00    -0.550 OA
ATOM     14  O   UNL     1     -13.580   4.343   3.868  1.00  0.00    -0.550 OA
ENDBRANCH  11  12
ENDBRANCH  10  11
ENDBRANCH   9  10
ENDBRANCH   8   9
ENDBRANCH   1   8
TORSDOF 9
ENDMDL
MODEL 3
REMARK VINA RESULT:    -4.536      0.776      6.122
REMARK INTER + INTRA:          -7.350
REMARK INTER:                  -6.801
REMARK INTRA:                  -0.549
REMARK UNBOUND:                -0.427
REMARK SMILES O=C([O-])CCCCCCCCC(=O)[O-]
REMARK SMILES IDX 7 1 6 2 5 3 4 4 2 5 1 6 3 7 8 8 9 9 10 10 11 11 12 12 13 13
REMARK SMILES IDX 14 14
REMARK H PARENT
REMARK Flexibility Score: inf
ROOT
ATOM      1  C   UNL     1     -10.835   4.790   7.506  1.00  0.00     0.000 C 
ENDROOT
BRANCH   1   2
ATOM      2  C   UNL     1     -11.181   3.296   7.452  1.00  0.00     0.000 C 
BRANCH   2   3
ATOM      3  C   UNL     1     -11.939   2.952   6.164  1.00  0.00     0.006 C 
BRANCH   3   4
ATOM      4  C   UNL     1     -13.295   3.663   6.118  1.00  0.00     0.053 C 
BRANCH   4   5
ATOM      5  C   UNL     1     -13.439   4.435   4.845  1.00  0.00     0.041 C 
ATOM      6  O   UNL     1     -13.045   3.940   3.756  1.00  0.00    -0.550 OA
ATOM      7  O   UNL     1     -14.053   5.681   4.853  1.00  0.00    -0.550 OA
ENDBRANCH   4   5
ENDBRANCH   3   4
ENDBRANCH   2   3
ENDBRANCH   1   2
BRANCH   1   8
ATOM      8  C   UNL     1      -9.985   5.201   6.294  1.00  0.00     0.000 C 
BRANCH   8   9
ATOM      9  C   UNL     1     -10.467   6.510   5.649  1.00  0.00     0.000 C 
BRANCH   9  10
ATOM     10  C   UNL     1      -9.336   7.277   4.949  1.00  0.00     0.006 C 
BRANCH  10  11
ATOM     11  C   UNL     1      -9.639   8.778   4.904  1.00  0.00     0.053 C 
BRANCH  11  12
ATOM     12  C   UNL     1      -8.683   9.532   5.776  1.00  0.00     0.041 C 
ATOM     13  O   UNL     1      -9.115  10.338   6.641  1.00  0.00    -0.550 OA
ATOM     14  O   UNL     1      -7.317   9.306   5.667  1.00  0.00    -0.550 OA
ENDBRANCH  11  12
ENDBRANCH  10  11
ENDBRANCH   9  10
ENDBRANCH   8   9
ENDBRANCH   1   8
TORSDOF 9
ENDMDL
MODEL 4
REMARK VINA RESULT:    -4.529      0.839      6.744
REMARK INTER + INTRA:          -7.338
REMARK INTER:                  -6.872
REMARK INTRA:                  -0.467
REMARK UNBOUND:                -0.427
REMARK SMILES O=C([O-])CCCCCCCCC(=O)[O-]
REMARK SMILES IDX 7 1 6 2 5 3 4 4 2 5 1 6 3 7 8 8 9 9 10 10 11 11 12 12 13 13
REMARK SMILES IDX 14 14
REMARK H PARENT
REMARK Flexibility Score: inf
ROOT
ATOM      1  C   UNL     1      -9.782   5.472   6.417  1.00  0.00     0.000 C 
ENDROOT
BRANCH   1   2
ATOM      2  C   UNL     1     -10.844   4.883   7.354  1.00  0.00     0.000 C 
BRANCH   2   3
ATOM      3  C   UNL     1     -11.323   3.515   6.854  1.00  0.00     0.006 C 
BRANCH   3   4
ATOM      4  C   UNL     1     -12.701   3.623   6.195  1.00  0.00     0.053 C 
BRANCH   4   5
ATOM      5  C   UNL     1     -12.563   3.766   4.712  1.00  0.00     0.041 C 
ATOM      6  O   UNL     1     -11.570   3.271   4.117  1.00  0.00    -0.550 OA
ATOM      7  O   UNL     1     -13.556   4.405   3.980  1.00  0.00    -0.550 OA
ENDBRANCH   4   5
ENDBRANCH   3   4
ENDBRANCH   2   3
ENDBRANCH   1   2
BRANCH   1   8
ATOM      8  C   UNL     1     -10.359   6.633   5.594  1.00  0.00     0.000 C 
BRANCH   8   9
ATOM      9  C   UNL     1      -9.290   7.354   4.757  1.00  0.00     0.000 C 
BRANCH   9  10
ATOM     10  C   UNL     1      -9.147   8.837   5.130  1.00  0.00     0.006 C 
BRANCH  10  11
ATOM     11  C   UNL     1      -8.179   9.016   6.304  1.00  0.00     0.053 C 
BRANCH  11  12
ATOM     12  C   UNL     1      -7.503  10.349   6.227  1.00  0.00     0.041 C 
ATOM     13  O   UNL     1      -6.319  10.436   5.807  1.00  0.00    -0.550 OA
ATOM     14  O   UNL     1      -8.197  11.501   6.573  1.00  0.00    -0.550 OA
ENDBRANCH  11  12
ENDBRANCH  10  11
ENDBRANCH   9  10
ENDBRANCH   8   9
ENDBRANCH   1   8
TORSDOF 9
ENDMDL
MODEL 5
REMARK VINA RESULT:    -4.504      1.697      5.326
REMARK INTER + INTRA:          -7.301
REMARK INTER:                  -6.570
REMARK INTRA:                  -0.731
REMARK UNBOUND:                -0.427
REMARK SMILES O=C([O-])CCCCCCCCC(=O)[O-]
REMARK SMILES IDX 7 1 6 2 5 3 4 4 2 5 1 6 3 7 8 8 9 9 10 10 11 11 12 12 13 13
REMARK SMILES IDX 14 14
REMARK H PARENT
REMARK Flexibility Score: inf
ROOT
ATOM      1  C   UNL     1     -11.357   3.156   7.479  1.00  0.00     0.000 C 
ENDROOT
BRANCH   1   2
ATOM      2  C   UNL     1     -12.259   2.948   6.255  1.00  0.00     0.000 C 
BRANCH   2   3
ATOM      3  C   UNL     1     -13.457   3.903   6.285  1.00  0.00     0.006 C 
BRANCH   3   4
ATOM      4  C   UNL     1     -13.488   4.786   5.034  1.00  0.00     0.053 C 
BRANCH   4   5
ATOM      5  C   UNL     1     -13.860   6.190   5.393  1.00  0.00     0.041 C 
ATOM      6  O   UNL     1     -15.007   6.632   5.117  1.00  0.00    -0.550 OA
ATOM      7  O   UNL     1     -12.957   6.996   6.075  1.00  0.00    -0.550 OA
ENDBRANCH   4   5
ENDBRANCH   3   4
ENDBRANCH   2   3
ENDBRANCH   1   2
BRANCH   1   8
ATOM      8  C   UNL     1     -10.808   4.590   7.519  1.00  0.00     0.000 C 
BRANCH   8   9
ATOM      9  C   UNL     1      -9.934   4.924   6.300  1.00  0.00     0.000 C 
BRANCH   9  10
ATOM     10  C   UNL     1      -9.455   6.383   6.297  1.00  0.00     0.006 C 
BRANCH  10  11
ATOM     11  C   UNL     1      -9.546   6.986   4.892  1.00  0.00     0.053 C 
BRANCH  11  12
ATOM     12  C   UNL     1      -9.394   8.474   4.949  1.00  0.00     0.041 C 
ATOM     13  O   UNL     1     -10.398   9.219   4.799  1.00  0.00    -0.550 OA
ATOM     14  O   UNL     1      -8.153   9.037   5.219  1.00  0.00    -0.550 OA
ENDBRANCH  11  12
ENDBRANCH  10  11
ENDBRANCH   9  10
ENDBRANCH   8   9
ENDBRANCH   1   8
TORSDOF 9
ENDMDL
MODEL 6
REMARK VINA RESULT:    -4.443      1.359      2.557
REMARK INTER + INTRA:          -7.208
REMARK INTER:                  -6.818
REMARK INTRA:                  -0.389
REMARK UNBOUND:                -0.427
REMARK SMILES O=C([O-])CCCCCCCCC(=O)[O-]
REMARK SMILES IDX 7 1 6 2 5 3 4 4 2 5 1 6 3 7 8 8 9 9 10 10 11 11 12 12 13 13
REMARK SMILES IDX 14 14
REMARK H PARENT
REMARK Flexibility Score: inf
ROOT
ATOM      1  C   UNL     1      -9.390   7.450   5.111  1.00  0.00     0.000 C 
ENDROOT
BRANCH   1   2
ATOM      2  C   UNL     1      -9.987   8.857   5.240  1.00  0.00     0.000 C 
BRANCH   2   3
ATOM      3  C   UNL     1      -8.892   9.928   5.173  1.00  0.00     0.006 C 
BRANCH   3   4
ATOM      4  C   UNL     1      -7.559   9.385   5.696  1.00  0.00     0.053 C 
BRANCH   4   5
ATOM      5  C   UNL     1      -6.741  10.487   6.291  1.00  0.00     0.041 C 
ATOM      6  O   UNL     1      -7.196  11.168   7.248  1.00  0.00    -0.550 OA
ATOM      7  O   UNL     1      -5.457  10.731   5.821  1.00  0.00    -0.550 OA
ENDBRANCH   4   5
ENDBRANCH   3   4
ENDBRANCH   2   3
ENDBRANCH   1   2
BRANCH   1   8
ATOM      8  C   UNL     1     -10.418   6.378   5.504  1.00  0.00     0.000 C 
BRANCH   8   9
ATOM      9  C   UNL     1      -9.845   5.335   6.475  1.00  0.00     0.000 C 
BRANCH   9  10
ATOM     10  C   UNL     1     -10.868   4.877   7.525  1.00  0.00     0.006 C 
BRANCH  10  11
ATOM     11  C   UNL     1     -11.183   3.386   7.368  1.00  0.00     0.053 C 
BRANCH  11  12
ATOM     12  C   UNL     1     -12.190   3.175   6.281  1.00  0.00     0.041 C 
ATOM     13  O   UNL     1     -11.931   2.404   5.319  1.00  0.00    -0.550 OA
ATOM     14  O   UNL     1     -13.433   3.790   6.355  1.00  0.00    -0.550 OA
ENDBRANCH  11  12
ENDBRANCH  10  11
ENDBRANCH   9  10
ENDBRANCH   8   9
ENDBRANCH   1   8
TORSDOF 9
ENDMDL
MODEL 7
REMARK VINA RESULT:    -4.378      1.328      7.104
REMARK INTER + INTRA:          -7.108
REMARK INTER:                  -6.713
REMARK INTRA:                  -0.394
REMARK UNBOUND:                -0.427
REMARK SMILES O=C([O-])CCCCCCCCC(=O)[O-]
REMARK SMILES IDX 7 1 6 2 5 3 4 4 2 5 1 6 3 7 8 8 9 9 10 10 11 11 12 12 13 13
REMARK SMILES IDX 14 14
REMARK H PARENT
REMARK Flexibility Score: inf
ROOT
ATOM      1  C   UNL     1     -10.283   6.294   5.296  1.00  0.00     0.000 C 
ENDROOT
BRANCH   1   2
ATOM      2  C   UNL     1      -9.761   5.539   6.524  1.00  0.00     0.000 C 
BRANCH   2   3
ATOM      3  C   UNL     1     -10.919   5.016   7.383  1.00  0.00     0.006 C 
BRANCH   3   4
ATOM      4  C   UNL     1     -11.122   3.513   7.175  1.00  0.00     0.053 C 
BRANCH   4   5
ATOM      5  C   UNL     1     -12.234   3.262   6.206  1.00  0.00     0.041 C 
ATOM      6  O   UNL     1     -12.085   2.433   5.271  1.00  0.00    -0.550 OA
ATOM      7  O   UNL     1     -13.453   3.910   6.365  1.00  0.00    -0.550 OA
ENDBRANCH   4   5
ENDBRANCH   3   4
ENDBRANCH   2   3
ENDBRANCH   1   2
BRANCH   1   8
ATOM      8  C   UNL     1      -9.335   7.440   4.911  1.00  0.00     0.000 C 
BRANCH   8   9
ATOM      9  C   UNL     1      -9.996   8.822   5.034  1.00  0.00     0.000 C 
BRANCH   9  10
ATOM     10  C   UNL     1      -8.978   9.946   5.274  1.00  0.00     0.006 C 
BRANCH  10  11
ATOM     11  C   UNL     1      -7.645   9.379   5.777  1.00  0.00     0.053 C 
BRANCH  11  12
ATOM     12  C   UNL     1      -6.816  10.460   6.396  1.00  0.00     0.041 C 
ATOM     13  O   UNL     1      -7.234  11.076   7.412  1.00  0.00    -0.550 OA
ATOM     14  O   UNL     1      -5.560  10.755   5.881  1.00  0.00    -0.550 OA
ENDBRANCH  11  12
ENDBRANCH  10  11
ENDBRANCH   9  10
ENDBRANCH   8   9
ENDBRANCH   1   8
TORSDOF 9
ENDMDL
MODEL 8
REMARK VINA RESULT:    -4.306      2.456      6.847
REMARK INTER + INTRA:          -6.998
REMARK INTER:                  -6.692
REMARK INTRA:                  -0.306
REMARK UNBOUND:                -0.427
REMARK SMILES O=C([O-])CCCCCCCCC(=O)[O-]
REMARK SMILES IDX 7 1 6 2 5 3 4 4 2 5 1 6 3 7 8 8 9 9 10 10 11 11 12 12 13 13
REMARK SMILES IDX 14 14
REMARK H PARENT
REMARK Flexibility Score: inf
ROOT
ATOM      1  C   UNL     1     -10.077   5.213   5.008  1.00  0.00     0.000 C 
ENDROOT
BRANCH   1   2
ATOM      2  C   UNL     1     -11.418   4.653   5.496  1.00  0.00     0.000 C 
BRANCH   2   3
ATOM      3  C   UNL     1     -11.207   3.532   6.521  1.00  0.00     0.006 C 
BRANCH   3   4
ATOM      4  C   UNL     1     -12.323   3.527   7.569  1.00  0.00     0.053 C 
BRANCH   4   5
ATOM      5  C   UNL     1     -11.791   3.949   8.902  1.00  0.00     0.041 C 
ATOM      6  O   UNL     1     -11.221   5.064   9.033  1.00  0.00    -0.550 OA
ATOM      7  O   UNL     1     -11.969   3.132  10.012  1.00  0.00    -0.550 OA
ENDBRANCH   4   5
ENDBRANCH   3   4
ENDBRANCH   2   3
ENDBRANCH   1   2
BRANCH   1   8
ATOM      8  C   UNL     1      -9.668   6.450   5.823  1.00  0.00     0.000 C 
BRANCH   8   9
ATOM      9  C   UNL     1      -9.283   7.643   4.935  1.00  0.00     0.000 C 
BRANCH   9  10
ATOM     10  C   UNL     1      -8.945   8.901   5.748  1.00  0.00     0.006 C 
BRANCH  10  11
ATOM     11  C   UNL     1      -7.779   9.667   5.114  1.00  0.00     0.053 C 
BRANCH  11  12
ATOM     12  C   UNL     1      -6.976  10.364   6.167  1.00  0.00     0.041 C 
ATOM     13  O   UNL     1      -7.520  10.727   7.242  1.00  0.00    -0.550 OA
ATOM     14  O   UNL     1      -5.614  10.567   5.981  1.00  0.00    -0.550 OA
ENDBRANCH  11  12
ENDBRANCH  10  11
ENDBRANCH   9  10
ENDBRANCH   8   9
ENDBRANCH   1   8
TORSDOF 9
ENDMDL
MODEL 9
REMARK VINA RESULT:    -2.235     15.519     16.962
REMARK INTER + INTRA:          -3.838
REMARK INTER:                  -3.560
REMARK INTRA:                  -0.277
REMARK UNBOUND:                -0.427
REMARK SMILES O=C([O-])CCCCCCCCC(=O)[O-]
REMARK SMILES IDX 7 1 6 2 5 3 4 4 2 5 1 6 3 7 8 8 9 9 10 10 11 11 12 12 13 13
REMARK SMILES IDX 14 14
REMARK H PARENT
REMARK Flexibility Score: inf
ROOT
ATOM      1  C   UNL     1      -9.767  -1.773  -9.340  1.00  0.00     0.000 C 
ENDROOT
BRANCH   1   2
ATOM      2  C   UNL     1     -10.846  -0.870  -9.949  1.00  0.00     0.000 C 
BRANCH   2   3
ATOM      3  C   UNL     1     -10.509   0.611  -9.739  1.00  0.00     0.006 C 
BRANCH   3   4
ATOM      4  C   UNL     1     -11.778   1.468  -9.729  1.00  0.00     0.053 C 
BRANCH   4   5
ATOM      5  C   UNL     1     -11.481   2.839  -9.210  1.00  0.00     0.041 C 
ATOM      6  O   UNL     1     -12.405   3.552  -8.739  1.00  0.00    -0.550 OA
ATOM      7  O   UNL     1     -10.174   3.311  -9.201  1.00  0.00    -0.550 OA
ENDBRANCH   4   5
ENDBRANCH   3   4
ENDBRANCH   2   3
ENDBRANCH   1   2
BRANCH   1   8
ATOM      8  C   UNL     1      -9.642  -3.087 -10.125  1.00  0.00     0.000 C 
BRANCH   8   9
ATOM      9  C   UNL     1     -10.871  -3.994  -9.960  1.00  0.00     0.000 C 
BRANCH   9  10
ATOM     10  C   UNL     1     -10.523  -5.356  -9.342  1.00  0.00     0.006 C 
BRANCH  10  11
ATOM     11  C   UNL     1      -9.750  -5.180  -8.031  1.00  0.00     0.053 C 
BRANCH  11  12
ATOM     12  C   UNL     1     -10.382  -5.984  -6.938  1.00  0.00     0.041 C 
ATOM     13  O   UNL     1     -11.092  -6.985  -7.218  1.00  0.00    -0.550 OA
ATOM     14  O   UNL     1     -10.147  -5.657  -5.609  1.00  0.00    -0.550 OA
ENDBRANCH  11  12
ENDBRANCH  10  11
ENDBRANCH   9  10
ENDBRANCH   8   9
ENDBRANCH   1   8
TORSDOF 9
ENDMDL
