MODEL 1
REMARK VINA RESULT:    -2.762      0.000      0.000
REMARK INTER + INTRA:          -2.668
REMARK INTER:                  -3.407
REMARK INTRA:                   0.739
REMARK UNBOUND:                 0.739
REMARK SMILES CC1=CC=CC(C)(C)CC1=O
REMARK SMILES IDX 1 1 2 2 3 3 10 4 11 5 9 6 4 8 5 9 6 10 7 11 8 12
REMARK H PARENT
REMARK Flexibility Score: 80.00
ROOT
ATOM      1  C   UNL     1     -20.975 -11.233  -9.151  1.00  0.00     0.048 C 
ATOM      2  C   UNL     1     -21.997 -10.979  -8.068  1.00  0.00    -0.008 C 
ATOM      3  C   UNL     1     -22.558  -9.752  -8.012  1.00  0.00     0.007 C 
ENDROOT
BRANCH   2   4
ATOM      4  C   UNL     1     -22.358 -12.125  -7.197  1.00  0.00     0.159 C 
ATOM      5  O   UNL     1     -21.936 -13.276  -7.499  1.00  0.00    -0.295 OA
BRANCH   4   6
ATOM      6  C   UNL     1     -23.192 -11.993  -5.960  1.00  0.00     0.091 CG0
ATOM      7  G   UNL     1     -24.588 -11.391  -6.228  1.00  0.00     0.000 G0
ENDBRANCH   4   6
ENDBRANCH   2   4
BRANCH   3   8
ATOM      8  C   UNL     1     -23.591  -9.219  -7.094  1.00  0.00    -0.003 C 
ATOM      9  C   UNL     1     -24.466  -9.886  -6.329  1.00  0.00    -0.020 C 
BRANCH   9  10
ATOM     10  C   UNL     1     -24.585 -11.386  -6.202  1.00  0.00    -0.010 CG0
ATOM     11  C   UNL     1     -25.308 -11.966  -7.439  1.00  0.00     0.016 C 
ATOM     12  C   UNL     1     -25.445 -11.700  -4.956  1.00  0.00     0.016 C 
ATOM     13  G   UNL     1     -23.185 -12.002  -5.986  1.00  0.00     0.000 G0
ENDBRANCH   9  10
ENDBRANCH   3   8
TORSDOF 0
ENDMDL
MODEL 2
REMARK VINA RESULT:    -2.747      1.845      3.683
REMARK INTER + INTRA:          -2.650
REMARK INTER:                  -3.408
REMARK INTRA:                   0.758
REMARK UNBOUND:                 0.739
REMARK SMILES CC1=CC=CC(C)(C)CC1=O
REMARK SMILES IDX 1 1 2 2 3 3 10 4 11 5 9 6 4 8 5 9 6 10 7 11 8 12
REMARK H PARENT
REMARK Flexibility Score: 80.00
ROOT
ATOM      1  C   UNL     1     -24.044  -9.201  -6.492  1.00  0.00     0.048 C 
ATOM      2  C   UNL     1     -23.366 -10.106  -7.494  1.00  0.00    -0.008 C 
ATOM      3  C   UNL     1     -22.801  -9.528  -8.577  1.00  0.00     0.007 C 
ENDROOT
BRANCH   2   4
ATOM      4  C   UNL     1     -23.310 -11.553  -7.170  1.00  0.00     0.159 C 
ATOM      5  O   UNL     1     -23.656 -11.932  -6.016  1.00  0.00    -0.295 OA
BRANCH   4   6
ATOM      6  C   UNL     1     -22.875 -12.603  -8.146  1.00  0.00     0.091 CG0
ATOM      7  G   UNL     1     -21.435 -12.392  -8.665  1.00  0.00     0.000 G0
ENDBRANCH   4   6
ENDBRANCH   2   4
BRANCH   3   8
ATOM      8  C   UNL     1     -22.054 -10.140  -9.700  1.00  0.00    -0.003 C 
ATOM      9  C   UNL     1     -21.461 -11.339  -9.767  1.00  0.00    -0.020 C 
BRANCH   9  10
ATOM     10  C   UNL     1     -21.440 -12.391  -8.682  1.00  0.00    -0.010 CG0
ATOM     11  C   UNL     1     -20.427 -11.997  -7.583  1.00  0.00     0.016 C 
ATOM     12  C   UNL     1     -20.969 -13.723  -9.310  1.00  0.00     0.016 C 
ATOM     13  G   UNL     1     -22.868 -12.598  -8.131  1.00  0.00     0.000 G0
ENDBRANCH   9  10
ENDBRANCH   3   8
TORSDOF 0
ENDMDL
MODEL 3
REMARK VINA RESULT:    -2.680     17.061     18.139
REMARK INTER + INTRA:          -2.568
REMARK INTER:                  -3.319
REMARK INTRA:                   0.750
REMARK UNBOUND:                 0.739
REMARK SMILES CC1=CC=CC(C)(C)CC1=O
REMARK SMILES IDX 1 1 2 2 3 3 10 4 11 5 9 6 4 8 5 9 6 10 7 11 8 12
REMARK H PARENT
REMARK Flexibility Score: 80.00
ROOT
ATOM      1  C   UNL     1      -8.184 -14.694  -2.174  1.00  0.00     0.048 C 
ATOM      2  C   UNL     1      -8.316 -15.495  -0.900  1.00  0.00    -0.008 C 
ATOM      3  C   UNL     1      -9.550 -15.920  -0.553  1.00  0.00     0.007 C 
ENDROOT
BRANCH   2   4
ATOM      4  C   UNL     1      -7.064 -15.815  -0.169  1.00  0.00     0.159 C 
ATOM      5  O   UNL     1      -5.957 -15.572  -0.725  1.00  0.00    -0.295 OA
BRANCH   4   6
ATOM      6  C   UNL     1      -7.038 -16.402   1.208  1.00  0.00     0.091 CG0
ATOM      7  G   UNL     1      -7.785 -17.750   1.310  1.00  0.00     0.000 G0
ENDBRANCH   4   6
ENDBRANCH   2   4
BRANCH   3   8
ATOM      8  C   UNL     1      -9.985 -16.733   0.606  1.00  0.00    -0.003 C 
ATOM      9  C   UNL     1      -9.256 -17.523   1.406  1.00  0.00    -0.020 C 
BRANCH   9  10
ATOM     10  C   UNL     1      -7.765 -17.751   1.322  1.00  0.00    -0.010 CG0
ATOM     11  C   UNL     1      -7.442 -18.711   0.155  1.00  0.00     0.016 C 
ATOM     12  C   UNL     1      -7.304 -18.426   2.635  1.00  0.00     0.016 C 
ATOM     13  G   UNL     1      -7.037 -16.395   1.198  1.00  0.00     0.000 G0
ENDBRANCH   9  10
ENDBRANCH   3   8
TORSDOF 0
ENDMDL
MODEL 4
REMARK VINA RESULT:    -2.640     14.067     15.153
REMARK INTER + INTRA:          -2.518
REMARK INTER:                  -3.272
REMARK INTRA:                   0.754
REMARK UNBOUND:                 0.739
REMARK SMILES CC1=CC=CC(C)(C)CC1=O
REMARK SMILES IDX 1 1 2 2 3 3 10 4 11 5 9 6 4 8 5 9 6 10 7 11 8 12
REMARK H PARENT
REMARK Flexibility Score: 80.00
ROOT
ATOM      1  C   UNL     1      -7.767 -13.480  -2.283  1.00  0.00     0.048 C 
ATOM      2  C   UNL     1      -8.454 -13.078  -3.566  1.00  0.00    -0.008 C 
ATOM      3  C   UNL     1      -9.233 -11.975  -3.541  1.00  0.00     0.007 C 
ENDROOT
BRANCH   2   4
ATOM      4  C   UNL     1      -8.156 -13.887  -4.775  1.00  0.00     0.159 C 
ATOM      5  O   UNL     1      -7.218 -14.731  -4.726  1.00  0.00    -0.295 OA
BRANCH   4   6
ATOM      6  C   UNL     1      -8.920 -13.769  -6.058  1.00  0.00     0.091 CG0
ATOM      7  G   UNL     1      -8.864 -12.353  -6.671  1.00  0.00     0.000 G0
ENDBRANCH   4   6
ENDBRANCH   2   4
BRANCH   3   8
ATOM      8  C   UNL     1     -10.001 -11.327  -4.630  1.00  0.00    -0.003 C 
ATOM      9  C   UNL     1      -9.865 -11.463  -5.955  1.00  0.00    -0.020 C 
BRANCH   9  10
ATOM     10  C   UNL     1      -8.879 -12.358  -6.669  1.00  0.00    -0.010 CG0
ATOM     11  C   UNL     1      -7.469 -11.726  -6.634  1.00  0.00     0.016 C 
ATOM     12  C   UNL     1      -9.314 -12.473  -8.149  1.00  0.00     0.016 C 
ATOM     13  G   UNL     1      -8.916 -13.771  -6.047  1.00  0.00     0.000 G0
ENDBRANCH   9  10
ENDBRANCH   3   8
TORSDOF 0
ENDMDL
MODEL 5
REMARK VINA RESULT:    -2.530      1.810      2.719
REMARK INTER + INTRA:          -2.383
REMARK INTER:                  -3.137
REMARK INTRA:                   0.754
REMARK UNBOUND:                 0.739
REMARK SMILES CC1=CC=CC(C)(C)CC1=O
REMARK SMILES IDX 1 1 2 2 3 3 10 4 11 5 9 6 4 8 5 9 6 10 7 11 8 12
REMARK H PARENT
REMARK Flexibility Score: 80.00
ROOT
ATOM      1  C   UNL     1     -20.061 -12.000  -8.197  1.00  0.00     0.048 C 
ATOM      2  C   UNL     1     -21.529 -11.736  -7.957  1.00  0.00    -0.008 C 
ATOM      3  C   UNL     1     -22.055 -12.139  -6.780  1.00  0.00     0.007 C 
ENDROOT
BRANCH   2   4
ATOM      4  C   UNL     1     -22.261 -10.984  -9.008  1.00  0.00     0.159 C 
ATOM      5  O   UNL     1     -21.601 -10.426  -9.928  1.00  0.00    -0.295 OA
BRANCH   4   6
ATOM      6  C   UNL     1     -23.753 -10.858  -9.047  1.00  0.00     0.091 CG0
ATOM      7  G   UNL     1     -24.339 -10.173  -7.792  1.00  0.00     0.000 G0
ENDBRANCH   4   6
ENDBRANCH   2   4
BRANCH   3   8
ATOM      8  C   UNL     1     -23.432 -11.999  -6.255  1.00  0.00    -0.003 C 
ATOM      9  C   UNL     1     -24.408 -11.172  -6.654  1.00  0.00    -0.020 C 
BRANCH   9  10
ATOM     10  C   UNL     1     -24.332 -10.176  -7.787  1.00  0.00    -0.010 CG0
ATOM     11  C   UNL     1     -23.521  -8.936  -7.348  1.00  0.00     0.016 C 
ATOM     12  C   UNL     1     -25.769  -9.712  -8.121  1.00  0.00     0.016 C 
ATOM     13  G   UNL     1     -23.745 -10.860  -9.041  1.00  0.00     0.000 G0
ENDBRANCH   9  10
ENDBRANCH   3   8
TORSDOF 0
ENDMDL
MODEL 6
REMARK VINA RESULT:    -2.433      2.529      3.797
REMARK INTER + INTRA:          -2.263
REMARK INTER:                  -3.016
REMARK INTRA:                   0.753
REMARK UNBOUND:                 0.739
REMARK SMILES CC1=CC=CC(C)(C)CC1=O
REMARK SMILES IDX 1 1 2 2 3 3 10 4 11 5 9 6 4 8 5 9 6 10 7 11 8 12
REMARK H PARENT
REMARK Flexibility Score: 80.00
ROOT
ATOM      1  C   UNL     1     -23.113 -11.991  -6.216  1.00  0.00     0.048 C 
ATOM      2  C   UNL     1     -23.151 -10.751  -7.078  1.00  0.00    -0.008 C 
ATOM      3  C   UNL     1     -22.487 -10.785  -8.254  1.00  0.00     0.007 C 
ENDROOT
BRANCH   2   4
ATOM      4  C   UNL     1     -23.980  -9.617  -6.596  1.00  0.00     0.159 C 
ATOM      5  O   UNL     1     -24.746  -9.800  -5.609  1.00  0.00    -0.295 OA
BRANCH   4   6
ATOM      6  C   UNL     1     -23.950  -8.252  -7.211  1.00  0.00     0.091 CG0
ATOM      7  G   UNL     1     -24.332  -8.250  -8.708  1.00  0.00     0.000 G0
ENDBRANCH   4   6
ENDBRANCH   2   4
BRANCH   3   8
ATOM      8  C   UNL     1     -22.366  -9.752  -9.308  1.00  0.00    -0.003 C 
ATOM      9  C   UNL     1     -23.132  -8.676  -9.528  1.00  0.00    -0.020 C 
BRANCH   9  10
ATOM     10  C   UNL     1     -24.322  -8.238  -8.706  1.00  0.00    -0.010 CG0
ATOM     11  C   UNL     1     -25.545  -9.124  -9.035  1.00  0.00     0.016 C 
ATOM     12  C   UNL     1     -24.669  -6.782  -9.094  1.00  0.00     0.016 C 
ATOM     13  G   UNL     1     -23.955  -8.262  -7.206  1.00  0.00     0.000 G0
ENDBRANCH   9  10
ENDBRANCH   3   8
TORSDOF 0
ENDMDL
MODEL 7
REMARK VINA RESULT:    -2.370     16.475     17.781
REMARK INTER + INTRA:          -2.186
REMARK INTER:                  -2.942
REMARK INTRA:                   0.756
REMARK UNBOUND:                 0.739
REMARK SMILES CC1=CC=CC(C)(C)CC1=O
REMARK SMILES IDX 1 1 2 2 3 3 10 4 11 5 9 6 4 8 5 9 6 10 7 11 8 12
REMARK H PARENT
REMARK Flexibility Score: 80.00
ROOT
ATOM      1  C   UNL     1      -9.612 -17.326   1.827  1.00  0.00     0.048 C 
ATOM      2  C   UNL     1      -8.780 -16.358   1.020  1.00  0.00    -0.008 C 
ATOM      3  C   UNL     1      -7.811 -15.675   1.667  1.00  0.00     0.007 C 
ENDROOT
BRANCH   2   4
ATOM      4  C   UNL     1      -9.045 -16.291  -0.439  1.00  0.00     0.159 C 
ATOM      5  O   UNL     1      -9.777 -17.175  -0.965  1.00  0.00    -0.295 OA
BRANCH   4   6
ATOM      6  C   UNL     1      -8.500 -15.218  -1.330  1.00  0.00     0.091 CG0
ATOM      7  G   UNL     1      -6.957 -15.182  -1.366  1.00  0.00     0.000 G0
ENDBRANCH   4   6
ENDBRANCH   2   4
BRANCH   3   8
ATOM      8  C   UNL     1      -6.832 -14.691   1.148  1.00  0.00    -0.003 C 
ATOM      9  C   UNL     1      -6.445 -14.471  -0.115  1.00  0.00    -0.020 C 
BRANCH   9  10
ATOM     10  C   UNL     1      -6.956 -15.180  -1.346  1.00  0.00    -0.010 CG0
ATOM     11  C   UNL     1      -6.324 -16.587  -1.446  1.00  0.00     0.016 C 
ATOM     12  C   UNL     1      -6.517 -14.371  -2.589  1.00  0.00     0.016 C 
ATOM     13  G   UNL     1      -8.500 -15.220  -1.320  1.00  0.00     0.000 G0
ENDBRANCH   9  10
ENDBRANCH   3   8
TORSDOF 0
ENDMDL
MODEL 8
REMARK VINA RESULT:    -2.326     13.411     15.094
REMARK INTER + INTRA:          -2.131
REMARK INTER:                  -2.882
REMARK INTRA:                   0.751
REMARK UNBOUND:                 0.739
REMARK SMILES CC1=CC=CC(C)(C)CC1=O
REMARK SMILES IDX 1 1 2 2 3 3 10 4 11 5 9 6 4 8 5 9 6 10 7 11 8 12
REMARK H PARENT
REMARK Flexibility Score: 80.00
ROOT
ATOM      1  C   UNL     1     -10.968 -13.995  -6.800  1.00  0.00     0.048 C 
ATOM      2  C   UNL     1     -10.133 -12.804  -6.390  1.00  0.00    -0.008 C 
ATOM      3  C   UNL     1     -10.264 -12.354  -5.123  1.00  0.00     0.007 C 
ENDROOT
BRANCH   2   4
ATOM      4  C   UNL     1      -9.177 -12.271  -7.393  1.00  0.00     0.159 C 
ATOM      5  O   UNL     1      -8.949 -12.947  -8.435  1.00  0.00    -0.295 OA
BRANCH   4   6
ATOM      6  C   UNL     1      -8.471 -10.959  -7.246  1.00  0.00     0.091 CG0
ATOM      7  G   UNL     1      -7.585 -10.883  -5.983  1.00  0.00     0.000 G0
ENDBRANCH   4   6
ENDBRANCH   2   4
BRANCH   3   8
ATOM      8  C   UNL     1      -9.572 -11.241  -4.433  1.00  0.00    -0.003 C 
ATOM      9  C   UNL     1      -8.437 -10.614  -4.770  1.00  0.00    -0.020 C 
BRANCH   9  10
ATOM     10  C   UNL     1      -7.588 -10.889  -5.989  1.00  0.00    -0.010 CG0
ATOM     11  C   UNL     1      -6.751 -12.170  -5.771  1.00  0.00     0.016 C 
ATOM     12  C   UNL     1      -6.610  -9.706  -6.174  1.00  0.00     0.016 C 
ATOM     13  G   UNL     1      -8.487 -10.971  -7.242  1.00  0.00     0.000 G0
ENDBRANCH   9  10
ENDBRANCH   3   8
TORSDOF 0
ENDMDL
MODEL 9
REMARK VINA RESULT:    -2.314     13.900     15.291
REMARK INTER + INTRA:          -2.116
REMARK INTER:                  -2.876
REMARK INTRA:                   0.759
REMARK UNBOUND:                 0.739
REMARK SMILES CC1=CC=CC(C)(C)CC1=O
REMARK SMILES IDX 1 1 2 2 3 3 10 4 11 5 9 6 4 8 5 9 6 10 7 11 8 12
REMARK H PARENT
REMARK Flexibility Score: 80.00
ROOT
ATOM      1  C   UNL     1      -9.873 -11.289  -3.456  1.00  0.00     0.048 C 
ATOM      2  C   UNL     1      -9.633 -12.375  -4.478  1.00  0.00    -0.008 C 
ATOM      3  C   UNL     1     -10.355 -12.332  -5.619  1.00  0.00     0.007 C 
ENDROOT
BRANCH   2   4
ATOM      4  C   UNL     1      -8.566 -13.363  -4.177  1.00  0.00     0.159 C 
ATOM      5  O   UNL     1      -7.790 -13.143  -3.206  1.00  0.00    -0.295 OA
BRANCH   4   6
ATOM      6  C   UNL     1      -8.364 -14.624  -4.958  1.00  0.00     0.091 CG0
ATOM      7  G   UNL     1      -8.068 -14.373  -6.453  1.00  0.00     0.000 G0
ENDBRANCH   4   6
ENDBRANCH   2   4
BRANCH   3   8
ATOM      8  C   UNL     1     -10.324 -13.227  -6.798  1.00  0.00    -0.003 C 
ATOM      9  C   UNL     1      -9.371 -14.087  -7.181  1.00  0.00    -0.020 C 
BRANCH   9  10
ATOM     10  C   UNL     1      -8.075 -14.370  -6.458  1.00  0.00    -0.010 CG0
ATOM     11  C   UNL     1      -7.075 -13.215  -6.694  1.00  0.00     0.016 C 
ATOM     12  C   UNL     1      -7.461 -15.660  -7.051  1.00  0.00     0.016 C 
ATOM     13  G   UNL     1      -8.358 -14.616  -4.960  1.00  0.00     0.000 G0
ENDBRANCH   9  10
ENDBRANCH   3   8
TORSDOF 0
ENDMDL
