MODEL 1
REMARK VINA RESULT:    -7.332      0.000      0.000
REMARK INTER + INTRA:         -12.837
REMARK INTER:                 -11.404
REMARK INTRA:                  -1.433
REMARK UNBOUND:                -1.433
REMARK SMILES C[C@H]1O[C@@H](OC[C@H]2O[C@H](Oc3c(-c4ccc(O)c(O)c4)oc4cc(O)cc(O)c4c3=O)[C@H](O)[C@@H](O)[C@@H]2O)[C@@H](O)[C@H](O)[C@H]1O
REMARK SMILES IDX 7 1 36 2 34 3 32 4 9 5 8 6 6 7 5 8 4 9 1 10 2 11 42 12 3 13
REMARK SMILES IDX 40 14 38 15 43 16 41 18 39 20 37 22 35 24 10 26 11 27 12 28
REMARK SMILES IDX 30 29 21 30 29 31 31 32 22 33 27 34 23 35 26 36 24 37 13 38
REMARK SMILES IDX 20 39 14 40 18 41 15 42 16 43 19 44 17 46 28 48 25 50 33 52
REMARK H PARENT 43 17 41 19 39 21 37 23 35 25 19 45 17 47 28 49 25 51 33 53
REMARK Flexibility Score: inf
ROOT
ATOM      1  C   UNL     1     -42.606   2.713  77.350  1.00  0.00     0.180 C 
ATOM      2  C   UNL     1     -43.069   3.371  78.768  1.00  0.00     0.177 C 
ATOM      3  C   UNL     1     -42.004   2.812  79.825  1.00  0.00     0.180 C 
ATOM      4  C   UNL     1     -40.610   3.610  79.452  1.00  0.00     0.214 C 
ATOM      5  C   UNL     1     -40.581   4.186  77.915  1.00  0.00     0.339 C 
ATOM      6  O   UNL     1     -41.261   3.254  76.956  1.00  0.00    -0.332 OA
ENDROOT
BRANCH   1   7
ATOM      7  C   UNL     1     -43.559   2.307  75.973  1.00  0.00     0.198 C 
BRANCH   7   8
ATOM      8  O   UNL     1     -44.932   2.372  75.419  1.00  0.00    -0.347 OA
BRANCH   8   9
ATOM      9  C   UNL     1     -44.904   2.333  73.904  1.00  0.00     0.281 C 
ATOM     10  C   UNL     1     -47.157   5.144  73.792  1.00  0.00     0.041 C 
ATOM     11  C   UNL     1     -46.824   3.755  73.193  1.00  0.00     0.150 C 
ATOM     12  C   UNL     1     -47.664   2.307  73.335  1.00  0.00     0.174 C 
ATOM     13  O   UNL     1     -45.436   3.484  73.263  1.00  0.00    -0.344 OA
ATOM     14  C   UNL     1     -46.830   1.190  72.581  1.00  0.00     0.179 C 
ATOM     15  C   UNL     1     -45.400   1.033  73.251  1.00  0.00     0.202 C 
BRANCH  12  16
ATOM     16  O   UNL     1     -47.939   1.907  74.626  1.00  0.00    -0.388 OA
ATOM     17  H   UNL     1     -47.928   0.905  74.646  1.00  0.00     0.211 HD
ENDBRANCH  12  16
BRANCH  14  18
ATOM     18  O   UNL     1     -46.829   1.470  71.217  1.00  0.00    -0.387 OA
ATOM     19  H   UNL     1     -45.885   1.430  70.900  1.00  0.00     0.211 HD
ENDBRANCH  14  18
BRANCH  15  20
ATOM     20  O   UNL     1     -45.450   0.160  74.376  1.00  0.00    -0.385 OA
ATOM     21  H   UNL     1     -46.222  -0.460  74.303  1.00  0.00     0.211 HD
ENDBRANCH  15  20
ENDBRANCH   8   9
ENDBRANCH   7   8
ENDBRANCH   1   7
BRANCH   2  22
ATOM     22  O   UNL     1     -44.483   3.273  78.992  1.00  0.00    -0.387 OA
ATOM     23  H   UNL     1     -44.588   2.958  79.908  1.00  0.00     0.211 HD
ENDBRANCH   2  22
BRANCH   3  24
ATOM     24  O   UNL     1     -41.985   3.044  81.241  1.00  0.00    -0.387 OA
ATOM     25  H   UNL     1     -41.096   2.734  81.592  1.00  0.00     0.211 HD
ENDBRANCH   3  24
BRANCH   5  26
ATOM     26  O   UNL     1     -39.354   4.998  77.475  1.00  0.00    -0.454 OA
BRANCH  26  27
ATOM     27  C   UNL     1     -38.696   6.029  78.253  1.00  0.00     0.214 A 
ATOM     28  C   UNL     1     -38.728   6.493  79.664  1.00  0.00     0.180 A 
ATOM     29  C   UNL     1     -37.948   6.980  77.581  1.00  0.00     0.239 A 
ATOM     30  O   UNL     1     -39.210   7.784  79.812  1.00  0.00    -0.452 OA
ATOM     31  C   UNL     1     -38.095   8.331  77.910  1.00  0.00     0.111 A 
ATOM     32  O   UNL     1     -36.993   6.538  76.847  1.00  0.00    -0.285 OA
ATOM     33  C   UNL     1     -39.255   8.528  78.688  1.00  0.00     0.146 A 
ATOM     34  C   UNL     1     -37.814   9.280  76.938  1.00  0.00     0.134 A 
ATOM     35  C   UNL     1     -40.453   8.928  78.039  1.00  0.00     0.094 A 
ATOM     36  C   UNL     1     -38.901   9.557  76.106  1.00  0.00     0.093 A 
ATOM     37  C   UNL     1     -40.250   9.284  76.584  1.00  0.00     0.123 A 
BRANCH  28  38
ATOM     38  C   UNL     1     -38.075   5.896  80.836  1.00  0.00     0.025 A 
ATOM     39  C   UNL     1     -36.702   5.427  80.758  1.00  0.00     0.062 A 
ATOM     40  C   UNL     1     -38.853   5.469  81.965  1.00  0.00     0.016 A 
ATOM     41  C   UNL     1     -36.137   4.692  81.782  1.00  0.00     0.158 A 
ATOM     42  C   UNL     1     -38.027   5.047  83.252  1.00  0.00     0.051 A 
ATOM     43  C   UNL     1     -36.708   4.706  83.040  1.00  0.00     0.157 A 
BRANCH  41  44
ATOM     44  O   UNL     1     -34.981   3.974  81.528  1.00  0.00    -0.504 OA
ATOM     45  H   UNL     1     -34.764   3.613  80.594  1.00  0.00     0.293 HD
ENDBRANCH  41  44
BRANCH  43  46
ATOM     46  O   UNL     1     -35.907   4.655  84.125  1.00  0.00    -0.504 OA
ATOM     47  H   UNL     1     -35.090   4.108  84.399  1.00  0.00     0.293 HD
ENDBRANCH  43  46
ENDBRANCH  28  38
BRANCH  34  48
ATOM     48  O   UNL     1     -36.699  10.120  77.096  1.00  0.00    -0.507 OA
ATOM     49  H   UNL     1     -36.766  10.874  77.740  1.00  0.00     0.293 HD
ENDBRANCH  34  48
BRANCH  37  50
ATOM     50  O   UNL     1     -41.280   9.411  75.571  1.00  0.00    -0.508 OA
ATOM     51  H   UNL     1     -42.261   9.115  75.561  1.00  0.00     0.293 HD
ENDBRANCH  37  50
ENDBRANCH  26  27
ENDBRANCH   5  26
BRANCH   4  52
ATOM     52  O   UNL     1     -39.501   2.861  79.831  1.00  0.00    -0.384 OA
ATOM     53  H   UNL     1     -38.745   3.243  79.225  1.00  0.00     0.211 HD
ENDBRANCH   4  52
TORSDOF 16
ENDMDL
MODEL 2
REMARK VINA RESULT:    -7.103      1.263      2.023
REMARK INTER + INTRA:         -12.481
REMARK INTER:                 -10.857
REMARK INTRA:                  -1.624
REMARK UNBOUND:                -1.433
REMARK SMILES C[C@H]1O[C@@H](OC[C@H]2O[C@H](Oc3c(-c4ccc(O)c(O)c4)oc4cc(O)cc(O)c4c3=O)[C@H](O)[C@@H](O)[C@@H]2O)[C@@H](O)[C@H](O)[C@H]1O
REMARK SMILES IDX 7 1 36 2 34 3 32 4 9 5 8 6 6 7 5 8 4 9 1 10 2 11 42 12 3 13
REMARK SMILES IDX 40 14 38 15 43 16 41 18 39 20 37 22 35 24 10 26 11 27 12 28
REMARK SMILES IDX 30 29 21 30 29 31 31 32 22 33 27 34 23 35 26 36 24 37 13 38
REMARK SMILES IDX 20 39 14 40 18 41 15 42 16 43 19 44 17 46 28 48 25 50 33 52
REMARK H PARENT 43 17 41 19 39 21 37 23 35 25 19 45 17 47 28 49 25 51 33 53
REMARK Flexibility Score: inf
ROOT
ATOM      1  C   UNL     1     -42.368   2.741  77.520  1.00  0.00     0.180 C 
ATOM      2  C   UNL     1     -42.973   3.719  78.675  1.00  0.00     0.177 C 
ATOM      3  C   UNL     1     -42.267   3.216  80.022  1.00  0.00     0.180 C 
ATOM      4  C   UNL     1     -40.700   3.708  79.862  1.00  0.00     0.214 C 
ATOM      5  C   UNL     1     -40.256   3.971  78.304  1.00  0.00     0.339 C 
ATOM      6  O   UNL     1     -40.895   2.987  77.368  1.00  0.00    -0.332 OA
ENDROOT
BRANCH   1   7
ATOM      7  C   UNL     1     -43.086   2.229  76.039  1.00  0.00     0.198 C 
BRANCH   7   8
ATOM      8  O   UNL     1     -44.064   2.621  74.996  1.00  0.00    -0.347 OA
BRANCH   8   9
ATOM      9  C   UNL     1     -45.196   1.617  74.914  1.00  0.00     0.281 C 
ATOM     10  C   UNL     1     -45.429   2.171  71.361  1.00  0.00     0.041 C 
ATOM     11  C   UNL     1     -46.227   1.997  72.676  1.00  0.00     0.150 C 
ATOM     12  C   UNL     1     -47.130   3.128  73.529  1.00  0.00     0.174 C 
ATOM     13  O   UNL     1     -45.524   1.186  73.600  1.00  0.00    -0.344 OA
ATOM     14  C   UNL     1     -47.668   2.423  74.844  1.00  0.00     0.179 C 
ATOM     15  C   UNL     1     -46.451   1.942  75.740  1.00  0.00     0.202 C 
BRANCH  12  16
ATOM     16  O   UNL     1     -46.468   4.293  73.851  1.00  0.00    -0.388 OA
ATOM     17  H   UNL     1     -46.055   4.655  73.012  1.00  0.00     0.211 HD
ENDBRANCH  12  16
BRANCH  14  18
ATOM     18  O   UNL     1     -48.580   1.434  74.484  1.00  0.00    -0.387 OA
ATOM     19  H   UNL     1     -49.493   1.832  74.532  1.00  0.00     0.211 HD
ENDBRANCH  14  18
BRANCH  15  20
ATOM     20  O   UNL     1     -45.970   2.997  76.568  1.00  0.00    -0.385 OA
ATOM     21  H   UNL     1     -46.069   3.873  76.110  1.00  0.00     0.211 HD
ENDBRANCH  15  20
ENDBRANCH   8   9
ENDBRANCH   7   8
ENDBRANCH   1   7
BRANCH   2  22
ATOM     22  O   UNL     1     -44.395   3.880  78.580  1.00  0.00    -0.387 OA
ATOM     23  H   UNL     1     -44.663   4.374  79.376  1.00  0.00     0.211 HD
ENDBRANCH   2  22
BRANCH   3  24
ATOM     24  O   UNL     1     -42.487   3.708  81.352  1.00  0.00    -0.387 OA
ATOM     25  H   UNL     1     -43.139   3.090  81.804  1.00  0.00     0.211 HD
ENDBRANCH   3  24
BRANCH   5  26
ATOM     26  O   UNL     1     -38.835   4.488  78.039  1.00  0.00    -0.454 OA
BRANCH  26  27
ATOM     27  C   UNL     1     -38.162   5.536  78.781  1.00  0.00     0.214 A 
ATOM     28  C   UNL     1     -37.786   5.774  80.199  1.00  0.00     0.180 A 
ATOM     29  C   UNL     1     -37.900   6.732  78.136  1.00  0.00     0.239 A 
ATOM     30  O   UNL     1     -38.429   6.863  80.767  1.00  0.00    -0.452 OA
ATOM     31  C   UNL     1     -38.185   7.940  78.782  1.00  0.00     0.111 A 
ATOM     32  O   UNL     1     -37.197   6.659  77.066  1.00  0.00    -0.285 OA
ATOM     33  C   UNL     1     -39.012   7.719  79.903  1.00  0.00     0.146 A 
ATOM     34  C   UNL     1     -38.455   9.054  78.003  1.00  0.00     0.134 A 
ATOM     35  C   UNL     1     -40.415   7.882  79.759  1.00  0.00     0.094 A 
ATOM     36  C   UNL     1     -39.798   9.155  77.628  1.00  0.00     0.093 A 
ATOM     37  C   UNL     1     -40.811   8.478  78.428  1.00  0.00     0.123 A 
BRANCH  28  38
ATOM     38  C   UNL     1     -36.659   5.209  80.952  1.00  0.00     0.025 A 
ATOM     39  C   UNL     1     -36.872   4.128  81.900  1.00  0.00     0.062 A 
ATOM     40  C   UNL     1     -35.405   5.905  81.019  1.00  0.00     0.016 A 
ATOM     41  C   UNL     1     -35.868   3.717  82.754  1.00  0.00     0.158 A 
ATOM     42  C   UNL     1     -34.203   5.100  81.670  1.00  0.00     0.051 A 
ATOM     43  C   UNL     1     -34.554   4.043  82.484  1.00  0.00     0.157 A 
BRANCH  41  44
ATOM     44  O   UNL     1     -36.204   2.953  83.859  1.00  0.00    -0.504 OA
ATOM     45  H   UNL     1     -35.496   2.615  84.517  1.00  0.00     0.293 HD
ENDBRANCH  41  44
BRANCH  43  46
ATOM     46  O   UNL     1     -33.581   3.158  82.788  1.00  0.00    -0.504 OA
ATOM     47  H   UNL     1     -32.903   3.056  83.545  1.00  0.00     0.293 HD
ENDBRANCH  43  46
ENDBRANCH  28  38
BRANCH  34  48
ATOM     48  O   UNL     1     -37.545  10.125  77.988  1.00  0.00    -0.507 OA
ATOM     49  H   UNL     1     -37.119  10.390  78.846  1.00  0.00     0.293 HD
ENDBRANCH  34  48
BRANCH  37  50
ATOM     50  O   UNL     1     -42.135   8.474  77.835  1.00  0.00    -0.508 OA
ATOM     51  H   UNL     1     -42.454   8.227  76.893  1.00  0.00     0.293 HD
ENDBRANCH  37  50
ENDBRANCH  26  27
ENDBRANCH   5  26
BRANCH   4  52
ATOM     52  O   UNL     1     -39.851   2.886  80.596  1.00  0.00    -0.384 OA
ATOM     53  H   UNL     1     -39.896   1.985  80.078  1.00  0.00     0.211 HD
ENDBRANCH   4  52
TORSDOF 16
ENDMDL
MODEL 3
REMARK VINA RESULT:    -6.997      8.191     13.116
REMARK INTER + INTRA:         -12.316
REMARK INTER:                 -10.411
REMARK INTRA:                  -1.905
REMARK UNBOUND:                -1.433
REMARK SMILES C[C@H]1O[C@@H](OC[C@H]2O[C@H](Oc3c(-c4ccc(O)c(O)c4)oc4cc(O)cc(O)c4c3=O)[C@H](O)[C@@H](O)[C@@H]2O)[C@@H](O)[C@H](O)[C@H]1O
REMARK SMILES IDX 7 1 36 2 34 3 32 4 9 5 8 6 6 7 5 8 4 9 1 10 2 11 42 12 3 13
REMARK SMILES IDX 40 14 38 15 43 16 41 18 39 20 37 22 35 24 10 26 11 27 12 28
REMARK SMILES IDX 30 29 21 30 29 31 31 32 22 33 27 34 23 35 26 36 24 37 13 38
REMARK SMILES IDX 20 39 14 40 18 41 15 42 16 43 19 44 17 46 28 48 25 50 33 52
REMARK H PARENT 43 17 41 19 39 21 37 23 35 25 19 45 17 47 28 49 25 51 33 53
REMARK Flexibility Score: inf
ROOT
ATOM      1  C   UNL     1     -47.581   2.363  72.745  1.00  0.00     0.180 C 
ATOM      2  C   UNL     1     -46.422   2.281  73.889  1.00  0.00     0.177 C 
ATOM      3  C   UNL     1     -47.233   2.311  75.270  1.00  0.00     0.180 C 
ATOM      4  C   UNL     1     -47.967   0.835  75.338  1.00  0.00     0.214 C 
ATOM      5  C   UNL     1     -48.131   0.122  73.869  1.00  0.00     0.339 C 
ATOM      6  O   UNL     1     -48.427   1.123  72.791  1.00  0.00    -0.332 OA
ENDROOT
BRANCH   1   7
ATOM      7  C   UNL     1     -47.498   3.021  71.155  1.00  0.00     0.198 C 
BRANCH   7   8
ATOM      8  O   UNL     1     -47.359   4.290  70.401  1.00  0.00    -0.347 OA
BRANCH   8   9
ATOM      9  C   UNL     1     -46.129   5.052  70.851  1.00  0.00     0.281 C 
ATOM     10  C   UNL     1     -47.772   5.864  73.955  1.00  0.00     0.041 C 
ATOM     11  C   UNL     1     -46.896   6.406  72.799  1.00  0.00     0.150 C 
ATOM     12  C   UNL     1     -47.288   7.511  71.596  1.00  0.00     0.174 C 
ATOM     13  O   UNL     1     -46.098   5.382  72.233  1.00  0.00    -0.344 OA
ATOM     14  C   UNL     1     -46.034   7.642  70.634  1.00  0.00     0.179 C 
ATOM     15  C   UNL     1     -45.708   6.239  69.971  1.00  0.00     0.202 C 
BRANCH  12  16
ATOM     16  O   UNL     1     -48.419   7.213  70.865  1.00  0.00    -0.388 OA
ATOM     17  H   UNL     1     -48.766   6.328  71.182  1.00  0.00     0.211 HD
ENDBRANCH  12  16
BRANCH  14  18
ATOM     18  O   UNL     1     -44.987   8.235  71.337  1.00  0.00    -0.387 OA
ATOM     19  H   UNL     1     -44.471   7.508  71.781  1.00  0.00     0.211 HD
ENDBRANCH  14  18
BRANCH  15  20
ATOM     20  O   UNL     1     -46.505   6.019  68.810  1.00  0.00    -0.385 OA
ATOM     21  H   UNL     1     -47.144   6.767  68.679  1.00  0.00     0.211 HD
ENDBRANCH  15  20
ENDBRANCH   8   9
ENDBRANCH   7   8
ENDBRANCH   1   7
BRANCH   2  22
ATOM     22  O   UNL     1     -45.325   3.170  73.635  1.00  0.00    -0.387 OA
ATOM     23  H   UNL     1     -44.974   3.419  74.510  1.00  0.00     0.211 HD
ENDBRANCH   2  22
BRANCH   3  24
ATOM     24  O   UNL     1     -46.686   2.315  76.597  1.00  0.00    -0.387 OA
ATOM     25  H   UNL     1     -46.838   1.405  76.996  1.00  0.00     0.211 HD
ENDBRANCH   3  24
BRANCH   5  26
ATOM     26  O   UNL     1     -48.748  -1.283  73.817  1.00  0.00    -0.454 OA
BRANCH  26  27
ATOM     27  C   UNL     1     -48.127  -2.463  73.247  1.00  0.00     0.214 A 
ATOM     28  C   UNL     1     -48.447  -3.423  72.158  1.00  0.00     0.180 A 
ATOM     29  C   UNL     1     -47.042  -3.015  73.904  1.00  0.00     0.239 A 
ATOM     30  O   UNL     1     -48.670  -4.714  72.607  1.00  0.00    -0.452 OA
ATOM     31  C   UNL     1     -46.988  -4.398  74.101  1.00  0.00     0.111 A 
ATOM     32  O   UNL     1     -46.038  -2.241  74.093  1.00  0.00    -0.285 OA
ATOM     33  C   UNL     1     -48.249  -4.983  73.861  1.00  0.00     0.146 A 
ATOM     34  C   UNL     1     -46.259  -4.882  75.177  1.00  0.00     0.134 A 
ATOM     35  C   UNL     1     -49.111  -5.223  74.962  1.00  0.00     0.094 A 
ATOM     36  C   UNL     1     -46.994  -4.930  76.365  1.00  0.00     0.093 A 
ATOM     37  C   UNL     1     -48.448  -4.987  76.299  1.00  0.00     0.123 A 
BRANCH  28  38
ATOM     38  C   UNL     1     -48.280  -3.249  70.709  1.00  0.00     0.025 A 
ATOM     39  C   UNL     1     -48.434  -1.939  70.099  1.00  0.00     0.062 A 
ATOM     40  C   UNL     1     -48.286  -4.388  69.834  1.00  0.00     0.016 A 
ATOM     41  C   UNL     1     -48.473  -1.789  68.727  1.00  0.00     0.158 A 
ATOM     42  C   UNL     1     -47.878  -4.101  68.328  1.00  0.00     0.051 A 
ATOM     43  C   UNL     1     -47.996  -2.793  67.907  1.00  0.00     0.157 A 
BRANCH  41  44
ATOM     44  O   UNL     1     -48.969  -0.609  68.200  1.00  0.00    -0.504 OA
ATOM     45  H   UNL     1     -49.761  -0.598  67.550  1.00  0.00     0.293 HD
ENDBRANCH  41  44
BRANCH  43  46
ATOM     46  O   UNL     1     -47.369  -2.461  66.760  1.00  0.00    -0.504 OA
ATOM     47  H   UNL     1     -46.959  -2.979  65.980  1.00  0.00     0.293 HD
ENDBRANCH  43  46
ENDBRANCH  28  38
BRANCH  34  48
ATOM     48  O   UNL     1     -45.080  -5.609  74.943  1.00  0.00    -0.507 OA
ATOM     49  H   UNL     1     -44.233  -5.270  75.339  1.00  0.00     0.293 HD
ENDBRANCH  34  48
BRANCH  37  50
ATOM     50  O   UNL     1     -49.111  -4.823  77.579  1.00  0.00    -0.508 OA
ATOM     51  H   UNL     1     -48.902  -4.214  78.376  1.00  0.00     0.293 HD
ENDBRANCH  37  50
ENDBRANCH  26  27
ENDBRANCH   5  26
BRANCH   4  52
ATOM     52  O   UNL     1     -49.125   0.898  76.105  1.00  0.00    -0.384 OA
ATOM     53  H   UNL     1     -48.917   0.251  76.893  1.00  0.00     0.211 HD
ENDBRANCH   4  52
TORSDOF 16
ENDMDL
MODEL 4
REMARK VINA RESULT:    -6.994      3.143      9.452
REMARK INTER + INTRA:         -12.311
REMARK INTER:                  -9.617
REMARK INTRA:                  -2.694
REMARK UNBOUND:                -1.433
REMARK SMILES C[C@H]1O[C@@H](OC[C@H]2O[C@H](Oc3c(-c4ccc(O)c(O)c4)oc4cc(O)cc(O)c4c3=O)[C@H](O)[C@@H](O)[C@@H]2O)[C@@H](O)[C@H](O)[C@H]1O
REMARK SMILES IDX 7 1 36 2 34 3 32 4 9 5 8 6 6 7 5 8 4 9 1 10 2 11 42 12 3 13
REMARK SMILES IDX 40 14 38 15 43 16 41 18 39 20 37 22 35 24 10 26 11 27 12 28
REMARK SMILES IDX 30 29 21 30 29 31 31 32 22 33 27 34 23 35 26 36 24 37 13 38
REMARK SMILES IDX 20 39 14 40 18 41 15 42 16 43 19 44 17 46 28 48 25 50 33 52
REMARK H PARENT 43 17 41 19 39 21 37 23 35 25 19 45 17 47 28 49 25 51 33 53
REMARK Flexibility Score: inf
ROOT
ATOM      1  C   UNL     1     -36.018   5.984  82.799  1.00  0.00     0.180 C 
ATOM      2  C   UNL     1     -36.351   4.477  82.273  1.00  0.00     0.177 C 
ATOM      3  C   UNL     1     -37.725   4.102  83.005  1.00  0.00     0.180 C 
ATOM      4  C   UNL     1     -38.851   5.045  82.254  1.00  0.00     0.214 C 
ATOM      5  C   UNL     1     -38.209   6.363  81.517  1.00  0.00     0.339 C 
ATOM      6  O   UNL     1     -37.064   6.938  82.298  1.00  0.00    -0.332 OA
ENDROOT
BRANCH   1   7
ATOM      7  C   UNL     1     -34.491   6.757  82.998  1.00  0.00     0.198 C 
BRANCH   7   8
ATOM      8  O   UNL     1     -33.451   7.532  82.281  1.00  0.00    -0.347 OA
BRANCH   8   9
ATOM      9  C   UNL     1     -34.081   8.581  81.386  1.00  0.00     0.281 C 
ATOM     10  C   UNL     1     -35.233   5.989  79.163  1.00  0.00     0.041 C 
ATOM     11  C   UNL     1     -34.575   7.387  79.254  1.00  0.00     0.150 C 
ATOM     12  C   UNL     1     -33.002   7.847  78.888  1.00  0.00     0.174 C 
ATOM     13  O   UNL     1     -34.992   8.077  80.418  1.00  0.00    -0.344 OA
ATOM     14  C   UNL     1     -32.855   9.387  79.238  1.00  0.00     0.179 C 
ATOM     15  C   UNL     1     -33.123   9.621  80.784  1.00  0.00     0.202 C 
BRANCH  12  16
ATOM     16  O   UNL     1     -32.012   7.121  79.515  1.00  0.00    -0.388 OA
ATOM     17  H   UNL     1     -31.193   7.697  79.568  1.00  0.00     0.211 HD
ENDBRANCH  12  16
BRANCH  14  18
ATOM     18  O   UNL     1     -33.655  10.125  78.368  1.00  0.00    -0.387 OA
ATOM     19  H   UNL     1     -33.867  10.991  78.814  1.00  0.00     0.211 HD
ENDBRANCH  14  18
BRANCH  15  20
ATOM     20  O   UNL     1     -31.946   9.391  81.553  1.00  0.00    -0.385 OA
ATOM     21  H   UNL     1     -32.176   8.987  82.430  1.00  0.00     0.211 HD
ENDBRANCH  15  20
ENDBRANCH   8   9
ENDBRANCH   7   8
ENDBRANCH   1   7
BRANCH   2  22
ATOM     22  O   UNL     1     -35.209   3.609  82.313  1.00  0.00    -0.387 OA
ATOM     23  H   UNL     1     -34.463   4.130  81.965  1.00  0.00     0.211 HD
ENDBRANCH   2  22
BRANCH   3  24
ATOM     24  O   UNL     1     -38.435   2.858  82.930  1.00  0.00    -0.387 OA
ATOM     25  H   UNL     1     -37.843   2.141  83.313  1.00  0.00     0.211 HD
ENDBRANCH   3  24
BRANCH   5  26
ATOM     26  O   UNL     1     -39.157   7.283  80.735  1.00  0.00    -0.454 OA
BRANCH  26  27
ATOM     27  C   UNL     1     -39.733   7.000  79.434  1.00  0.00     0.214 A 
ATOM     28  C   UNL     1     -39.841   5.815  78.544  1.00  0.00     0.180 A 
ATOM     29  C   UNL     1     -40.180   8.064  78.670  1.00  0.00     0.239 A 
ATOM     30  O   UNL     1     -39.163   5.960  77.345  1.00  0.00    -0.452 OA
ATOM     31  C   UNL     1     -39.844   8.126  77.314  1.00  0.00     0.111 A 
ATOM     32  O   UNL     1     -41.070   8.814  79.207  1.00  0.00    -0.285 OA
ATOM     33  C   UNL     1     -38.805   7.219  77.018  1.00  0.00     0.146 A 
ATOM     34  C   UNL     1     -39.791   9.371  76.706  1.00  0.00     0.134 A 
ATOM     35  C   UNL     1     -37.468   7.694  77.001  1.00  0.00     0.094 A 
ATOM     36  C   UNL     1     -38.553  10.004  76.849  1.00  0.00     0.093 A 
ATOM     37  C   UNL     1     -37.370   9.197  77.115  1.00  0.00     0.123 A 
BRANCH  28  38
ATOM     38  C   UNL     1     -40.769   4.681  78.643  1.00  0.00     0.025 A 
ATOM     39  C   UNL     1     -41.090   3.885  77.471  1.00  0.00     0.062 A 
ATOM     40  C   UNL     1     -41.617   4.530  79.793  1.00  0.00     0.016 A 
ATOM     41  C   UNL     1     -42.099   2.943  77.499  1.00  0.00     0.158 A 
ATOM     42  C   UNL     1     -42.409   3.160  79.890  1.00  0.00     0.051 A 
ATOM     43  C   UNL     1     -42.567   2.467  78.708  1.00  0.00     0.157 A 
BRANCH  41  44
ATOM     44  O   UNL     1     -42.605   2.471  76.300  1.00  0.00    -0.504 OA
ATOM     45  H   UNL     1     -42.152   2.678  75.404  1.00  0.00     0.293 HD
ENDBRANCH  41  44
BRANCH  43  46
ATOM     46  O   UNL     1     -42.944   1.174  78.804  1.00  0.00    -0.504 OA
ATOM     47  H   UNL     1     -43.255   0.563  79.561  1.00  0.00     0.293 HD
ENDBRANCH  43  46
ENDBRANCH  28  38
BRANCH  34  48
ATOM     48  O   UNL     1     -40.746   9.705  75.730  1.00  0.00    -0.507 OA
ATOM     49  H   UNL     1     -41.252  10.554  75.840  1.00  0.00     0.293 HD
ENDBRANCH  34  48
BRANCH  37  50
ATOM     50  O   UNL     1     -36.186   9.966  77.451  1.00  0.00    -0.508 OA
ATOM     51  H   UNL     1     -36.079  10.914  77.826  1.00  0.00     0.293 HD
ENDBRANCH  37  50
ENDBRANCH  26  27
ENDBRANCH   5  26
BRANCH   4  52
ATOM     52  O   UNL     1     -39.924   5.297  83.102  1.00  0.00    -0.384 OA
ATOM     53  H   UNL     1     -39.494   5.875  83.854  1.00  0.00     0.211 HD
ENDBRANCH   4  52
TORSDOF 16
ENDMDL
MODEL 5
REMARK VINA RESULT:    -6.699      9.875     12.253
REMARK INTER + INTRA:         -11.853
REMARK INTER:                 -10.370
REMARK INTRA:                  -1.483
REMARK UNBOUND:                -1.433
REMARK SMILES C[C@H]1O[C@@H](OC[C@H]2O[C@H](Oc3c(-c4ccc(O)c(O)c4)oc4cc(O)cc(O)c4c3=O)[C@H](O)[C@@H](O)[C@@H]2O)[C@@H](O)[C@H](O)[C@H]1O
REMARK SMILES IDX 7 1 36 2 34 3 32 4 9 5 8 6 6 7 5 8 4 9 1 10 2 11 42 12 3 13
REMARK SMILES IDX 40 14 38 15 43 16 41 18 39 20 37 22 35 24 10 26 11 27 12 28
REMARK SMILES IDX 30 29 21 30 29 31 31 32 22 33 27 34 23 35 26 36 24 37 13 38
REMARK SMILES IDX 20 39 14 40 18 41 15 42 16 43 19 44 17 46 28 48 25 50 33 52
REMARK H PARENT 43 17 41 19 39 21 37 23 35 25 19 45 17 47 28 49 25 51 33 53
REMARK Flexibility Score: inf
ROOT
ATOM      1  C   UNL     1     -45.418  -6.805  78.541  1.00  0.00     0.180 C 
ATOM      2  C   UNL     1     -45.988  -6.813  80.068  1.00  0.00     0.177 C 
ATOM      3  C   UNL     1     -45.554  -8.244  80.640  1.00  0.00     0.180 C 
ATOM      4  C   UNL     1     -43.919  -8.125  80.824  1.00  0.00     0.214 C 
ATOM      5  C   UNL     1     -43.243  -6.952  79.896  1.00  0.00     0.339 C 
ATOM      6  O   UNL     1     -43.917  -6.840  78.560  1.00  0.00    -0.332 OA
ENDROOT
BRANCH   1   7
ATOM      7  C   UNL     1     -46.020  -5.973  77.157  1.00  0.00     0.198 C 
BRANCH   7   8
ATOM      8  O   UNL     1     -45.704  -5.625  75.751  1.00  0.00    -0.347 OA
BRANCH   8   9
ATOM      9  C   UNL     1     -46.118  -4.200  75.442  1.00  0.00     0.281 C 
ATOM     10  C   UNL     1     -49.120  -4.653  77.384  1.00  0.00     0.041 C 
ATOM     11  C   UNL     1     -48.527  -4.085  76.072  1.00  0.00     0.150 C 
ATOM     12  C   UNL     1     -48.739  -4.616  74.492  1.00  0.00     0.174 C 
ATOM     13  O   UNL     1     -47.177  -3.694  76.243  1.00  0.00    -0.344 OA
ATOM     14  C   UNL     1     -47.838  -3.709  73.554  1.00  0.00     0.179 C 
ATOM     15  C   UNL     1     -46.311  -3.858  73.956  1.00  0.00     0.202 C 
BRANCH  12  16
ATOM     16  O   UNL     1     -48.461  -5.949  74.274  1.00  0.00    -0.388 OA
ATOM     17  H   UNL     1     -48.522  -6.424  75.155  1.00  0.00     0.211 HD
ENDBRANCH  12  16
BRANCH  14  18
ATOM     18  O   UNL     1     -48.341  -2.410  73.564  1.00  0.00    -0.387 OA
ATOM     19  H   UNL     1     -47.982  -1.941  72.762  1.00  0.00     0.211 HD
ENDBRANCH  14  18
BRANCH  15  20
ATOM     20  O   UNL     1     -45.721  -4.995  73.332  1.00  0.00    -0.385 OA
ATOM     21  H   UNL     1     -46.422  -5.592  72.961  1.00  0.00     0.211 HD
ENDBRANCH  15  20
ENDBRANCH   8   9
ENDBRANCH   7   8
ENDBRANCH   1   7
BRANCH   2  22
ATOM     22  O   UNL     1     -47.338  -6.337  80.161  1.00  0.00    -0.387 OA
ATOM     23  H   UNL     1     -47.907  -7.108  79.983  1.00  0.00     0.211 HD
ENDBRANCH   2  22
BRANCH   3  24
ATOM     24  O   UNL     1     -45.854  -8.788  81.933  1.00  0.00    -0.387 OA
ATOM     25  H   UNL     1     -45.391  -8.221  82.622  1.00  0.00     0.211 HD
ENDBRANCH   3  24
BRANCH   5  26
ATOM     26  O   UNL     1     -41.733  -6.711  80.030  1.00  0.00    -0.454 OA
BRANCH  26  27
ATOM     27  C   UNL     1     -41.013  -6.504  81.271  1.00  0.00     0.214 A 
ATOM     28  C   UNL     1     -40.512  -7.364  82.376  1.00  0.00     0.180 A 
ATOM     29  C   UNL     1     -40.834  -5.207  81.718  1.00  0.00     0.239 A 
ATOM     30  O   UNL     1     -41.119  -7.108  83.595  1.00  0.00    -0.452 OA
ATOM     31  C   UNL     1     -41.079  -4.900  83.060  1.00  0.00     0.111 A 
ATOM     32  O   UNL     1     -40.232  -4.408  80.915  1.00  0.00    -0.285 OA
ATOM     33  C   UNL     1     -41.795  -5.944  83.684  1.00  0.00     0.146 A 
ATOM     34  C   UNL     1     -41.441  -3.601  83.383  1.00  0.00     0.134 A 
ATOM     35  C   UNL     1     -43.208  -5.842  83.776  1.00  0.00     0.094 A 
ATOM     36  C   UNL     1     -42.814  -3.366  83.272  1.00  0.00     0.093 A 
ATOM     37  C   UNL     1     -43.736  -4.492  83.351  1.00  0.00     0.123 A 
BRANCH  28  38
ATOM     38  C   UNL     1     -39.310  -8.207  82.403  1.00  0.00     0.025 A 
ATOM     39  C   UNL     1     -38.473  -8.340  81.223  1.00  0.00     0.062 A 
ATOM     40  C   UNL     1     -39.112  -9.159  83.461  1.00  0.00     0.016 A 
ATOM     41  C   UNL     1     -37.456  -9.271  81.168  1.00  0.00     0.158 A 
ATOM     42  C   UNL     1     -37.685  -9.851  83.507  1.00  0.00     0.051 A 
ATOM     43  C   UNL     1     -36.963  -9.828  82.332  1.00  0.00     0.157 A 
BRANCH  41  44
ATOM     44  O   UNL     1     -36.927  -9.609  79.933  1.00  0.00    -0.504 OA
ATOM     45  H   UNL     1     -35.943  -9.869  79.820  1.00  0.00     0.293 HD
ENDBRANCH  41  44
BRANCH  43  46
ATOM     46  O   UNL     1     -35.647 -10.113  82.418  1.00  0.00    -0.504 OA
ATOM     47  H   UNL     1     -34.794  -9.569  82.558  1.00  0.00     0.293 HD
ENDBRANCH  43  46
ENDBRANCH  28  38
BRANCH  34  48
ATOM     48  O   UNL     1     -40.555  -2.802  84.124  1.00  0.00    -0.507 OA
ATOM     49  H   UNL     1     -40.482  -1.839  83.888  1.00  0.00     0.293 HD
ENDBRANCH  34  48
BRANCH  37  50
ATOM     50  O   UNL     1     -45.109  -4.163  83.017  1.00  0.00    -0.508 OA
ATOM     51  H   UNL     1     -45.748  -3.458  83.398  1.00  0.00     0.293 HD
ENDBRANCH  37  50
ENDBRANCH  26  27
ENDBRANCH   5  26
BRANCH   4  52
ATOM     52  O   UNL     1     -43.323  -9.378  80.733  1.00  0.00    -0.384 OA
ATOM     53  H   UNL     1     -43.653  -9.855  81.597  1.00  0.00     0.211 HD
ENDBRANCH   4  52
TORSDOF 16
ENDMDL
MODEL 6
REMARK VINA RESULT:    -6.606      1.649      4.633
REMARK INTER + INTRA:         -11.708
REMARK INTER:                 -10.248
REMARK INTRA:                  -1.460
REMARK UNBOUND:                -1.433
REMARK SMILES C[C@H]1O[C@@H](OC[C@H]2O[C@H](Oc3c(-c4ccc(O)c(O)c4)oc4cc(O)cc(O)c4c3=O)[C@H](O)[C@@H](O)[C@@H]2O)[C@@H](O)[C@H](O)[C@H]1O
REMARK SMILES IDX 7 1 36 2 34 3 32 4 9 5 8 6 6 7 5 8 4 9 1 10 2 11 42 12 3 13
REMARK SMILES IDX 40 14 38 15 43 16 41 18 39 20 37 22 35 24 10 26 11 27 12 28
REMARK SMILES IDX 30 29 21 30 29 31 31 32 22 33 27 34 23 35 26 36 24 37 13 38
REMARK SMILES IDX 20 39 14 40 18 41 15 42 16 43 19 44 17 46 28 48 25 50 33 52
REMARK H PARENT 43 17 41 19 39 21 37 23 35 25 19 45 17 47 28 49 25 51 33 53
REMARK Flexibility Score: inf
ROOT
ATOM      1  C   UNL     1     -42.211   2.773  77.999  1.00  0.00     0.180 C 
ATOM      2  C   UNL     1     -42.733   3.539  79.340  1.00  0.00     0.177 C 
ATOM      3  C   UNL     1     -41.864   2.895  80.521  1.00  0.00     0.180 C 
ATOM      4  C   UNL     1     -40.348   3.499  80.281  1.00  0.00     0.214 C 
ATOM      5  C   UNL     1     -40.086   4.006  78.742  1.00  0.00     0.339 C 
ATOM      6  O   UNL     1     -40.775   3.127  77.739  1.00  0.00    -0.332 OA
ENDROOT
BRANCH   1   7
ATOM      7  C   UNL     1     -43.059   2.432  76.538  1.00  0.00     0.198 C 
BRANCH   7   8
ATOM      8  O   UNL     1     -44.404   2.140  75.986  1.00  0.00    -0.347 OA
BRANCH   8   9
ATOM      9  C   UNL     1     -44.420   2.324  74.482  1.00  0.00     0.281 C 
ATOM     10  C   UNL     1     -47.281   4.495  74.780  1.00  0.00     0.041 C 
ATOM     11  C   UNL     1     -46.648   3.327  73.986  1.00  0.00     0.150 C 
ATOM     12  C   UNL     1     -47.113   1.714  73.915  1.00  0.00     0.174 C 
ATOM     13  O   UNL     1     -45.234   3.392  74.015  1.00  0.00    -0.344 OA
ATOM     14  C   UNL     1     -46.063   0.949  73.007  1.00  0.00     0.179 C 
ATOM     15  C   UNL     1     -44.615   1.049  73.647  1.00  0.00     0.202 C 
BRANCH  12  16
ATOM     16  O   UNL     1     -47.239   1.081  75.134  1.00  0.00    -0.388 OA
ATOM     17  H   UNL     1     -47.302   0.096  74.964  1.00  0.00     0.211 HD
ENDBRANCH  12  16
BRANCH  14  18
ATOM     18  O   UNL     1     -46.177   1.411  71.698  1.00  0.00    -0.387 OA
ATOM     19  H   UNL     1     -45.412   1.041  71.178  1.00  0.00     0.211 HD
ENDBRANCH  14  18
BRANCH  15  20
ATOM     20  O   UNL     1     -44.415   0.039  74.632  1.00  0.00    -0.385 OA
ATOM     21  H   UNL     1     -45.032  -0.723  74.480  1.00  0.00     0.211 HD
ENDBRANCH  15  20
ENDBRANCH   8   9
ENDBRANCH   7   8
ENDBRANCH   1   7
BRANCH   2  22
ATOM     22  O   UNL     1     -44.163   3.624  79.412  1.00  0.00    -0.387 OA
ATOM     23  H   UNL     1     -44.391   3.535  80.355  1.00  0.00     0.211 HD
ENDBRANCH   2  22
BRANCH   3  24
ATOM     24  O   UNL     1     -41.964   3.178  81.925  1.00  0.00    -0.387 OA
ATOM     25  H   UNL     1     -41.333   2.563  82.409  1.00  0.00     0.211 HD
ENDBRANCH   3  24
BRANCH   5  26
ATOM     26  O   UNL     1     -38.727   4.642  78.416  1.00  0.00    -0.454 OA
BRANCH  26  27
ATOM     27  C   UNL     1     -38.371   6.033  78.617  1.00  0.00     0.214 A 
ATOM     28  C   UNL     1     -38.406   7.277  77.804  1.00  0.00     0.180 A 
ATOM     29  C   UNL     1     -37.667   6.371  79.759  1.00  0.00     0.239 A 
ATOM     30  O   UNL     1     -37.150   7.804  77.546  1.00  0.00    -0.452 OA
ATOM     31  C   UNL     1     -36.559   7.218  79.660  1.00  0.00     0.111 A 
ATOM     32  O   UNL     1     -38.217   6.065  80.877  1.00  0.00    -0.285 OA
ATOM     33  C   UNL     1     -36.145   7.338  78.317  1.00  0.00     0.146 A 
ATOM     34  C   UNL     1     -35.566   7.119  80.623  1.00  0.00     0.134 A 
ATOM     35  C   UNL     1     -35.097   6.503  77.848  1.00  0.00     0.094 A 
ATOM     36  C   UNL     1     -34.610   6.141  80.333  1.00  0.00     0.093 A 
ATOM     37  C   UNL     1     -34.424   5.719  78.950  1.00  0.00     0.123 A 
BRANCH  28  38
ATOM     38  C   UNL     1     -39.556   8.137  77.499  1.00  0.00     0.025 A 
ATOM     39  C   UNL     1     -39.827   8.551  76.133  1.00  0.00     0.062 A 
ATOM     40  C   UNL     1     -40.236   8.843  78.549  1.00  0.00     0.016 A 
ATOM     41  C   UNL     1     -40.781   9.509  75.852  1.00  0.00     0.158 A 
ATOM     42  C   UNL     1     -41.589   9.559  78.133  1.00  0.00     0.051 A 
ATOM     43  C   UNL     1     -41.748   9.818  76.787  1.00  0.00     0.157 A 
BRANCH  41  44
ATOM     44  O   UNL     1     -40.761  10.125  74.612  1.00  0.00    -0.504 OA
ATOM     45  H   UNL     1     -41.348   9.799  73.838  1.00  0.00     0.293 HD
ENDBRANCH  41  44
BRANCH  43  46
ATOM     46  O   UNL     1     -42.994  10.125  76.367  1.00  0.00    -0.504 OA
ATOM     47  H   UNL     1     -43.387  10.659  75.590  1.00  0.00     0.293 HD
ENDBRANCH  43  46
ENDBRANCH  28  38
BRANCH  34  48
ATOM     48  O   UNL     1     -35.371   8.177  81.526  1.00  0.00    -0.507 OA
ATOM     49  H   UNL     1     -34.903   7.984  82.381  1.00  0.00     0.293 HD
ENDBRANCH  34  48
BRANCH  37  50
ATOM     50  O   UNL     1     -33.563   4.562  78.791  1.00  0.00    -0.508 OA
ATOM     51  H   UNL     1     -32.995   4.245  77.999  1.00  0.00     0.293 HD
ENDBRANCH  37  50
ENDBRANCH  26  27
ENDBRANCH   5  26
BRANCH   4  52
ATOM     52  O   UNL     1     -39.389   2.635  80.798  1.00  0.00    -0.384 OA
ATOM     53  H   UNL     1     -39.023   2.159  79.948  1.00  0.00     0.211 HD
ENDBRANCH   4  52
TORSDOF 16
ENDMDL
MODEL 7
REMARK VINA RESULT:    -6.380      6.969     11.932
REMARK INTER + INTRA:         -11.356
REMARK INTER:                  -9.493
REMARK INTRA:                  -1.864
REMARK UNBOUND:                -1.433
REMARK SMILES C[C@H]1O[C@@H](OC[C@H]2O[C@H](Oc3c(-c4ccc(O)c(O)c4)oc4cc(O)cc(O)c4c3=O)[C@H](O)[C@@H](O)[C@@H]2O)[C@@H](O)[C@H](O)[C@H]1O
REMARK SMILES IDX 7 1 36 2 34 3 32 4 9 5 8 6 6 7 5 8 4 9 1 10 2 11 42 12 3 13
REMARK SMILES IDX 40 14 38 15 43 16 41 18 39 20 37 22 35 24 10 26 11 27 12 28
REMARK SMILES IDX 30 29 21 30 29 31 31 32 22 33 27 34 23 35 26 36 24 37 13 38
REMARK SMILES IDX 20 39 14 40 18 41 15 42 16 43 19 44 17 46 28 48 25 50 33 52
REMARK H PARENT 43 17 41 19 39 21 37 23 35 25 19 45 17 47 28 49 25 51 33 53
REMARK Flexibility Score: inf
ROOT
ATOM      1  C   UNL     1     -47.585   0.940  70.321  1.00  0.00     0.180 C 
ATOM      2  C   UNL     1     -48.763   0.333  69.371  1.00  0.00     0.177 C 
ATOM      3  C   UNL     1     -48.310  -1.180  69.105  1.00  0.00     0.180 C 
ATOM      4  C   UNL     1     -48.540  -1.930  70.556  1.00  0.00     0.214 C 
ATOM      5  C   UNL     1     -48.562  -0.894  71.828  1.00  0.00     0.339 C 
ATOM      6  O   UNL     1     -47.589   0.234  71.646  1.00  0.00    -0.332 OA
ENDROOT
BRANCH   1   7
ATOM      7  C   UNL     1     -47.028   2.564  70.464  1.00  0.00     0.198 C 
BRANCH   7   8
ATOM      8  O   UNL     1     -47.444   3.931  70.859  1.00  0.00    -0.347 OA
BRANCH   8   9
ATOM      9  C   UNL     1     -46.239   4.781  71.208  1.00  0.00     0.281 C 
ATOM     10  C   UNL     1     -47.909   5.920  74.192  1.00  0.00     0.041 C 
ATOM     11  C   UNL     1     -47.048   6.342  72.975  1.00  0.00     0.150 C 
ATOM     12  C   UNL     1     -47.473   7.277  71.646  1.00  0.00     0.174 C 
ATOM     13  O   UNL     1     -46.220   5.280  72.538  1.00  0.00    -0.344 OA
ATOM     14  C   UNL     1     -46.223   7.326  70.672  1.00  0.00     0.179 C 
ATOM     15  C   UNL     1     -45.853   5.862  70.186  1.00  0.00     0.202 C 
BRANCH  12  16
ATOM     16  O   UNL     1     -48.594   6.856  70.961  1.00  0.00    -0.388 OA
ATOM     17  H   UNL     1     -48.431   7.004  69.983  1.00  0.00     0.211 HD
ENDBRANCH  12  16
BRANCH  14  18
ATOM     18  O   UNL     1     -45.196   8.034  71.292  1.00  0.00    -0.387 OA
ATOM     19  H   UNL     1     -44.687   7.392  71.860  1.00  0.00     0.211 HD
ENDBRANCH  14  18
BRANCH  15  20
ATOM     20  O   UNL     1     -46.643   5.476  69.064  1.00  0.00    -0.385 OA
ATOM     21  H   UNL     1     -46.190   5.725  68.217  1.00  0.00     0.211 HD
ENDBRANCH  15  20
ENDBRANCH   8   9
ENDBRANCH   7   8
ENDBRANCH   1   7
BRANCH   2  22
ATOM     22  O   UNL     1     -49.125   1.216  68.300  1.00  0.00    -0.387 OA
ATOM     23  H   UNL     1     -49.939   0.847  67.911  1.00  0.00     0.211 HD
ENDBRANCH   2  22
BRANCH   3  24
ATOM     24  O   UNL     1     -48.971  -2.150  68.280  1.00  0.00    -0.387 OA
ATOM     25  H   UNL     1     -49.822  -2.420  68.742  1.00  0.00     0.211 HD
ENDBRANCH   3  24
BRANCH   5  26
ATOM     26  O   UNL     1     -48.828  -1.475  73.224  1.00  0.00    -0.454 OA
BRANCH  26  27
ATOM     27  C   UNL     1     -47.822  -1.780  74.222  1.00  0.00     0.214 A 
ATOM     28  C   UNL     1     -46.337  -1.745  74.294  1.00  0.00     0.180 A 
ATOM     29  C   UNL     1     -48.221  -2.422  75.381  1.00  0.00     0.239 A 
ATOM     30  O   UNL     1     -45.762  -2.995  74.463  1.00  0.00    -0.452 OA
ATOM     31  C   UNL     1     -47.480  -3.508  75.858  1.00  0.00     0.111 A 
ATOM     32  O   UNL     1     -49.125  -1.832  76.074  1.00  0.00    -0.285 OA
ATOM     33  C   UNL     1     -46.595  -3.978  74.865  1.00  0.00     0.146 A 
ATOM     34  C   UNL     1     -48.129  -4.459  76.630  1.00  0.00     0.134 A 
ATOM     35  C   UNL     1     -46.997  -5.070  74.053  1.00  0.00     0.094 A 
ATOM     36  C   UNL     1     -48.751  -5.456  75.873  1.00  0.00     0.093 A 
ATOM     37  C   UNL     1     -48.280  -5.717  74.519  1.00  0.00     0.123 A 
BRANCH  28  38
ATOM     38  C   UNL     1     -45.460  -0.585  74.491  1.00  0.00     0.025 A 
ATOM     39  C   UNL     1     -45.974   0.765  74.335  1.00  0.00     0.062 A 
ATOM     40  C   UNL     1     -44.033  -0.747  74.519  1.00  0.00     0.016 A 
ATOM     41  C   UNL     1     -45.128   1.857  74.326  1.00  0.00     0.158 A 
ATOM     42  C   UNL     1     -43.203   0.532  74.956  1.00  0.00     0.051 A 
ATOM     43  C   UNL     1     -43.848   1.745  74.832  1.00  0.00     0.157 A 
BRANCH  41  44
ATOM     44  O   UNL     1     -45.598   3.060  73.827  1.00  0.00    -0.504 OA
ATOM     45  H   UNL     1     -45.707   3.886  74.423  1.00  0.00     0.293 HD
ENDBRANCH  41  44
BRANCH  43  46
ATOM     46  O   UNL     1     -43.305   2.796  75.481  1.00  0.00    -0.504 OA
ATOM     47  H   UNL     1     -42.954   2.963  76.426  1.00  0.00     0.293 HD
ENDBRANCH  43  46
ENDBRANCH  28  38
BRANCH  34  48
ATOM     48  O   UNL     1     -47.805  -4.583  77.992  1.00  0.00    -0.507 OA
ATOM     49  H   UNL     1     -48.433  -5.078  78.581  1.00  0.00     0.293 HD
ENDBRANCH  34  48
BRANCH  37  50
ATOM     50  O   UNL     1     -49.125  -6.617  73.757  1.00  0.00    -0.508 OA
ATOM     51  H   UNL     1     -49.417  -6.603  72.775  1.00  0.00     0.293 HD
ENDBRANCH  37  50
ENDBRANCH  26  27
ENDBRANCH   5  26
BRANCH   4  52
ATOM     52  O   UNL     1     -47.685  -3.019  70.685  1.00  0.00    -0.384 OA
ATOM     53  H   UNL     1     -47.540  -3.079  71.714  1.00  0.00     0.211 HD
ENDBRANCH   4  52
TORSDOF 16
ENDMDL
MODEL 8
REMARK VINA RESULT:    -5.624      1.718      4.426
REMARK INTER + INTRA:         -10.180
REMARK INTER:                  -9.678
REMARK INTRA:                  -0.502
REMARK UNBOUND:                -1.433
REMARK SMILES C[C@H]1O[C@@H](OC[C@H]2O[C@H](Oc3c(-c4ccc(O)c(O)c4)oc4cc(O)cc(O)c4c3=O)[C@H](O)[C@@H](O)[C@@H]2O)[C@@H](O)[C@H](O)[C@H]1O
REMARK SMILES IDX 7 1 36 2 34 3 32 4 9 5 8 6 6 7 5 8 4 9 1 10 2 11 42 12 3 13
REMARK SMILES IDX 40 14 38 15 43 16 41 18 39 20 37 22 35 24 10 26 11 27 12 28
REMARK SMILES IDX 30 29 21 30 29 31 31 32 22 33 27 34 23 35 26 36 24 37 13 38
REMARK SMILES IDX 20 39 14 40 18 41 15 42 16 43 19 44 17 46 28 48 25 50 33 52
REMARK H PARENT 43 17 41 19 39 21 37 23 35 25 19 45 17 47 28 49 25 51 33 53
REMARK Flexibility Score: inf
ROOT
ATOM      1  C   UNL     1     -42.200   2.880  77.683  1.00  0.00     0.180 C 
ATOM      2  C   UNL     1     -42.646   3.372  79.171  1.00  0.00     0.177 C 
ATOM      3  C   UNL     1     -41.634   2.614  80.153  1.00  0.00     0.180 C 
ATOM      4  C   UNL     1     -40.188   3.366  79.900  1.00  0.00     0.214 C 
ATOM      5  C   UNL     1     -40.100   4.137  78.454  1.00  0.00     0.339 C 
ATOM      6  O   UNL     1     -40.820   3.384  77.375  1.00  0.00    -0.332 OA
ENDROOT
BRANCH   1   7
ATOM      7  C   UNL     1     -43.154   2.719  76.256  1.00  0.00     0.198 C 
BRANCH   7   8
ATOM      8  O   UNL     1     -44.513   2.383  75.769  1.00  0.00    -0.347 OA
BRANCH   8   9
ATOM      9  C   UNL     1     -44.557   2.381  74.254  1.00  0.00     0.281 C 
ATOM     10  C   UNL     1     -47.258   4.766  74.331  1.00  0.00     0.041 C 
ATOM     11  C   UNL     1     -46.725   3.467  73.677  1.00  0.00     0.150 C 
ATOM     12  C   UNL     1     -47.299   1.894  73.816  1.00  0.00     0.174 C 
ATOM     13  O   UNL     1     -45.310   3.437  73.673  1.00  0.00    -0.344 OA
ATOM     14  C   UNL     1     -46.326   0.952  72.991  1.00  0.00     0.179 C 
ATOM     15  C   UNL     1     -44.858   1.029  73.587  1.00  0.00     0.202 C 
BRANCH  12  16
ATOM     16  O   UNL     1     -47.434   1.426  75.106  1.00  0.00    -0.388 OA
ATOM     17  H   UNL     1     -47.728   0.469  75.057  1.00  0.00     0.211 HD
ENDBRANCH  12  16
BRANCH  14  18
ATOM     18  O   UNL     1     -46.444   1.257  71.637  1.00  0.00    -0.387 OA
ATOM     19  H   UNL     1     -45.656   0.866  71.169  1.00  0.00     0.211 HD
ENDBRANCH  14  18
BRANCH  15  20
ATOM     20  O   UNL     1     -44.700   0.137  74.687  1.00  0.00    -0.385 OA
ATOM     21  H   UNL     1     -44.645  -0.802  74.369  1.00  0.00     0.211 HD
ENDBRANCH  15  20
ENDBRANCH   8   9
ENDBRANCH   7   8
ENDBRANCH   1   7
BRANCH   2  22
ATOM     22  O   UNL     1     -44.067   3.333  79.369  1.00  0.00    -0.387 OA
ATOM     23  H   UNL     1     -44.385   2.559  78.870  1.00  0.00     0.211 HD
ENDBRANCH   2  22
BRANCH   3  24
ATOM     24  O   UNL     1     -41.623   2.655  81.588  1.00  0.00    -0.387 OA
ATOM     25  H   UNL     1     -41.336   1.750  81.920  1.00  0.00     0.211 HD
ENDBRANCH   3  24
BRANCH   5  26
ATOM     26  O   UNL     1     -38.820   4.922  78.135  1.00  0.00    -0.454 OA
BRANCH  26  27
ATOM     27  C   UNL     1     -38.177   5.887  79.006  1.00  0.00     0.214 A 
ATOM     28  C   UNL     1     -36.815   6.468  79.143  1.00  0.00     0.180 A 
ATOM     29  C   UNL     1     -38.866   6.324  80.123  1.00  0.00     0.239 A 
ATOM     30  O   UNL     1     -36.194   6.145  80.339  1.00  0.00    -0.452 OA
ATOM     31  C   UNL     1     -38.210   6.383  81.357  1.00  0.00     0.111 A 
ATOM     32  O   UNL     1     -40.009   6.865  79.911  1.00  0.00    -0.285 OA
ATOM     33  C   UNL     1     -36.998   5.664  81.310  1.00  0.00     0.146 A 
ATOM     34  C   UNL     1     -38.970   6.270  82.512  1.00  0.00     0.134 A 
ATOM     35  C   UNL     1     -36.981   4.322  81.772  1.00  0.00     0.094 A 
ATOM     36  C   UNL     1     -39.188   4.947  82.903  1.00  0.00     0.093 A 
ATOM     37  C   UNL     1     -38.266   3.912  82.453  1.00  0.00     0.123 A 
BRANCH  28  38
ATOM     38  C   UNL     1     -36.189   7.526  78.341  1.00  0.00     0.025 A 
ATOM     39  C   UNL     1     -34.826   7.950  78.612  1.00  0.00     0.062 A 
ATOM     40  C   UNL     1     -36.989   8.378  77.505  1.00  0.00     0.016 A 
ATOM     41  C   UNL     1     -34.288   9.067  78.003  1.00  0.00     0.158 A 
ATOM     42  C   UNL     1     -36.187   9.331  76.524  1.00  0.00     0.051 A 
ATOM     43  C   UNL     1     -34.873   9.581  76.862  1.00  0.00     0.157 A 
BRANCH  41  44
ATOM     44  O   UNL     1     -33.146   9.635  78.541  1.00  0.00    -0.504 OA
ATOM     45  H   UNL     1     -32.766   9.333  79.443  1.00  0.00     0.293 HD
ENDBRANCH  41  44
BRANCH  43  46
ATOM     46  O   UNL     1     -34.085  10.112  75.903  1.00  0.00    -0.504 OA
ATOM     47  H   UNL     1     -33.977  11.037  75.483  1.00  0.00     0.293 HD
ENDBRANCH  43  46
ENDBRANCH  28  38
BRANCH  34  48
ATOM     48  O   UNL     1     -39.106   7.382  83.361  1.00  0.00    -0.507 OA
ATOM     49  H   UNL     1     -38.355   7.600  83.974  1.00  0.00     0.293 HD
ENDBRANCH  34  48
BRANCH  37  50
ATOM     50  O   UNL     1     -38.702   2.558  82.741  1.00  0.00    -0.508 OA
ATOM     51  H   UNL     1     -39.376   2.195  83.422  1.00  0.00     0.293 HD
ENDBRANCH  37  50
ENDBRANCH  26  27
ENDBRANCH   5  26
BRANCH   4  52
ATOM     52  O   UNL     1     -39.132   2.507  80.185  1.00  0.00    -0.384 OA
ATOM     53  H   UNL     1     -38.975   2.023  79.277  1.00  0.00     0.211 HD
ENDBRANCH   4  52
TORSDOF 16
ENDMDL
MODEL 9
REMARK VINA RESULT:    -5.388      4.721      8.992
REMARK INTER + INTRA:          -9.813
REMARK INTER:                  -8.188
REMARK INTRA:                  -1.625
REMARK UNBOUND:                -1.433
REMARK SMILES C[C@H]1O[C@@H](OC[C@H]2O[C@H](Oc3c(-c4ccc(O)c(O)c4)oc4cc(O)cc(O)c4c3=O)[C@H](O)[C@@H](O)[C@@H]2O)[C@@H](O)[C@H](O)[C@H]1O
REMARK SMILES IDX 7 1 36 2 34 3 32 4 9 5 8 6 6 7 5 8 4 9 1 10 2 11 42 12 3 13
REMARK SMILES IDX 40 14 38 15 43 16 41 18 39 20 37 22 35 24 10 26 11 27 12 28
REMARK SMILES IDX 30 29 21 30 29 31 31 32 22 33 27 34 23 35 26 36 24 37 13 38
REMARK SMILES IDX 20 39 14 40 18 41 15 42 16 43 19 44 17 46 28 48 25 50 33 52
REMARK H PARENT 43 17 41 19 39 21 37 23 35 25 19 45 17 47 28 49 25 51 33 53
REMARK Flexibility Score: inf
ROOT
ATOM      1  C   UNL     1     -38.263   8.181  77.933  1.00  0.00     0.180 C 
ATOM      2  C   UNL     1     -39.568   9.157  77.909  1.00  0.00     0.177 C 
ATOM      3  C   UNL     1     -40.807   8.158  78.086  1.00  0.00     0.180 C 
ATOM      4  C   UNL     1     -40.706   7.666  79.657  1.00  0.00     0.214 C 
ATOM      5  C   UNL     1     -39.203   7.835  80.296  1.00  0.00     0.339 C 
ATOM      6  O   UNL     1     -38.131   7.545  79.287  1.00  0.00    -0.332 OA
ENDROOT
BRANCH   1   7
ATOM      7  C   UNL     1     -36.730   8.391  77.174  1.00  0.00     0.198 C 
BRANCH   7   8
ATOM      8  O   UNL     1     -35.506   9.226  77.183  1.00  0.00    -0.347 OA
BRANCH   8   9
ATOM      9  C   UNL     1     -34.264   8.361  77.263  1.00  0.00     0.281 C 
ATOM     10  C   UNL     1     -36.293   5.538  78.213  1.00  0.00     0.041 C 
ATOM     11  C   UNL     1     -34.987   6.319  78.496  1.00  0.00     0.150 C 
ATOM     12  C   UNL     1     -34.572   7.248  79.833  1.00  0.00     0.174 C 
ATOM     13  O   UNL     1     -34.508   6.963  77.329  1.00  0.00    -0.344 OA
ATOM     14  C   UNL     1     -33.143   7.877  79.559  1.00  0.00     0.179 C 
ATOM     15  C   UNL     1     -33.194   8.804  78.273  1.00  0.00     0.202 C 
BRANCH  12  16
ATOM     16  O   UNL     1     -35.472   8.238  80.168  1.00  0.00    -0.388 OA
ATOM     17  H   UNL     1     -35.223   8.587  81.074  1.00  0.00     0.211 HD
ENDBRANCH  12  16
BRANCH  14  18
ATOM     18  O   UNL     1     -32.198   6.854  79.528  1.00  0.00    -0.387 OA
ATOM     19  H   UNL     1     -31.724   6.907  78.653  1.00  0.00     0.211 HD
ENDBRANCH  14  18
BRANCH  15  20
ATOM     20  O   UNL     1     -33.648  10.115  78.599  1.00  0.00    -0.385 OA
ATOM     21  H   UNL     1     -33.444  10.748  77.862  1.00  0.00     0.211 HD
ENDBRANCH  15  20
ENDBRANCH   8   9
ENDBRANCH   7   8
ENDBRANCH   1   7
BRANCH   2  22
ATOM     22  O   UNL     1     -39.521  10.125  76.850  1.00  0.00    -0.387 OA
ATOM     23  H   UNL     1     -39.270  10.968  77.269  1.00  0.00     0.211 HD
ENDBRANCH   2  22
BRANCH   3  24
ATOM     24  O   UNL     1     -42.202   8.497  78.080  1.00  0.00    -0.387 OA
ATOM     25  H   UNL     1     -42.454   8.779  79.012  1.00  0.00     0.211 HD
ENDBRANCH   3  24
BRANCH   5  26
ATOM     26  O   UNL     1     -39.004   7.463  81.772  1.00  0.00    -0.454 OA
BRANCH  26  27
ATOM     27  C   UNL     1     -38.362   6.260  82.265  1.00  0.00     0.214 A 
ATOM     28  C   UNL     1     -37.033   5.613  82.109  1.00  0.00     0.180 A 
ATOM     29  C   UNL     1     -39.139   5.327  82.928  1.00  0.00     0.239 A 
ATOM     30  O   UNL     1     -37.089   4.384  81.471  1.00  0.00    -0.452 OA
ATOM     31  C   UNL     1     -39.012   3.972  82.607  1.00  0.00     0.111 A 
ATOM     32  O   UNL     1     -39.770   5.745  83.964  1.00  0.00    -0.285 OA
ATOM     33  C   UNL     1     -38.309   3.814  81.394  1.00  0.00     0.146 A 
ATOM     34  C   UNL     1     -40.100   3.140  82.822  1.00  0.00     0.134 A 
ATOM     35  C   UNL     1     -39.047   3.660  80.191  1.00  0.00     0.094 A 
ATOM     36  C   UNL     1     -40.999   3.117  81.752  1.00  0.00     0.093 A 
ATOM     37  C   UNL     1     -40.530   3.486  80.423  1.00  0.00     0.123 A 
BRANCH  28  38
ATOM     38  C   UNL     1     -35.767   5.956  82.768  1.00  0.00     0.025 A 
ATOM     39  C   UNL     1     -34.684   4.989  82.836  1.00  0.00     0.062 A 
ATOM     40  C   UNL     1     -35.680   7.102  83.629  1.00  0.00     0.016 A 
ATOM     41  C   UNL     1     -33.566   5.220  83.614  1.00  0.00     0.158 A 
ATOM     42  C   UNL     1     -34.220   7.498  84.105  1.00  0.00     0.051 A 
ATOM     43  C   UNL     1     -33.270   6.501  84.036  1.00  0.00     0.157 A 
BRANCH  41  44
ATOM     44  O   UNL     1     -32.744   4.153  83.931  1.00  0.00    -0.504 OA
ATOM     45  H   UNL     1     -32.945   3.201  83.610  1.00  0.00     0.293 HD
ENDBRANCH  41  44
BRANCH  43  46
ATOM     46  O   UNL     1     -31.978   6.881  84.125  1.00  0.00    -0.504 OA
ATOM     47  H   UNL     1     -31.076   6.431  83.959  1.00  0.00     0.293 HD
ENDBRANCH  43  46
ENDBRANCH  28  38
BRANCH  34  48
ATOM     48  O   UNL     1     -40.030   2.154  83.821  1.00  0.00    -0.507 OA
ATOM     49  H   UNL     1     -39.142   1.953  84.220  1.00  0.00     0.293 HD
ENDBRANCH  34  48
BRANCH  37  50
ATOM     50  O   UNL     1     -41.585   3.629  79.437  1.00  0.00    -0.508 OA
ATOM     51  H   UNL     1     -42.465   4.154  79.458  1.00  0.00     0.293 HD
ENDBRANCH  37  50
ENDBRANCH  26  27
ENDBRANCH   5  26
BRANCH   4  52
ATOM     52  O   UNL     1     -41.287   6.413  79.817  1.00  0.00    -0.384 OA
ATOM     53  H   UNL     1     -41.196   5.993  78.869  1.00  0.00     0.211 HD
ENDBRANCH   4  52
TORSDOF 16
ENDMDL
