MODEL 1
REMARK VINA RESULT:    -3.839      0.000      0.000
REMARK INTER + INTRA:          -6.046
REMARK INTER:                  -5.859
REMARK INTRA:                  -0.187
REMARK UNBOUND:                -0.187
REMARK SMILES CC1=CCC[C@H](C)C(=O)C[C@@H](C(C)C)C(=O)C1
REMARK SMILES IDX 8 1 9 2 6 3 7 4 5 5 4 6 3 7 2 8 1 9 10 11 11 12 15 13 16 14
REMARK SMILES IDX 17 15 12 17 13 18 14 19
REMARK H PARENT
REMARK Flexibility Score: 70.00
ROOT
ATOM      1  C   UNL     1       8.417 -10.261  56.455  1.00  0.00     0.136 C 
ATOM      2  O   UNL     1       7.568 -10.664  55.673  1.00  0.00    -0.299 OA
ENDROOT
BRANCH   1   3
ATOM      3  C   UNL     1       9.867 -10.663  56.218  1.00  0.00     0.053 C 
ATOM      4  C   UNL     1      10.124 -12.156  56.475  1.00  0.00     0.016 C 
BRANCH   3   5
ATOM      5  C   UNL     1      10.416 -10.160  54.861  1.00  0.00     0.015 C 
BRANCH   5   6
ATOM      6  C   UNL     1      10.496  -8.628  54.700  1.00  0.00     0.028 C 
BRANCH   6   7
ATOM      7  C   UNL     1      11.618  -8.054  55.529  1.00  0.00    -0.028 C 
ATOM      8  C   UNL     1      11.461  -7.103  56.481  1.00  0.00    -0.070 CG0
ATOM      9  C   UNL     1      12.676  -6.686  57.270  1.00  0.00     0.039 C 
ATOM     10  G   UNL     1      10.125  -6.434  56.772  1.00  0.00     0.000 G0
ENDBRANCH   6   7
ENDBRANCH   5   6
ENDBRANCH   3   5
ENDBRANCH   1   3
BRANCH   1  11
ATOM     11  C   UNL     1       7.981  -9.367  57.596  1.00  0.00     0.087 C 
BRANCH  11  12
ATOM     12  C   UNL     1       7.979  -7.850  57.257  1.00  0.00     0.066 C 
BRANCH  12  13
ATOM     13  C   UNL     1       9.262  -7.196  57.750  1.00  0.00     0.140 C 
ATOM     14  O   UNL     1       9.559  -7.256  58.936  1.00  0.00    -0.299 OA
BRANCH  13  15
ATOM     15  C   UNL     1      10.137  -6.412  56.804  1.00  0.00     0.106 CG0
ATOM     16  G   UNL     1      11.447  -7.125  56.495  1.00  0.00     0.000 G0
ENDBRANCH  13  15
ENDBRANCH  12  13
BRANCH  12  17
ATOM     17  C   UNL     1       6.712  -7.069  57.740  1.00  0.00    -0.006 C 
ATOM     18  C   UNL     1       5.842  -6.644  56.542  1.00  0.00     0.008 C 
ATOM     19  C   UNL     1       5.845  -7.889  58.714  1.00  0.00     0.008 C 
ENDBRANCH  12  17
ENDBRANCH  11  12
ENDBRANCH   1  11
TORSDOF 1
ENDMDL
MODEL 2
REMARK VINA RESULT:    -3.790     11.837     13.986
REMARK INTER + INTRA:          -5.971
REMARK INTER:                  -6.328
REMARK INTRA:                   0.357
REMARK UNBOUND:                -0.187
REMARK SMILES CC1=CCC[C@H](C)C(=O)C[C@@H](C(C)C)C(=O)C1
REMARK SMILES IDX 8 1 9 2 6 3 7 4 5 5 4 6 3 7 2 8 1 9 10 11 11 12 15 13 16 14
REMARK SMILES IDX 17 15 12 17 13 18 14 19
REMARK H PARENT
REMARK Flexibility Score: 70.00
ROOT
ATOM      1  C   UNL     1      20.192  -9.719  65.884  1.00  0.00     0.136 C 
ATOM      2  O   UNL     1      21.316 -10.002  66.271  1.00  0.00    -0.299 OA
ENDROOT
BRANCH   1   3
ATOM      3  C   UNL     1      19.987  -9.432  64.402  1.00  0.00     0.053 C 
ATOM      4  C   UNL     1      21.287  -9.529  63.589  1.00  0.00     0.016 C 
BRANCH   3   5
ATOM      5  C   UNL     1      18.810 -10.230  63.792  1.00  0.00     0.015 C 
BRANCH   5   6
ATOM      6  C   UNL     1      18.705 -11.706  64.231  1.00  0.00     0.028 C 
BRANCH   6   7
ATOM      7  C   UNL     1      17.281 -12.196  64.147  1.00  0.00    -0.028 C 
ATOM      8  C   UNL     1      16.272 -11.765  64.942  1.00  0.00    -0.070 CG0
ATOM      9  C   UNL     1      14.889 -12.305  64.683  1.00  0.00     0.039 C 
ATOM     10  G   UNL     1      16.480 -10.780  66.084  1.00  0.00     0.000 G0
ENDBRANCH   6   7
ENDBRANCH   5   6
ENDBRANCH   3   5
ENDBRANCH   1   3
BRANCH   1  11
ATOM     11  C   UNL     1      19.065  -9.695  66.895  1.00  0.00     0.087 C 
BRANCH  11  12
ATOM     12  C   UNL     1      18.700 -11.088  67.481  1.00  0.00     0.066 C 
BRANCH  12  13
ATOM     13  C   UNL     1      17.219 -11.377  67.278  1.00  0.00     0.140 C 
ATOM     14  O   UNL     1      16.641 -12.148  68.032  1.00  0.00    -0.299 OA
BRANCH  13  15
ATOM     15  C   UNL     1      16.473 -10.777  66.113  1.00  0.00     0.106 CG0
ATOM     16  G   UNL     1      16.284 -11.766  64.971  1.00  0.00     0.000 G0
ENDBRANCH  13  15
ENDBRANCH  12  13
BRANCH  12  17
ATOM     17  C   UNL     1      19.131 -11.308  68.970  1.00  0.00    -0.006 C 
ATOM     18  C   UNL     1      20.301 -12.305  69.058  1.00  0.00     0.008 C 
ATOM     19  C   UNL     1      19.543  -9.999  69.669  1.00  0.00     0.008 C 
ENDBRANCH  12  17
ENDBRANCH  11  12
ENDBRANCH   1  11
TORSDOF 1
ENDMDL
MODEL 3
REMARK VINA RESULT:    -3.768      7.256      8.951
REMARK INTER + INTRA:          -5.938
REMARK INTER:                  -5.638
REMARK INTRA:                  -0.300
REMARK UNBOUND:                -0.187
REMARK SMILES CC1=CCC[C@H](C)C(=O)C[C@@H](C(C)C)C(=O)C1
REMARK SMILES IDX 8 1 9 2 6 3 7 4 5 5 4 6 3 7 2 8 1 9 10 11 11 12 15 13 16 14
REMARK SMILES IDX 17 15 12 17 13 18 14 19
REMARK H PARENT
REMARK Flexibility Score: 70.00
ROOT
ATOM      1  C   UNL     1      16.085 -12.203  61.910  1.00  0.00     0.136 C 
ATOM      2  O   UNL     1      17.013 -12.999  61.924  1.00  0.00    -0.299 OA
ENDROOT
BRANCH   1   3
ATOM      3  C   UNL     1      14.699 -12.714  61.543  1.00  0.00     0.053 C 
ATOM      4  C   UNL     1      13.887 -13.170  62.765  1.00  0.00     0.016 C 
BRANCH   3   5
ATOM      5  C   UNL     1      13.930 -11.749  60.609  1.00  0.00     0.015 C 
BRANCH   5   6
ATOM      6  C   UNL     1      12.714 -11.038  61.238  1.00  0.00     0.028 C 
BRANCH   6   7
ATOM      7  C   UNL     1      12.657  -9.590  60.818  1.00  0.00    -0.028 C 
ATOM      8  C   UNL     1      13.035  -8.548  61.595  1.00  0.00    -0.070 CG0
ATOM      9  C   UNL     1      12.981  -7.165  60.999  1.00  0.00     0.039 C 
ATOM     10  G   UNL     1      13.493  -8.714  63.038  1.00  0.00     0.000 G0
ENDBRANCH   6   7
ENDBRANCH   5   6
ENDBRANCH   3   5
ENDBRANCH   1   3
BRANCH   1  11
ATOM     11  C   UNL     1      16.365 -10.762  62.283  1.00  0.00     0.087 C 
BRANCH  11  12
ATOM     12  C   UNL     1      15.554 -10.248  63.505  1.00  0.00     0.066 C 
BRANCH  12  13
ATOM     13  C   UNL     1      14.962  -8.876  63.210  1.00  0.00     0.140 C 
ATOM     14  O   UNL     1      15.694  -7.897  63.157  1.00  0.00    -0.299 OA
BRANCH  13  15
ATOM     15  C   UNL     1      13.473  -8.701  63.051  1.00  0.00     0.106 CG0
ATOM     16  G   UNL     1      13.056  -8.552  61.595  1.00  0.00     0.000 G0
ENDBRANCH  13  15
ENDBRANCH  12  13
BRANCH  12  17
ATOM     17  C   UNL     1      16.333 -10.258  64.863  1.00  0.00    -0.006 C 
ATOM     18  C   UNL     1      15.951 -11.492  65.702  1.00  0.00     0.008 C 
ATOM     19  C   UNL     1      17.861 -10.245  64.671  1.00  0.00     0.008 C 
ENDBRANCH  12  17
ENDBRANCH  11  12
ENDBRANCH   1  11
TORSDOF 1
ENDMDL
MODEL 4
REMARK VINA RESULT:    -3.735      8.363     10.079
REMARK INTER + INTRA:          -5.887
REMARK INTER:                  -6.221
REMARK INTRA:                   0.334
REMARK UNBOUND:                -0.187
REMARK SMILES CC1=CCC[C@H](C)C(=O)C[C@@H](C(C)C)C(=O)C1
REMARK SMILES IDX 8 1 9 2 6 3 7 4 5 5 4 6 3 7 2 8 1 9 10 11 11 12 15 13 16 14
REMARK SMILES IDX 17 15 12 17 13 18 14 19
REMARK H PARENT
REMARK Flexibility Score: 70.00
ROOT
ATOM      1  C   UNL     1      16.301 -12.667  62.748  1.00  0.00     0.136 C 
ATOM      2  O   UNL     1      16.963 -12.919  61.752  1.00  0.00    -0.299 OA
ENDROOT
BRANCH   1   3
ATOM      3  C   UNL     1      14.792 -12.853  62.680  1.00  0.00     0.053 C 
ATOM      4  C   UNL     1      14.101 -12.648  64.036  1.00  0.00     0.016 C 
BRANCH   3   5
ATOM      5  C   UNL     1      14.139 -12.059  61.522  1.00  0.00     0.015 C 
BRANCH   5   6
ATOM      6  C   UNL     1      13.619 -10.653  61.887  1.00  0.00     0.028 C 
BRANCH   6   7
ATOM      7  C   UNL     1      14.370  -9.585  61.133  1.00  0.00    -0.028 C 
ATOM      8  C   UNL     1      15.305  -8.771  61.680  1.00  0.00    -0.070 CG0
ATOM      9  C   UNL     1      16.015  -7.800  60.771  1.00  0.00     0.039 C 
ATOM     10  G   UNL     1      15.652  -8.787  63.162  1.00  0.00     0.000 G0
ENDBRANCH   6   7
ENDBRANCH   5   6
ENDBRANCH   3   5
ENDBRANCH   1   3
BRANCH   1  11
ATOM     11  C   UNL     1      17.023 -12.208  63.998  1.00  0.00     0.087 C 
BRANCH  11  12
ATOM     12  C   UNL     1      16.542 -10.837  64.550  1.00  0.00     0.066 C 
BRANCH  12  13
ATOM     13  C   UNL     1      16.752  -9.745  63.510  1.00  0.00     0.140 C 
ATOM     14  O   UNL     1      17.850  -9.604  62.989  1.00  0.00    -0.299 OA
BRANCH  13  15
ATOM     15  C   UNL     1      15.638  -8.787  63.168  1.00  0.00     0.106 CG0
ATOM     16  G   UNL     1      15.306  -8.788  61.681  1.00  0.00     0.000 G0
ENDBRANCH  13  15
ENDBRANCH  12  13
BRANCH  12  17
ATOM     17  C   UNL     1      17.148 -10.437  65.936  1.00  0.00    -0.006 C 
ATOM     18  C   UNL     1      16.578 -11.325  67.058  1.00  0.00     0.008 C 
ATOM     19  C   UNL     1      18.684 -10.532  65.963  1.00  0.00     0.008 C 
ENDBRANCH  12  17
ENDBRANCH  11  12
ENDBRANCH   1  11
TORSDOF 1
ENDMDL
MODEL 5
REMARK VINA RESULT:    -3.698     10.704     12.727
REMARK INTER + INTRA:          -5.832
REMARK INTER:                  -5.697
REMARK INTRA:                  -0.135
REMARK UNBOUND:                -0.187
REMARK SMILES CC1=CCC[C@H](C)C(=O)C[C@@H](C(C)C)C(=O)C1
REMARK SMILES IDX 8 1 9 2 6 3 7 4 5 5 4 6 3 7 2 8 1 9 10 11 11 12 15 13 16 14
REMARK SMILES IDX 17 15 12 17 13 18 14 19
REMARK H PARENT
REMARK Flexibility Score: 70.00
ROOT
ATOM      1  C   UNL     1       7.354   4.159  63.069  1.00  0.00     0.136 C 
ATOM      2  O   UNL     1       6.801   5.153  62.620  1.00  0.00    -0.299 OA
ENDROOT
BRANCH   1   3
ATOM      3  C   UNL     1       8.847   4.233  63.362  1.00  0.00     0.053 C 
ATOM      4  C   UNL     1       9.373   2.992  64.099  1.00  0.00     0.016 C 
BRANCH   3   5
ATOM      5  C   UNL     1       9.685   4.622  62.120  1.00  0.00     0.015 C 
BRANCH   5   6
ATOM      6  C   UNL     1       9.784   3.547  61.018  1.00  0.00     0.028 C 
BRANCH   6   7
ATOM      7  C   UNL     1       8.886   3.881  59.853  1.00  0.00    -0.028 C 
ATOM      8  C   UNL     1       7.873   3.098  59.413  1.00  0.00    -0.070 CG0
ATOM      9  C   UNL     1       7.025   3.611  58.277  1.00  0.00     0.039 C 
ATOM     10  G   UNL     1       7.570   1.727  60.002  1.00  0.00     0.000 G0
ENDBRANCH   6   7
ENDBRANCH   5   6
ENDBRANCH   3   5
ENDBRANCH   1   3
BRANCH   1  11
ATOM     11  C   UNL     1       6.518   2.924  63.331  1.00  0.00     0.087 C 
BRANCH  11  12
ATOM     12  C   UNL     1       6.975   1.663  62.544  1.00  0.00     0.066 C 
BRANCH  12  13
ATOM     13  C   UNL     1       6.548   1.766  61.086  1.00  0.00     0.140 C 
ATOM     14  O   UNL     1       5.359   1.834  60.804  1.00  0.00    -0.299 OA
BRANCH  13  15
ATOM     15  C   UNL     1       7.572   1.713  59.981  1.00  0.00     0.106 CG0
ATOM     16  G   UNL     1       7.894   3.091  59.418  1.00  0.00     0.000 G0
ENDBRANCH  13  15
ENDBRANCH  12  13
BRANCH  12  17
ATOM     17  C   UNL     1       6.539   0.299  63.177  1.00  0.00    -0.006 C 
ATOM     18  C   UNL     1       7.689  -0.724  63.112  1.00  0.00     0.008 C 
ATOM     19  C   UNL     1       6.087   0.442  64.641  1.00  0.00     0.008 C 
ENDBRANCH  12  17
ENDBRANCH  11  12
ENDBRANCH   1  11
TORSDOF 1
ENDMDL
MODEL 6
REMARK VINA RESULT:    -3.608     12.233     14.214
REMARK INTER + INTRA:          -5.694
REMARK INTER:                  -5.730
REMARK INTRA:                   0.036
REMARK UNBOUND:                -0.187
REMARK SMILES CC1=CCC[C@H](C)C(=O)C[C@@H](C(C)C)C(=O)C1
REMARK SMILES IDX 8 1 9 2 6 3 7 4 5 5 4 6 3 7 2 8 1 9 10 11 11 12 15 13 16 14
REMARK SMILES IDX 17 15 12 17 13 18 14 19
REMARK H PARENT
REMARK Flexibility Score: 70.00
ROOT
ATOM      1  C   UNL     1      19.986 -10.270  64.310  1.00  0.00     0.136 C 
ATOM      2  O   UNL     1      19.627  -9.103  64.371  1.00  0.00    -0.299 OA
ENDROOT
BRANCH   1   3
ATOM      3  C   UNL     1      21.471 -10.561  64.138  1.00  0.00     0.053 C 
ATOM      4  C   UNL     1      22.157  -9.609  63.148  1.00  0.00     0.016 C 
BRANCH   3   5
ATOM      5  C   UNL     1      22.217 -10.700  65.487  1.00  0.00     0.015 C 
BRANCH   5   6
ATOM      6  C   UNL     1      21.895 -11.972  66.300  1.00  0.00     0.028 C 
BRANCH   6   7
ATOM      7  C   UNL     1      21.230 -11.624  67.608  1.00  0.00    -0.028 C 
ATOM      8  C   UNL     1      19.957 -11.952  67.935  1.00  0.00    -0.070 CG0
ATOM      9  C   UNL     1      19.465 -11.590  69.312  1.00  0.00     0.039 C 
ATOM     10  G   UNL     1      19.008 -12.650  66.970  1.00  0.00     0.000 G0
ENDBRANCH   6   7
ENDBRANCH   5   6
ENDBRANCH   3   5
ENDBRANCH   1   3
BRANCH   1  11
ATOM     11  C   UNL     1      18.938 -11.356  64.434  1.00  0.00     0.087 C 
BRANCH  11  12
ATOM     12  C   UNL     1      17.750 -10.995  65.369  1.00  0.00     0.066 C 
BRANCH  12  13
ATOM     13  C   UNL     1      17.794 -11.843  66.632  1.00  0.00     0.140 C 
ATOM     14  O   UNL     1      16.852 -11.821  67.413  1.00  0.00    -0.299 OA
BRANCH  13  15
ATOM     15  C   UNL     1      19.018 -12.657  66.968  1.00  0.00     0.106 CG0
ATOM     16  G   UNL     1      19.949 -11.936  67.934  1.00  0.00     0.000 G0
ENDBRANCH  13  15
ENDBRANCH  12  13
BRANCH  12  17
ATOM     17  C   UNL     1      16.340 -11.047  64.690  1.00  0.00    -0.006 C 
ATOM     18  C   UNL     1      15.928  -9.653  64.180  1.00  0.00     0.008 C 
ATOM     19  C   UNL     1      16.283 -12.040  63.514  1.00  0.00     0.008 C 
ENDBRANCH  12  17
ENDBRANCH  11  12
ENDBRANCH   1  11
TORSDOF 1
ENDMDL
MODEL 7
REMARK VINA RESULT:    -3.520     13.922     15.718
REMARK INTER + INTRA:          -5.560
REMARK INTER:                  -6.533
REMARK INTRA:                   0.973
REMARK UNBOUND:                -0.187
REMARK SMILES CC1=CCC[C@H](C)C(=O)C[C@@H](C(C)C)C(=O)C1
REMARK SMILES IDX 8 1 9 2 6 3 7 4 5 5 4 6 3 7 2 8 1 9 10 11 11 12 15 13 16 14
REMARK SMILES IDX 17 15 12 17 13 18 14 19
REMARK H PARENT
REMARK Flexibility Score: 70.00
ROOT
ATOM      1  C   UNL     1      20.050 -11.724  69.138  1.00  0.00     0.136 C 
ATOM      2  O   UNL     1      20.245 -10.857  69.977  1.00  0.00    -0.299 OA
ENDROOT
BRANCH   1   3
ATOM      3  C   UNL     1      21.122 -12.786  68.933  1.00  0.00     0.053 C 
ATOM      4  C   UNL     1      21.750 -13.265  70.251  1.00  0.00     0.016 C 
BRANCH   3   5
ATOM      5  C   UNL     1      20.658 -13.939  68.010  1.00  0.00     0.015 C 
BRANCH   5   6
ATOM      6  C   UNL     1      21.189 -13.889  66.562  1.00  0.00     0.028 C 
BRANCH   6   7
ATOM      7  C   UNL     1      22.372 -12.961  66.451  1.00  0.00    -0.028 C 
ATOM      8  C   UNL     1      22.316 -11.699  65.961  1.00  0.00    -0.070 CG0
ATOM      9  C   UNL     1      23.579 -10.876  65.983  1.00  0.00     0.039 C 
ATOM     10  G   UNL     1      21.047 -11.092  65.379  1.00  0.00     0.000 G0
ENDBRANCH   6   7
ENDBRANCH   5   6
ENDBRANCH   3   5
ENDBRANCH   1   3
BRANCH   1  11
ATOM     11  C   UNL     1      18.744 -11.706  68.371  1.00  0.00     0.087 C 
BRANCH  11  12
ATOM     12  C   UNL     1      18.910 -11.629  66.827  1.00  0.00     0.066 C 
BRANCH  12  13
ATOM     13  C   UNL     1      20.051 -10.689  66.463  1.00  0.00     0.140 C 
ATOM     14  O   UNL     1      20.130  -9.592  67.000  1.00  0.00    -0.299 OA
BRANCH  13  15
ATOM     15  C   UNL     1      21.045 -11.068  65.394  1.00  0.00     0.106 CG0
ATOM     16  G   UNL     1      22.308 -11.695  65.970  1.00  0.00     0.000 G0
ENDBRANCH  13  15
ENDBRANCH  12  13
BRANCH  12  17
ATOM     17  C   UNL     1      17.601 -11.276  66.042  1.00  0.00    -0.006 C 
ATOM     18  C   UNL     1      17.437 -12.193  64.816  1.00  0.00     0.008 C 
ATOM     19  C   UNL     1      16.337 -11.388  66.915  1.00  0.00     0.008 C 
ENDBRANCH  12  17
ENDBRANCH  11  12
ENDBRANCH   1  11
TORSDOF 1
ENDMDL
MODEL 8
REMARK VINA RESULT:    -3.475     13.244     15.605
REMARK INTER + INTRA:          -5.491
REMARK INTER:                  -5.789
REMARK INTRA:                   0.299
REMARK UNBOUND:                -0.187
REMARK SMILES CC1=CCC[C@H](C)C(=O)C[C@@H](C(C)C)C(=O)C1
REMARK SMILES IDX 8 1 9 2 6 3 7 4 5 5 4 6 3 7 2 8 1 9 10 11 11 12 15 13 16 14
REMARK SMILES IDX 17 15 12 17 13 18 14 19
REMARK H PARENT
REMARK Flexibility Score: 70.00
ROOT
ATOM      1  C   UNL     1      19.414 -10.114  64.580  1.00  0.00     0.136 C 
ATOM      2  O   UNL     1      19.398 -10.253  63.365  1.00  0.00    -0.299 OA
ENDROOT
BRANCH   1   3
ATOM      3  C   UNL     1      18.088  -9.922  65.304  1.00  0.00     0.053 C 
ATOM      4  C   UNL     1      16.911  -9.686  64.345  1.00  0.00     0.016 C 
BRANCH   3   5
ATOM      5  C   UNL     1      17.818 -11.018  66.364  1.00  0.00     0.015 C 
BRANCH   5   6
ATOM      6  C   UNL     1      18.531 -10.825  67.719  1.00  0.00     0.028 C 
BRANCH   6   7
ATOM      7  C   UNL     1      19.039 -12.140  68.255  1.00  0.00    -0.028 C 
ATOM      8  C   UNL     1      20.334 -12.534  68.226  1.00  0.00    -0.070 CG0
ATOM      9  C   UNL     1      20.687 -13.851  68.867  1.00  0.00     0.039 C 
ATOM     10  G   UNL     1      21.434 -11.715  67.564  1.00  0.00     0.000 G0
ENDBRANCH   6   7
ENDBRANCH   5   6
ENDBRANCH   3   5
ENDBRANCH   1   3
BRANCH   1  11
ATOM     11  C   UNL     1      20.748 -10.165  65.295  1.00  0.00     0.087 C 
BRANCH  11  12
ATOM     12  C   UNL     1      21.606 -11.417  64.960  1.00  0.00     0.066 C 
BRANCH  12  13
ATOM     13  C   UNL     1      21.850 -12.243  66.215  1.00  0.00     0.140 C 
ATOM     14  O   UNL     1      22.318 -13.370  66.120  1.00  0.00    -0.299 OA
BRANCH  13  15
ATOM     15  C   UNL     1      21.455 -11.714  67.571  1.00  0.00     0.106 CG0
ATOM     16  G   UNL     1      20.343 -12.532  68.214  1.00  0.00     0.000 G0
ENDBRANCH  13  15
ENDBRANCH  12  13
BRANCH  12  17
ATOM     17  C   UNL     1      22.942 -11.115  64.201  1.00  0.00    -0.006 C 
ATOM     18  C   UNL     1      22.714 -10.076  63.087  1.00  0.00     0.008 C 
ATOM     19  C   UNL     1      24.053 -10.603  65.136  1.00  0.00     0.008 C 
ENDBRANCH  12  17
ENDBRANCH  11  12
ENDBRANCH   1  11
TORSDOF 1
ENDMDL
MODEL 9
REMARK VINA RESULT:    -3.470     10.128     12.603
REMARK INTER + INTRA:          -5.483
REMARK INTER:                  -5.900
REMARK INTRA:                   0.418
REMARK UNBOUND:                -0.187
REMARK SMILES CC1=CCC[C@H](C)C(=O)C[C@@H](C(C)C)C(=O)C1
REMARK SMILES IDX 8 1 9 2 6 3 7 4 5 5 4 6 3 7 2 8 1 9 10 11 11 12 15 13 16 14
REMARK SMILES IDX 17 15 12 17 13 18 14 19
REMARK H PARENT
REMARK Flexibility Score: 70.00
ROOT
ATOM      1  C   UNL     1      14.440   2.809  55.750  1.00  0.00     0.136 C 
ATOM      2  O   UNL     1      13.977   2.268  54.756  1.00  0.00    -0.299 OA
ENDROOT
BRANCH   1   3
ATOM      3  C   UNL     1      14.680   4.312  55.709  1.00  0.00     0.053 C 
ATOM      4  C   UNL     1      15.431   4.764  54.447  1.00  0.00     0.016 C 
BRANCH   3   5
ATOM      5  C   UNL     1      13.401   5.134  56.000  1.00  0.00     0.015 C 
BRANCH   5   6
ATOM      6  C   UNL     1      13.131   5.444  57.488  1.00  0.00     0.028 C 
BRANCH   6   7
ATOM      7  C   UNL     1      11.902   4.720  57.977  1.00  0.00    -0.028 C 
ATOM      8  C   UNL     1      11.872   3.890  59.047  1.00  0.00    -0.070 CG0
ATOM      9  C   UNL     1      10.545   3.299  59.447  1.00  0.00     0.039 C 
ATOM     10  G   UNL     1      13.116   3.522  59.844  1.00  0.00     0.000 G0
ENDBRANCH   6   7
ENDBRANCH   5   6
ENDBRANCH   3   5
ENDBRANCH   1   3
BRANCH   1  11
ATOM     11  C   UNL     1      14.722   1.959  56.971  1.00  0.00     0.087 C 
BRANCH  11  12
ATOM     12  C   UNL     1      13.500   1.762  57.911  1.00  0.00     0.066 C 
BRANCH  12  13
ATOM     13  C   UNL     1      13.813   2.290  59.304  1.00  0.00     0.140 C 
ATOM     14  O   UNL     1      14.595   1.682  60.023  1.00  0.00    -0.299 OA
BRANCH  13  15
ATOM     15  C   UNL     1      13.114   3.516  59.835  1.00  0.00     0.106 CG0
ATOM     16  G   UNL     1      11.870   3.871  59.032  1.00  0.00     0.000 G0
ENDBRANCH  13  15
ENDBRANCH  12  13
BRANCH  12  17
ATOM     17  C   UNL     1      12.937   0.302  57.961  1.00  0.00    -0.006 C 
ATOM     18  C   UNL     1      11.842   0.102  56.896  1.00  0.00     0.008 C 
ATOM     19  C   UNL     1      14.030  -0.763  57.753  1.00  0.00     0.008 C 
ENDBRANCH  12  17
ENDBRANCH  11  12
ENDBRANCH   1  11
TORSDOF 1
ENDMDL
