MODEL 1
REMARK VINA RESULT:    -4.312      0.000      0.000
REMARK INTER + INTRA:          -6.589
REMARK INTER:                  -6.076
REMARK INTRA:                  -0.512
REMARK UNBOUND:                -0.512
REMARK SMILES CCCCCCCCC(=O)[O-]
REMARK SMILES IDX 6 1 7 2 8 3 9 4 10 5 11 6 5 7 4 8 3 9 2 10 1 11
REMARK H PARENT
REMARK Flexibility Score: inf
ROOT
ATOM      1  C   UNL     1      13.122   3.832  39.630  1.00  0.00     0.000 C 
ENDROOT
BRANCH   1   2
ATOM      2  C   UNL     1      12.827   5.312  39.329  1.00  0.00     0.006 C 
BRANCH   2   3
ATOM      3  C   UNL     1      11.744   5.886  40.253  1.00  0.00     0.053 C 
BRANCH   3   4
ATOM      4  C   UNL     1      10.588   6.438  39.476  1.00  0.00     0.041 C 
ATOM      5  O   UNL     1       9.875   7.352  39.966  1.00  0.00    -0.550 OA
ATOM      6  O   UNL     1      10.319   5.965  38.197  1.00  0.00    -0.550 OA
ENDBRANCH   3   4
ENDBRANCH   2   3
ENDBRANCH   1   2
BRANCH   1   7
ATOM      7  C   UNL     1      11.872   3.057  40.082  1.00  0.00     0.000 C 
BRANCH   7   8
ATOM      8  C   UNL     1      11.319   2.138  38.980  1.00  0.00    -0.000 C 
BRANCH   8   9
ATOM      9  C   UNL     1      12.168   2.173  37.700  1.00  0.00    -0.000 C 
BRANCH   9  10
ATOM     10  C   UNL     1      11.458   2.883  36.537  1.00  0.00    -0.003 C 
ATOM     11  C   UNL     1      12.155   2.597  35.210  1.00  0.00     0.004 C 
ENDBRANCH   9  10
ENDBRANCH   8   9
ENDBRANCH   7   8
ENDBRANCH   1   7
TORSDOF 7
ENDMDL
MODEL 2
REMARK VINA RESULT:    -4.267     16.628     17.753
REMARK INTER + INTRA:          -6.525
REMARK INTER:                  -5.970
REMARK INTRA:                  -0.556
REMARK UNBOUND:                -0.512
REMARK SMILES CCCCCCCCC(=O)[O-]
REMARK SMILES IDX 6 1 7 2 8 3 9 4 10 5 11 6 5 7 4 8 3 9 2 10 1 11
REMARK H PARENT
REMARK Flexibility Score: inf
ROOT
ATOM      1  C   UNL     1      24.365  -5.238  39.834  1.00  0.00     0.000 C 
ENDROOT
BRANCH   1   2
ATOM      2  C   UNL     1      25.631  -5.740  40.551  1.00  0.00     0.006 C 
BRANCH   2   3
ATOM      3  C   UNL     1      26.867  -5.692  39.644  1.00  0.00     0.053 C 
BRANCH   3   4
ATOM      4  C   UNL     1      27.424  -7.060  39.393  1.00  0.00     0.041 C 
ATOM      5  O   UNL     1      28.609  -7.197  38.991  1.00  0.00    -0.550 OA
ATOM      6  O   UNL     1      26.644  -8.184  39.636  1.00  0.00    -0.550 OA
ENDBRANCH   3   4
ENDBRANCH   2   3
ENDBRANCH   1   2
BRANCH   1   7
ATOM      7  C   UNL     1      24.293  -5.694  38.367  1.00  0.00     0.000 C 
BRANCH   7   8
ATOM      8  C   UNL     1      23.113  -6.644  38.102  1.00  0.00    -0.000 C 
BRANCH   8   9
ATOM      9  C   UNL     1      23.199  -7.938  38.928  1.00  0.00    -0.000 C 
BRANCH   9  10
ATOM     10  C   UNL     1      21.859  -8.319  39.574  1.00  0.00    -0.003 C 
ATOM     11  C   UNL     1      20.904  -7.129  39.602  1.00  0.00     0.004 C 
ENDBRANCH   9  10
ENDBRANCH   8   9
ENDBRANCH   7   8
ENDBRANCH   1   7
TORSDOF 7
ENDMDL
MODEL 3
REMARK VINA RESULT:    -4.173     15.924     17.077
REMARK INTER + INTRA:          -6.393
REMARK INTER:                  -5.755
REMARK INTRA:                  -0.638
REMARK UNBOUND:                -0.512
REMARK SMILES CCCCCCCCC(=O)[O-]
REMARK SMILES IDX 6 1 7 2 8 3 9 4 10 5 11 6 5 7 4 8 3 9 2 10 1 11
REMARK H PARENT
REMARK Flexibility Score: inf
ROOT
ATOM      1  C   UNL     1      24.027  -5.453  37.745  1.00  0.00     0.000 C 
ENDROOT
BRANCH   1   2
ATOM      2  C   UNL     1      25.211  -5.193  38.694  1.00  0.00     0.006 C 
BRANCH   2   3
ATOM      3  C   UNL     1      25.159  -6.084  39.942  1.00  0.00     0.053 C 
BRANCH   3   4
ATOM      4  C   UNL     1      26.218  -7.143  39.911  1.00  0.00     0.041 C 
ATOM      5  O   UNL     1      25.896  -8.360  39.884  1.00  0.00    -0.550 OA
ATOM      6  O   UNL     1      27.560  -6.784  39.879  1.00  0.00    -0.550 OA
ENDBRANCH   3   4
ENDBRANCH   2   3
ENDBRANCH   1   2
BRANCH   1   7
ATOM      7  C   UNL     1      22.666  -5.174  38.403  1.00  0.00     0.000 C 
BRANCH   7   8
ATOM      8  C   UNL     1      21.650  -6.302  38.158  1.00  0.00    -0.000 C 
BRANCH   8   9
ATOM      9  C   UNL     1      21.052  -6.853  39.462  1.00  0.00    -0.000 C 
BRANCH   9  10
ATOM     10  C   UNL     1      21.652  -8.208  39.863  1.00  0.00    -0.003 C 
ATOM     11  C   UNL     1      22.537  -8.768  38.753  1.00  0.00     0.004 C 
ENDBRANCH   9  10
ENDBRANCH   8   9
ENDBRANCH   7   8
ENDBRANCH   1   7
TORSDOF 7
ENDMDL
MODEL 4
REMARK VINA RESULT:    -4.163     15.734     16.952
REMARK INTER + INTRA:          -6.379
REMARK INTER:                  -5.860
REMARK INTRA:                  -0.519
REMARK UNBOUND:                -0.512
REMARK SMILES CCCCCCCCC(=O)[O-]
REMARK SMILES IDX 6 1 7 2 8 3 9 4 10 5 11 6 5 7 4 8 3 9 2 10 1 11
REMARK H PARENT
REMARK Flexibility Score: inf
ROOT
ATOM      1  C   UNL     1      24.037  -6.165  38.180  1.00  0.00     0.000 C 
ENDROOT
BRANCH   1   2
ATOM      2  C   UNL     1      22.762  -7.019  38.060  1.00  0.00     0.006 C 
BRANCH   2   3
ATOM      3  C   UNL     1      22.517  -7.872  39.311  1.00  0.00     0.053 C 
BRANCH   3   4
ATOM      4  C   UNL     1      21.164  -7.617  39.900  1.00  0.00     0.041 C 
ATOM      5  O   UNL     1      20.408  -6.745  39.397  1.00  0.00    -0.550 OA
ATOM      6  O   UNL     1      20.723  -8.368  40.984  1.00  0.00    -0.550 OA
ENDBRANCH   3   4
ENDBRANCH   2   3
ENDBRANCH   1   2
BRANCH   1   7
ATOM      7  C   UNL     1      24.101  -5.375  39.498  1.00  0.00     0.000 C 
BRANCH   7   8
ATOM      8  C   UNL     1      25.253  -5.837  40.407  1.00  0.00    -0.000 C 
BRANCH   8   9
ATOM      9  C   UNL     1      26.191  -6.835  39.710  1.00  0.00    -0.000 C 
BRANCH   9  10
ATOM     10  C   UNL     1      27.659  -6.387  39.738  1.00  0.00    -0.003 C 
ATOM     11  C   UNL     1      27.840  -5.050  39.026  1.00  0.00     0.004 C 
ENDBRANCH   9  10
ENDBRANCH   8   9
ENDBRANCH   7   8
ENDBRANCH   1   7
TORSDOF 7
ENDMDL
MODEL 5
REMARK VINA RESULT:    -4.130      2.711      4.298
REMARK INTER + INTRA:          -6.333
REMARK INTER:                  -6.116
REMARK INTRA:                  -0.217
REMARK UNBOUND:                -0.512
REMARK SMILES CCCCCCCCC(=O)[O-]
REMARK SMILES IDX 6 1 7 2 8 3 9 4 10 5 11 6 5 7 4 8 3 9 2 10 1 11
REMARK H PARENT
REMARK Flexibility Score: inf
ROOT
ATOM      1  C   UNL     1      12.168   3.523  40.277  1.00  0.00     0.000 C 
ENDROOT
BRANCH   1   2
ATOM      2  C   UNL     1      12.481   4.311  38.992  1.00  0.00     0.006 C 
BRANCH   2   3
ATOM      3  C   UNL     1      12.323   5.824  39.188  1.00  0.00     0.053 C 
BRANCH   3   4
ATOM      4  C   UNL     1      10.910   6.269  38.960  1.00  0.00     0.041 C 
ATOM      5  O   UNL     1      10.288   5.898  37.930  1.00  0.00    -0.550 OA
ATOM      6  O   UNL     1      10.270   7.064  39.902  1.00  0.00    -0.550 OA
ENDBRANCH   3   4
ENDBRANCH   2   3
ENDBRANCH   1   2
BRANCH   1   7
ATOM      7  C   UNL     1      13.374   2.715  40.787  1.00  0.00     0.000 C 
BRANCH   7   8
ATOM      8  C   UNL     1      12.966   1.348  41.360  1.00  0.00    -0.000 C 
BRANCH   8   9
ATOM      9  C   UNL     1      13.465   1.139  42.799  1.00  0.00    -0.000 C 
BRANCH   9  10
ATOM     10  C   UNL     1      14.978   1.365  42.941  1.00  0.00    -0.003 C 
ATOM     11  C   UNL     1      15.608   0.314  43.850  1.00  0.00     0.004 C 
ENDBRANCH   9  10
ENDBRANCH   8   9
ENDBRANCH   7   8
ENDBRANCH   1   7
TORSDOF 7
ENDMDL
MODEL 6
REMARK VINA RESULT:    -4.077     15.226     16.322
REMARK INTER + INTRA:          -6.258
REMARK INTER:                  -5.960
REMARK INTRA:                  -0.298
REMARK UNBOUND:                -0.512
REMARK SMILES CCCCCCCCC(=O)[O-]
REMARK SMILES IDX 6 1 7 2 8 3 9 4 10 5 11 6 5 7 4 8 3 9 2 10 1 11
REMARK H PARENT
REMARK Flexibility Score: inf
ROOT
ATOM      1  C   UNL     1      23.210  -4.940  39.004  1.00  0.00     0.000 C 
ENDROOT
BRANCH   1   2
ATOM      2  C   UNL     1      24.651  -5.458  38.844  1.00  0.00     0.006 C 
BRANCH   2   3
ATOM      3  C   UNL     1      25.276  -5.856  40.187  1.00  0.00     0.053 C 
BRANCH   3   4
ATOM      4  C   UNL     1      26.443  -6.777  40.006  1.00  0.00     0.041 C 
ATOM      5  O   UNL     1      26.256  -8.010  39.832  1.00  0.00    -0.550 OA
ATOM      6  O   UNL     1      27.736  -6.267  39.994  1.00  0.00    -0.550 OA
ENDBRANCH   3   4
ENDBRANCH   2   3
ENDBRANCH   1   2
BRANCH   1   7
ATOM      7  C   UNL     1      22.888  -3.778  38.050  1.00  0.00     0.000 C 
BRANCH   7   8
ATOM      8  C   UNL     1      23.456  -4.000  36.637  1.00  0.00    -0.000 C 
BRANCH   8   9
ATOM      9  C   UNL     1      23.382  -2.735  35.766  1.00  0.00    -0.000 C 
BRANCH   9  10
ATOM     10  C   UNL     1      23.112  -1.465  36.587  1.00  0.00    -0.003 C 
ATOM     11  C   UNL     1      22.515  -0.364  35.715  1.00  0.00     0.004 C 
ENDBRANCH   9  10
ENDBRANCH   8   9
ENDBRANCH   7   8
ENDBRANCH   1   7
TORSDOF 7
ENDMDL
MODEL 7
REMARK VINA RESULT:    -4.072      8.091      9.451
REMARK INTER + INTRA:          -6.250
REMARK INTER:                  -5.908
REMARK INTRA:                  -0.342
REMARK UNBOUND:                -0.512
REMARK SMILES CCCCCCCCC(=O)[O-]
REMARK SMILES IDX 6 1 7 2 8 3 9 4 10 5 11 6 5 7 4 8 3 9 2 10 1 11
REMARK H PARENT
REMARK Flexibility Score: inf
ROOT
ATOM      1  C   UNL     1      16.493  -0.304  45.463  1.00  0.00     0.000 C 
ENDROOT
BRANCH   1   2
ATOM      2  C   UNL     1      15.939  -0.394  44.029  1.00  0.00     0.006 C 
BRANCH   2   3
ATOM      3  C   UNL     1      15.211   0.889  43.608  1.00  0.00     0.053 C 
BRANCH   3   4
ATOM      4  C   UNL     1      15.494   1.244  42.180  1.00  0.00     0.041 C 
ATOM      5  O   UNL     1      14.547   1.512  41.395  1.00  0.00    -0.550 OA
ATOM      6  O   UNL     1      16.805   1.313  41.727  1.00  0.00    -0.550 OA
ENDBRANCH   3   4
ENDBRANCH   2   3
ENDBRANCH   1   2
BRANCH   1   7
ATOM      7  C   UNL     1      18.014  -0.522  45.526  1.00  0.00     0.000 C 
BRANCH   7   8
ATOM      8  C   UNL     1      18.605  -0.949  44.172  1.00  0.00    -0.000 C 
BRANCH   8   9
ATOM      9  C   UNL     1      20.142  -0.909  44.160  1.00  0.00    -0.000 C 
BRANCH   9  10
ATOM     10  C   UNL     1      20.696   0.486  43.838  1.00  0.00    -0.003 C 
ATOM     11  C   UNL     1      22.157   0.609  44.262  1.00  0.00     0.004 C 
ENDBRANCH   9  10
ENDBRANCH   8   9
ENDBRANCH   7   8
ENDBRANCH   1   7
TORSDOF 7
ENDMDL
MODEL 8
REMARK VINA RESULT:    -4.045      9.449     10.355
REMARK INTER + INTRA:          -6.212
REMARK INTER:                  -5.704
REMARK INTRA:                  -0.508
REMARK UNBOUND:                -0.512
REMARK SMILES CCCCCCCCC(=O)[O-]
REMARK SMILES IDX 6 1 7 2 8 3 9 4 10 5 11 6 5 7 4 8 3 9 2 10 1 11
REMARK H PARENT
REMARK Flexibility Score: inf
ROOT
ATOM      1  C   UNL     1      20.645   2.511  36.133  1.00  0.00     0.000 C 
ENDROOT
BRANCH   1   2
ATOM      2  C   UNL     1      20.591   3.467  37.338  1.00  0.00     0.006 C 
BRANCH   2   3
ATOM      3  C   UNL     1      20.572   2.714  38.674  1.00  0.00     0.053 C 
BRANCH   3   4
ATOM      4  C   UNL     1      20.322   3.636  39.828  1.00  0.00     0.041 C 
ATOM      5  O   UNL     1      21.265   3.957  40.598  1.00  0.00    -0.550 OA
ATOM      6  O   UNL     1      19.054   4.168  40.031  1.00  0.00    -0.550 OA
ENDBRANCH   3   4
ENDBRANCH   2   3
ENDBRANCH   1   2
BRANCH   1   7
ATOM      7  C   UNL     1      21.783   2.851  35.156  1.00  0.00     0.000 C 
BRANCH   7   8
ATOM      8  C   UNL     1      22.464   1.596  34.584  1.00  0.00    -0.000 C 
BRANCH   8   9
ATOM      9  C   UNL     1      21.765   0.297  35.017  1.00  0.00    -0.000 C 
BRANCH   9  10
ATOM     10  C   UNL     1      22.682  -0.625  35.835  1.00  0.00    -0.003 C 
ATOM     11  C   UNL     1      22.132  -0.843  37.241  1.00  0.00     0.004 C 
ENDBRANCH   9  10
ENDBRANCH   8   9
ENDBRANCH   7   8
ENDBRANCH   1   7
TORSDOF 7
ENDMDL
MODEL 9
REMARK VINA RESULT:    -4.023      2.236      3.757
REMARK INTER + INTRA:          -6.182
REMARK INTER:                  -5.920
REMARK INTRA:                  -0.262
REMARK UNBOUND:                -0.512
REMARK SMILES CCCCCCCCC(=O)[O-]
REMARK SMILES IDX 6 1 7 2 8 3 9 4 10 5 11 6 5 7 4 8 3 9 2 10 1 11
REMARK H PARENT
REMARK Flexibility Score: inf
ROOT
ATOM      1  C   UNL     1      11.667   3.865  38.980  1.00  0.00     0.000 C 
ENDROOT
BRANCH   1   2
ATOM      2  C   UNL     1      11.462   5.139  38.140  1.00  0.00     0.006 C 
BRANCH   2   3
ATOM      3  C   UNL     1      10.619   6.189  38.877  1.00  0.00     0.053 C 
BRANCH   3   4
ATOM      4  C   UNL     1      11.474   7.134  39.664  1.00  0.00     0.041 C 
ATOM      5  O   UNL     1      11.034   7.656  40.722  1.00  0.00    -0.550 OA
ATOM      6  O   UNL     1      12.771   7.412  39.247  1.00  0.00    -0.550 OA
ENDBRANCH   3   4
ENDBRANCH   2   3
ENDBRANCH   1   2
BRANCH   1   7
ATOM      7  C   UNL     1      12.979   3.888  39.782  1.00  0.00     0.000 C 
BRANCH   7   8
ATOM      8  C   UNL     1      13.212   2.586  40.568  1.00  0.00    -0.000 C 
BRANCH   8   9
ATOM      9  C   UNL     1      14.643   2.477  41.118  1.00  0.00    -0.000 C 
BRANCH   9  10
ATOM     10  C   UNL     1      14.724   1.630  42.397  1.00  0.00    -0.003 C 
ATOM     11  C   UNL     1      13.358   1.058  42.764  1.00  0.00     0.004 C 
ENDBRANCH   9  10
ENDBRANCH   8   9
ENDBRANCH   7   8
ENDBRANCH   1   7
TORSDOF 7
ENDMDL
