MODEL 1
REMARK VINA RESULT:    -4.689      0.000      0.000
REMARK INTER + INTRA:          -9.468
REMARK INTER:                  -7.978
REMARK INTRA:                  -1.491
REMARK UNBOUND:                -1.491
REMARK SMILES CCCCCCCCCCCCCC(=O)[O-]
REMARK SMILES IDX 8 1 9 2 10 3 11 4 12 5 13 6 14 7 15 8 16 9 7 10 6 11 5 12
REMARK SMILES IDX 4 13 3 14 2 15 1 16
REMARK H PARENT
REMARK Flexibility Score: inf
ROOT
ATOM      1  C   UNL     1      11.712  12.549 -18.047  1.00  0.00     0.000 C 
ENDROOT
BRANCH   1   2
ATOM      2  C   UNL     1      12.136  13.999 -17.765  1.00  0.00     0.000 C 
BRANCH   2   3
ATOM      3  C   UNL     1      13.586  14.108 -17.267  1.00  0.00     0.000 C 
BRANCH   3   4
ATOM      4  C   UNL     1      14.131  15.544 -17.348  1.00  0.00     0.000 C 
BRANCH   4   5
ATOM      5  C   UNL     1      15.495  15.697 -16.655  1.00  0.00     0.006 C 
BRANCH   5   6
ATOM      6  C   UNL     1      16.163  14.349 -16.359  1.00  0.00     0.053 C 
BRANCH   6   7
ATOM      7  C   UNL     1      17.240  14.070 -17.360  1.00  0.00     0.041 C 
ATOM      8  O   UNL     1      17.508  14.914 -18.255  1.00  0.00    -0.550 OA
ATOM      9  O   UNL     1      17.914  12.855 -17.335  1.00  0.00    -0.550 OA
ENDBRANCH   6   7
ENDBRANCH   5   6
ENDBRANCH   4   5
ENDBRANCH   3   4
ENDBRANCH   2   3
ENDBRANCH   1   2
BRANCH   1  10
ATOM     10  C   UNL     1      10.725  12.483 -19.220  1.00  0.00     0.000 C 
BRANCH  10  11
ATOM     11  C   UNL     1      11.151  11.416 -20.238  1.00  0.00    -0.000 C 
BRANCH  11  12
ATOM     12  C   UNL     1      12.677  11.314 -20.386  1.00  0.00    -0.000 C 
BRANCH  12  13
ATOM     13  C   UNL     1      13.135  11.355 -21.853  1.00  0.00    -0.000 C 
BRANCH  13  14
ATOM     14  C   UNL     1      14.010  12.589 -22.118  1.00  0.00    -0.000 C 
BRANCH  14  15
ATOM     15  C   UNL     1      14.040  13.560 -20.928  1.00  0.00    -0.003 C 
ATOM     16  C   UNL     1      13.263  14.848 -21.196  1.00  0.00     0.004 C 
ENDBRANCH  14  15
ENDBRANCH  13  14
ENDBRANCH  12  13
ENDBRANCH  11  12
ENDBRANCH  10  11
ENDBRANCH   1  10
TORSDOF 12
ENDMDL
MODEL 2
REMARK VINA RESULT:    -4.661      0.883      2.582
REMARK INTER + INTRA:          -9.422
REMARK INTER:                  -7.660
REMARK INTRA:                  -1.763
REMARK UNBOUND:                -1.491
REMARK SMILES CCCCCCCCCCCCCC(=O)[O-]
REMARK SMILES IDX 8 1 9 2 10 3 11 4 12 5 13 6 14 7 15 8 16 9 7 10 6 11 5 12
REMARK SMILES IDX 4 13 3 14 2 15 1 16
REMARK H PARENT
REMARK Flexibility Score: inf
ROOT
ATOM      1  C   UNL     1      14.317  14.419 -20.219  1.00  0.00     0.000 C 
ENDROOT
BRANCH   1   2
ATOM      2  C   UNL     1      13.682  15.624 -19.507  1.00  0.00     0.000 C 
BRANCH   2   3
ATOM      3  C   UNL     1      13.456  15.378 -18.007  1.00  0.00     0.000 C 
BRANCH   3   4
ATOM      4  C   UNL     1      13.934  13.986 -17.559  1.00  0.00     0.000 C 
BRANCH   4   5
ATOM      5  C   UNL     1      14.917  14.052 -16.378  1.00  0.00     0.006 C 
BRANCH   5   6
ATOM      6  C   UNL     1      15.995  15.127 -16.564  1.00  0.00     0.053 C 
BRANCH   6   7
ATOM      7  C   UNL     1      17.123  14.597 -17.393  1.00  0.00     0.041 C 
ATOM      8  O   UNL     1      17.358  15.085 -18.529  1.00  0.00    -0.550 OA
ATOM      9  O   UNL     1      17.883  13.530 -16.930  1.00  0.00    -0.550 OA
ENDBRANCH   6   7
ENDBRANCH   5   6
ENDBRANCH   4   5
ENDBRANCH   3   4
ENDBRANCH   2   3
ENDBRANCH   1   2
BRANCH   1  10
ATOM     10  C   UNL     1      13.405  13.898 -21.336  1.00  0.00     0.000 C 
BRANCH  10  11
ATOM     11  C   UNL     1      13.949  12.588 -21.924  1.00  0.00    -0.000 C 
BRANCH  11  12
ATOM     12  C   UNL     1      13.013  11.394 -21.677  1.00  0.00    -0.000 C 
BRANCH  12  13
ATOM     13  C   UNL     1      12.585  11.269 -20.207  1.00  0.00    -0.000 C 
BRANCH  13  14
ATOM     14  C   UNL     1      11.086  11.558 -20.046  1.00  0.00    -0.000 C 
BRANCH  14  15
ATOM     15  C   UNL     1      10.786  12.488 -18.860  1.00  0.00    -0.003 C 
ATOM     16  C   UNL     1      10.252  13.851 -19.298  1.00  0.00     0.004 C 
ENDBRANCH  14  15
ENDBRANCH  13  14
ENDBRANCH  12  13
ENDBRANCH  11  12
ENDBRANCH  10  11
ENDBRANCH   1  10
TORSDOF 12
ENDMDL
MODEL 3
REMARK VINA RESULT:    -4.484      1.912      3.726
REMARK INTER + INTRA:          -9.120
REMARK INTER:                  -7.951
REMARK INTRA:                  -1.170
REMARK UNBOUND:                -1.491
REMARK SMILES CCCCCCCCCCCCCC(=O)[O-]
REMARK SMILES IDX 8 1 9 2 10 3 11 4 12 5 13 6 14 7 15 8 16 9 7 10 6 11 5 12
REMARK SMILES IDX 4 13 3 14 2 15 1 16
REMARK H PARENT
REMARK Flexibility Score: inf
ROOT
ATOM      1  C   UNL     1      15.672  13.557 -20.123  1.00  0.00     0.000 C 
ENDROOT
BRANCH   1   2
ATOM      2  C   UNL     1      17.134  13.804 -19.720  1.00  0.00     0.000 C 
BRANCH   2   3
ATOM      3  C   UNL     1      17.266  14.734 -18.503  1.00  0.00     0.000 C 
BRANCH   3   4
ATOM      4  C   UNL     1      17.604  13.970 -17.211  1.00  0.00     0.000 C 
BRANCH   4   5
ATOM      5  C   UNL     1      16.384  13.805 -16.288  1.00  0.00     0.006 C 
BRANCH   5   6
ATOM      6  C   UNL     1      15.483  15.045 -16.270  1.00  0.00     0.053 C 
BRANCH   6   7
ATOM      7  C   UNL     1      14.096  14.688 -16.706  1.00  0.00     0.041 C 
ATOM      8  O   UNL     1      13.775  13.482 -16.871  1.00  0.00    -0.550 OA
ATOM      9  O   UNL     1      13.174  15.691 -16.978  1.00  0.00    -0.550 OA
ENDBRANCH   6   7
ENDBRANCH   5   6
ENDBRANCH   4   5
ENDBRANCH   3   4
ENDBRANCH   2   3
ENDBRANCH   1   2
BRANCH   1  10
ATOM     10  C   UNL     1      15.556  12.339 -21.048  1.00  0.00     0.000 C 
BRANCH  10  11
ATOM     11  C   UNL     1      14.467  12.557 -22.110  1.00  0.00    -0.000 C 
BRANCH  11  12
ATOM     12  C   UNL     1      13.330  11.528 -22.011  1.00  0.00    -0.000 C 
BRANCH  12  13
ATOM     13  C   UNL     1      12.950  11.200 -20.559  1.00  0.00    -0.000 C 
BRANCH  13  14
ATOM     14  C   UNL     1      11.449  11.417 -20.323  1.00  0.00    -0.000 C 
BRANCH  14  15
ATOM     15  C   UNL     1      11.166  12.426 -19.199  1.00  0.00    -0.003 C 
ATOM     16  C   UNL     1      11.541  13.856 -19.581  1.00  0.00     0.004 C 
ENDBRANCH  14  15
ENDBRANCH  13  14
ENDBRANCH  12  13
ENDBRANCH  11  12
ENDBRANCH  10  11
ENDBRANCH   1  10
TORSDOF 12
ENDMDL
MODEL 4
REMARK VINA RESULT:    -4.452      1.157      2.117
REMARK INTER + INTRA:          -9.066
REMARK INTER:                  -7.623
REMARK INTRA:                  -1.442
REMARK UNBOUND:                -1.491
REMARK SMILES CCCCCCCCCCCCCC(=O)[O-]
REMARK SMILES IDX 8 1 9 2 10 3 11 4 12 5 13 6 14 7 15 8 16 9 7 10 6 11 5 12
REMARK SMILES IDX 4 13 3 14 2 15 1 16
REMARK H PARENT
REMARK Flexibility Score: inf
ROOT
ATOM      1  C   UNL     1      11.391  15.389 -19.180  1.00  0.00     0.000 C 
ENDROOT
BRANCH   1   2
ATOM      2  C   UNL     1      12.240  15.716 -17.941  1.00  0.00     0.000 C 
BRANCH   2   3
ATOM      3  C   UNL     1      13.708  15.289 -18.096  1.00  0.00     0.000 C 
BRANCH   3   4
ATOM      4  C   UNL     1      14.003  13.936 -17.425  1.00  0.00     0.000 C 
BRANCH   4   5
ATOM      5  C   UNL     1      14.996  14.061 -16.257  1.00  0.00     0.006 C 
BRANCH   5   6
ATOM      6  C   UNL     1      16.110  15.078 -16.534  1.00  0.00     0.053 C 
BRANCH   6   7
ATOM      7  C   UNL     1      17.195  14.454 -17.355  1.00  0.00     0.041 C 
ATOM      8  O   UNL     1      17.866  13.494 -16.893  1.00  0.00    -0.550 OA
ATOM      9  O   UNL     1      17.498  14.966 -18.610  1.00  0.00    -0.550 OA
ENDBRANCH   6   7
ENDBRANCH   5   6
ENDBRANCH   4   5
ENDBRANCH   3   4
ENDBRANCH   2   3
ENDBRANCH   1   2
BRANCH   1  10
ATOM     10  C   UNL     1      10.104  14.654 -18.785  1.00  0.00     0.000 C 
BRANCH  10  11
ATOM     11  C   UNL     1      10.414  13.249 -18.249  1.00  0.00    -0.000 C 
BRANCH  11  12
ATOM     12  C   UNL     1      10.618  12.219 -19.370  1.00  0.00    -0.000 C 
BRANCH  12  13
ATOM     13  C   UNL     1      12.051  11.666 -19.415  1.00  0.00    -0.000 C 
BRANCH  13  14
ATOM     14  C   UNL     1      12.579  11.630 -20.856  1.00  0.00    -0.000 C 
BRANCH  14  15
ATOM     15  C   UNL     1      13.593  12.748 -21.143  1.00  0.00    -0.003 C 
ATOM     16  C   UNL     1      14.485  12.443 -22.345  1.00  0.00     0.004 C 
ENDBRANCH  14  15
ENDBRANCH  13  14
ENDBRANCH  12  13
ENDBRANCH  11  12
ENDBRANCH  10  11
ENDBRANCH   1  10
TORSDOF 12
ENDMDL
MODEL 5
REMARK VINA RESULT:    -4.418      1.441      2.804
REMARK INTER + INTRA:          -9.007
REMARK INTER:                  -7.503
REMARK INTRA:                  -1.504
REMARK UNBOUND:                -1.491
REMARK SMILES CCCCCCCCCCCCCC(=O)[O-]
REMARK SMILES IDX 8 1 9 2 10 3 11 4 12 5 13 6 14 7 15 8 16 9 7 10 6 11 5 12
REMARK SMILES IDX 4 13 3 14 2 15 1 16
REMARK H PARENT
REMARK Flexibility Score: inf
ROOT
ATOM      1  C   UNL     1      12.398  16.933 -17.679  1.00  0.00     0.000 C 
ENDROOT
BRANCH   1   2
ATOM      2  C   UNL     1      12.585  16.921 -16.154  1.00  0.00     0.000 C 
BRANCH   2   3
ATOM      3  C   UNL     1      13.973  17.419 -15.721  1.00  0.00     0.000 C 
BRANCH   3   4
ATOM      4  C   UNL     1      14.951  17.543 -16.903  1.00  0.00     0.000 C 
BRANCH   4   5
ATOM      5  C   UNL     1      16.290  16.834 -16.638  1.00  0.00     0.006 C 
BRANCH   5   6
ATOM      6  C   UNL     1      16.149  15.309 -16.571  1.00  0.00     0.053 C 
BRANCH   6   7
ATOM      7  C   UNL     1      17.174  14.651 -17.441  1.00  0.00     0.041 C 
ATOM      8  O   UNL     1      17.396  15.088 -18.600  1.00  0.00    -0.550 OA
ATOM      9  O   UNL     1      17.848  13.523 -16.989  1.00  0.00    -0.550 OA
ENDBRANCH   6   7
ENDBRANCH   5   6
ENDBRANCH   4   5
ENDBRANCH   3   4
ENDBRANCH   2   3
ENDBRANCH   1   2
BRANCH   1  10
ATOM     10  C   UNL     1      11.902  15.572 -18.182  1.00  0.00     0.000 C 
BRANCH  10  11
ATOM     11  C   UNL     1      13.073  14.599 -18.381  1.00  0.00    -0.000 C 
BRANCH  11  12
ATOM     12  C   UNL     1      13.847  14.862 -19.682  1.00  0.00    -0.000 C 
BRANCH  12  13
ATOM     13  C   UNL     1      14.522  13.598 -20.237  1.00  0.00    -0.000 C 
BRANCH  13  14
ATOM     14  C   UNL     1      13.757  13.058 -21.454  1.00  0.00    -0.000 C 
BRANCH  14  15
ATOM     15  C   UNL     1      13.348  11.586 -21.290  1.00  0.00    -0.003 C 
ATOM     16  C   UNL     1      12.156  11.405 -20.351  1.00  0.00     0.004 C 
ENDBRANCH  14  15
ENDBRANCH  13  14
ENDBRANCH  12  13
ENDBRANCH  11  12
ENDBRANCH  10  11
ENDBRANCH   1  10
TORSDOF 12
ENDMDL
MODEL 6
REMARK VINA RESULT:    -4.414      2.849      5.538
REMARK INTER + INTRA:          -9.001
REMARK INTER:                  -7.314
REMARK INTRA:                  -1.687
REMARK UNBOUND:                -1.491
REMARK SMILES CCCCCCCCCCCCCC(=O)[O-]
REMARK SMILES IDX 8 1 9 2 10 3 11 4 12 5 13 6 14 7 15 8 16 9 7 10 6 11 5 12
REMARK SMILES IDX 4 13 3 14 2 15 1 16
REMARK H PARENT
REMARK Flexibility Score: inf
ROOT
ATOM      1  C   UNL     1      14.209  12.532 -21.017  1.00  0.00     0.000 C 
ENDROOT
BRANCH   1   2
ATOM      2  C   UNL     1      13.310  11.289 -21.102  1.00  0.00     0.000 C 
BRANCH   2   3
ATOM      3  C   UNL     1      11.986  11.460 -20.339  1.00  0.00     0.000 C 
BRANCH   3   4
ATOM      4  C   UNL     1      12.190  11.559 -18.818  1.00  0.00     0.000 C 
BRANCH   4   5
ATOM      5  C   UNL     1      11.086  12.377 -18.127  1.00  0.00     0.006 C 
BRANCH   5   6
ATOM      6  C   UNL     1      10.290  13.246 -19.108  1.00  0.00     0.053 C 
BRANCH   6   7
ATOM      7  C   UNL     1      10.170  14.644 -18.588  1.00  0.00     0.041 C 
ATOM      8  O   UNL     1       9.818  15.577 -19.356  1.00  0.00    -0.550 OA
ATOM      9  O   UNL     1      10.494  14.924 -17.266  1.00  0.00    -0.550 OA
ENDBRANCH   6   7
ENDBRANCH   5   6
ENDBRANCH   4   5
ENDBRANCH   3   4
ENDBRANCH   2   3
ENDBRANCH   1   2
BRANCH   1  10
ATOM     10  C   UNL     1      13.424  13.803 -21.366  1.00  0.00     0.000 C 
BRANCH  10  11
ATOM     11  C   UNL     1      13.521  14.837 -20.234  1.00  0.00    -0.000 C 
BRANCH  11  12
ATOM     12  C   UNL     1      14.691  14.560 -19.277  1.00  0.00    -0.000 C 
BRANCH  12  13
ATOM     13  C   UNL     1      14.251  14.492 -17.806  1.00  0.00    -0.000 C 
BRANCH  13  14
ATOM     14  C   UNL     1      15.458  14.626 -16.867  1.00  0.00    -0.000 C 
BRANCH  14  15
ATOM     15  C   UNL     1      16.799  14.463 -17.600  1.00  0.00    -0.003 C 
ATOM     16  C   UNL     1      17.690  13.395 -16.969  1.00  0.00     0.004 C 
ENDBRANCH  14  15
ENDBRANCH  13  14
ENDBRANCH  12  13
ENDBRANCH  11  12
ENDBRANCH  10  11
ENDBRANCH   1  10
TORSDOF 12
ENDMDL
MODEL 7
REMARK VINA RESULT:    -4.406      1.373      3.199
REMARK INTER + INTRA:          -8.988
REMARK INTER:                  -7.002
REMARK INTRA:                  -1.986
REMARK UNBOUND:                -1.491
REMARK SMILES CCCCCCCCCCCCCC(=O)[O-]
REMARK SMILES IDX 8 1 9 2 10 3 11 4 12 5 13 6 14 7 15 8 16 9 7 10 6 11 5 12
REMARK SMILES IDX 4 13 3 14 2 15 1 16
REMARK H PARENT
REMARK Flexibility Score: inf
ROOT
ATOM      1  C   UNL     1      12.881  15.121 -20.752  1.00  0.00     0.000 C 
ENDROOT
BRANCH   1   2
ATOM      2  C   UNL     1      13.903  14.754 -19.665  1.00  0.00     0.000 C 
BRANCH   2   3
ATOM      3  C   UNL     1      13.868  15.715 -18.467  1.00  0.00     0.000 C 
BRANCH   3   4
ATOM      4  C   UNL     1      13.618  14.989 -17.134  1.00  0.00     0.000 C 
BRANCH   4   5
ATOM      5  C   UNL     1      14.814  14.123 -16.701  1.00  0.00     0.006 C 
BRANCH   5   6
ATOM      6  C   UNL     1      16.095  14.941 -16.502  1.00  0.00     0.053 C 
BRANCH   6   7
ATOM      7  C   UNL     1      17.199  14.399 -17.356  1.00  0.00     0.041 C 
ATOM      8  O   UNL     1      17.913  13.450 -16.940  1.00  0.00    -0.550 OA
ATOM      9  O   UNL     1      17.469  14.977 -18.590  1.00  0.00    -0.550 OA
ENDBRANCH   6   7
ENDBRANCH   5   6
ENDBRANCH   4   5
ENDBRANCH   3   4
ENDBRANCH   2   3
ENDBRANCH   1   2
BRANCH   1  10
ATOM     10  C   UNL     1      11.732  15.952 -20.167  1.00  0.00     0.000 C 
BRANCH  10  11
ATOM     11  C   UNL     1      10.471  15.096 -19.982  1.00  0.00    -0.000 C 
BRANCH  11  12
ATOM     12  C   UNL     1      10.096  14.905 -18.504  1.00  0.00    -0.000 C 
BRANCH  12  13
ATOM     13  C   UNL     1      10.411  13.492 -17.990  1.00  0.00    -0.000 C 
BRANCH  13  14
ATOM     14  C   UNL     1      10.586  12.510 -19.157  1.00  0.00    -0.000 C 
BRANCH  14  15
ATOM     15  C   UNL     1      11.925  11.759 -19.104  1.00  0.00    -0.003 C 
ATOM     16  C   UNL     1      12.450  11.387 -20.489  1.00  0.00     0.004 C 
ENDBRANCH  14  15
ENDBRANCH  13  14
ENDBRANCH  12  13
ENDBRANCH  11  12
ENDBRANCH  10  11
ENDBRANCH   1  10
TORSDOF 12
ENDMDL
MODEL 8
REMARK VINA RESULT:    -4.332      3.347      5.599
REMARK INTER + INTRA:          -8.862
REMARK INTER:                  -7.170
REMARK INTRA:                  -1.692
REMARK UNBOUND:                -1.491
REMARK SMILES CCCCCCCCCCCCCC(=O)[O-]
REMARK SMILES IDX 8 1 9 2 10 3 11 4 12 5 13 6 14 7 15 8 16 9 7 10 6 11 5 12
REMARK SMILES IDX 4 13 3 14 2 15 1 16
REMARK H PARENT
REMARK Flexibility Score: inf
ROOT
ATOM      1  C   UNL     1      16.359  16.592 -16.542  1.00  0.00     0.000 C 
ENDROOT
BRANCH   1   2
ATOM      2  C   UNL     1      15.637  17.489 -17.559  1.00  0.00     0.000 C 
BRANCH   2   3
ATOM      3  C   UNL     1      14.288  18.011 -17.039  1.00  0.00     0.000 C 
BRANCH   3   4
ATOM      4  C   UNL     1      13.941  17.464 -15.643  1.00  0.00     0.000 C 
BRANCH   4   5
ATOM      5  C   UNL     1      12.633  16.656 -15.635  1.00  0.00     0.006 C 
BRANCH   5   6
ATOM      6  C   UNL     1      11.811  16.847 -16.915  1.00  0.00     0.053 C 
BRANCH   6   7
ATOM      7  C   UNL     1      10.433  16.290 -16.739  1.00  0.00     0.041 C 
ATOM      8  O   UNL     1       9.933  15.547 -17.624  1.00  0.00    -0.550 OA
ATOM      9  O   UNL     1       9.682  16.632 -15.621  1.00  0.00    -0.550 OA
ENDBRANCH   6   7
ENDBRANCH   5   6
ENDBRANCH   4   5
ENDBRANCH   3   4
ENDBRANCH   2   3
ENDBRANCH   1   2
BRANCH   1  10
ATOM     10  C   UNL     1      16.593  15.189 -17.116  1.00  0.00     0.000 C 
BRANCH  10  11
ATOM     11  C   UNL     1      16.138  14.107 -16.126  1.00  0.00    -0.000 C 
BRANCH  11  12
ATOM     12  C   UNL     1      14.660  13.725 -16.304  1.00  0.00    -0.000 C 
BRANCH  12  13
ATOM     13  C   UNL     1      14.142  14.005 -17.723  1.00  0.00    -0.000 C 
BRANCH  13  14
ATOM     14  C   UNL     1      12.754  13.383 -17.932  1.00  0.00    -0.000 C 
BRANCH  14  15
ATOM     15  C   UNL     1      12.394  13.223 -19.417  1.00  0.00    -0.003 C 
ATOM     16  C   UNL     1      12.223  11.762 -19.830  1.00  0.00     0.004 C 
ENDBRANCH  14  15
ENDBRANCH  13  14
ENDBRANCH  12  13
ENDBRANCH  11  12
ENDBRANCH  10  11
ENDBRANCH   1  10
TORSDOF 12
ENDMDL
MODEL 9
REMARK VINA RESULT:    -4.301      1.458      2.285
REMARK INTER + INTRA:          -8.809
REMARK INTER:                  -7.083
REMARK INTRA:                  -1.726
REMARK UNBOUND:                -1.491
REMARK SMILES CCCCCCCCCCCCCC(=O)[O-]
REMARK SMILES IDX 8 1 9 2 10 3 11 4 12 5 13 6 14 7 15 8 16 9 7 10 6 11 5 12
REMARK SMILES IDX 4 13 3 14 2 15 1 16
REMARK H PARENT
REMARK Flexibility Score: inf
ROOT
ATOM      1  C   UNL     1      11.127  15.193 -20.168  1.00  0.00     0.000 C 
ENDROOT
BRANCH   1   2
ATOM      2  C   UNL     1      12.321  15.716 -19.353  1.00  0.00     0.000 C 
BRANCH   2   3
ATOM      3  C   UNL     1      13.655  15.592 -20.106  1.00  0.00     0.000 C 
BRANCH   3   4
ATOM      4  C   UNL     1      14.761  14.954 -19.247  1.00  0.00     0.000 C 
BRANCH   4   5
ATOM      5  C   UNL     1      14.255  14.522 -17.860  1.00  0.00     0.006 C 
BRANCH   5   6
ATOM      6  C   UNL     1      15.075  15.128 -16.715  1.00  0.00     0.053 C 
BRANCH   6   7
ATOM      7  C   UNL     1      16.354  14.372 -16.533  1.00  0.00     0.041 C 
ATOM      8  O   UNL     1      17.395  14.731 -17.144  1.00  0.00    -0.550 OA
ATOM      9  O   UNL     1      16.384  13.241 -15.727  1.00  0.00    -0.550 OA
ENDBRANCH   6   7
ENDBRANCH   5   6
ENDBRANCH   4   5
ENDBRANCH   3   4
ENDBRANCH   2   3
ENDBRANCH   1   2
BRANCH   1  10
ATOM     10  C   UNL     1      10.087  14.531 -19.255  1.00  0.00     0.000 C 
BRANCH  10  11
ATOM     11  C   UNL     1      10.676  13.298 -18.554  1.00  0.00    -0.000 C 
BRANCH  11  12
ATOM     12  C   UNL     1      10.904  12.122 -19.517  1.00  0.00    -0.000 C 
BRANCH  12  13
ATOM     13  C   UNL     1      12.394  11.801 -19.718  1.00  0.00    -0.000 C 
BRANCH  13  14
ATOM     14  C   UNL     1      12.678  11.417 -21.177  1.00  0.00    -0.000 C 
BRANCH  14  15
ATOM     15  C   UNL     1      13.567  12.443 -21.897  1.00  0.00    -0.003 C 
ATOM     16  C   UNL     1      15.048  12.284 -21.557  1.00  0.00     0.004 C 
ENDBRANCH  14  15
ENDBRANCH  13  14
ENDBRANCH  12  13
ENDBRANCH  11  12
ENDBRANCH  10  11
ENDBRANCH   1  10
TORSDOF 12
ENDMDL
