MODEL 1
REMARK VINA RESULT:    -3.574      0.000      0.000
REMARK INTER + INTRA:          -5.788
REMARK INTER:                  -5.141
REMARK INTRA:                  -0.647
REMARK UNBOUND:                -0.647
REMARK SMILES CCCCCCCCCO
REMARK SMILES IDX 6 1 5 2 4 3 3 4 2 5 1 6 7 7 8 8 9 9 10 10
REMARK H PARENT 10 11
REMARK Flexibility Score: inf
ROOT
ATOM      1  C   UNL     1     174.386 174.252 151.914  1.00  0.00     0.000 C 
ENDROOT
BRANCH   1   2
ATOM      2  C   UNL     1     174.834 173.910 150.482  1.00  0.00     0.000 C 
BRANCH   2   3
ATOM      3  C   UNL     1     173.735 173.202 149.673  1.00  0.00    -0.000 C 
BRANCH   3   4
ATOM      4  C   UNL     1     173.490 171.754 150.136  1.00  0.00    -0.000 C 
BRANCH   4   5
ATOM      5  C   UNL     1     174.762 170.924 150.378  1.00  0.00    -0.003 C 
ATOM      6  C   UNL     1     174.765 170.212 151.731  1.00  0.00     0.004 C 
ENDBRANCH   4   5
ENDBRANCH   3   4
ENDBRANCH   2   3
ENDBRANCH   1   2
BRANCH   1   7
ATOM      7  C   UNL     1     175.424 173.848 152.972  1.00  0.00     0.002 C 
BRANCH   7   8
ATOM      8  C   UNL     1     174.736 173.350 154.251  1.00  0.00     0.028 C 
BRANCH   8   9
ATOM      9  C   UNL     1     173.214 173.507 154.176  1.00  0.00     0.156 C 
BRANCH   9  10
ATOM     10  O   UNL     1     172.774 174.538 155.020  1.00  0.00    -0.396 OA
ATOM     11  H   UNL     1     171.788 174.443 155.093  1.00  0.00     0.210 HD
ENDBRANCH   9  10
ENDBRANCH   8   9
ENDBRANCH   7   8
ENDBRANCH   1   7
TORSDOF 8
ENDMDL
MODEL 2
REMARK VINA RESULT:    -3.508      1.540      2.439
REMARK INTER + INTRA:          -5.693
REMARK INTER:                  -4.963
REMARK INTRA:                  -0.730
REMARK UNBOUND:                -0.647
REMARK SMILES CCCCCCCCCO
REMARK SMILES IDX 6 1 5 2 4 3 3 4 2 5 1 6 7 7 8 8 9 9 10 10
REMARK H PARENT 10 11
REMARK Flexibility Score: inf
ROOT
ATOM      1  C   UNL     1     174.772 172.888 151.866  1.00  0.00     0.000 C 
ENDROOT
BRANCH   1   2
ATOM      2  C   UNL     1     174.802 173.128 150.347  1.00  0.00     0.000 C 
BRANCH   2   3
ATOM      3  C   UNL     1     173.411 173.438 149.770  1.00  0.00    -0.000 C 
BRANCH   3   4
ATOM      4  C   UNL     1     172.285 172.657 150.471  1.00  0.00    -0.000 C 
BRANCH   4   5
ATOM      5  C   UNL     1     171.205 173.527 151.136  1.00  0.00    -0.003 C 
ATOM      6  C   UNL     1     171.588 175.004 151.213  1.00  0.00     0.004 C 
ENDBRANCH   4   5
ENDBRANCH   3   4
ENDBRANCH   2   3
ENDBRANCH   1   2
BRANCH   1   7
ATOM      7  C   UNL     1     175.071 174.160 152.674  1.00  0.00     0.002 C 
BRANCH   7   8
ATOM      8  C   UNL     1     174.732 173.957 154.158  1.00  0.00     0.028 C 
BRANCH   8   9
ATOM      9  C   UNL     1     173.304 173.433 154.348  1.00  0.00     0.156 C 
BRANCH   9  10
ATOM     10  O   UNL     1     172.423 174.479 154.657  1.00  0.00    -0.396 OA
ATOM     11  H   UNL     1     172.565 174.696 155.616  1.00  0.00     0.210 HD
ENDBRANCH   9  10
ENDBRANCH   8   9
ENDBRANCH   7   8
ENDBRANCH   1   7
TORSDOF 8
ENDMDL
MODEL 3
REMARK VINA RESULT:    -3.498      0.849      2.388
REMARK INTER + INTRA:          -5.679
REMARK INTER:                  -4.864
REMARK INTRA:                  -0.815
REMARK UNBOUND:                -0.647
REMARK SMILES CCCCCCCCCO
REMARK SMILES IDX 6 1 5 2 4 3 3 4 2 5 1 6 7 7 8 8 9 9 10 10
REMARK H PARENT 10 11
REMARK Flexibility Score: inf
ROOT
ATOM      1  C   UNL     1     174.037 171.468 152.850  1.00  0.00     0.000 C 
ENDROOT
BRANCH   1   2
ATOM      2  C   UNL     1     174.691 170.565 151.791  1.00  0.00     0.000 C 
BRANCH   2   3
ATOM      3  C   UNL     1     174.705 171.207 150.394  1.00  0.00    -0.000 C 
BRANCH   3   4
ATOM      4  C   UNL     1     173.421 172.001 150.088  1.00  0.00    -0.000 C 
BRANCH   4   5
ATOM      5  C   UNL     1     173.639 173.488 149.760  1.00  0.00    -0.003 C 
ATOM      6  C   UNL     1     175.081 173.945 149.977  1.00  0.00     0.004 C 
ENDBRANCH   4   5
ENDBRANCH   3   4
ENDBRANCH   2   3
ENDBRANCH   1   2
BRANCH   1   7
ATOM      7  C   UNL     1     175.063 172.299 153.638  1.00  0.00     0.002 C 
BRANCH   7   8
ATOM      8  C   UNL     1     174.628 173.769 153.721  1.00  0.00     0.028 C 
BRANCH   8   9
ATOM      9  C   UNL     1     173.133 173.937 153.428  1.00  0.00     0.156 C 
BRANCH   9  10
ATOM     10  O   UNL     1     172.457 174.443 154.548  1.00  0.00    -0.396 OA
ATOM     11  H   UNL     1     171.678 173.847 154.703  1.00  0.00     0.210 HD
ENDBRANCH   9  10
ENDBRANCH   8   9
ENDBRANCH   7   8
ENDBRANCH   1   7
TORSDOF 8
ENDMDL
MODEL 4
REMARK VINA RESULT:    -3.400      1.260      2.039
REMARK INTER + INTRA:          -5.537
REMARK INTER:                  -4.879
REMARK INTRA:                  -0.658
REMARK UNBOUND:                -0.647
REMARK SMILES CCCCCCCCCO
REMARK SMILES IDX 6 1 5 2 4 3 3 4 2 5 1 6 7 7 8 8 9 9 10 10
REMARK H PARENT 10 11
REMARK Flexibility Score: inf
ROOT
ATOM      1  C   UNL     1     174.486 173.498 149.645  1.00  0.00     0.000 C 
ENDROOT
BRANCH   1   2
ATOM      2  C   UNL     1     173.122 172.964 150.114  1.00  0.00     0.000 C 
BRANCH   2   3
ATOM      3  C   UNL     1     173.003 171.438 149.967  1.00  0.00    -0.000 C 
BRANCH   3   4
ATOM      4  C   UNL     1     173.346 170.684 151.265  1.00  0.00    -0.000 C 
BRANCH   4   5
ATOM      5  C   UNL     1     174.845 170.424 151.489  1.00  0.00    -0.003 C 
ATOM      6  C   UNL     1     175.585 170.035 150.210  1.00  0.00     0.004 C 
ENDBRANCH   4   5
ENDBRANCH   3   4
ENDBRANCH   2   3
ENDBRANCH   1   2
BRANCH   1   7
ATOM      7  C   UNL     1     175.240 174.252 150.752  1.00  0.00     0.002 C 
BRANCH   7   8
ATOM      8  C   UNL     1     174.491 174.154 152.089  1.00  0.00     0.028 C 
BRANCH   8   9
ATOM      9  C   UNL     1     175.456 174.113 153.279  1.00  0.00     0.156 C 
BRANCH   9  10
ATOM     10  O   UNL     1     174.815 174.519 154.459  1.00  0.00    -0.396 OA
ATOM     11  H   UNL     1     175.289 174.072 155.208  1.00  0.00     0.210 HD
ENDBRANCH   9  10
ENDBRANCH   8   9
ENDBRANCH   7   8
ENDBRANCH   1   7
TORSDOF 8
ENDMDL
MODEL 5
REMARK VINA RESULT:    -3.340      2.427      4.006
REMARK INTER + INTRA:          -5.451
REMARK INTER:                  -4.820
REMARK INTRA:                  -0.632
REMARK UNBOUND:                -0.647
REMARK SMILES CCCCCCCCCO
REMARK SMILES IDX 6 1 5 2 4 3 3 4 2 5 1 6 7 7 8 8 9 9 10 10
REMARK H PARENT 10 11
REMARK Flexibility Score: inf
ROOT
ATOM      1  C   UNL     1     175.183 171.053 150.126  1.00  0.00     0.000 C 
ENDROOT
BRANCH   1   2
ATOM      2  C   UNL     1     173.858 171.830 150.215  1.00  0.00     0.000 C 
BRANCH   2   3
ATOM      3  C   UNL     1     173.993 173.283 149.729  1.00  0.00    -0.000 C 
BRANCH   3   4
ATOM      4  C   UNL     1     174.845 174.153 150.672  1.00  0.00    -0.000 C 
BRANCH   4   5
ATOM      5  C   UNL     1     174.349 174.214 152.126  1.00  0.00    -0.003 C 
ATOM      6  C   UNL     1     175.378 173.701 153.133  1.00  0.00     0.004 C 
ENDBRANCH   4   5
ENDBRANCH   3   4
ENDBRANCH   2   3
ENDBRANCH   1   2
BRANCH   1   7
ATOM      7  C   UNL     1     175.224 169.842 151.071  1.00  0.00     0.002 C 
BRANCH   7   8
ATOM      8  C   UNL     1     174.449 170.130 152.364  1.00  0.00     0.028 C 
BRANCH   8   9
ATOM      9  C   UNL     1     175.044 169.384 153.563  1.00  0.00     0.156 C 
BRANCH   9  10
ATOM     10  O   UNL     1     176.125 168.581 153.167  1.00  0.00    -0.396 OA
ATOM     11  H   UNL     1     175.891 167.648 153.416  1.00  0.00     0.210 HD
ENDBRANCH   9  10
ENDBRANCH   8   9
ENDBRANCH   7   8
ENDBRANCH   1   7
TORSDOF 8
ENDMDL
MODEL 6
REMARK VINA RESULT:    -3.298      3.257      4.951
REMARK INTER + INTRA:          -5.391
REMARK INTER:                  -4.970
REMARK INTRA:                  -0.421
REMARK UNBOUND:                -0.647
REMARK SMILES CCCCCCCCCO
REMARK SMILES IDX 6 1 5 2 4 3 3 4 2 5 1 6 7 7 8 8 9 9 10 10
REMARK H PARENT 10 11
REMARK Flexibility Score: inf
ROOT
ATOM      1  C   UNL     1     173.618 171.134 150.365  1.00  0.00     0.000 C 
ENDROOT
BRANCH   1   2
ATOM      2  C   UNL     1     173.283 172.622 150.171  1.00  0.00     0.000 C 
BRANCH   2   3
ATOM      3  C   UNL     1     174.507 173.455 149.756  1.00  0.00    -0.000 C 
BRANCH   3   4
ATOM      4  C   UNL     1     175.103 174.264 150.922  1.00  0.00    -0.000 C 
BRANCH   4   5
ATOM      5  C   UNL     1     174.382 174.093 152.270  1.00  0.00    -0.003 C 
ATOM      6  C   UNL     1     175.286 173.532 153.367  1.00  0.00     0.004 C 
ENDBRANCH   4   5
ENDBRANCH   3   4
ENDBRANCH   2   3
ENDBRANCH   1   2
BRANCH   1   7
ATOM      7  C   UNL     1     175.101 170.821 150.110  1.00  0.00     0.002 C 
BRANCH   7   8
ATOM      8  C   UNL     1     175.404 169.342 150.386  1.00  0.00     0.028 C 
BRANCH   8   9
ATOM      9  C   UNL     1     174.450 168.415 149.626  1.00  0.00     0.156 C 
BRANCH   9  10
ATOM     10  O   UNL     1     175.139 167.670 148.657  1.00  0.00    -0.396 OA
ATOM     11  H   UNL     1     174.938 166.714 148.837  1.00  0.00     0.210 HD
ENDBRANCH   9  10
ENDBRANCH   8   9
ENDBRANCH   7   8
ENDBRANCH   1   7
TORSDOF 8
ENDMDL
MODEL 7
REMARK VINA RESULT:    -3.296      2.504      4.277
REMARK INTER + INTRA:          -5.388
REMARK INTER:                  -4.871
REMARK INTRA:                  -0.516
REMARK UNBOUND:                -0.647
REMARK SMILES CCCCCCCCCO
REMARK SMILES IDX 6 1 5 2 4 3 3 4 2 5 1 6 7 7 8 8 9 9 10 10
REMARK H PARENT 10 11
REMARK Flexibility Score: inf
ROOT
ATOM      1  C   UNL     1     173.451 170.810 150.179  1.00  0.00     0.000 C 
ENDROOT
BRANCH   1   2
ATOM      2  C   UNL     1     172.624 172.103 150.097  1.00  0.00     0.000 C 
BRANCH   2   3
ATOM      3  C   UNL     1     173.496 173.368 150.157  1.00  0.00    -0.000 C 
BRANCH   3   4
ATOM      4  C   UNL     1     173.216 174.230 151.401  1.00  0.00    -0.000 C 
BRANCH   4   5
ATOM      5  C   UNL     1     173.909 173.757 152.691  1.00  0.00    -0.003 C 
ATOM      6  C   UNL     1     175.395 174.109 152.736  1.00  0.00     0.004 C 
ENDBRANCH   4   5
ENDBRANCH   3   4
ENDBRANCH   2   3
ENDBRANCH   1   2
BRANCH   1   7
ATOM      7  C   UNL     1     174.965 171.072 150.177  1.00  0.00     0.002 C 
BRANCH   7   8
ATOM      8  C   UNL     1     175.737 169.830 150.643  1.00  0.00     0.028 C 
BRANCH   8   9
ATOM      9  C   UNL     1     175.129 169.228 151.915  1.00  0.00     0.156 C 
BRANCH   9  10
ATOM     10  O   UNL     1     176.125 168.674 152.733  1.00  0.00    -0.396 OA
ATOM     11  H   UNL     1     175.743 167.844 153.123  1.00  0.00     0.210 HD
ENDBRANCH   9  10
ENDBRANCH   8   9
ENDBRANCH   7   8
ENDBRANCH   1   7
TORSDOF 8
ENDMDL
MODEL 8
REMARK VINA RESULT:    -3.230      2.166      2.943
REMARK INTER + INTRA:          -5.294
REMARK INTER:                  -5.094
REMARK INTRA:                  -0.200
REMARK UNBOUND:                -0.647
REMARK SMILES CCCCCCCCCO
REMARK SMILES IDX 6 1 5 2 4 3 3 4 2 5 1 6 7 7 8 8 9 9 10 10
REMARK H PARENT 10 11
REMARK Flexibility Score: inf
ROOT
ATOM      1  C   UNL     1     174.363 173.087 150.162  1.00  0.00     0.000 C 
ENDROOT
BRANCH   1   2
ATOM      2  C   UNL     1     174.214 171.637 150.651  1.00  0.00     0.000 C 
BRANCH   2   3
ATOM      3  C   UNL     1     175.357 170.729 150.166  1.00  0.00    -0.000 C 
BRANCH   3   4
ATOM      4  C   UNL     1     175.155 169.253 150.555  1.00  0.00    -0.000 C 
BRANCH   4   5
ATOM      5  C   UNL     1     174.060 168.516 149.764  1.00  0.00    -0.003 C 
ATOM      6  C   UNL     1     174.612 167.413 148.861  1.00  0.00     0.004 C 
ENDBRANCH   4   5
ENDBRANCH   3   4
ENDBRANCH   2   3
ENDBRANCH   1   2
BRANCH   1   7
ATOM      7  C   UNL     1     174.445 174.097 151.316  1.00  0.00     0.002 C 
BRANCH   7   8
ATOM      8  C   UNL     1     173.131 174.127 152.111  1.00  0.00     0.028 C 
BRANCH   8   9
ATOM      9  C   UNL     1     171.957 174.604 151.249  1.00  0.00     0.156 C 
BRANCH   9  10
ATOM     10  O   UNL     1     171.081 175.408 151.995  1.00  0.00    -0.396 OA
ATOM     11  H   UNL     1     170.197 174.956 151.979  1.00  0.00     0.210 HD
ENDBRANCH   9  10
ENDBRANCH   8   9
ENDBRANCH   7   8
ENDBRANCH   1   7
TORSDOF 8
ENDMDL
MODEL 9
REMARK VINA RESULT:    -3.214      1.947      4.037
REMARK INTER + INTRA:          -5.270
REMARK INTER:                  -4.683
REMARK INTRA:                  -0.587
REMARK UNBOUND:                -0.647
REMARK SMILES CCCCCCCCCO
REMARK SMILES IDX 6 1 5 2 4 3 3 4 2 5 1 6 7 7 8 8 9 9 10 10
REMARK H PARENT 10 11
REMARK Flexibility Score: inf
ROOT
ATOM      1  C   UNL     1     173.976 173.497 149.624  1.00  0.00     0.000 C 
ENDROOT
BRANCH   1   2
ATOM      2  C   UNL     1     175.029 174.052 150.598  1.00  0.00     0.000 C 
BRANCH   2   3
ATOM      3  C   UNL     1     174.469 174.268 152.013  1.00  0.00    -0.000 C 
BRANCH   3   4
ATOM      4  C   UNL     1     175.512 174.008 153.116  1.00  0.00    -0.000 C 
BRANCH   4   5
ATOM      5  C   UNL     1     175.039 173.090 154.255  1.00  0.00    -0.003 C 
ATOM      6  C   UNL     1     174.054 173.771 155.205  1.00  0.00     0.004 C 
ENDBRANCH   4   5
ENDBRANCH   3   4
ENDBRANCH   2   3
ENDBRANCH   1   2
BRANCH   1   7
ATOM      7  C   UNL     1     173.016 172.501 150.293  1.00  0.00     0.002 C 
BRANCH   7   8
ATOM      8  C   UNL     1     173.567 171.071 150.212  1.00  0.00     0.028 C 
BRANCH   8   9
ATOM      9  C   UNL     1     174.023 170.558 151.583  1.00  0.00     0.156 C 
BRANCH   9  10
ATOM     10  O   UNL     1     175.416 170.655 151.716  1.00  0.00    -0.396 OA
ATOM     11  H   UNL     1     175.615 171.601 151.943  1.00  0.00     0.210 HD
ENDBRANCH   9  10
ENDBRANCH   8   9
ENDBRANCH   7   8
ENDBRANCH   1   7
TORSDOF 8
ENDMDL
