MODEL 1
REMARK VINA RESULT:    -3.621      0.000      0.000
REMARK INTER + INTRA:          -5.501
REMARK INTER:                  -4.997
REMARK INTRA:                  -0.504
REMARK UNBOUND:                -0.504
REMARK SMILES CCCCCCCCO
REMARK SMILES IDX 5 1 4 2 3 3 2 4 1 5 6 6 7 7 8 8 9 9
REMARK H PARENT 9 10
REMARK Flexibility Score: inf
ROOT
ATOM      1  C   UNL     1     178.417 191.143 201.740  1.00  0.00     0.000 C 
ENDROOT
BRANCH   1   2
ATOM      2  C   UNL     1     179.701 190.991 202.571  1.00  0.00    -0.000 C 
BRANCH   2   3
ATOM      3  C   UNL     1     180.896 191.736 201.950  1.00  0.00    -0.000 C 
BRANCH   3   4
ATOM      4  C   UNL     1     182.047 190.790 201.573  1.00  0.00    -0.003 C 
ATOM      5  C   UNL     1     181.700 189.318 201.790  1.00  0.00     0.004 C 
ENDBRANCH   3   4
ENDBRANCH   2   3
ENDBRANCH   1   2
BRANCH   1   6
ATOM      6  C   UNL     1     178.701 191.402 200.249  1.00  0.00     0.002 C 
BRANCH   6   7
ATOM      7  C   UNL     1     178.827 190.106 199.430  1.00  0.00     0.028 C 
BRANCH   7   8
ATOM      8  C   UNL     1     179.692 190.261 198.174  1.00  0.00     0.156 C 
BRANCH   8   9
ATOM      9  O   UNL     1     180.723 189.313 198.173  1.00  0.00    -0.396 OA
ATOM     10  H   UNL     1     180.625 188.799 199.017  1.00  0.00     0.210 HD
ENDBRANCH   8   9
ENDBRANCH   7   8
ENDBRANCH   6   7
ENDBRANCH   1   6
TORSDOF 7
ENDMDL
MODEL 2
REMARK VINA RESULT:    -3.468      1.363      3.709
REMARK INTER + INTRA:          -5.289
REMARK INTER:                  -4.858
REMARK INTRA:                  -0.432
REMARK UNBOUND:                -0.504
REMARK SMILES CCCCCCCCO
REMARK SMILES IDX 5 1 4 2 3 3 2 4 1 5 6 6 7 7 8 8 9 9
REMARK H PARENT 9 10
REMARK Flexibility Score: inf
ROOT
ATOM      1  C   UNL     1     179.366 190.835 201.824  1.00  0.00     0.000 C 
ENDROOT
BRANCH   1   2
ATOM      2  C   UNL     1     178.410 191.031 200.637  1.00  0.00    -0.000 C 
BRANCH   2   3
ATOM      3  C   UNL     1     178.604 189.967 199.542  1.00  0.00    -0.000 C 
BRANCH   3   4
ATOM      4  C   UNL     1     178.670 190.578 198.134  1.00  0.00    -0.003 C 
ATOM      5  C   UNL     1     178.281 192.055 198.108  1.00  0.00     0.004 C 
ENDBRANCH   3   4
ENDBRANCH   2   3
ENDBRANCH   1   2
BRANCH   1   6
ATOM      6  C   UNL     1     180.686 191.610 201.660  1.00  0.00     0.002 C 
BRANCH   6   7
ATOM      7  C   UNL     1     181.891 190.691 201.399  1.00  0.00     0.028 C 
BRANCH   7   8
ATOM      8  C   UNL     1     181.671 189.248 201.869  1.00  0.00     0.156 C 
BRANCH   8   9
ATOM      9  O   UNL     1     181.823 188.358 200.798  1.00  0.00    -0.396 OA
ATOM     10  H   UNL     1     181.854 187.450 201.198  1.00  0.00     0.210 HD
ENDBRANCH   8   9
ENDBRANCH   7   8
ENDBRANCH   6   7
ENDBRANCH   1   6
TORSDOF 7
ENDMDL
MODEL 3
REMARK VINA RESULT:    -3.428     11.452     12.759
REMARK INTER + INTRA:          -5.235
REMARK INTER:                  -5.036
REMARK INTRA:                  -0.199
REMARK UNBOUND:                -0.504
REMARK SMILES CCCCCCCCO
REMARK SMILES IDX 5 1 4 2 3 3 2 4 1 5 6 6 7 7 8 8 9 9
REMARK H PARENT 9 10
REMARK Flexibility Score: inf
ROOT
ATOM      1  C   UNL     1     185.446 192.293 187.708  1.00  0.00     0.000 C 
ENDROOT
BRANCH   1   2
ATOM      2  C   UNL     1     186.247 192.750 188.937  1.00  0.00    -0.000 C 
BRANCH   2   3
ATOM      3  C   UNL     1     186.070 194.251 189.230  1.00  0.00    -0.000 C 
BRANCH   3   4
ATOM      4  C   UNL     1     186.616 194.648 190.611  1.00  0.00    -0.003 C 
ATOM      5  C   UNL     1     186.440 196.136 190.912  1.00  0.00     0.004 C 
ENDBRANCH   3   4
ENDBRANCH   2   3
ENDBRANCH   1   2
BRANCH   1   6
ATOM      6  C   UNL     1     184.351 191.269 188.059  1.00  0.00     0.002 C 
BRANCH   6   7
ATOM      7  C   UNL     1     184.166 191.086 189.575  1.00  0.00     0.028 C 
BRANCH   7   8
ATOM      8  C   UNL     1     183.920 189.630 189.988  1.00  0.00     0.156 C 
BRANCH   8   9
ATOM      9  O   UNL     1     183.148 189.579 191.156  1.00  0.00    -0.396 OA
ATOM     10  H   UNL     1     182.336 190.119 190.973  1.00  0.00     0.210 HD
ENDBRANCH   8   9
ENDBRANCH   7   8
ENDBRANCH   6   7
ENDBRANCH   1   6
TORSDOF 7
ENDMDL
MODEL 4
REMARK VINA RESULT:    -3.359     12.893     14.061
REMARK INTER + INTRA:          -5.140
REMARK INTER:                  -4.989
REMARK INTRA:                  -0.151
REMARK UNBOUND:                -0.504
REMARK SMILES CCCCCCCCO
REMARK SMILES IDX 5 1 4 2 3 3 2 4 1 5 6 6 7 7 8 8 9 9
REMARK H PARENT 9 10
REMARK Flexibility Score: inf
ROOT
ATOM      1  C   UNL     1     187.352 195.096 189.696  1.00  0.00     0.000 C 
ENDROOT
BRANCH   1   2
ATOM      2  C   UNL     1     185.973 194.458 189.472  1.00  0.00    -0.000 C 
BRANCH   2   3
ATOM      3  C   UNL     1     185.913 192.999 189.959  1.00  0.00    -0.000 C 
BRANCH   3   4
ATOM      4  C   UNL     1     185.025 192.117 189.067  1.00  0.00    -0.003 C 
ATOM      5  C   UNL     1     185.509 192.060 187.619  1.00  0.00     0.004 C 
ENDBRANCH   3   4
ENDBRANCH   2   3
ENDBRANCH   1   2
BRANCH   1   6
ATOM      6  C   UNL     1     187.317 196.633 189.614  1.00  0.00     0.002 C 
BRANCH   6   7
ATOM      7  C   UNL     1     186.666 197.283 190.847  1.00  0.00     0.028 C 
BRANCH   7   8
ATOM      8  C   UNL     1     187.160 198.709 191.117  1.00  0.00     0.156 C 
BRANCH   8   9
ATOM      9  O   UNL     1     186.100 199.521 191.540  1.00  0.00    -0.396 OA
ATOM     10  H   UNL     1     186.185 199.594 192.526  1.00  0.00     0.210 HD
ENDBRANCH   8   9
ENDBRANCH   7   8
ENDBRANCH   6   7
ENDBRANCH   1   6
TORSDOF 7
ENDMDL
MODEL 5
REMARK VINA RESULT:    -3.317     11.696     13.715
REMARK INTER + INTRA:          -5.082
REMARK INTER:                  -4.683
REMARK INTRA:                  -0.399
REMARK UNBOUND:                -0.504
REMARK SMILES CCCCCCCCO
REMARK SMILES IDX 5 1 4 2 3 3 2 4 1 5 6 6 7 7 8 8 9 9
REMARK H PARENT 9 10
REMARK Flexibility Score: inf
ROOT
ATOM      1  C   UNL     1     185.506 189.824 186.575  1.00  0.00     0.000 C 
ENDROOT
BRANCH   1   2
ATOM      2  C   UNL     1     186.289 191.144 186.653  1.00  0.00    -0.000 C 
BRANCH   2   3
ATOM      3  C   UNL     1     185.577 192.201 187.516  1.00  0.00    -0.000 C 
BRANCH   3   4
ATOM      4  C   UNL     1     186.439 192.676 188.695  1.00  0.00    -0.003 C 
ATOM      5  C   UNL     1     185.772 193.783 189.510  1.00  0.00     0.004 C 
ENDBRANCH   3   4
ENDBRANCH   2   3
ENDBRANCH   1   2
BRANCH   1   6
ATOM      6  C   UNL     1     184.222 189.842 187.424  1.00  0.00     0.002 C 
BRANCH   6   7
ATOM      7  C   UNL     1     184.299 188.910 188.645  1.00  0.00     0.028 C 
BRANCH   7   8
ATOM      8  C   UNL     1     184.402 189.659 189.978  1.00  0.00     0.156 C 
BRANCH   8   9
ATOM      9  O   UNL     1     183.317 190.531 190.133  1.00  0.00    -0.396 OA
ATOM     10  H   UNL     1     183.675 191.445 189.982  1.00  0.00     0.210 HD
ENDBRANCH   8   9
ENDBRANCH   7   8
ENDBRANCH   6   7
ENDBRANCH   1   6
TORSDOF 7
ENDMDL
MODEL 6
REMARK VINA RESULT:    -3.308     10.585     12.270
REMARK INTER + INTRA:          -5.069
REMARK INTER:                  -4.913
REMARK INTRA:                  -0.157
REMARK UNBOUND:                -0.504
REMARK SMILES CCCCCCCCO
REMARK SMILES IDX 5 1 4 2 3 3 2 4 1 5 6 6 7 7 8 8 9 9
REMARK H PARENT 9 10
REMARK Flexibility Score: inf
ROOT
ATOM      1  C   UNL     1     184.129 189.266 189.768  1.00  0.00     0.000 C 
ENDROOT
BRANCH   1   2
ATOM      2  C   UNL     1     184.165 190.771 189.457  1.00  0.00    -0.000 C 
BRANCH   2   3
ATOM      3  C   UNL     1     184.372 191.059 187.960  1.00  0.00    -0.000 C 
BRANCH   3   4
ATOM      4  C   UNL     1     185.325 192.238 187.714  1.00  0.00    -0.003 C 
ATOM      5  C   UNL     1     185.729 192.954 189.002  1.00  0.00     0.004 C 
ENDBRANCH   3   4
ENDBRANCH   2   3
ENDBRANCH   1   2
BRANCH   1   6
ATOM      6  C   UNL     1     183.429 188.950 191.102  1.00  0.00     0.002 C 
BRANCH   6   7
ATOM      7  C   UNL     1     182.618 187.644 191.057  1.00  0.00     0.028 C 
BRANCH   7   8
ATOM      8  C   UNL     1     183.125 186.647 190.009  1.00  0.00     0.156 C 
BRANCH   8   9
ATOM      9  O   UNL     1     182.386 185.458 190.069  1.00  0.00    -0.396 OA
ATOM     10  H   UNL     1     182.855 184.812 189.480  1.00  0.00     0.210 HD
ENDBRANCH   8   9
ENDBRANCH   7   8
ENDBRANCH   6   7
ENDBRANCH   1   6
TORSDOF 7
ENDMDL
MODEL 7
REMARK VINA RESULT:    -3.302     10.507     12.605
REMARK INTER + INTRA:          -5.061
REMARK INTER:                  -4.535
REMARK INTRA:                  -0.526
REMARK UNBOUND:                -0.504
REMARK SMILES CCCCCCCCO
REMARK SMILES IDX 5 1 4 2 3 3 2 4 1 5 6 6 7 7 8 8 9 9
REMARK H PARENT 9 10
REMARK Flexibility Score: inf
ROOT
ATOM      1  C   UNL     1     186.403 192.322 190.278  1.00  0.00     0.000 C 
ENDROOT
BRANCH   1   2
ATOM      2  C   UNL     1     185.603 193.064 189.197  1.00  0.00    -0.000 C 
BRANCH   2   3
ATOM      3  C   UNL     1     185.602 192.320 187.850  1.00  0.00    -0.000 C 
BRANCH   3   4
ATOM      4  C   UNL     1     184.362 191.429 187.672  1.00  0.00    -0.003 C 
ATOM      5  C   UNL     1     184.713 190.000 187.259  1.00  0.00     0.004 C 
ENDBRANCH   3   4
ENDBRANCH   2   3
ENDBRANCH   1   2
BRANCH   1   6
ATOM      6  C   UNL     1     185.503 191.555 191.264  1.00  0.00     0.002 C 
BRANCH   6   7
ATOM      7  C   UNL     1     185.517 190.035 191.029  1.00  0.00     0.028 C 
BRANCH   7   8
ATOM      8  C   UNL     1     184.166 189.363 191.303  1.00  0.00     0.156 C 
BRANCH   8   9
ATOM      9  O   UNL     1     183.148 190.007 190.588  1.00  0.00    -0.396 OA
ATOM     10  H   UNL     1     183.134 190.944 190.914  1.00  0.00     0.210 HD
ENDBRANCH   8   9
ENDBRANCH   7   8
ENDBRANCH   6   7
ENDBRANCH   1   6
TORSDOF 7
ENDMDL
MODEL 8
REMARK VINA RESULT:    -3.289     12.865     14.213
REMARK INTER + INTRA:          -5.043
REMARK INTER:                  -4.747
REMARK INTRA:                  -0.296
REMARK UNBOUND:                -0.504
REMARK SMILES CCCCCCCCO
REMARK SMILES IDX 5 1 4 2 3 3 2 4 1 5 6 6 7 7 8 8 9 9
REMARK H PARENT 9 10
REMARK Flexibility Score: inf
ROOT
ATOM      1  C   UNL     1     185.849 192.523 189.797  1.00  0.00     0.000 C 
ENDROOT
BRANCH   1   2
ATOM      2  C   UNL     1     184.699 191.671 189.238  1.00  0.00    -0.000 C 
BRANCH   2   3
ATOM      3  C   UNL     1     184.635 191.703 187.701  1.00  0.00    -0.000 C 
BRANCH   3   4
ATOM      4  C   UNL     1     185.514 190.622 187.053  1.00  0.00    -0.003 C 
ATOM      5  C   UNL     1     186.796 191.186 186.444  1.00  0.00     0.004 C 
ENDBRANCH   3   4
ENDBRANCH   2   3
ENDBRANCH   1   2
BRANCH   1   6
ATOM      6  C   UNL     1     186.033 193.848 189.035  1.00  0.00     0.002 C 
BRANCH   6   7
ATOM      7  C   UNL     1     186.372 195.029 189.961  1.00  0.00     0.028 C 
BRANCH   7   8
ATOM      8  C   UNL     1     187.571 195.855 189.483  1.00  0.00     0.156 C 
BRANCH   8   9
ATOM      9  O   UNL     1     187.157 197.136 189.095  1.00  0.00    -0.396 OA
ATOM     10  H   UNL     1     186.166 197.132 189.148  1.00  0.00     0.210 HD
ENDBRANCH   8   9
ENDBRANCH   7   8
ENDBRANCH   6   7
ENDBRANCH   1   6
TORSDOF 7
ENDMDL
MODEL 9
REMARK VINA RESULT:    -3.246     12.725     14.996
REMARK INTER + INTRA:          -4.984
REMARK INTER:                  -4.666
REMARK INTRA:                  -0.318
REMARK UNBOUND:                -0.504
REMARK SMILES CCCCCCCCO
REMARK SMILES IDX 5 1 4 2 3 3 2 4 1 5 6 6 7 7 8 8 9 9
REMARK H PARENT 9 10
REMARK Flexibility Score: inf
ROOT
ATOM      1  C   UNL     1     186.774 191.618 188.128  1.00  0.00     0.000 C 
ENDROOT
BRANCH   1   2
ATOM      2  C   UNL     1     187.561 191.037 186.943  1.00  0.00    -0.000 C 
BRANCH   2   3
ATOM      3  C   UNL     1     186.825 189.869 186.264  1.00  0.00    -0.000 C 
BRANCH   3   4
ATOM      4  C   UNL     1     186.944 189.909 184.732  1.00  0.00    -0.003 C 
ATOM      5  C   UNL     1     187.788 191.080 184.234  1.00  0.00     0.004 C 
ENDBRANCH   3   4
ENDBRANCH   2   3
ENDBRANCH   1   2
BRANCH   1   6
ATOM      6  C   UNL     1     185.424 192.226 187.706  1.00  0.00     0.002 C 
BRANCH   6   7
ATOM      7  C   UNL     1     184.220 191.504 188.336  1.00  0.00     0.028 C 
BRANCH   7   8
ATOM      8  C   UNL     1     184.447 191.101 189.797  1.00  0.00     0.156 C 
BRANCH   8   9
ATOM      9  O   UNL     1     183.343 190.389 190.283  1.00  0.00    -0.396 OA
ATOM     10  H   UNL     1     183.650 189.936 191.111  1.00  0.00     0.210 HD
ENDBRANCH   8   9
ENDBRANCH   7   8
ENDBRANCH   6   7
ENDBRANCH   1   6
TORSDOF 7
ENDMDL
