MODEL 1
REMARK VINA RESULT:    -7.086      0.000      0.000
REMARK INTER + INTRA:          -8.779
REMARK INTER:                  -8.536
REMARK INTRA:                  -0.242
REMARK UNBOUND:                -0.242
REMARK SMILES O=c1c(O)c(-c2ccc(O)c(O)c2)oc2cc(O)cc(O)c12
REMARK SMILES IDX 5 1 3 2 2 3 1 4 22 5 20 6 19 7 17 8 16 9 15 10 14 11 6 12
REMARK SMILES IDX 7 13 8 14 9 15 13 16 11 17 10 18 12 20 4 22 21 24 18 26
REMARK H PARENT 10 19 12 21 4 23 21 25 18 27
REMARK Flexibility Score: inf
ROOT
ATOM      1  C   UNL     1      61.834 151.768   3.897  1.00  0.00     0.180 A 
ATOM      2  C   UNL     1      60.728 152.258   4.612  1.00  0.00     0.208 A 
ATOM      3  C   UNL     1      59.812 153.098   3.957  1.00  0.00     0.238 A 
ATOM      4  O   UNL     1      58.853 153.578   4.616  1.00  0.00    -0.285 OA
ATOM      5  C   UNL     1      60.006 153.423   2.593  1.00  0.00     0.111 A 
ATOM      6  C   UNL     1      59.121 154.232   1.819  1.00  0.00     0.134 A 
ATOM      7  C   UNL     1      59.479 154.596   0.516  1.00  0.00     0.093 A 
ATOM      8  C   UNL     1      60.657 154.129  -0.065  1.00  0.00     0.123 A 
ATOM      9  C   UNL     1      61.502 153.288   0.662  1.00  0.00     0.094 A 
ATOM     10  C   UNL     1      61.189 152.937   1.977  1.00  0.00     0.146 A 
ATOM     11  O   UNL     1      62.024 152.144   2.638  1.00  0.00    -0.452 OA
ENDROOT
BRANCH   1  12
ATOM     12  C   UNL     1      62.828 150.858   4.512  1.00  0.00     0.025 A 
ATOM     13  C   UNL     1      64.141 151.308   4.720  1.00  0.00     0.016 A 
ATOM     14  C   UNL     1      65.100 150.459   5.279  1.00  0.00     0.051 A 
ATOM     15  C   UNL     1      64.768 149.146   5.624  1.00  0.00     0.157 A 
ATOM     16  C   UNL     1      62.500 149.530   4.840  1.00  0.00     0.062 A 
ATOM     17  C   UNL     1      63.462 148.676   5.400  1.00  0.00     0.158 A 
BRANCH  15  18
ATOM     18  O   UNL     1      65.745 148.323   6.182  1.00  0.00    -0.504 OA
ATOM     19  H   UNL     1      65.943 147.399   5.817  1.00  0.00     0.293 HD
ENDBRANCH  15  18
BRANCH  17  20
ATOM     20  O   UNL     1      63.128 147.364   5.728  1.00  0.00    -0.504 OA
ATOM     21  H   UNL     1      62.443 147.153   6.446  1.00  0.00     0.293 HD
ENDBRANCH  17  20
ENDBRANCH   1  12
BRANCH   2  22
ATOM     22  O   UNL     1      60.567 151.942   5.963  1.00  0.00    -0.502 OA
ATOM     23  H   UNL     1      61.021 151.147   6.395  1.00  0.00     0.293 HD
ENDBRANCH   2  22
BRANCH   6  24
ATOM     24  O   UNL     1      57.875 154.678   2.271  1.00  0.00    -0.507 OA
ATOM     25  H   UNL     1      57.310 154.204   2.959  1.00  0.00     0.293 HD
ENDBRANCH   6  24
BRANCH   8  26
ATOM     26  O   UNL     1      60.975 154.498  -1.370  1.00  0.00    -0.508 OA
ATOM     27  H   UNL     1      61.056 153.811  -2.110  1.00  0.00     0.293 HD
ENDBRANCH   8  26
TORSDOF 6
ENDMDL
MODEL 2
REMARK VINA RESULT:    -7.016      1.680      3.393
REMARK INTER + INTRA:          -8.694
REMARK INTER:                  -8.380
REMARK INTRA:                  -0.315
REMARK UNBOUND:                -0.242
REMARK SMILES O=c1c(O)c(-c2ccc(O)c(O)c2)oc2cc(O)cc(O)c12
REMARK SMILES IDX 5 1 3 2 2 3 1 4 22 5 20 6 19 7 17 8 16 9 15 10 14 11 6 12
REMARK SMILES IDX 7 13 8 14 9 15 13 16 11 17 10 18 12 20 4 22 21 24 18 26
REMARK H PARENT 10 19 12 21 4 23 21 25 18 27
REMARK Flexibility Score: inf
ROOT
ATOM      1  C   UNL     1      61.437 152.005   4.491  1.00  0.00     0.180 A 
ATOM      2  C   UNL     1      60.933 152.115   3.184  1.00  0.00     0.208 A 
ATOM      3  C   UNL     1      59.904 153.036   2.926  1.00  0.00     0.238 A 
ATOM      4  O   UNL     1      59.420 153.092   1.766  1.00  0.00    -0.285 OA
ATOM      5  C   UNL     1      59.405 153.846   3.975  1.00  0.00     0.111 A 
ATOM      6  C   UNL     1      58.393 154.840   3.820  1.00  0.00     0.134 A 
ATOM      7  C   UNL     1      57.884 155.490   4.950  1.00  0.00     0.093 A 
ATOM      8  C   UNL     1      58.394 155.230   6.222  1.00  0.00     0.123 A 
ATOM      9  C   UNL     1      59.426 154.304   6.378  1.00  0.00     0.094 A 
ATOM     10  C   UNL     1      59.929 153.613   5.273  1.00  0.00     0.146 A 
ATOM     11  O   UNL     1      60.903 152.731   5.466  1.00  0.00    -0.452 OA
ENDROOT
BRANCH   1  12
ATOM     12  C   UNL     1      62.537 151.075   4.835  1.00  0.00     0.025 A 
ATOM     13  C   UNL     1      63.864 151.533   4.802  1.00  0.00     0.016 A 
ATOM     14  C   UNL     1      64.919 150.667   5.103  1.00  0.00     0.051 A 
ATOM     15  C   UNL     1      64.668 149.330   5.425  1.00  0.00     0.157 A 
ATOM     16  C   UNL     1      62.287 149.724   5.139  1.00  0.00     0.062 A 
ATOM     17  C   UNL     1      63.345 148.854   5.440  1.00  0.00     0.158 A 
BRANCH  15  18
ATOM     18  O   UNL     1      65.740 148.491   5.723  1.00  0.00    -0.504 OA
ATOM     19  H   UNL     1      65.842 148.048   6.628  1.00  0.00     0.293 HD
ENDBRANCH  15  18
BRANCH  17  20
ATOM     20  O   UNL     1      63.088 147.519   5.746  1.00  0.00    -0.504 OA
ATOM     21  H   UNL     1      62.467 146.954   5.178  1.00  0.00     0.293 HD
ENDBRANCH  17  20
ENDBRANCH   1  12
BRANCH   2  22
ATOM     22  O   UNL     1      61.425 151.291   2.169  1.00  0.00    -0.502 OA
ATOM     23  H   UNL     1      61.192 151.431   1.193  1.00  0.00     0.293 HD
ENDBRANCH   2  22
BRANCH   6  24
ATOM     24  O   UNL     1      57.878 155.242   2.584  1.00  0.00    -0.507 OA
ATOM     25  H   UNL     1      58.213 154.919   1.689  1.00  0.00     0.293 HD
ENDBRANCH   6  24
BRANCH   8  26
ATOM     26  O   UNL     1      57.875 155.907   7.322  1.00  0.00    -0.508 OA
ATOM     27  H   UNL     1      58.433 156.567   7.851  1.00  0.00     0.293 HD
ENDBRANCH   8  26
TORSDOF 6
ENDMDL
MODEL 3
REMARK VINA RESULT:    -6.939      1.622      2.137
REMARK INTER + INTRA:          -8.601
REMARK INTER:                  -8.313
REMARK INTRA:                  -0.288
REMARK UNBOUND:                -0.242
REMARK SMILES O=c1c(O)c(-c2ccc(O)c(O)c2)oc2cc(O)cc(O)c12
REMARK SMILES IDX 5 1 3 2 2 3 1 4 22 5 20 6 19 7 17 8 16 9 15 10 14 11 6 12
REMARK SMILES IDX 7 13 8 14 9 15 13 16 11 17 10 18 12 20 4 22 21 24 18 26
REMARK H PARENT 10 19 12 21 4 23 21 25 18 27
REMARK Flexibility Score: inf
ROOT
ATOM      1  C   UNL     1      61.645 152.250   5.218  1.00  0.00     0.180 A 
ATOM      2  C   UNL     1      61.269 153.082   6.286  1.00  0.00     0.208 A 
ATOM      3  C   UNL     1      60.245 154.024   6.088  1.00  0.00     0.238 A 
ATOM      4  O   UNL     1      59.950 154.803   7.031  1.00  0.00    -0.285 OA
ATOM      5  C   UNL     1      59.601 154.109   4.830  1.00  0.00     0.111 A 
ATOM      6  C   UNL     1      58.526 154.998   4.528  1.00  0.00     0.134 A 
ATOM      7  C   UNL     1      58.053 155.089   3.215  1.00  0.00     0.093 A 
ATOM      8  C   UNL     1      58.570 154.279   2.204  1.00  0.00     0.123 A 
ATOM      9  C   UNL     1      59.581 153.363   2.500  1.00  0.00     0.094 A 
ATOM     10  C   UNL     1      60.099 153.275   3.794  1.00  0.00     0.146 A 
ATOM     11  O   UNL     1      61.068 152.399   4.032  1.00  0.00    -0.452 OA
ENDROOT
BRANCH   1  12
ATOM     12  C   UNL     1      62.697 151.217   5.358  1.00  0.00     0.025 A 
ATOM     13  C   UNL     1      64.048 151.592   5.282  1.00  0.00     0.016 A 
ATOM     14  C   UNL     1      65.056 150.631   5.391  1.00  0.00     0.051 A 
ATOM     15  C   UNL     1      64.733 149.281   5.560  1.00  0.00     0.157 A 
ATOM     16  C   UNL     1      62.373 149.856   5.507  1.00  0.00     0.062 A 
ATOM     17  C   UNL     1      63.384 148.890   5.614  1.00  0.00     0.158 A 
BRANCH  15  18
ATOM     18  O   UNL     1      65.760 148.345   5.667  1.00  0.00    -0.504 OA
ATOM     19  H   UNL     1      65.613 147.361   5.480  1.00  0.00     0.293 HD
ENDBRANCH  15  18
BRANCH  17  20
ATOM     20  O   UNL     1      63.053 147.545   5.768  1.00  0.00    -0.504 OA
ATOM     21  H   UNL     1      63.615 146.922   6.338  1.00  0.00     0.293 HD
ENDBRANCH  17  20
ENDBRANCH   1  12
BRANCH   2  22
ATOM     22  O   UNL     1      61.932 152.996   7.512  1.00  0.00    -0.502 OA
ATOM     23  H   UNL     1      61.441 152.884   8.391  1.00  0.00     0.293 HD
ENDBRANCH   2  22
BRANCH   6  24
ATOM     24  O   UNL     1      57.875 155.786   5.483  1.00  0.00    -0.507 OA
ATOM     25  H   UNL     1      57.328 156.607   5.274  1.00  0.00     0.293 HD
ENDBRANCH   6  24
BRANCH   8  26
ATOM     26  O   UNL     1      58.064 154.385   0.911  1.00  0.00    -0.508 OA
ATOM     27  H   UNL     1      58.634 154.176   0.100  1.00  0.00     0.293 HD
ENDBRANCH   8  26
TORSDOF 6
ENDMDL
MODEL 4
REMARK VINA RESULT:    -6.501      1.540      6.791
REMARK INTER + INTRA:          -8.074
REMARK INTER:                  -8.449
REMARK INTRA:                   0.375
REMARK UNBOUND:                -0.242
REMARK SMILES O=c1c(O)c(-c2ccc(O)c(O)c2)oc2cc(O)cc(O)c12
REMARK SMILES IDX 5 1 3 2 2 3 1 4 22 5 20 6 19 7 17 8 16 9 15 10 14 11 6 12
REMARK SMILES IDX 7 13 8 14 9 15 13 16 11 17 10 18 12 20 4 22 21 24 18 26
REMARK H PARENT 10 19 12 21 4 23 21 25 18 27
REMARK Flexibility Score: inf
ROOT
ATOM      1  C   UNL     1      60.458 152.303   4.299  1.00  0.00     0.180 A 
ATOM      2  C   UNL     1      59.879 151.932   5.524  1.00  0.00     0.208 A 
ATOM      3  C   UNL     1      60.558 151.022   6.351  1.00  0.00     0.238 A 
ATOM      4  O   UNL     1      60.010 150.651   7.421  1.00  0.00    -0.285 OA
ATOM      5  C   UNL     1      61.815 150.509   5.949  1.00  0.00     0.111 A 
ATOM      6  C   UNL     1      62.610 149.613   6.724  1.00  0.00     0.134 A 
ATOM      7  C   UNL     1      63.775 149.067   6.172  1.00  0.00     0.093 A 
ATOM      8  C   UNL     1      64.208 149.434   4.899  1.00  0.00     0.123 A 
ATOM      9  C   UNL     1      63.471 150.356   4.154  1.00  0.00     0.094 A 
ATOM     10  C   UNL     1      62.285 150.889   4.665  1.00  0.00     0.146 A 
ATOM     11  O   UNL     1      61.606 151.754   3.920  1.00  0.00    -0.452 OA
ENDROOT
BRANCH   1  12
ATOM     12  C   UNL     1      59.814 153.275   3.387  1.00  0.00     0.025 A 
ATOM     13  C   UNL     1      58.904 154.211   3.904  1.00  0.00     0.016 A 
ATOM     14  C   UNL     1      58.270 155.124   3.058  1.00  0.00     0.051 A 
ATOM     15  C   UNL     1      58.521 155.107   1.683  1.00  0.00     0.157 A 
ATOM     16  C   UNL     1      60.049 153.246   2.000  1.00  0.00     0.062 A 
ATOM     17  C   UNL     1      59.412 154.160   1.149  1.00  0.00     0.158 A 
BRANCH  15  18
ATOM     18  O   UNL     1      57.875 156.032   0.863  1.00  0.00    -0.504 OA
ATOM     19  H   UNL     1      57.159 156.656   1.216  1.00  0.00     0.293 HD
ENDBRANCH  15  18
BRANCH  17  20
ATOM     20  O   UNL     1      59.656 154.128  -0.223  1.00  0.00    -0.504 OA
ATOM     21  H   UNL     1      59.270 153.400  -0.814  1.00  0.00     0.293 HD
ENDBRANCH  17  20
ENDBRANCH   1  12
BRANCH   2  22
ATOM     22  O   UNL     1      58.627 152.433   5.892  1.00  0.00    -0.502 OA
ATOM     23  H   UNL     1      58.518 153.268   6.454  1.00  0.00     0.293 HD
ENDBRANCH   2  22
BRANCH   6  24
ATOM     24  O   UNL     1      62.316 149.251   8.043  1.00  0.00    -0.507 OA
ATOM     25  H   UNL     1      61.923 149.870   8.735  1.00  0.00     0.293 HD
ENDBRANCH   6  24
BRANCH   8  26
ATOM     26  O   UNL     1      65.381 148.884   4.386  1.00  0.00    -0.508 OA
ATOM     27  H   UNL     1      66.214 149.444   4.251  1.00  0.00     0.293 HD
ENDBRANCH   8  26
TORSDOF 6
ENDMDL
MODEL 5
REMARK VINA RESULT:    -6.371      2.059      7.334
REMARK INTER + INTRA:          -7.917
REMARK INTER:                  -8.081
REMARK INTRA:                   0.164
REMARK UNBOUND:                -0.242
REMARK SMILES O=c1c(O)c(-c2ccc(O)c(O)c2)oc2cc(O)cc(O)c12
REMARK SMILES IDX 5 1 3 2 2 3 1 4 22 5 20 6 19 7 17 8 16 9 15 10 14 11 6 12
REMARK SMILES IDX 7 13 8 14 9 15 13 16 11 17 10 18 12 20 4 22 21 24 18 26
REMARK H PARENT 10 19 12 21 4 23 21 25 18 27
REMARK Flexibility Score: inf
ROOT
ATOM      1  C   UNL     1      60.528 152.198   4.098  1.00  0.00     0.180 A 
ATOM      2  C   UNL     1      61.825 151.727   3.836  1.00  0.00     0.208 A 
ATOM      3  C   UNL     1      62.382 150.756   4.685  1.00  0.00     0.238 A 
ATOM      4  O   UNL     1      63.564 150.378   4.478  1.00  0.00    -0.285 OA
ATOM      5  C   UNL     1      61.627 150.258   5.774  1.00  0.00     0.111 A 
ATOM      6  C   UNL     1      62.075 149.246   6.675  1.00  0.00     0.134 A 
ATOM      7  C   UNL     1      61.298 148.923   7.793  1.00  0.00     0.093 A 
ATOM      8  C   UNL     1      60.061 149.527   8.010  1.00  0.00     0.123 A 
ATOM      9  C   UNL     1      59.585 150.476   7.103  1.00  0.00     0.094 A 
ATOM     10  C   UNL     1      60.354 150.845   5.997  1.00  0.00     0.146 A 
ATOM     11  O   UNL     1      59.871 151.760   5.165  1.00  0.00    -0.452 OA
ENDROOT
BRANCH   1  12
ATOM     12  C   UNL     1      59.865 153.202   3.234  1.00  0.00     0.025 A 
ATOM     13  C   UNL     1      58.988 154.136   3.807  1.00  0.00     0.016 A 
ATOM     14  C   UNL     1      58.336 155.079   3.007  1.00  0.00     0.051 A 
ATOM     15  C   UNL     1      58.537 155.093   1.624  1.00  0.00     0.157 A 
ATOM     16  C   UNL     1      60.050 153.205   1.839  1.00  0.00     0.062 A 
ATOM     17  C   UNL     1      59.395 154.149   1.035  1.00  0.00     0.158 A 
BRANCH  15  18
ATOM     18  O   UNL     1      57.875 156.046   0.852  1.00  0.00    -0.504 OA
ATOM     19  H   UNL     1      57.786 155.958  -0.153  1.00  0.00     0.293 HD
ENDBRANCH  15  18
BRANCH  17  20
ATOM     20  O   UNL     1      59.590 154.148  -0.345  1.00  0.00    -0.504 OA
ATOM     21  H   UNL     1      59.407 153.325  -0.907  1.00  0.00     0.293 HD
ENDBRANCH  17  20
ENDBRANCH   1  12
BRANCH   2  22
ATOM     22  O   UNL     1      62.561 152.249   2.769  1.00  0.00    -0.502 OA
ATOM     23  H   UNL     1      62.226 153.016   2.199  1.00  0.00     0.293 HD
ENDBRANCH   2  22
BRANCH   6  24
ATOM     24  O   UNL     1      63.253 148.513   6.501  1.00  0.00    -0.507 OA
ATOM     25  H   UNL     1      64.039 148.812   5.943  1.00  0.00     0.293 HD
ENDBRANCH   6  24
BRANCH   8  26
ATOM     26  O   UNL     1      59.306 149.171   9.125  1.00  0.00    -0.508 OA
ATOM     27  H   UNL     1      59.534 149.511  10.051  1.00  0.00     0.293 HD
ENDBRANCH   8  26
TORSDOF 6
ENDMDL
MODEL 6
REMARK VINA RESULT:    -6.216      3.104      7.168
REMARK INTER + INTRA:          -7.730
REMARK INTER:                  -7.442
REMARK INTRA:                  -0.288
REMARK UNBOUND:                -0.242
REMARK SMILES O=c1c(O)c(-c2ccc(O)c(O)c2)oc2cc(O)cc(O)c12
REMARK SMILES IDX 5 1 3 2 2 3 1 4 22 5 20 6 19 7 17 8 16 9 15 10 14 11 6 12
REMARK SMILES IDX 7 13 8 14 9 15 13 16 11 17 10 18 12 20 4 22 21 24 18 26
REMARK H PARENT 10 19 12 21 4 23 21 25 18 27
REMARK Flexibility Score: inf
ROOT
ATOM      1  C   UNL     1      61.586 152.405   6.131  1.00  0.00     0.180 A 
ATOM      2  C   UNL     1      62.963 152.624   5.961  1.00  0.00     0.208 A 
ATOM      3  C   UNL     1      63.800 151.526   5.700  1.00  0.00     0.238 A 
ATOM      4  O   UNL     1      65.040 151.720   5.603  1.00  0.00    -0.285 OA
ATOM      5  C   UNL     1      63.246 150.227   5.596  1.00  0.00     0.111 A 
ATOM      6  C   UNL     1      63.993 149.049   5.295  1.00  0.00     0.134 A 
ATOM      7  C   UNL     1      63.365 147.800   5.346  1.00  0.00     0.093 A 
ATOM      8  C   UNL     1      62.002 147.690   5.623  1.00  0.00     0.123 A 
ATOM      9  C   UNL     1      61.248 148.841   5.860  1.00  0.00     0.094 A 
ATOM     10  C   UNL     1      61.856 150.098   5.852  1.00  0.00     0.146 A 
ATOM     11  O   UNL     1      61.106 151.167   6.093  1.00  0.00    -0.452 OA
ENDROOT
BRANCH   1  12
ATOM     12  C   UNL     1      60.638 153.514   6.384  1.00  0.00     0.025 A 
ATOM     13  C   UNL     1      60.514 154.035   7.682  1.00  0.00     0.016 A 
ATOM     14  C   UNL     1      59.611 155.068   7.947  1.00  0.00     0.051 A 
ATOM     15  C   UNL     1      58.807 155.584   6.926  1.00  0.00     0.157 A 
ATOM     16  C   UNL     1      59.814 154.020   5.363  1.00  0.00     0.062 A 
ATOM     17  C   UNL     1      58.905 155.055   5.628  1.00  0.00     0.158 A 
BRANCH  15  18
ATOM     18  O   UNL     1      57.916 156.615   7.220  1.00  0.00    -0.504 OA
ATOM     19  H   UNL     1      58.169 157.390   7.821  1.00  0.00     0.293 HD
ENDBRANCH  15  18
BRANCH  17  20
ATOM     20  O   UNL     1      58.097 155.555   4.608  1.00  0.00    -0.504 OA
ATOM     21  H   UNL     1      57.236 156.053   4.808  1.00  0.00     0.293 HD
ENDBRANCH  17  20
ENDBRANCH   1  12
BRANCH   2  22
ATOM     22  O   UNL     1      63.492 153.910   6.090  1.00  0.00    -0.502 OA
ATOM     23  H   UNL     1      63.179 154.688   5.522  1.00  0.00     0.293 HD
ENDBRANCH   2  22
BRANCH   6  24
ATOM     24  O   UNL     1      65.340 149.055   4.916  1.00  0.00    -0.507 OA
ATOM     25  H   UNL     1      66.109 148.821   5.524  1.00  0.00     0.293 HD
ENDBRANCH   6  24
BRANCH   8  26
ATOM     26  O   UNL     1      61.405 146.433   5.650  1.00  0.00    -0.508 OA
ATOM     27  H   UNL     1      60.590 146.220   5.087  1.00  0.00     0.293 HD
ENDBRANCH   8  26
TORSDOF 6
ENDMDL
MODEL 7
REMARK VINA RESULT:    -6.091      2.803      7.551
REMARK INTER + INTRA:          -7.580
REMARK INTER:                  -7.261
REMARK INTRA:                  -0.319
REMARK UNBOUND:                -0.242
REMARK SMILES O=c1c(O)c(-c2ccc(O)c(O)c2)oc2cc(O)cc(O)c12
REMARK SMILES IDX 5 1 3 2 2 3 1 4 22 5 20 6 19 7 17 8 16 9 15 10 14 11 6 12
REMARK SMILES IDX 7 13 8 14 9 15 13 16 11 17 10 18 12 20 4 22 21 24 18 26
REMARK H PARENT 10 19 12 21 4 23 21 25 18 27
REMARK Flexibility Score: inf
ROOT
ATOM      1  C   UNL     1      60.280 151.803   5.694  1.00  0.00     0.180 A 
ATOM      2  C   UNL     1      61.479 151.340   5.125  1.00  0.00     0.208 A 
ATOM      3  C   UNL     1      61.866 150.007   5.345  1.00  0.00     0.238 A 
ATOM      4  O   UNL     1      62.967 149.613   4.879  1.00  0.00    -0.285 OA
ATOM      5  C   UNL     1      61.042 149.152   6.115  1.00  0.00     0.111 A 
ATOM      6  C   UNL     1      61.315 147.775   6.368  1.00  0.00     0.134 A 
ATOM      7  C   UNL     1      60.499 147.059   7.251  1.00  0.00     0.093 A 
ATOM      8  C   UNL     1      59.383 147.651   7.841  1.00  0.00     0.123 A 
ATOM      9  C   UNL     1      59.071 148.980   7.554  1.00  0.00     0.094 A 
ATOM     10  C   UNL     1      59.888 149.731   6.704  1.00  0.00     0.146 A 
ATOM     11  O   UNL     1      59.562 150.996   6.466  1.00  0.00    -0.452 OA
ENDROOT
BRANCH   1  12
ATOM     12  C   UNL     1      59.794 153.186   5.487  1.00  0.00     0.025 A 
ATOM     13  C   UNL     1      59.982 154.144   6.496  1.00  0.00     0.016 A 
ATOM     14  C   UNL     1      59.513 155.449   6.330  1.00  0.00     0.051 A 
ATOM     15  C   UNL     1      58.835 155.815   5.163  1.00  0.00     0.157 A 
ATOM     16  C   UNL     1      59.094 153.550   4.322  1.00  0.00     0.062 A 
ATOM     17  C   UNL     1      58.621 154.860   4.154  1.00  0.00     0.158 A 
BRANCH  15  18
ATOM     18  O   UNL     1      58.381 157.125   5.024  1.00  0.00    -0.504 OA
ATOM     19  H   UNL     1      58.254 157.558   4.117  1.00  0.00     0.293 HD
ENDBRANCH  15  18
BRANCH  17  20
ATOM     20  O   UNL     1      57.934 155.213   2.994  1.00  0.00    -0.504 OA
ATOM     21  H   UNL     1      57.802 154.556   2.234  1.00  0.00     0.293 HD
ENDBRANCH  17  20
ENDBRANCH   1  12
BRANCH   2  22
ATOM     22  O   UNL     1      62.288 152.206   4.387  1.00  0.00    -0.502 OA
ATOM     23  H   UNL     1      62.949 151.877   3.693  1.00  0.00     0.293 HD
ENDBRANCH   2  22
BRANCH   6  24
ATOM     24  O   UNL     1      62.353 147.061   5.759  1.00  0.00    -0.507 OA
ATOM     25  H   UNL     1      63.260 146.903   6.170  1.00  0.00     0.293 HD
ENDBRANCH   6  24
BRANCH   8  26
ATOM     26  O   UNL     1      58.583 146.905   8.703  1.00  0.00    -0.508 OA
ATOM     27  H   UNL     1      57.697 147.258   9.044  1.00  0.00     0.293 HD
ENDBRANCH   8  26
TORSDOF 6
ENDMDL
MODEL 8
REMARK VINA RESULT:    -5.989      2.494      4.350
REMARK INTER + INTRA:          -7.457
REMARK INTER:                  -7.125
REMARK INTRA:                  -0.332
REMARK UNBOUND:                -0.242
REMARK SMILES O=c1c(O)c(-c2ccc(O)c(O)c2)oc2cc(O)cc(O)c12
REMARK SMILES IDX 5 1 3 2 2 3 1 4 22 5 20 6 19 7 17 8 16 9 15 10 14 11 6 12
REMARK SMILES IDX 7 13 8 14 9 15 13 16 11 17 10 18 12 20 4 22 21 24 18 26
REMARK H PARENT 10 19 12 21 4 23 21 25 18 27
REMARK Flexibility Score: inf
ROOT
ATOM      1  C   UNL     1      60.557 152.280   5.148  1.00  0.00     0.180 A 
ATOM      2  C   UNL     1      59.988 152.698   3.934  1.00  0.00     0.208 A 
ATOM      3  C   UNL     1      59.255 153.896   3.901  1.00  0.00     0.238 A 
ATOM      4  O   UNL     1      58.702 154.237   2.823  1.00  0.00    -0.285 OA
ATOM      5  C   UNL     1      59.117 154.669   5.079  1.00  0.00     0.111 A 
ATOM      6  C   UNL     1      58.431 155.918   5.152  1.00  0.00     0.134 A 
ATOM      7  C   UNL     1      58.243 156.531   6.396  1.00  0.00     0.093 A 
ATOM      8  C   UNL     1      58.772 155.975   7.561  1.00  0.00     0.123 A 
ATOM      9  C   UNL     1      59.496 154.784   7.493  1.00  0.00     0.094 A 
ATOM     10  C   UNL     1      59.668 154.130   6.270  1.00  0.00     0.146 A 
ATOM     11  O   UNL     1      60.354 152.993   6.250  1.00  0.00    -0.452 OA
ENDROOT
BRANCH   1  12
ATOM     12  C   UNL     1      61.363 151.043   5.256  1.00  0.00     0.025 A 
ATOM     13  C   UNL     1      60.753 149.856   5.693  1.00  0.00     0.016 A 
ATOM     14  C   UNL     1      61.499 148.682   5.821  1.00  0.00     0.051 A 
ATOM     15  C   UNL     1      62.867 148.678   5.532  1.00  0.00     0.157 A 
ATOM     16  C   UNL     1      62.744 151.042   4.986  1.00  0.00     0.062 A 
ATOM     17  C   UNL     1      63.495 149.864   5.116  1.00  0.00     0.158 A 
BRANCH  15  18
ATOM     18  O   UNL     1      63.585 147.491   5.667  1.00  0.00    -0.504 OA
ATOM     19  H   UNL     1      63.667 147.009   6.555  1.00  0.00     0.293 HD
ENDBRANCH  15  18
BRANCH  17  20
ATOM     20  O   UNL     1      64.861 149.871   4.840  1.00  0.00    -0.504 OA
ATOM     21  H   UNL     1      65.276 149.208   4.194  1.00  0.00     0.293 HD
ENDBRANCH  17  20
ENDBRANCH   1  12
BRANCH   2  22
ATOM     22  O   UNL     1      60.118 151.909   2.788  1.00  0.00    -0.502 OA
ATOM     23  H   UNL     1      61.018 151.678   2.384  1.00  0.00     0.293 HD
ENDBRANCH   2  22
BRANCH   6  24
ATOM     24  O   UNL     1      57.943 156.607   4.037  1.00  0.00    -0.507 OA
ATOM     25  H   UNL     1      57.118 157.187   4.035  1.00  0.00     0.293 HD
ENDBRANCH   6  24
BRANCH   8  26
ATOM     26  O   UNL     1      58.580 156.620   8.780  1.00  0.00    -0.508 OA
ATOM     27  H   UNL     1      59.139 156.394   9.594  1.00  0.00     0.293 HD
ENDBRANCH   8  26
TORSDOF 6
ENDMDL
MODEL 9
REMARK VINA RESULT:    -5.355      4.164      7.225
REMARK INTER + INTRA:          -6.693
REMARK INTER:                  -6.499
REMARK INTRA:                  -0.194
REMARK UNBOUND:                -0.242
REMARK SMILES O=c1c(O)c(-c2ccc(O)c(O)c2)oc2cc(O)cc(O)c12
REMARK SMILES IDX 5 1 3 2 2 3 1 4 22 5 20 6 19 7 17 8 16 9 15 10 14 11 6 12
REMARK SMILES IDX 7 13 8 14 9 15 13 16 11 17 10 18 12 20 4 22 21 24 18 26
REMARK H PARENT 10 19 12 21 4 23 21 25 18 27
REMARK Flexibility Score: inf
ROOT
ATOM      1  C   UNL     1      59.964 151.507   6.999  1.00  0.00     0.180 A 
ATOM      2  C   UNL     1      59.126 150.918   7.960  1.00  0.00     0.208 A 
ATOM      3  C   UNL     1      59.140 149.522   8.114  1.00  0.00     0.238 A 
ATOM      4  O   UNL     1      58.348 148.996   8.938  1.00  0.00    -0.285 OA
ATOM      5  C   UNL     1      60.005 148.735   7.316  1.00  0.00     0.111 A 
ATOM      6  C   UNL     1      60.132 147.317   7.414  1.00  0.00     0.134 A 
ATOM      7  C   UNL     1      60.921 146.628   6.486  1.00  0.00     0.093 A 
ATOM      8  C   UNL     1      61.639 147.309   5.504  1.00  0.00     0.123 A 
ATOM      9  C   UNL     1      61.570 148.702   5.436  1.00  0.00     0.094 A 
ATOM     10  C   UNL     1      60.762 149.414   6.326  1.00  0.00     0.146 A 
ATOM     11  O   UNL     1      60.715 150.737   6.221  1.00  0.00    -0.452 OA
ENDROOT
BRANCH   1  12
ATOM     12  C   UNL     1      60.022 152.972   6.796  1.00  0.00     0.025 A 
ATOM     13  C   UNL     1      58.926 153.635   6.222  1.00  0.00     0.016 A 
ATOM     14  C   UNL     1      58.968 155.014   6.003  1.00  0.00     0.051 A 
ATOM     15  C   UNL     1      60.108 155.750   6.338  1.00  0.00     0.157 A 
ATOM     16  C   UNL     1      61.177 153.711   7.114  1.00  0.00     0.062 A 
ATOM     17  C   UNL     1      61.221 155.095   6.893  1.00  0.00     0.158 A 
BRANCH  15  18
ATOM     18  O   UNL     1      60.120 157.125   6.110  1.00  0.00    -0.504 OA
ATOM     19  H   UNL     1      59.272 157.648   5.928  1.00  0.00     0.293 HD
ENDBRANCH  15  18
BRANCH  17  20
ATOM     20  O   UNL     1      62.367 155.820   7.217  1.00  0.00    -0.504 OA
ATOM     21  H   UNL     1      62.670 155.933   8.177  1.00  0.00     0.293 HD
ENDBRANCH  17  20
ENDBRANCH   1  12
BRANCH   2  22
ATOM     22  O   UNL     1      58.264 151.711   8.722  1.00  0.00    -0.502 OA
ATOM     23  H   UNL     1      58.460 151.961   9.684  1.00  0.00     0.293 HD
ENDBRANCH   2  22
BRANCH   6  24
ATOM     24  O   UNL     1      59.530 146.548   8.415  1.00  0.00    -0.507 OA
ATOM     25  H   UNL     1      58.585 146.197   8.380  1.00  0.00     0.293 HD
ENDBRANCH   6  24
BRANCH   8  26
ATOM     26  O   UNL     1      62.428 146.594   4.607  1.00  0.00    -0.508 OA
ATOM     27  H   UNL     1      63.373 146.311   4.838  1.00  0.00     0.293 HD
ENDBRANCH   8  26
TORSDOF 6
ENDMDL
