MODEL 1
REMARK VINA RESULT:    -7.581      0.000      0.000
REMARK INTER + INTRA:          -9.364
REMARK INTER:                  -9.132
REMARK INTRA:                  -0.231
REMARK UNBOUND:                -0.231
REMARK SMILES O=c1c(O)c(-c2ccc(O)c(O)c2)oc2cc(O)cc(O)c12
REMARK SMILES IDX 5 1 3 2 2 3 1 4 22 5 20 6 19 7 17 8 16 9 15 10 14 11 6 12
REMARK SMILES IDX 7 13 8 14 9 15 13 16 11 17 10 18 12 20 4 22 21 24 18 26
REMARK H PARENT 10 19 12 21 4 23 21 25 18 27
REMARK Flexibility Score: inf
ROOT
ATOM      1  C   UNL     1      56.174 -19.961   3.184  1.00  0.00     0.180 A 
ATOM      2  C   UNL     1      57.172 -20.935   3.355  1.00  0.00     0.208 A 
ATOM      3  C   UNL     1      58.513 -20.582   3.133  1.00  0.00     0.238 A 
ATOM      4  O   UNL     1      59.398 -21.473   3.234  1.00  0.00    -0.285 OA
ATOM      5  C   UNL     1      58.841 -19.257   2.759  1.00  0.00     0.111 A 
ATOM      6  C   UNL     1      60.169 -18.779   2.547  1.00  0.00     0.134 A 
ATOM      7  C   UNL     1      60.367 -17.483   2.053  1.00  0.00     0.093 A 
ATOM      8  C   UNL     1      59.286 -16.627   1.824  1.00  0.00     0.123 A 
ATOM      9  C   UNL     1      57.989 -17.065   2.084  1.00  0.00     0.094 A 
ATOM     10  C   UNL     1      57.759 -18.364   2.543  1.00  0.00     0.146 A 
ATOM     11  O   UNL     1      56.506 -18.744   2.768  1.00  0.00    -0.452 OA
ENDROOT
BRANCH   1  12
ATOM     12  C   UNL     1      54.742 -20.250   3.422  1.00  0.00     0.025 A 
ATOM     13  C   UNL     1      53.842 -20.220   2.346  1.00  0.00     0.016 A 
ATOM     14  C   UNL     1      52.482 -20.470   2.552  1.00  0.00     0.051 A 
ATOM     15  C   UNL     1      52.000 -20.736   3.837  1.00  0.00     0.157 A 
ATOM     16  C   UNL     1      54.251 -20.498   4.717  1.00  0.00     0.062 A 
ATOM     17  C   UNL     1      52.886 -20.745   4.927  1.00  0.00     0.158 A 
BRANCH  15  18
ATOM     18  O   UNL     1      50.638 -20.983   4.012  1.00  0.00    -0.504 OA
ATOM     19  H   UNL     1      49.997 -21.040   3.229  1.00  0.00     0.293 HD
ENDBRANCH  15  18
BRANCH  17  20
ATOM     20  O   UNL     1      52.410 -20.996   6.212  1.00  0.00    -0.504 OA
ATOM     21  H   UNL     1      52.970 -20.804   7.035  1.00  0.00     0.293 HD
ENDBRANCH  17  20
ENDBRANCH   1  12
BRANCH   2  22
ATOM     22  O   UNL     1      56.826 -22.244   3.703  1.00  0.00    -0.502 OA
ATOM     23  H   UNL     1      56.819 -23.001   3.032  1.00  0.00     0.293 HD
ENDBRANCH   2  22
BRANCH   6  24
ATOM     24  O   UNL     1      61.319 -19.520   2.832  1.00  0.00    -0.507 OA
ATOM     25  H   UNL     1      61.668 -20.279   2.269  1.00  0.00     0.293 HD
ENDBRANCH   6  24
BRANCH   8  26
ATOM     26  O   UNL     1      59.492 -15.335   1.347  1.00  0.00    -0.508 OA
ATOM     27  H   UNL     1      58.988 -14.980   0.541  1.00  0.00     0.293 HD
ENDBRANCH   8  26
TORSDOF 6
ENDMDL
MODEL 2
REMARK VINA RESULT:    -7.478      1.309      2.823
REMARK INTER + INTRA:          -9.239
REMARK INTER:                  -8.925
REMARK INTRA:                  -0.315
REMARK UNBOUND:                -0.231
REMARK SMILES O=c1c(O)c(-c2ccc(O)c(O)c2)oc2cc(O)cc(O)c12
REMARK SMILES IDX 5 1 3 2 2 3 1 4 22 5 20 6 19 7 17 8 16 9 15 10 14 11 6 12
REMARK SMILES IDX 7 13 8 14 9 15 13 16 11 17 10 18 12 20 4 22 21 24 18 26
REMARK H PARENT 10 19 12 21 4 23 21 25 18 27
REMARK Flexibility Score: inf
ROOT
ATOM      1  C   UNL     1      56.129 -19.905   3.171  1.00  0.00     0.180 A 
ATOM      2  C   UNL     1      56.102 -18.601   2.646  1.00  0.00     0.208 A 
ATOM      3  C   UNL     1      57.315 -17.980   2.304  1.00  0.00     0.238 A 
ATOM      4  O   UNL     1      57.289 -16.792   1.886  1.00  0.00    -0.285 OA
ATOM      5  C   UNL     1      58.536 -18.675   2.476  1.00  0.00     0.111 A 
ATOM      6  C   UNL     1      59.819 -18.158   2.126  1.00  0.00     0.134 A 
ATOM      7  C   UNL     1      60.971 -18.881   2.460  1.00  0.00     0.093 A 
ATOM      8  C   UNL     1      60.881 -20.133   3.075  1.00  0.00     0.123 A 
ATOM      9  C   UNL     1      59.631 -20.673   3.367  1.00  0.00     0.094 A 
ATOM     10  C   UNL     1      58.466 -19.959   3.077  1.00  0.00     0.146 A 
ATOM     11  O   UNL     1      57.294 -20.505   3.383  1.00  0.00    -0.452 OA
ENDROOT
BRANCH   1  12
ATOM     12  C   UNL     1      54.892 -20.634   3.532  1.00  0.00     0.025 A 
ATOM     13  C   UNL     1      54.281 -21.470   2.585  1.00  0.00     0.016 A 
ATOM     14  C   UNL     1      53.102 -22.152   2.899  1.00  0.00     0.051 A 
ATOM     15  C   UNL     1      52.508 -21.996   4.155  1.00  0.00     0.157 A 
ATOM     16  C   UNL     1      54.283 -20.463   4.789  1.00  0.00     0.062 A 
ATOM     17  C   UNL     1      53.097 -21.145   5.104  1.00  0.00     0.158 A 
BRANCH  15  18
ATOM     18  O   UNL     1      51.333 -22.691   4.440  1.00  0.00    -0.504 OA
ATOM     19  H   UNL     1      50.420 -22.330   4.189  1.00  0.00     0.293 HD
ENDBRANCH  15  18
BRANCH  17  20
ATOM     20  O   UNL     1      52.504 -20.974   6.354  1.00  0.00    -0.504 OA
ATOM     21  H   UNL     1      51.589 -21.355   6.565  1.00  0.00     0.293 HD
ENDBRANCH  17  20
ENDBRANCH   1  12
BRANCH   2  22
ATOM     22  O   UNL     1      54.888 -17.924   2.505  1.00  0.00    -0.502 OA
ATOM     23  H   UNL     1      54.345 -17.610   3.300  1.00  0.00     0.293 HD
ENDBRANCH   2  22
BRANCH   6  24
ATOM     24  O   UNL     1      60.014 -16.962   1.429  1.00  0.00    -0.507 OA
ATOM     25  H   UNL     1      59.282 -16.316   1.180  1.00  0.00     0.293 HD
ENDBRANCH   6  24
BRANCH   8  26
ATOM     26  O   UNL     1      62.031 -20.854   3.390  1.00  0.00    -0.508 OA
ATOM     27  H   UNL     1      62.623 -20.593   4.171  1.00  0.00     0.293 HD
ENDBRANCH   8  26
TORSDOF 6
ENDMDL
MODEL 3
REMARK VINA RESULT:    -6.919      9.652     11.137
REMARK INTER + INTRA:          -8.567
REMARK INTER:                  -8.254
REMARK INTRA:                  -0.313
REMARK UNBOUND:                -0.231
REMARK SMILES O=c1c(O)c(-c2ccc(O)c(O)c2)oc2cc(O)cc(O)c12
REMARK SMILES IDX 5 1 3 2 2 3 1 4 22 5 20 6 19 7 17 8 16 9 15 10 14 11 6 12
REMARK SMILES IDX 7 13 8 14 9 15 13 16 11 17 10 18 12 20 4 22 21 24 18 26
REMARK H PARENT 10 19 12 21 4 23 21 25 18 27
REMARK Flexibility Score: inf
ROOT
ATOM      1  C   UNL     1      56.744 -13.524  -5.909  1.00  0.00     0.180 A 
ATOM      2  C   UNL     1      57.051 -12.539  -6.864  1.00  0.00     0.208 A 
ATOM      3  C   UNL     1      58.382 -12.110  -6.996  1.00  0.00     0.238 A 
ATOM      4  O   UNL     1      58.641 -11.189  -7.815  1.00  0.00    -0.285 OA
ATOM      5  C   UNL     1      59.390 -12.679  -6.182  1.00  0.00     0.111 A 
ATOM      6  C   UNL     1      60.776 -12.348  -6.258  1.00  0.00     0.134 A 
ATOM      7  C   UNL     1      61.666 -12.878  -5.317  1.00  0.00     0.093 A 
ATOM      8  C   UNL     1      61.230 -13.779  -4.341  1.00  0.00     0.123 A 
ATOM      9  C   UNL     1      59.890 -14.155  -4.296  1.00  0.00     0.094 A 
ATOM     10  C   UNL     1      58.972 -13.614  -5.200  1.00  0.00     0.146 A 
ATOM     11  O   UNL     1      57.701 -13.991  -5.115  1.00  0.00    -0.452 OA
ENDROOT
BRANCH   1  12
ATOM     12  C   UNL     1      55.371 -14.045  -5.727  1.00  0.00     0.025 A 
ATOM     13  C   UNL     1      54.899 -15.060  -6.574  1.00  0.00     0.016 A 
ATOM     14  C   UNL     1      53.599 -15.553  -6.433  1.00  0.00     0.051 A 
ATOM     15  C   UNL     1      52.746 -15.028  -5.457  1.00  0.00     0.157 A 
ATOM     16  C   UNL     1      54.505 -13.505  -4.759  1.00  0.00     0.062 A 
ATOM     17  C   UNL     1      53.198 -13.996  -4.618  1.00  0.00     0.158 A 
BRANCH  15  18
ATOM     18  O   UNL     1      51.455 -15.541  -5.339  1.00  0.00    -0.504 OA
ATOM     19  H   UNL     1      51.172 -16.110  -4.549  1.00  0.00     0.293 HD
ENDBRANCH  15  18
BRANCH  17  20
ATOM     20  O   UNL     1      52.349 -13.459  -3.652  1.00  0.00    -0.504 OA
ATOM     21  H   UNL     1      52.429 -12.494  -3.350  1.00  0.00     0.293 HD
ENDBRANCH  17  20
ENDBRANCH   1  12
BRANCH   2  22
ATOM     22  O   UNL     1      56.037 -11.974  -7.642  1.00  0.00    -0.502 OA
ATOM     23  H   UNL     1      56.037 -10.998  -7.909  1.00  0.00     0.293 HD
ENDBRANCH   2  22
BRANCH   6  24
ATOM     24  O   UNL     1      61.330 -11.532  -7.249  1.00  0.00    -0.507 OA
ATOM     25  H   UNL     1      62.317 -11.374  -7.378  1.00  0.00     0.293 HD
ENDBRANCH   6  24
BRANCH   8  26
ATOM     26  O   UNL     1      62.125 -14.315  -3.417  1.00  0.00    -0.508 OA
ATOM     27  H   UNL     1      62.621 -13.727  -2.757  1.00  0.00     0.293 HD
ENDBRANCH   8  26
TORSDOF 6
ENDMDL
MODEL 4
REMARK VINA RESULT:    -6.890      2.443      7.612
REMARK INTER + INTRA:          -8.532
REMARK INTER:                  -8.209
REMARK INTRA:                  -0.322
REMARK UNBOUND:                -0.231
REMARK SMILES O=c1c(O)c(-c2ccc(O)c(O)c2)oc2cc(O)cc(O)c12
REMARK SMILES IDX 5 1 3 2 2 3 1 4 22 5 20 6 19 7 17 8 16 9 15 10 14 11 6 12
REMARK SMILES IDX 7 13 8 14 9 15 13 16 11 17 10 18 12 20 4 22 21 24 18 26
REMARK H PARENT 10 19 12 21 4 23 21 25 18 27
REMARK Flexibility Score: inf
ROOT
ATOM      1  C   UNL     1      59.911 -17.364   1.054  1.00  0.00     0.180 A 
ATOM      2  C   UNL     1      60.750 -18.385   1.535  1.00  0.00     0.208 A 
ATOM      3  C   UNL     1      60.191 -19.424   2.296  1.00  0.00     0.238 A 
ATOM      4  O   UNL     1      60.955 -20.305   2.770  1.00  0.00    -0.285 OA
ATOM      5  C   UNL     1      58.799 -19.438   2.554  1.00  0.00     0.111 A 
ATOM      6  C   UNL     1      58.120 -20.462   3.280  1.00  0.00     0.134 A 
ATOM      7  C   UNL     1      56.762 -20.308   3.586  1.00  0.00     0.093 A 
ATOM      8  C   UNL     1      56.044 -19.196   3.136  1.00  0.00     0.123 A 
ATOM      9  C   UNL     1      56.685 -18.220   2.376  1.00  0.00     0.094 A 
ATOM     10  C   UNL     1      58.047 -18.329   2.086  1.00  0.00     0.146 A 
ATOM     11  O   UNL     1      58.621 -17.371   1.368  1.00  0.00    -0.452 OA
ENDROOT
BRANCH   1  12
ATOM     12  C   UNL     1      60.422 -16.250   0.224  1.00  0.00     0.025 A 
ATOM     13  C   UNL     1      60.453 -16.385  -1.172  1.00  0.00     0.016 A 
ATOM     14  C   UNL     1      60.950 -15.352  -1.972  1.00  0.00     0.051 A 
ATOM     15  C   UNL     1      61.438 -14.179  -1.389  1.00  0.00     0.157 A 
ATOM     16  C   UNL     1      60.932 -15.076   0.810  1.00  0.00     0.062 A 
ATOM     17  C   UNL     1      61.434 -14.040   0.008  1.00  0.00     0.158 A 
BRANCH  15  18
ATOM     18  O   UNL     1      61.926 -13.165  -2.214  1.00  0.00    -0.504 OA
ATOM     19  H   UNL     1      61.369 -12.763  -2.959  1.00  0.00     0.293 HD
ENDBRANCH  15  18
BRANCH  17  20
ATOM     20  O   UNL     1      61.931 -12.878   0.596  1.00  0.00    -0.504 OA
ATOM     21  H   UNL     1      62.767 -12.421   0.249  1.00  0.00     0.293 HD
ENDBRANCH  17  20
ENDBRANCH   1  12
BRANCH   2  22
ATOM     22  O   UNL     1      62.125 -18.340   1.288  1.00  0.00    -0.502 OA
ATOM     23  H   UNL     1      62.531 -17.743   0.578  1.00  0.00     0.293 HD
ENDBRANCH   2  22
BRANCH   6  24
ATOM     24  O   UNL     1      58.721 -21.654   3.694  1.00  0.00    -0.507 OA
ATOM     25  H   UNL     1      58.272 -22.359   4.257  1.00  0.00     0.293 HD
ENDBRANCH   6  24
BRANCH   8  26
ATOM     26  O   UNL     1      54.690 -19.057   3.432  1.00  0.00    -0.508 OA
ATOM     27  H   UNL     1      54.264 -19.550   4.208  1.00  0.00     0.293 HD
ENDBRANCH   8  26
TORSDOF 6
ENDMDL
MODEL 5
REMARK VINA RESULT:    -6.774      1.657      7.136
REMARK INTER + INTRA:          -8.391
REMARK INTER:                  -8.922
REMARK INTRA:                   0.531
REMARK UNBOUND:                -0.231
REMARK SMILES O=c1c(O)c(-c2ccc(O)c(O)c2)oc2cc(O)cc(O)c12
REMARK SMILES IDX 5 1 3 2 2 3 1 4 22 5 20 6 19 7 17 8 16 9 15 10 14 11 6 12
REMARK SMILES IDX 7 13 8 14 9 15 13 16 11 17 10 18 12 20 4 22 21 24 18 26
REMARK H PARENT 10 19 12 21 4 23 21 25 18 27
REMARK Flexibility Score: inf
ROOT
ATOM      1  C   UNL     1      56.455 -19.802   3.112  1.00  0.00     0.180 A 
ATOM      2  C   UNL     1      55.813 -18.646   2.636  1.00  0.00     0.208 A 
ATOM      3  C   UNL     1      54.412 -18.575   2.686  1.00  0.00     0.238 A 
ATOM      4  O   UNL     1      53.841 -17.559   2.207  1.00  0.00    -0.285 OA
ATOM      5  C   UNL     1      53.670 -19.653   3.225  1.00  0.00     0.111 A 
ATOM      6  C   UNL     1      52.249 -19.672   3.361  1.00  0.00     0.134 A 
ATOM      7  C   UNL     1      51.611 -20.843   3.787  1.00  0.00     0.093 A 
ATOM      8  C   UNL     1      52.349 -21.976   4.144  1.00  0.00     0.123 A 
ATOM      9  C   UNL     1      53.739 -21.947   4.071  1.00  0.00     0.094 A 
ATOM     10  C   UNL     1      54.402 -20.805   3.615  1.00  0.00     0.146 A 
ATOM     11  O   UNL     1      55.728 -20.824   3.550  1.00  0.00    -0.452 OA
ENDROOT
BRANCH   1  12
ATOM     12  C   UNL     1      57.928 -19.942   3.115  1.00  0.00     0.025 A 
ATOM     13  C   UNL     1      58.727 -18.848   2.751  1.00  0.00     0.016 A 
ATOM     14  C   UNL     1      60.120 -18.964   2.727  1.00  0.00     0.051 A 
ATOM     15  C   UNL     1      60.733 -20.179   3.052  1.00  0.00     0.157 A 
ATOM     16  C   UNL     1      58.546 -21.168   3.422  1.00  0.00     0.062 A 
ATOM     17  C   UNL     1      59.944 -21.288   3.396  1.00  0.00     0.158 A 
BRANCH  15  18
ATOM     18  O   UNL     1      62.125 -20.264   3.022  1.00  0.00    -0.504 OA
ATOM     19  H   UNL     1      62.616 -21.126   3.230  1.00  0.00     0.293 HD
ENDBRANCH  15  18
BRANCH  17  20
ATOM     20  O   UNL     1      60.548 -22.505   3.707  1.00  0.00    -0.504 OA
ATOM     21  H   UNL     1      61.523 -22.685   3.496  1.00  0.00     0.293 HD
ENDBRANCH  17  20
ENDBRANCH   1  12
BRANCH   2  22
ATOM     22  O   UNL     1      56.563 -17.602   2.087  1.00  0.00    -0.502 OA
ATOM     23  H   UNL     1      57.105 -17.708   1.239  1.00  0.00     0.293 HD
ENDBRANCH   2  22
BRANCH   6  24
ATOM     24  O   UNL     1      51.428 -18.567   3.120  1.00  0.00    -0.507 OA
ATOM     25  H   UNL     1      51.315 -18.120   2.224  1.00  0.00     0.293 HD
ENDBRANCH   6  24
BRANCH   8  26
ATOM     26  O   UNL     1      51.708 -23.132   4.582  1.00  0.00    -0.508 OA
ATOM     27  H   UNL     1      52.101 -24.052   4.417  1.00  0.00     0.293 HD
ENDBRANCH   8  26
TORSDOF 6
ENDMDL
MODEL 6
REMARK VINA RESULT:    -6.751      1.632      6.890
REMARK INTER + INTRA:          -8.364
REMARK INTER:                  -8.076
REMARK INTRA:                  -0.288
REMARK UNBOUND:                -0.231
REMARK SMILES O=c1c(O)c(-c2ccc(O)c(O)c2)oc2cc(O)cc(O)c12
REMARK SMILES IDX 5 1 3 2 2 3 1 4 22 5 20 6 19 7 17 8 16 9 15 10 14 11 6 12
REMARK SMILES IDX 7 13 8 14 9 15 13 16 11 17 10 18 12 20 4 22 21 24 18 26
REMARK H PARENT 10 19 12 21 4 23 21 25 18 27
REMARK Flexibility Score: inf
ROOT
ATOM      1  C   UNL     1      58.265 -18.616   2.308  1.00  0.00     0.180 A 
ATOM      2  C   UNL     1      58.772 -19.809   2.852  1.00  0.00     0.208 A 
ATOM      3  C   UNL     1      57.885 -20.709   3.466  1.00  0.00     0.238 A 
ATOM      4  O   UNL     1      58.353 -21.749   3.999  1.00  0.00    -0.285 OA
ATOM      5  C   UNL     1      56.502 -20.412   3.516  1.00  0.00     0.111 A 
ATOM      6  C   UNL     1      55.509 -21.268   4.079  1.00  0.00     0.134 A 
ATOM      7  C   UNL     1      54.189 -20.815   4.191  1.00  0.00     0.093 A 
ATOM      8  C   UNL     1      53.814 -19.561   3.702  1.00  0.00     0.123 A 
ATOM      9  C   UNL     1      54.765 -18.742   3.097  1.00  0.00     0.094 A 
ATOM     10  C   UNL     1      56.097 -19.152   3.003  1.00  0.00     0.146 A 
ATOM     11  O   UNL     1      56.973 -18.335   2.430  1.00  0.00    -0.452 OA
ENDROOT
BRANCH   1  12
ATOM     12  C   UNL     1      59.132 -17.631   1.624  1.00  0.00     0.025 A 
ATOM     13  C   UNL     1      59.890 -16.729   2.386  1.00  0.00     0.016 A 
ATOM     14  C   UNL     1      60.699 -15.777   1.760  1.00  0.00     0.051 A 
ATOM     15  C   UNL     1      60.751 -15.702   0.365  1.00  0.00     0.157 A 
ATOM     16  C   UNL     1      59.170 -17.540   0.220  1.00  0.00     0.062 A 
ATOM     17  C   UNL     1      59.980 -16.583  -0.410  1.00  0.00     0.158 A 
BRANCH  15  18
ATOM     18  O   UNL     1      61.569 -14.743  -0.232  1.00  0.00    -0.504 OA
ATOM     19  H   UNL     1      61.461 -14.472  -1.202  1.00  0.00     0.293 HD
ENDBRANCH  15  18
BRANCH  17  20
ATOM     20  O   UNL     1      60.016 -16.505  -1.801  1.00  0.00    -0.504 OA
ATOM     21  H   UNL     1      60.506 -15.758  -2.280  1.00  0.00     0.293 HD
ENDBRANCH  17  20
ENDBRANCH   1  12
BRANCH   2  22
ATOM     22  O   UNL     1      60.144 -20.073   2.811  1.00  0.00    -0.502 OA
ATOM     23  H   UNL     1      60.541 -20.801   2.230  1.00  0.00     0.293 HD
ENDBRANCH   2  22
BRANCH   6  24
ATOM     24  O   UNL     1      55.760 -22.574   4.512  1.00  0.00    -0.507 OA
ATOM     25  H   UNL     1      55.095 -23.330   4.472  1.00  0.00     0.293 HD
ENDBRANCH   6  24
BRANCH   8  26
ATOM     26  O   UNL     1      52.495 -19.124   3.803  1.00  0.00    -0.508 OA
ATOM     27  H   UNL     1      52.204 -18.227   3.430  1.00  0.00     0.293 HD
ENDBRANCH   8  26
TORSDOF 6
ENDMDL
MODEL 7
REMARK VINA RESULT:    -6.656      1.448      6.737
REMARK INTER + INTRA:          -8.249
REMARK INTER:                  -8.544
REMARK INTRA:                   0.295
REMARK UNBOUND:                -0.231
REMARK SMILES O=c1c(O)c(-c2ccc(O)c(O)c2)oc2cc(O)cc(O)c12
REMARK SMILES IDX 5 1 3 2 2 3 1 4 22 5 20 6 19 7 17 8 16 9 15 10 14 11 6 12
REMARK SMILES IDX 7 13 8 14 9 15 13 16 11 17 10 18 12 20 4 22 21 24 18 26
REMARK H PARENT 10 19 12 21 4 23 21 25 18 27
REMARK Flexibility Score: inf
ROOT
ATOM      1  C   UNL     1      57.441 -19.873   3.171  1.00  0.00     0.180 A 
ATOM      2  C   UNL     1      57.461 -21.036   3.959  1.00  0.00     0.208 A 
ATOM      3  C   UNL     1      56.245 -21.567   4.421  1.00  0.00     0.238 A 
ATOM      4  O   UNL     1      56.274 -22.577   5.172  1.00  0.00    -0.285 OA
ATOM      5  C   UNL     1      55.025 -20.938   4.077  1.00  0.00     0.111 A 
ATOM      6  C   UNL     1      53.734 -21.411   4.456  1.00  0.00     0.134 A 
ATOM      7  C   UNL     1      52.602 -20.637   4.169  1.00  0.00     0.093 A 
ATOM      8  C   UNL     1      52.711 -19.438   3.460  1.00  0.00     0.123 A 
ATOM      9  C   UNL     1      53.961 -18.998   3.033  1.00  0.00     0.094 A 
ATOM     10  C   UNL     1      55.112 -19.730   3.336  1.00  0.00     0.146 A 
ATOM     11  O   UNL     1      56.286 -19.268   2.920  1.00  0.00    -0.452 OA
ENDROOT
BRANCH   1  12
ATOM     12  C   UNL     1      58.677 -19.268   2.627  1.00  0.00     0.025 A 
ATOM     13  C   UNL     1      58.690 -17.906   2.288  1.00  0.00     0.016 A 
ATOM     14  C   UNL     1      59.841 -17.320   1.753  1.00  0.00     0.051 A 
ATOM     15  C   UNL     1      60.989 -18.088   1.535  1.00  0.00     0.157 A 
ATOM     16  C   UNL     1      59.827 -20.043   2.387  1.00  0.00     0.062 A 
ATOM     17  C   UNL     1      60.982 -19.457   1.848  1.00  0.00     0.158 A 
BRANCH  15  18
ATOM     18  O   UNL     1      62.123 -17.474   1.003  1.00  0.00    -0.504 OA
ATOM     19  H   UNL     1      62.220 -17.293   0.010  1.00  0.00     0.293 HD
ENDBRANCH  15  18
BRANCH  17  20
ATOM     20  O   UNL     1      62.119 -20.231   1.620  1.00  0.00    -0.504 OA
ATOM     21  H   UNL     1      62.912 -19.873   1.101  1.00  0.00     0.293 HD
ENDBRANCH  17  20
ENDBRANCH   1  12
BRANCH   2  22
ATOM     22  O   UNL     1      58.678 -21.630   4.307  1.00  0.00    -0.502 OA
ATOM     23  H   UNL     1      58.767 -22.621   4.487  1.00  0.00     0.293 HD
ENDBRANCH   2  22
BRANCH   6  24
ATOM     24  O   UNL     1      53.507 -22.638   5.086  1.00  0.00    -0.507 OA
ATOM     25  H   UNL     1      53.503 -22.780   6.083  1.00  0.00     0.293 HD
ENDBRANCH   6  24
BRANCH   8  26
ATOM     26  O   UNL     1      51.579 -18.682   3.165  1.00  0.00    -0.508 OA
ATOM     27  H   UNL     1      51.592 -17.669   3.206  1.00  0.00     0.293 HD
ENDBRANCH   8  26
TORSDOF 6
ENDMDL
MODEL 8
REMARK VINA RESULT:    -6.515      3.183      8.325
REMARK INTER + INTRA:          -8.079
REMARK INTER:                  -7.821
REMARK INTRA:                  -0.258
REMARK UNBOUND:                -0.231
REMARK SMILES O=c1c(O)c(-c2ccc(O)c(O)c2)oc2cc(O)cc(O)c12
REMARK SMILES IDX 5 1 3 2 2 3 1 4 22 5 20 6 19 7 17 8 16 9 15 10 14 11 6 12
REMARK SMILES IDX 7 13 8 14 9 15 13 16 11 17 10 18 12 20 4 22 21 24 18 26
REMARK H PARENT 10 19 12 21 4 23 21 25 18 27
REMARK Flexibility Score: inf
ROOT
ATOM      1  C   UNL     1      52.879 -21.328   3.598  1.00  0.00     0.180 A 
ATOM      2  C   UNL     1      52.140 -20.135   3.515  1.00  0.00     0.208 A 
ATOM      3  C   UNL     1      50.760 -20.204   3.265  1.00  0.00     0.238 A 
ATOM      4  O   UNL     1      50.114 -19.131   3.138  1.00  0.00    -0.285 OA
ATOM      5  C   UNL     1      50.133 -21.464   3.116  1.00  0.00     0.111 A 
ATOM      6  C   UNL     1      48.735 -21.654   2.900  1.00  0.00     0.134 A 
ATOM      7  C   UNL     1      48.244 -22.939   2.637  1.00  0.00     0.093 A 
ATOM      8  C   UNL     1      49.092 -24.050   2.647  1.00  0.00     0.123 A 
ATOM      9  C   UNL     1      50.449 -23.882   2.916  1.00  0.00     0.094 A 
ATOM     10  C   UNL     1      50.973 -22.608   3.146  1.00  0.00     0.146 A 
ATOM     11  O   UNL     1      52.274 -22.492   3.388  1.00  0.00    -0.452 OA
ENDROOT
BRANCH   1  12
ATOM     12  C   UNL     1      54.331 -21.338   3.882  1.00  0.00     0.025 A 
ATOM     13  C   UNL     1      55.238 -21.003   2.865  1.00  0.00     0.016 A 
ATOM     14  C   UNL     1      56.614 -21.025   3.107  1.00  0.00     0.051 A 
ATOM     15  C   UNL     1      57.105 -21.399   4.362  1.00  0.00     0.157 A 
ATOM     16  C   UNL     1      54.828 -21.733   5.138  1.00  0.00     0.062 A 
ATOM     17  C   UNL     1      56.210 -21.759   5.382  1.00  0.00     0.158 A 
BRANCH  15  18
ATOM     18  O   UNL     1      58.484 -21.410   4.573  1.00  0.00    -0.504 OA
ATOM     19  H   UNL     1      59.101 -20.740   4.130  1.00  0.00     0.293 HD
ENDBRANCH  15  18
BRANCH  17  20
ATOM     20  O   UNL     1      56.693 -22.146   6.631  1.00  0.00    -0.504 OA
ATOM     21  H   UNL     1      56.665 -21.521   7.429  1.00  0.00     0.293 HD
ENDBRANCH  17  20
ENDBRANCH   1  12
BRANCH   2  22
ATOM     22  O   UNL     1      52.783 -18.900   3.643  1.00  0.00    -0.502 OA
ATOM     23  H   UNL     1      52.528 -18.094   3.086  1.00  0.00     0.293 HD
ENDBRANCH   2  22
BRANCH   6  24
ATOM     24  O   UNL     1      47.790 -20.625   2.961  1.00  0.00    -0.507 OA
ATOM     25  H   UNL     1      47.482 -20.081   2.171  1.00  0.00     0.293 HD
ENDBRANCH   6  24
BRANCH   8  26
ATOM     26  O   UNL     1      48.594 -25.327   2.400  1.00  0.00    -0.508 OA
ATOM     27  H   UNL     1      49.128 -26.158   2.629  1.00  0.00     0.293 HD
ENDBRANCH   8  26
TORSDOF 6
ENDMDL
MODEL 9
REMARK VINA RESULT:    -6.400      4.244      6.873
REMARK INTER + INTRA:          -7.941
REMARK INTER:                  -7.648
REMARK INTRA:                  -0.293
REMARK UNBOUND:                -0.231
REMARK SMILES O=c1c(O)c(-c2ccc(O)c(O)c2)oc2cc(O)cc(O)c12
REMARK SMILES IDX 5 1 3 2 2 3 1 4 22 5 20 6 19 7 17 8 16 9 15 10 14 11 6 12
REMARK SMILES IDX 7 13 8 14 9 15 13 16 11 17 10 18 12 20 4 22 21 24 18 26
REMARK H PARENT 10 19 12 21 4 23 21 25 18 27
REMARK Flexibility Score: inf
ROOT
ATOM      1  C   UNL     1      52.937 -21.131   3.153  1.00  0.00     0.180 A 
ATOM      2  C   UNL     1      51.780 -21.929   3.194  1.00  0.00     0.208 A 
ATOM      3  C   UNL     1      50.790 -21.743   2.215  1.00  0.00     0.238 A 
ATOM      4  O   UNL     1      49.732 -22.423   2.290  1.00  0.00    -0.285 OA
ATOM      5  C   UNL     1      50.975 -20.775   1.200  1.00  0.00     0.111 A 
ATOM      6  C   UNL     1      50.055 -20.531   0.136  1.00  0.00     0.134 A 
ATOM      7  C   UNL     1      50.279 -19.459  -0.738  1.00  0.00     0.093 A 
ATOM      8  C   UNL     1      51.423 -18.664  -0.625  1.00  0.00     0.123 A 
ATOM      9  C   UNL     1      52.356 -18.932   0.374  1.00  0.00     0.094 A 
ATOM     10  C   UNL     1      52.142 -19.971   1.283  1.00  0.00     0.146 A 
ATOM     11  O   UNL     1      53.051 -20.186   2.227  1.00  0.00    -0.452 OA
ENDROOT
BRANCH   1  12
ATOM     12  C   UNL     1      54.035 -21.283   4.133  1.00  0.00     0.025 A 
ATOM     13  C   UNL     1      55.159 -22.054   3.799  1.00  0.00     0.016 A 
ATOM     14  C   UNL     1      56.197 -22.228   4.718  1.00  0.00     0.051 A 
ATOM     15  C   UNL     1      56.121 -21.648   5.988  1.00  0.00     0.157 A 
ATOM     16  C   UNL     1      53.951 -20.718   5.419  1.00  0.00     0.062 A 
ATOM     17  C   UNL     1      54.992 -20.894   6.344  1.00  0.00     0.158 A 
BRANCH  15  18
ATOM     18  O   UNL     1      57.174 -21.837   6.883  1.00  0.00    -0.504 OA
ATOM     19  H   UNL     1      58.129 -21.592   6.649  1.00  0.00     0.293 HD
ENDBRANCH  15  18
BRANCH  17  20
ATOM     20  O   UNL     1      54.903 -20.325   7.613  1.00  0.00    -0.504 OA
ATOM     21  H   UNL     1      55.724 -20.176   8.189  1.00  0.00     0.293 HD
ENDBRANCH  17  20
ENDBRANCH   1  12
BRANCH   2  22
ATOM     22  O   UNL     1      51.607 -22.864   4.218  1.00  0.00    -0.502 OA
ATOM     23  H   UNL     1      50.837 -22.816   4.874  1.00  0.00     0.293 HD
ENDBRANCH   2  22
BRANCH   6  24
ATOM     24  O   UNL     1      48.932 -21.322  -0.122  1.00  0.00    -0.507 OA
ATOM     25  H   UNL     1      48.145 -21.037  -0.683  1.00  0.00     0.293 HD
ENDBRANCH   6  24
BRANCH   8  26
ATOM     26  O   UNL     1      51.646 -17.610  -1.508  1.00  0.00    -0.508 OA
ATOM     27  H   UNL     1      51.229 -17.596  -2.432  1.00  0.00     0.293 HD
ENDBRANCH   8  26
TORSDOF 6
ENDMDL
