MODEL 1
REMARK VINA RESULT:    -3.139      0.000      0.000
REMARK INTER + INTRA:          -3.139
REMARK INTER:                  -3.139
REMARK INTRA:                   0.000
REMARK UNBOUND:                 0.000
REMARK SMILES CC(=O)[O-]
REMARK SMILES IDX 1 1 2 2 3 3 4 4
REMARK H PARENT
REMARK Flexibility Score: inf
ROOT
ATOM      1  C   UNL     1      17.940   1.963  25.387  1.00  0.00     0.063 C 
ATOM      2  C   UNL     1      19.093   1.657  26.281  1.00  0.00     0.038 C 
ATOM      3  O   UNL     1      19.077   2.028  27.484  1.00  0.00    -0.550 OA
ATOM      4  O   UNL     1      20.167   0.916  25.804  1.00  0.00    -0.550 OA
ENDROOT
TORSDOF 0
ENDMDL
MODEL 2
REMARK VINA RESULT:    -2.598      1.562      1.826
REMARK INTER + INTRA:          -2.598
REMARK INTER:                  -2.598
REMARK INTRA:                   0.000
REMARK UNBOUND:                 0.000
REMARK SMILES CC(=O)[O-]
REMARK SMILES IDX 1 1 2 2 3 3 4 4
REMARK H PARENT
REMARK Flexibility Score: inf
ROOT
ATOM      1  C   UNL     1      20.077   0.989  25.534  1.00  0.00     0.063 C 
ATOM      2  C   UNL     1      18.790   1.634  25.922  1.00  0.00     0.038 C 
ATOM      3  O   UNL     1      18.736   2.377  26.936  1.00  0.00    -0.550 OA
ATOM      4  O   UNL     1      17.659   1.460  25.135  1.00  0.00    -0.550 OA
ENDROOT
TORSDOF 0
ENDMDL
MODEL 3
REMARK VINA RESULT:    -2.521      2.209      2.856
REMARK INTER + INTRA:          -2.521
REMARK INTER:                  -2.521
REMARK INTRA:                   0.000
REMARK UNBOUND:                 0.000
REMARK SMILES CC(=O)[O-]
REMARK SMILES IDX 1 1 2 2 3 3 4 4
REMARK H PARENT
REMARK Flexibility Score: inf
ROOT
ATOM      1  C   UNL     1      18.795   2.137  26.431  1.00  0.00     0.063 C 
ATOM      2  C   UNL     1      17.683   2.106  25.438  1.00  0.00     0.038 C 
ATOM      3  O   UNL     1      17.567   1.131  24.651  1.00  0.00    -0.550 OA
ATOM      4  O   UNL     1      16.742   3.127  25.414  1.00  0.00    -0.550 OA
ENDROOT
TORSDOF 0
ENDMDL
MODEL 4
REMARK VINA RESULT:    -2.319     18.853     19.428
REMARK INTER + INTRA:          -2.319
REMARK INTER:                  -2.319
REMARK INTRA:                   0.000
REMARK UNBOUND:                 0.000
REMARK SMILES CC(=O)[O-]
REMARK SMILES IDX 1 1 2 2 3 3 4 4
REMARK H PARENT
REMARK Flexibility Score: inf
ROOT
ATOM      1  C   UNL     1      10.875  15.880  38.125  1.00  0.00     0.063 C 
ATOM      2  C   UNL     1      11.901  15.925  37.044  1.00  0.00     0.038 C 
ATOM      3  O   UNL     1      12.086  14.923  36.306  1.00  0.00    -0.550 OA
ATOM      4  O   UNL     1      12.621  17.092  36.815  1.00  0.00    -0.550 OA
ENDROOT
TORSDOF 0
ENDMDL
MODEL 5
REMARK VINA RESULT:    -2.318     19.890     20.381
REMARK INTER + INTRA:          -2.318
REMARK INTER:                  -2.318
REMARK INTRA:                   0.000
REMARK UNBOUND:                 0.000
REMARK SMILES CC(=O)[O-]
REMARK SMILES IDX 1 1 2 2 3 3 4 4
REMARK H PARENT
REMARK Flexibility Score: inf
ROOT
ATOM      1  C   UNL     1      11.836  15.922  37.105  1.00  0.00     0.063 C 
ATOM      2  C   UNL     1      11.919  17.402  36.951  1.00  0.00     0.038 C 
ATOM      3  O   UNL     1      10.875  18.103  37.014  1.00  0.00    -0.550 OA
ATOM      4  O   UNL     1      13.154  18.018  36.790  1.00  0.00    -0.550 OA
ENDROOT
TORSDOF 0
ENDMDL
MODEL 6
REMARK VINA RESULT:    -2.161     13.614     14.014
REMARK INTER + INTRA:          -2.161
REMARK INTER:                  -2.161
REMARK INTRA:                   0.000
REMARK UNBOUND:                 0.000
REMARK SMILES CC(=O)[O-]
REMARK SMILES IDX 1 1 2 2 3 3 4 4
REMARK H PARENT
REMARK Flexibility Score: inf
ROOT
ATOM      1  C   UNL     1      30.968  -1.146  33.540  1.00  0.00     0.063 C 
ATOM      2  C   UNL     1      30.367   0.079  34.141  1.00  0.00     0.038 C 
ATOM      3  O   UNL     1      29.186   0.054  34.576  1.00  0.00    -0.550 OA
ATOM      4  O   UNL     1      31.125   1.235  34.272  1.00  0.00    -0.550 OA
ENDROOT
TORSDOF 0
ENDMDL
MODEL 7
REMARK VINA RESULT:    -2.161     13.800     13.904
REMARK INTER + INTRA:          -2.161
REMARK INTER:                  -2.161
REMARK INTRA:                   0.000
REMARK UNBOUND:                 0.000
REMARK SMILES CC(=O)[O-]
REMARK SMILES IDX 1 1 2 2 3 3 4 4
REMARK H PARENT
REMARK Flexibility Score: inf
ROOT
ATOM      1  C   UNL     1      29.175  -0.606  34.799  1.00  0.00     0.063 C 
ATOM      2  C   UNL     1      30.381  -0.197  34.023  1.00  0.00     0.038 C 
ATOM      3  O   UNL     1      30.807   0.985  34.094  1.00  0.00    -0.550 OA
ATOM      4  O   UNL     1      31.069  -1.132  33.260  1.00  0.00    -0.550 OA
ENDROOT
TORSDOF 0
ENDMDL
MODEL 8
REMARK VINA RESULT:    -2.139     16.615     17.125
REMARK INTER + INTRA:          -2.139
REMARK INTER:                  -2.139
REMARK INTRA:                   0.000
REMARK UNBOUND:                 0.000
REMARK SMILES CC(=O)[O-]
REMARK SMILES IDX 1 1 2 2 3 3 4 4
REMARK H PARENT
REMARK Flexibility Score: inf
ROOT
ATOM      1  C   UNL     1      11.317  18.005  26.697  1.00  0.00     0.063 C 
ATOM      2  C   UNL     1      12.415  17.294  25.982  1.00  0.00     0.038 C 
ATOM      3  O   UNL     1      12.547  16.049  26.105  1.00  0.00    -0.550 OA
ATOM      4  O   UNL     1      13.264  17.997  25.136  1.00  0.00    -0.550 OA
ENDROOT
TORSDOF 0
ENDMDL
MODEL 9
REMARK VINA RESULT:    -2.080     19.579     19.667
REMARK INTER + INTRA:          -2.080
REMARK INTER:                  -2.080
REMARK INTRA:                   0.000
REMARK UNBOUND:                 0.000
REMARK SMILES CC(=O)[O-]
REMARK SMILES IDX 1 1 2 2 3 3 4 4
REMARK H PARENT
REMARK Flexibility Score: inf
ROOT
ATOM      1  C   UNL     1      28.783  18.125  22.201  1.00  0.00     0.063 C 
ATOM      2  C   UNL     1      29.707  17.389  21.292  1.00  0.00     0.038 C 
ATOM      3  O   UNL     1      30.938  17.332  21.552  1.00  0.00    -0.550 OA
ATOM      4  O   UNL     1      29.206  16.719  20.183  1.00  0.00    -0.550 OA
ENDROOT
TORSDOF 0
ENDMDL
