MODEL 1
REMARK VINA RESULT:    -3.703      0.000      0.000
REMARK INTER + INTRA:          -5.208
REMARK INTER:                  -5.002
REMARK INTRA:                  -0.206
REMARK UNBOUND:                -0.206
REMARK SMILES [NH3+]CCCC[C@@H]([NH3+])C(=O)[O-]
REMARK SMILES IDX 4 1 3 2 2 3 1 4 5 8 6 9 7 10 8 14 9 15 10 16
REMARK H PARENT 1 5 1 6 1 7 7 11 7 12 7 13
REMARK Flexibility Score: inf
ROOT
ATOM      1  C   UNL     1      -9.764  -3.400   3.423  1.00  0.00     0.012 C 
ENDROOT
BRANCH   1   2
ATOM      2  C   UNL     1      -8.631  -3.250   4.449  1.00  0.00     0.061 C 
BRANCH   2   3
ATOM      3  C   UNL     1      -9.014  -3.790   5.836  1.00  0.00     0.258 C 
BRANCH   3   4
ATOM      4  N   UNL     1      -7.902  -3.714   6.787  1.00  0.00    -0.358 N 
ATOM      5  H   UNL     1      -7.802  -4.617   7.304  1.00  0.00     0.344 HD
ATOM      6  H   UNL     1      -7.018  -3.529   6.260  1.00  0.00     0.344 HD
ATOM      7  H   UNL     1      -8.052  -2.929   7.460  1.00  0.00     0.344 HD
ENDBRANCH   3   4
ENDBRANCH   2   3
ENDBRANCH   1   2
BRANCH   1   8
ATOM      8  C   UNL     1      -9.726  -2.261   2.393  1.00  0.00     0.072 C 
BRANCH   8   9
ATOM      9  C   UNL     1      -8.978  -1.018   2.922  1.00  0.00     0.227 C 
BRANCH   9  10
ATOM     10  N   UNL     1      -8.025  -0.528   1.919  1.00  0.00    -0.350 N 
ATOM     11  H   UNL     1      -7.047  -0.732   2.229  1.00  0.00     0.345 HD
ATOM     12  H   UNL     1      -8.187  -1.016   1.008  1.00  0.00     0.345 HD
ATOM     13  H   UNL     1      -8.134   0.503   1.779  1.00  0.00     0.345 HD
ENDBRANCH   9  10
BRANCH   9  14
ATOM     14  C   UNL     1      -9.944   0.078   3.292  1.00  0.00     0.099 C 
ATOM     15  O   UNL     1     -10.441   0.120   4.448  1.00  0.00    -0.544 OA
ATOM     16  O   UNL     1     -10.296   1.047   2.359  1.00  0.00    -0.544 OA
ENDBRANCH   9  14
ENDBRANCH   8   9
ENDBRANCH   1   8
TORSDOF 7
ENDMDL
MODEL 2
REMARK VINA RESULT:    -3.628      1.620      1.927
REMARK INTER + INTRA:          -5.107
REMARK INTER:                  -4.982
REMARK INTRA:                  -0.125
REMARK UNBOUND:                -0.206
REMARK SMILES [NH3+]CCCC[C@@H]([NH3+])C(=O)[O-]
REMARK SMILES IDX 4 1 3 2 2 3 1 4 5 8 6 9 7 10 8 14 9 15 10 16
REMARK H PARENT 1 5 1 6 1 7 7 11 7 12 7 13
REMARK Flexibility Score: inf
ROOT
ATOM      1  C   UNL     1      -9.430  -3.871   4.019  1.00  0.00     0.012 C 
ENDROOT
BRANCH   1   2
ATOM      2  C   UNL     1      -9.856  -4.011   5.489  1.00  0.00     0.061 C 
BRANCH   2   3
ATOM      3  C   UNL     1      -8.776  -4.681   6.355  1.00  0.00     0.258 C 
BRANCH   3   4
ATOM      4  N   UNL     1      -7.879  -3.703   6.976  1.00  0.00    -0.358 N 
ATOM      5  H   UNL     1      -7.646  -3.991   7.953  1.00  0.00     0.344 HD
ATOM      6  H   UNL     1      -6.996  -3.653   6.420  1.00  0.00     0.344 HD
ATOM      7  H   UNL     1      -8.319  -2.755   6.977  1.00  0.00     0.344 HD
ENDBRANCH   3   4
ENDBRANCH   2   3
ENDBRANCH   1   2
BRANCH   1   8
ATOM      8  C   UNL     1      -9.092  -2.411   3.682  1.00  0.00     0.072 C 
BRANCH   8   9
ATOM      9  C   UNL     1      -9.647  -1.986   2.304  1.00  0.00     0.227 C 
BRANCH   9  10
ATOM     10  N   UNL     1     -11.099  -2.193   2.251  1.00  0.00    -0.350 N 
ATOM     11  H   UNL     1     -11.554  -1.389   1.760  1.00  0.00     0.345 HD
ATOM     12  H   UNL     1     -11.314  -3.066   1.715  1.00  0.00     0.345 HD
ATOM     13  H   UNL     1     -11.496  -2.277   3.215  1.00  0.00     0.345 HD
ENDBRANCH   9  10
BRANCH   9  14
ATOM     14  C   UNL     1      -9.322  -0.544   2.012  1.00  0.00     0.099 C 
ATOM     15  O   UNL     1     -10.248   0.300   1.885  1.00  0.00    -0.544 OA
ATOM     16  O   UNL     1      -8.000  -0.136   1.875  1.00  0.00    -0.544 OA
ENDBRANCH   9  14
ENDBRANCH   8   9
ENDBRANCH   1   8
TORSDOF 7
ENDMDL
MODEL 3
REMARK VINA RESULT:    -3.585      1.863      2.248
REMARK INTER + INTRA:          -5.048
REMARK INTER:                  -4.925
REMARK INTRA:                  -0.123
REMARK UNBOUND:                -0.206
REMARK SMILES [NH3+]CCCC[C@@H]([NH3+])C(=O)[O-]
REMARK SMILES IDX 4 1 3 2 2 3 1 4 5 8 6 9 7 10 8 14 9 15 10 16
REMARK H PARENT 1 5 1 6 1 7 7 11 7 12 7 13
REMARK Flexibility Score: inf
ROOT
ATOM      1  C   UNL     1      -8.691  -1.475   2.953  1.00  0.00     0.012 C 
ENDROOT
BRANCH   1   2
ATOM      2  C   UNL     1      -9.451  -2.330   3.979  1.00  0.00     0.061 C 
BRANCH   2   3
ATOM      3  C   UNL     1      -8.617  -3.515   4.493  1.00  0.00     0.258 C 
BRANCH   3   4
ATOM      4  N   UNL     1      -8.404  -3.454   5.941  1.00  0.00    -0.358 N 
ATOM      5  H   UNL     1      -8.808  -4.299   6.406  1.00  0.00     0.344 HD
ATOM      6  H   UNL     1      -7.376  -3.424   6.132  1.00  0.00     0.344 HD
ATOM      7  H   UNL     1      -8.835  -2.588   6.336  1.00  0.00     0.344 HD
ENDBRANCH   3   4
ENDBRANCH   2   3
ENDBRANCH   1   2
BRANCH   1   8
ATOM      8  C   UNL     1      -9.151  -0.011   3.011  1.00  0.00     0.072 C 
BRANCH   8   9
ATOM      9  C   UNL     1     -10.532   0.143   3.686  1.00  0.00     0.227 C 
BRANCH   9  10
ATOM     10  N   UNL     1     -10.419   0.950   4.906  1.00  0.00    -0.350 N 
ATOM     11  H   UNL     1     -10.603   1.956   4.685  1.00  0.00     0.345 HD
ATOM     12  H   UNL     1     -11.130   0.635   5.607  1.00  0.00     0.345 HD
ATOM     13  H   UNL     1      -9.464   0.858   5.323  1.00  0.00     0.345 HD
ENDBRANCH   9  10
BRANCH   9  14
ATOM     14  C   UNL     1     -11.528   0.770   2.745  1.00  0.00     0.099 C 
ATOM     15  O   UNL     1     -12.618   0.191   2.498  1.00  0.00    -0.544 OA
ATOM     16  O   UNL     1     -11.248   1.990   2.139  1.00  0.00    -0.544 OA
ENDBRANCH   9  14
ENDBRANCH   8   9
ENDBRANCH   1   8
TORSDOF 7
ENDMDL
MODEL 4
REMARK VINA RESULT:    -3.567      2.443      4.034
REMARK INTER + INTRA:          -5.023
REMARK INTER:                  -4.559
REMARK INTRA:                  -0.464
REMARK UNBOUND:                -0.206
REMARK SMILES [NH3+]CCCC[C@@H]([NH3+])C(=O)[O-]
REMARK SMILES IDX 4 1 3 2 2 3 1 4 5 8 6 9 7 10 8 14 9 15 10 16
REMARK H PARENT 1 5 1 6 1 7 7 11 7 12 7 13
REMARK Flexibility Score: inf
ROOT
ATOM      1  C   UNL     1      -8.604  -1.157   2.985  1.00  0.00     0.012 C 
ENDROOT
BRANCH   1   2
ATOM      2  C   UNL     1      -9.310   0.174   2.684  1.00  0.00     0.061 C 
BRANCH   2   3
ATOM      3  C   UNL     1     -10.630   0.329   3.458  1.00  0.00     0.258 C 
BRANCH   3   4
ATOM      4  N   UNL     1     -10.424   0.334   4.908  1.00  0.00    -0.358 N 
ATOM      5  H   UNL     1      -9.823   1.142   5.189  1.00  0.00     0.344 HD
ATOM      6  H   UNL     1     -11.352   0.424   5.382  1.00  0.00     0.344 HD
ATOM      7  H   UNL     1      -9.985  -0.564   5.216  1.00  0.00     0.344 HD
ENDBRANCH   3   4
ENDBRANCH   2   3
ENDBRANCH   1   2
BRANCH   1   8
ATOM      8  C   UNL     1      -9.554  -2.344   2.765  1.00  0.00     0.072 C 
BRANCH   8   9
ATOM      9  C   UNL     1      -9.358  -3.453   3.821  1.00  0.00     0.227 C 
BRANCH   9  10
ATOM     10  N   UNL     1      -8.249  -3.114   4.720  1.00  0.00    -0.350 N 
ATOM     11  H   UNL     1      -8.417  -3.531   5.665  1.00  0.00     0.345 HD
ATOM     12  H   UNL     1      -7.354  -3.507   4.345  1.00  0.00     0.345 HD
ATOM     13  H   UNL     1      -8.153  -2.076   4.815  1.00  0.00     0.345 HD
ENDBRANCH   9  10
BRANCH   9  14
ATOM     14  C   UNL     1     -10.617  -3.670   4.619  1.00  0.00     0.099 C 
ATOM     15  O   UNL     1     -11.192  -2.695   5.172  1.00  0.00    -0.544 OA
ATOM     16  O   UNL     1     -11.152  -4.946   4.755  1.00  0.00    -0.544 OA
ENDBRANCH   9  14
ENDBRANCH   8   9
ENDBRANCH   1   8
TORSDOF 7
ENDMDL
MODEL 5
REMARK VINA RESULT:    -3.545      9.674     10.776
REMARK INTER + INTRA:          -4.994
REMARK INTER:                  -4.532
REMARK INTRA:                  -0.462
REMARK UNBOUND:                -0.206
REMARK SMILES [NH3+]CCCC[C@@H]([NH3+])C(=O)[O-]
REMARK SMILES IDX 4 1 3 2 2 3 1 4 5 8 6 9 7 10 8 14 9 15 10 16
REMARK H PARENT 1 5 1 6 1 7 7 11 7 12 7 13
REMARK Flexibility Score: inf
ROOT
ATOM      1  C   UNL     1      -5.902   4.257   9.347  1.00  0.00     0.012 C 
ENDROOT
BRANCH   1   2
ATOM      2  C   UNL     1      -5.378   5.690   9.518  1.00  0.00     0.061 C 
BRANCH   2   3
ATOM      3  C   UNL     1      -6.346   6.582  10.312  1.00  0.00     0.258 C 
BRANCH   3   4
ATOM      4  N   UNL     1      -6.070   6.555  11.751  1.00  0.00    -0.358 N 
ATOM      5  H   UNL     1      -5.404   5.782  11.979  1.00  0.00     0.344 HD
ATOM      6  H   UNL     1      -5.638   7.465  12.030  1.00  0.00     0.344 HD
ATOM      7  H   UNL     1      -6.957   6.434  12.289  1.00  0.00     0.344 HD
ENDBRANCH   3   4
ENDBRANCH   2   3
ENDBRANCH   1   2
BRANCH   1   8
ATOM      8  C   UNL     1      -4.998   3.252  10.079  1.00  0.00     0.072 C 
BRANCH   8   9
ATOM      9  C   UNL     1      -5.759   2.472  11.175  1.00  0.00     0.227 C 
BRANCH   9  10
ATOM     10  N   UNL     1      -5.664   1.028  10.935  1.00  0.00    -0.350 N 
ATOM     11  H   UNL     1      -4.667   0.762  10.757  1.00  0.00     0.345 HD
ATOM     12  H   UNL     1      -5.994   0.505  11.780  1.00  0.00     0.345 HD
ATOM     13  H   UNL     1      -6.247   0.750  10.112  1.00  0.00     0.345 HD
ENDBRANCH   9  10
BRANCH   9  14
ATOM     14  C   UNL     1      -5.222   2.802  12.544  1.00  0.00     0.099 C 
ATOM     15  O   UNL     1      -5.082   1.894  13.404  1.00  0.00    -0.544 OA
ATOM     16  O   UNL     1      -4.883   4.111  12.869  1.00  0.00    -0.544 OA
ENDBRANCH   9  14
ENDBRANCH   8   9
ENDBRANCH   1   8
TORSDOF 7
ENDMDL
MODEL 6
REMARK VINA RESULT:    -3.450      2.544      3.872
REMARK INTER + INTRA:          -4.866
REMARK INTER:                  -4.312
REMARK INTRA:                  -0.554
REMARK UNBOUND:                -0.206
REMARK SMILES [NH3+]CCCC[C@@H]([NH3+])C(=O)[O-]
REMARK SMILES IDX 4 1 3 2 2 3 1 4 5 8 6 9 7 10 8 14 9 15 10 16
REMARK H PARENT 1 5 1 6 1 7 7 11 7 12 7 13
REMARK Flexibility Score: inf
ROOT
ATOM      1  C   UNL     1     -10.978   0.128   2.105  1.00  0.00     0.012 C 
ENDROOT
BRANCH   1   2
ATOM      2  C   UNL     1     -12.122   0.421   3.086  1.00  0.00     0.061 C 
BRANCH   2   3
ATOM      3  C   UNL     1     -11.680   1.307   4.262  1.00  0.00     0.258 C 
BRANCH   3   4
ATOM      4  N   UNL     1     -10.506   0.767   4.951  1.00  0.00    -0.358 N 
ATOM      5  H   UNL     1     -10.459   1.127   5.931  1.00  0.00     0.344 HD
ATOM      6  H   UNL     1     -10.579  -0.276   4.979  1.00  0.00     0.344 HD
ATOM      7  H   UNL     1      -9.633   1.019   4.435  1.00  0.00     0.344 HD
ENDBRANCH   3   4
ENDBRANCH   2   3
ENDBRANCH   1   2
BRANCH   1   8
ATOM      8  C   UNL     1     -10.708  -1.382   2.010  1.00  0.00     0.072 C 
BRANCH   8   9
ATOM      9  C   UNL     1      -9.265  -1.745   2.426  1.00  0.00     0.227 C 
BRANCH   9  10
ATOM     10  N   UNL     1      -8.412  -0.551   2.414  1.00  0.00    -0.350 N 
ATOM     11  H   UNL     1      -9.007   0.310   2.386  1.00  0.00     0.345 HD
ATOM     12  H   UNL     1      -7.834  -0.519   3.286  1.00  0.00     0.345 HD
ATOM     13  H   UNL     1      -7.777  -0.558   1.583  1.00  0.00     0.345 HD
ENDBRANCH   9  10
BRANCH   9  14
ATOM     14  C   UNL     1      -9.240  -2.380   3.792  1.00  0.00     0.099 C 
ATOM     15  O   UNL     1      -8.228  -3.025   4.172  1.00  0.00    -0.544 OA
ATOM     16  O   UNL     1     -10.335  -2.263   4.642  1.00  0.00    -0.544 OA
ENDBRANCH   9  14
ENDBRANCH   8   9
ENDBRANCH   1   8
TORSDOF 7
ENDMDL
MODEL 7
REMARK VINA RESULT:    -3.447      3.337      4.688
REMARK INTER + INTRA:          -4.862
REMARK INTER:                  -4.693
REMARK INTRA:                  -0.169
REMARK UNBOUND:                -0.206
REMARK SMILES [NH3+]CCCC[C@@H]([NH3+])C(=O)[O-]
REMARK SMILES IDX 4 1 3 2 2 3 1 4 5 8 6 9 7 10 8 14 9 15 10 16
REMARK H PARENT 1 5 1 6 1 7 7 11 7 12 7 13
REMARK Flexibility Score: inf
ROOT
ATOM      1  C   UNL     1      -9.627  -1.908   3.037  1.00  0.00     0.012 C 
ENDROOT
BRANCH   1   2
ATOM      2  C   UNL     1      -9.022  -0.499   2.963  1.00  0.00     0.061 C 
BRANCH   2   3
ATOM      3  C   UNL     1      -9.998   0.588   3.444  1.00  0.00     0.258 C 
BRANCH   3   4
ATOM      4  N   UNL     1     -10.412   0.384   4.834  1.00  0.00    -0.358 N 
ATOM      5  H   UNL     1     -11.430   0.594   4.946  1.00  0.00     0.344 HD
ATOM      6  H   UNL     1     -10.243  -0.614   5.095  1.00  0.00     0.344 HD
ATOM      7  H   UNL     1      -9.848   0.989   5.474  1.00  0.00     0.344 HD
ENDBRANCH   3   4
ENDBRANCH   2   3
ENDBRANCH   1   2
BRANCH   1   8
ATOM      8  C   UNL     1      -8.798  -2.813   3.961  1.00  0.00     0.072 C 
BRANCH   8   9
ATOM      9  C   UNL     1      -9.567  -3.198   5.245  1.00  0.00     0.227 C 
BRANCH   9  10
ATOM     10  N   UNL     1     -10.932  -3.624   4.916  1.00  0.00    -0.350 N 
ATOM     11  H   UNL     1     -11.367  -2.941   4.253  1.00  0.00     0.345 HD
ATOM     12  H   UNL     1     -10.910  -4.561   4.451  1.00  0.00     0.345 HD
ATOM     13  H   UNL     1     -11.519  -3.685   5.780  1.00  0.00     0.345 HD
ENDBRANCH   9  10
BRANCH   9  14
ATOM     14  C   UNL     1      -8.854  -4.294   5.994  1.00  0.00     0.099 C 
ATOM     15  O   UNL     1      -8.027  -4.007   6.899  1.00  0.00    -0.544 OA
ATOM     16  O   UNL     1      -9.099  -5.628   5.689  1.00  0.00    -0.544 OA
ENDBRANCH   9  14
ENDBRANCH   8   9
ENDBRANCH   1   8
TORSDOF 7
ENDMDL
MODEL 8
REMARK VINA RESULT:    -3.436      2.530      2.809
REMARK INTER + INTRA:          -4.848
REMARK INTER:                  -4.299
REMARK INTRA:                  -0.549
REMARK UNBOUND:                -0.206
REMARK SMILES [NH3+]CCCC[C@@H]([NH3+])C(=O)[O-]
REMARK SMILES IDX 4 1 3 2 2 3 1 4 5 8 6 9 7 10 8 14 9 15 10 16
REMARK H PARENT 1 5 1 6 1 7 7 11 7 12 7 13
REMARK Flexibility Score: inf
ROOT
ATOM      1  C   UNL     1      -8.467  -3.243   4.225  1.00  0.00     0.012 C 
ENDROOT
BRANCH   1   2
ATOM      2  C   UNL     1      -8.909  -3.544   5.664  1.00  0.00     0.061 C 
BRANCH   2   3
ATOM      3  C   UNL     1      -9.343  -5.007   5.855  1.00  0.00     0.258 C 
BRANCH   3   4
ATOM      4  N   UNL     1     -10.303  -5.436   4.835  1.00  0.00    -0.358 N 
ATOM      5  H   UNL     1      -9.835  -6.050   4.129  1.00  0.00     0.344 HD
ATOM      6  H   UNL     1     -11.069  -5.977   5.296  1.00  0.00     0.344 HD
ATOM      7  H   UNL     1     -10.727  -4.606   4.362  1.00  0.00     0.344 HD
ENDBRANCH   3   4
ENDBRANCH   2   3
ENDBRANCH   1   2
BRANCH   1   8
ATOM      8  C   UNL     1      -9.205  -2.015   3.669  1.00  0.00     0.072 C 
BRANCH   8   9
ATOM      9  C   UNL     1     -10.481  -1.687   4.475  1.00  0.00     0.227 C 
BRANCH   9  10
ATOM     10  N   UNL     1     -10.525  -0.257   4.803  1.00  0.00    -0.350 N 
ATOM     11  H   UNL     1     -11.453   0.142   4.528  1.00  0.00     0.345 HD
ATOM     12  H   UNL     1     -10.408  -0.126   5.835  1.00  0.00     0.345 HD
ATOM     13  H   UNL     1      -9.765   0.261   4.305  1.00  0.00     0.345 HD
ENDBRANCH   9  10
BRANCH   9  14
ATOM     14  C   UNL     1     -11.719  -2.076   3.710  1.00  0.00     0.099 C 
ATOM     15  O   UNL     1     -12.546  -1.196   3.353  1.00  0.00    -0.544 OA
ATOM     16  O   UNL     1     -11.962  -3.409   3.399  1.00  0.00    -0.544 OA
ENDBRANCH   9  14
ENDBRANCH   8   9
ENDBRANCH   1   8
TORSDOF 7
ENDMDL
MODEL 9
REMARK VINA RESULT:    -3.434      2.418      2.690
REMARK INTER + INTRA:          -4.844
REMARK INTER:                  -4.681
REMARK INTRA:                  -0.163
REMARK UNBOUND:                -0.206
REMARK SMILES [NH3+]CCCC[C@@H]([NH3+])C(=O)[O-]
REMARK SMILES IDX 4 1 3 2 2 3 1 4 5 8 6 9 7 10 8 14 9 15 10 16
REMARK H PARENT 1 5 1 6 1 7 7 11 7 12 7 13
REMARK Flexibility Score: inf
ROOT
ATOM      1  C   UNL     1      -8.976  -3.501   5.328  1.00  0.00     0.012 C 
ENDROOT
BRANCH   1   2
ATOM      2  C   UNL     1      -9.408  -4.973   5.266  1.00  0.00     0.061 C 
BRANCH   2   3
ATOM      3  C   UNL     1     -10.906  -5.136   4.955  1.00  0.00     0.258 C 
BRANCH   3   4
ATOM      4  N   UNL     1     -11.254  -6.518   4.619  1.00  0.00    -0.358 N 
ATOM      5  H   UNL     1     -10.398  -7.056   4.353  1.00  0.00     0.344 HD
ATOM      6  H   UNL     1     -11.690  -6.971   5.454  1.00  0.00     0.344 HD
ATOM      7  H   UNL     1     -11.947  -6.539   3.837  1.00  0.00     0.344 HD
ENDBRANCH   3   4
ENDBRANCH   2   3
ENDBRANCH   1   2
BRANCH   1   8
ATOM      8  C   UNL     1      -8.655  -2.963   3.925  1.00  0.00     0.072 C 
BRANCH   8   9
ATOM      9  C   UNL     1      -9.661  -1.883   3.469  1.00  0.00     0.227 C 
BRANCH   9  10
ATOM     10  N   UNL     1     -10.295  -1.251   4.631  1.00  0.00    -0.350 N 
ATOM     11  H   UNL     1     -10.340  -1.931   5.425  1.00  0.00     0.345 HD
ATOM     12  H   UNL     1      -9.728  -0.427   4.940  1.00  0.00     0.345 HD
ATOM     13  H   UNL     1     -11.263  -0.931   4.396  1.00  0.00     0.345 HD
ENDBRANCH   9  10
BRANCH   9  14
ATOM     14  C   UNL     1      -8.984  -0.838   2.621  1.00  0.00     0.099 C 
ATOM     15  O   UNL     1      -7.727  -0.768   2.585  1.00  0.00    -0.544 OA
ATOM     16  O   UNL     1      -9.740   0.061   1.877  1.00  0.00    -0.544 OA
ENDBRANCH   9  14
ENDBRANCH   8   9
ENDBRANCH   1   8
TORSDOF 7
ENDMDL
