MODEL 1
REMARK VINA RESULT:    -5.705      0.000      0.000
REMARK INTER + INTRA:          -6.206
REMARK INTER:                  -6.206
REMARK INTRA:                   0.000
REMARK UNBOUND:                 0.000
REMARK SMILES Oc1cccc(O)c1O
REMARK SMILES IDX 4 1 5 2 6 3 8 4 2 5 3 6 7 7 1 9 9 11
REMARK H PARENT 7 8 1 10 9 12
REMARK Flexibility Score: inf
ROOT
ATOM      1  C   UNL     1      14.115 -12.784  28.478  1.00  0.00     0.008 A 
ATOM      2  C   UNL     1      12.909 -13.267  27.967  1.00  0.00     0.050 A 
ATOM      3  C   UNL     1      11.689 -12.875  28.530  1.00  0.00     0.161 A 
ATOM      4  C   UNL     1      11.681 -11.979  29.629  1.00  0.00     0.200 A 
ATOM      5  C   UNL     1      12.905 -11.499  30.136  1.00  0.00     0.161 A 
ATOM      6  C   UNL     1      14.112 -11.903  29.559  1.00  0.00     0.050 A 
ENDROOT
BRANCH   3   7
ATOM      7  O   UNL     1      10.520 -13.396  27.971  1.00  0.00    -0.504 OA
ATOM      8  H   UNL     1      10.171 -13.149  27.055  1.00  0.00     0.293 HD
ENDBRANCH   3   7
BRANCH   5   9
ATOM      9  O   UNL     1      12.940 -10.617  31.216  1.00  0.00    -0.504 OA
ATOM     10  H   UNL     1      13.758 -10.511  31.803  1.00  0.00     0.293 HD
ENDBRANCH   5   9
BRANCH   4  11
ATOM     11  O   UNL     1      10.496 -11.552  30.234  1.00  0.00    -0.502 OA
ATOM     12  H   UNL     1      10.452 -11.086  31.127  1.00  0.00     0.293 HD
ENDBRANCH   4  11
TORSDOF 3
ENDMDL
MODEL 2
REMARK VINA RESULT:    -5.627      0.119      2.827
REMARK INTER + INTRA:          -6.120
REMARK INTER:                  -6.120
REMARK INTRA:                   0.000
REMARK UNBOUND:                 0.000
REMARK SMILES Oc1cccc(O)c1O
REMARK SMILES IDX 4 1 5 2 6 3 8 4 2 5 3 6 7 7 1 9 9 11
REMARK H PARENT 7 8 1 10 9 12
REMARK Flexibility Score: inf
ROOT
ATOM      1  C   UNL     1      14.050 -12.884  28.402  1.00  0.00     0.008 A 
ATOM      2  C   UNL     1      14.076 -12.010  29.490  1.00  0.00     0.050 A 
ATOM      3  C   UNL     1      12.884 -11.568  30.077  1.00  0.00     0.161 A 
ATOM      4  C   UNL     1      11.642 -12.015  29.560  1.00  0.00     0.200 A 
ATOM      5  C   UNL     1      11.629 -12.897  28.461  1.00  0.00     0.161 A 
ATOM      6  C   UNL     1      12.831 -13.326  27.890  1.00  0.00     0.050 A 
ENDROOT
BRANCH   3   7
ATOM      7  O   UNL     1      12.982 -10.694  31.162  1.00  0.00    -0.504 OA
ATOM      8  H   UNL     1      12.215 -10.473  31.782  1.00  0.00     0.293 HD
ENDBRANCH   3   7
BRANCH   5   9
ATOM      9  O   UNL     1      10.428 -13.359  27.923  1.00  0.00    -0.504 OA
ATOM     10  H   UNL     1      10.028 -12.971  27.077  1.00  0.00     0.293 HD
ENDBRANCH   5   9
BRANCH   4  11
ATOM     11  O   UNL     1      10.420 -11.610  30.103  1.00  0.00    -0.502 OA
ATOM     12  H   UNL     1       9.762 -12.233  30.547  1.00  0.00     0.293 HD
ENDBRANCH   4  11
TORSDOF 3
ENDMDL
MODEL 3
REMARK VINA RESULT:    -5.559      0.936      2.836
REMARK INTER + INTRA:          -6.046
REMARK INTER:                  -6.046
REMARK INTRA:                   0.000
REMARK UNBOUND:                 0.000
REMARK SMILES Oc1cccc(O)c1O
REMARK SMILES IDX 4 1 5 2 6 3 8 4 2 5 3 6 7 7 1 9 9 11
REMARK H PARENT 7 8 1 10 9 12
REMARK Flexibility Score: inf
ROOT
ATOM      1  C   UNL     1      14.069 -11.949  29.523  1.00  0.00     0.008 A 
ATOM      2  C   UNL     1      12.871 -11.550  30.119  1.00  0.00     0.050 A 
ATOM      3  C   UNL     1      11.643 -12.007  29.627  1.00  0.00     0.161 A 
ATOM      4  C   UNL     1      11.619 -12.883  28.512  1.00  0.00     0.200 A 
ATOM      5  C   UNL     1      12.834 -13.278  27.918  1.00  0.00     0.161 A 
ATOM      6  C   UNL     1      14.049 -12.810  28.427  1.00  0.00     0.050 A 
ENDROOT
BRANCH   3   7
ATOM      7  O   UNL     1      10.484 -11.568  30.269  1.00  0.00    -0.504 OA
ATOM      8  H   UNL     1      10.454 -10.797  30.921  1.00  0.00     0.293 HD
ENDBRANCH   3   7
BRANCH   5   9
ATOM      9  O   UNL     1      12.853 -14.139  26.821  1.00  0.00    -0.504 OA
ATOM     10  H   UNL     1      12.928 -13.801  25.869  1.00  0.00     0.293 HD
ENDBRANCH   5   9
BRANCH   4  11
ATOM     11  O   UNL     1      10.425 -13.372  27.975  1.00  0.00    -0.502 OA
ATOM     12  H   UNL     1       9.888 -14.125  28.379  1.00  0.00     0.293 HD
ENDBRANCH   4  11
TORSDOF 3
ENDMDL
MODEL 4
REMARK VINA RESULT:    -5.466      1.017      2.059
REMARK INTER + INTRA:          -5.946
REMARK INTER:                  -5.946
REMARK INTRA:                   0.000
REMARK UNBOUND:                 0.000
REMARK SMILES Oc1cccc(O)c1O
REMARK SMILES IDX 4 1 5 2 6 3 8 4 2 5 3 6 7 7 1 9 9 11
REMARK H PARENT 7 8 1 10 9 12
REMARK Flexibility Score: inf
ROOT
ATOM      1  C   UNL     1      13.945 -11.733  29.797  1.00  0.00     0.008 A 
ATOM      2  C   UNL     1      14.055 -12.641  28.743  1.00  0.00     0.050 A 
ATOM      3  C   UNL     1      12.910 -13.192  28.155  1.00  0.00     0.161 A 
ATOM      4  C   UNL     1      11.629 -12.822  28.637  1.00  0.00     0.200 A 
ATOM      5  C   UNL     1      11.531 -11.905  29.703  1.00  0.00     0.161 A 
ATOM      6  C   UNL     1      12.687 -11.366  30.275  1.00  0.00     0.050 A 
ENDROOT
BRANCH   3   7
ATOM      7  O   UNL     1      13.091 -14.094  27.105  1.00  0.00    -0.504 OA
ATOM      8  H   UNL     1      13.384 -15.053  27.225  1.00  0.00     0.293 HD
ENDBRANCH   3   7
BRANCH   5   9
ATOM      9  O   UNL     1      10.290 -11.516  30.206  1.00  0.00    -0.504 OA
ATOM     10  H   UNL     1       9.483 -11.376  29.609  1.00  0.00     0.293 HD
ENDBRANCH   5   9
BRANCH   4  11
ATOM     11  O   UNL     1      10.450 -13.337  28.092  1.00  0.00    -0.502 OA
ATOM     12  H   UNL     1      10.297 -13.479  27.105  1.00  0.00     0.293 HD
ENDBRANCH   4  11
TORSDOF 3
ENDMDL
MODEL 5
REMARK VINA RESULT:    -5.462     11.443     12.562
REMARK INTER + INTRA:          -5.941
REMARK INTER:                  -5.941
REMARK INTRA:                   0.000
REMARK UNBOUND:                 0.000
REMARK SMILES Oc1cccc(O)c1O
REMARK SMILES IDX 4 1 5 2 6 3 8 4 2 5 3 6 7 7 1 9 9 11
REMARK H PARENT 7 8 1 10 9 12
REMARK Flexibility Score: inf
ROOT
ATOM      1  C   UNL     1      18.628  -3.265  27.679  1.00  0.00     0.008 A 
ATOM      2  C   UNL     1      19.549  -2.439  27.034  1.00  0.00     0.050 A 
ATOM      3  C   UNL     1      19.120  -1.311  26.324  1.00  0.00     0.161 A 
ATOM      4  C   UNL     1      17.736  -1.008  26.263  1.00  0.00     0.200 A 
ATOM      5  C   UNL     1      16.815  -1.850  26.918  1.00  0.00     0.161 A 
ATOM      6  C   UNL     1      17.266  -2.971  27.621  1.00  0.00     0.050 A 
ENDROOT
BRANCH   3   7
ATOM      7  O   UNL     1      20.094  -0.528  25.701  1.00  0.00    -0.504 OA
ATOM      8  H   UNL     1      20.886  -0.903  25.198  1.00  0.00     0.293 HD
ENDBRANCH   3   7
BRANCH   5   9
ATOM      9  O   UNL     1      15.446  -1.587  26.881  1.00  0.00    -0.504 OA
ATOM     10  H   UNL     1      14.796  -2.171  26.371  1.00  0.00     0.293 HD
ENDBRANCH   5   9
BRANCH   4  11
ATOM     11  O   UNL     1      17.247   0.102  25.570  1.00  0.00    -0.502 OA
ATOM     12  H   UNL     1      17.570   0.390  24.659  1.00  0.00     0.293 HD
ENDBRANCH   4  11
TORSDOF 3
ENDMDL
MODEL 6
REMARK VINA RESULT:    -5.442     11.642     12.822
REMARK INTER + INTRA:          -5.919
REMARK INTER:                  -5.919
REMARK INTRA:                   0.000
REMARK UNBOUND:                 0.000
REMARK SMILES Oc1cccc(O)c1O
REMARK SMILES IDX 4 1 5 2 6 3 8 4 2 5 3 6 7 7 1 9 9 11
REMARK H PARENT 7 8 1 10 9 12
REMARK Flexibility Score: inf
ROOT
ATOM      1  C   UNL     1      17.157  -2.873  27.584  1.00  0.00     0.008 A 
ATOM      2  C   UNL     1      18.489  -3.205  27.836  1.00  0.00     0.050 A 
ATOM      3  C   UNL     1      19.528  -2.467  27.256  1.00  0.00     0.161 A 
ATOM      4  C   UNL     1      19.221  -1.374  26.408  1.00  0.00     0.200 A 
ATOM      5  C   UNL     1      17.872  -1.049  26.161  1.00  0.00     0.161 A 
ATOM      6  C   UNL     1      16.850  -1.799  26.750  1.00  0.00     0.050 A 
ENDROOT
BRANCH   3   7
ATOM      7  O   UNL     1      20.838  -2.853  27.549  1.00  0.00    -0.504 OA
ATOM      8  H   UNL     1      21.171  -3.069  28.479  1.00  0.00     0.293 HD
ENDBRANCH   3   7
BRANCH   5   9
ATOM      9  O   UNL     1      17.529   0.019  25.332  1.00  0.00    -0.504 OA
ATOM     10  H   UNL     1      17.015  -0.109  24.469  1.00  0.00     0.293 HD
ENDBRANCH   5   9
BRANCH   4  11
ATOM     11  O   UNL     1      20.214  -0.601  25.800  1.00  0.00    -0.502 OA
ATOM     12  H   UNL     1      20.470   0.329  26.098  1.00  0.00     0.293 HD
ENDBRANCH   4  11
TORSDOF 3
ENDMDL
MODEL 7
REMARK VINA RESULT:    -5.437     11.408     12.400
REMARK INTER + INTRA:          -5.914
REMARK INTER:                  -5.914
REMARK INTRA:                   0.000
REMARK UNBOUND:                 0.000
REMARK SMILES Oc1cccc(O)c1O
REMARK SMILES IDX 4 1 5 2 6 3 8 4 2 5 3 6 7 7 1 9 9 11
REMARK H PARENT 7 8 1 10 9 12
REMARK Flexibility Score: inf
ROOT
ATOM      1  C   UNL     1      18.644  -3.256  27.776  1.00  0.00     0.008 A 
ATOM      2  C   UNL     1      17.280  -2.963  27.749  1.00  0.00     0.050 A 
ATOM      3  C   UNL     1      16.803  -1.857  27.035  1.00  0.00     0.161 A 
ATOM      4  C   UNL     1      17.717  -1.030  26.334  1.00  0.00     0.200 A 
ATOM      5  C   UNL     1      19.092  -1.335  26.370  1.00  0.00     0.161 A 
ATOM      6  C   UNL     1      19.547  -2.445  27.088  1.00  0.00     0.050 A 
ENDROOT
BRANCH   3   7
ATOM      7  O   UNL     1      15.427  -1.620  27.050  1.00  0.00    -0.504 OA
ATOM      8  H   UNL     1      14.991  -0.837  27.516  1.00  0.00     0.293 HD
ENDBRANCH   3   7
BRANCH   5   9
ATOM      9  O   UNL     1      20.022  -0.546  25.694  1.00  0.00    -0.504 OA
ATOM     10  H   UNL     1      20.121   0.446  25.870  1.00  0.00     0.293 HD
ENDBRANCH   5   9
BRANCH   4  11
ATOM     11  O   UNL     1      17.302   0.088  25.605  1.00  0.00    -0.502 OA
ATOM     12  H   UNL     1      17.928   0.780  25.223  1.00  0.00     0.293 HD
ENDBRANCH   4  11
TORSDOF 3
ENDMDL
MODEL 8
REMARK VINA RESULT:    -5.390     11.404     12.539
REMARK INTER + INTRA:          -5.863
REMARK INTER:                  -5.863
REMARK INTRA:                   0.000
REMARK UNBOUND:                 0.000
REMARK SMILES Oc1cccc(O)c1O
REMARK SMILES IDX 4 1 5 2 6 3 8 4 2 5 3 6 7 7 1 9 9 11
REMARK H PARENT 7 8 1 10 9 12
REMARK Flexibility Score: inf
ROOT
ATOM      1  C   UNL     1      16.564  -1.158  26.185  1.00  0.00     0.008 A 
ATOM      2  C   UNL     1      16.597  -2.186  27.128  1.00  0.00     0.050 A 
ATOM      3  C   UNL     1      17.817  -2.679  27.604  1.00  0.00     0.161 A 
ATOM      4  C   UNL     1      19.030  -2.125  27.123  1.00  0.00     0.200 A 
ATOM      5  C   UNL     1      18.986  -1.087  26.170  1.00  0.00     0.161 A 
ATOM      6  C   UNL     1      17.755  -0.610  25.709  1.00  0.00     0.050 A 
ENDROOT
BRANCH   3   7
ATOM      7  O   UNL     1      17.777  -3.709  28.546  1.00  0.00    -0.504 OA
ATOM      8  H   UNL     1      17.513  -3.583  29.513  1.00  0.00     0.293 HD
ENDBRANCH   3   7
BRANCH   5   9
ATOM      9  O   UNL     1      20.156  -0.516  25.672  1.00  0.00    -0.504 OA
ATOM     10  H   UNL     1      21.062  -0.681  26.096  1.00  0.00     0.293 HD
ENDBRANCH   5   9
BRANCH   4  11
ATOM     11  O   UNL     1      20.279  -2.575  27.559  1.00  0.00    -0.502 OA
ATOM     12  H   UNL     1      20.412  -3.270  28.279  1.00  0.00     0.293 HD
ENDBRANCH   4  11
TORSDOF 3
ENDMDL
MODEL 9
REMARK VINA RESULT:    -5.383     11.647     12.741
REMARK INTER + INTRA:          -5.855
REMARK INTER:                  -5.855
REMARK INTRA:                   0.000
REMARK UNBOUND:                 0.000
REMARK SMILES Oc1cccc(O)c1O
REMARK SMILES IDX 4 1 5 2 6 3 8 4 2 5 3 6 7 7 1 9 9 11
REMARK H PARENT 7 8 1 10 9 12
REMARK Flexibility Score: inf
ROOT
ATOM      1  C   UNL     1      17.082  -2.841  27.524  1.00  0.00     0.008 A 
ATOM      2  C   UNL     1      16.774  -1.743  26.719  1.00  0.00     0.050 A 
ATOM      3  C   UNL     1      17.792  -0.975  26.142  1.00  0.00     0.161 A 
ATOM      4  C   UNL     1      19.147  -1.319  26.378  1.00  0.00     0.200 A 
ATOM      5  C   UNL     1      19.446  -2.429  27.193  1.00  0.00     0.161 A 
ATOM      6  C   UNL     1      18.413  -3.183  27.759  1.00  0.00     0.050 A 
ENDROOT
BRANCH   3   7
ATOM      7  O   UNL     1      17.414   0.110  25.348  1.00  0.00    -0.504 OA
ATOM      8  H   UNL     1      18.066   0.726  24.883  1.00  0.00     0.293 HD
ENDBRANCH   3   7
BRANCH   5   9
ATOM      9  O   UNL     1      20.765  -2.800  27.449  1.00  0.00    -0.504 OA
ATOM     10  H   UNL     1      21.047  -3.768  27.548  1.00  0.00     0.293 HD
ENDBRANCH   5   9
BRANCH   4  11
ATOM     11  O   UNL     1      20.207  -0.591  25.830  1.00  0.00    -0.502 OA
ATOM     12  H   UNL     1      20.965  -0.201  26.368  1.00  0.00     0.293 HD
ENDBRANCH   4  11
TORSDOF 3
ENDMDL
