MODEL 1
REMARK VINA RESULT:    -3.411      0.000      0.000
REMARK INTER + INTRA:          -4.758
REMARK INTER:                  -4.408
REMARK INTRA:                  -0.350
REMARK UNBOUND:                -0.350
REMARK SMILES CCCCCCC(=O)[O-]
REMARK SMILES IDX 5 1 6 2 7 3 8 4 9 5 4 6 3 7 2 8 1 9
REMARK H PARENT
REMARK Flexibility Score: inf
ROOT
ATOM      1  C   UNL     1       3.832   0.135  -3.839  1.00  0.00     0.006 C 
ENDROOT
BRANCH   1   2
ATOM      2  C   UNL     1       2.506   0.492  -4.523  1.00  0.00     0.053 C 
BRANCH   2   3
ATOM      3  C   UNL     1       2.707   1.455  -5.653  1.00  0.00     0.041 C 
ATOM      4  O   UNL     1       3.005   1.032  -6.800  1.00  0.00    -0.550 OA
ATOM      5  O   UNL     1       2.531   2.818  -5.446  1.00  0.00    -0.550 OA
ENDBRANCH   2   3
ENDBRANCH   1   2
BRANCH   1   6
ATOM      6  C   UNL     1       4.293  -1.293  -4.175  1.00  0.00     0.000 C 
BRANCH   6   7
ATOM      7  C   UNL     1       3.234  -2.096  -4.953  1.00  0.00    -0.000 C 
BRANCH   7   8
ATOM      8  C   UNL     1       3.625  -2.446  -6.399  1.00  0.00    -0.003 C 
ATOM      9  C   UNL     1       2.429  -2.489  -7.349  1.00  0.00     0.004 C 
ENDBRANCH   7   8
ENDBRANCH   6   7
ENDBRANCH   1   6
TORSDOF 5
ENDMDL
MODEL 2
REMARK VINA RESULT:    -3.300      1.334      2.052
REMARK INTER + INTRA:          -4.615
REMARK INTER:                  -4.385
REMARK INTRA:                  -0.230
REMARK UNBOUND:                -0.350
REMARK SMILES CCCCCCC(=O)[O-]
REMARK SMILES IDX 5 1 6 2 7 3 8 4 9 5 4 6 3 7 2 8 1 9
REMARK H PARENT
REMARK Flexibility Score: inf
ROOT
ATOM      1  C   UNL     1       3.254   1.291  -5.101  1.00  0.00     0.006 C 
ENDROOT
BRANCH   1   2
ATOM      2  C   UNL     1       2.122   1.591  -6.092  1.00  0.00     0.053 C 
BRANCH   2   3
ATOM      3  C   UNL     1       1.845   3.059  -6.189  1.00  0.00     0.041 C 
ATOM      4  O   UNL     1       2.463   3.871  -5.452  1.00  0.00    -0.550 OA
ATOM      5  O   UNL     1       0.928   3.536  -7.118  1.00  0.00    -0.550 OA
ENDBRANCH   2   3
ENDBRANCH   1   2
BRANCH   1   6
ATOM      6  C   UNL     1       2.920   0.109  -4.176  1.00  0.00     0.000 C 
BRANCH   6   7
ATOM      7  C   UNL     1       4.024  -0.964  -4.153  1.00  0.00    -0.000 C 
BRANCH   7   8
ATOM      8  C   UNL     1       3.605  -2.334  -4.712  1.00  0.00    -0.003 C 
ATOM      9  C   UNL     1       3.050  -2.257  -6.133  1.00  0.00     0.004 C 
ENDBRANCH   7   8
ENDBRANCH   6   7
ENDBRANCH   1   6
TORSDOF 5
ENDMDL
MODEL 3
REMARK VINA RESULT:    -3.159      1.836      3.467
REMARK INTER + INTRA:          -4.432
REMARK INTER:                  -4.075
REMARK INTRA:                  -0.357
REMARK UNBOUND:                -0.350
REMARK SMILES CCCCCCC(=O)[O-]
REMARK SMILES IDX 5 1 6 2 7 3 8 4 9 5 4 6 3 7 2 8 1 9
REMARK H PARENT
REMARK Flexibility Score: inf
ROOT
ATOM      1  C   UNL     1       3.754  -2.430  -6.256  1.00  0.00     0.006 C 
ENDROOT
BRANCH   1   2
ATOM      2  C   UNL     1       2.593  -2.455  -7.260  1.00  0.00     0.053 C 
BRANCH   2   3
ATOM      3  C   UNL     1       2.551  -1.209  -8.089  1.00  0.00     0.041 C 
ATOM      4  O   UNL     1       1.447  -0.690  -8.398  1.00  0.00    -0.550 OA
ATOM      5  O   UNL     1       3.734  -0.601  -8.492  1.00  0.00    -0.550 OA
ENDBRANCH   2   3
ENDBRANCH   1   2
BRANCH   1   6
ATOM      6  C   UNL     1       3.277  -2.141  -4.823  1.00  0.00     0.000 C 
BRANCH   6   7
ATOM      7  C   UNL     1       3.784  -0.790  -4.286  1.00  0.00    -0.000 C 
BRANCH   7   8
ATOM      8  C   UNL     1       2.700   0.290  -4.128  1.00  0.00    -0.003 C 
ATOM      9  C   UNL     1       2.621   1.239  -5.323  1.00  0.00     0.004 C 
ENDBRANCH   7   8
ENDBRANCH   6   7
ENDBRANCH   1   6
TORSDOF 5
ENDMDL
MODEL 4
REMARK VINA RESULT:    -3.124      1.799      3.830
REMARK INTER + INTRA:          -4.387
REMARK INTER:                  -4.053
REMARK INTRA:                  -0.334
REMARK UNBOUND:                -0.350
REMARK SMILES CCCCCCC(=O)[O-]
REMARK SMILES IDX 5 1 6 2 7 3 8 4 9 5 4 6 3 7 2 8 1 9
REMARK H PARENT
REMARK Flexibility Score: inf
ROOT
ATOM      1  C   UNL     1       3.297  -2.132  -5.030  1.00  0.00     0.006 C 
ENDROOT
BRANCH   1   2
ATOM      2  C   UNL     1       3.863  -2.501  -6.408  1.00  0.00     0.053 C 
BRANCH   2   3
ATOM      3  C   UNL     1       2.837  -2.346  -7.488  1.00  0.00     0.041 C 
ATOM      4  O   UNL     1       2.288  -1.230  -7.685  1.00  0.00    -0.550 OA
ATOM      5  O   UNL     1       2.513  -3.425  -8.302  1.00  0.00    -0.550 OA
ENDBRANCH   2   3
ENDBRANCH   1   2
BRANCH   1   6
ATOM      6  C   UNL     1       4.324  -1.390  -4.160  1.00  0.00     0.000 C 
BRANCH   6   7
ATOM      7  C   UNL     1       3.885   0.043  -3.807  1.00  0.00    -0.000 C 
BRANCH   7   8
ATOM      8  C   UNL     1       2.583   0.505  -4.484  1.00  0.00    -0.003 C 
ATOM      9  C   UNL     1       2.813   1.551  -5.573  1.00  0.00     0.004 C 
ENDBRANCH   7   8
ENDBRANCH   6   7
ENDBRANCH   1   6
TORSDOF 5
ENDMDL
MODEL 5
REMARK VINA RESULT:    -3.055      1.247      1.913
REMARK INTER + INTRA:          -4.298
REMARK INTER:                  -3.968
REMARK INTRA:                  -0.330
REMARK UNBOUND:                -0.350
REMARK SMILES CCCCCCC(=O)[O-]
REMARK SMILES IDX 5 1 6 2 7 3 8 4 9 5 4 6 3 7 2 8 1 9
REMARK H PARENT
REMARK Flexibility Score: inf
ROOT
ATOM      1  C   UNL     1       3.437   1.313  -5.082  1.00  0.00     0.006 C 
ENDROOT
BRANCH   1   2
ATOM      2  C   UNL     1       2.171   1.697  -5.860  1.00  0.00     0.053 C 
BRANCH   2   3
ATOM      3  C   UNL     1       2.252   1.275  -7.294  1.00  0.00     0.041 C 
ATOM      4  O   UNL     1       3.344   1.351  -7.916  1.00  0.00    -0.550 OA
ATOM      5  O   UNL     1       1.130   0.763  -7.935  1.00  0.00    -0.550 OA
ENDBRANCH   2   3
ENDBRANCH   1   2
BRANCH   1   6
ATOM      6  C   UNL     1       3.169   0.208  -4.046  1.00  0.00     0.000 C 
BRANCH   6   7
ATOM      7  C   UNL     1       4.003  -1.061  -4.297  1.00  0.00    -0.000 C 
BRANCH   7   8
ATOM      8  C   UNL     1       3.206  -2.262  -4.834  1.00  0.00    -0.003 C 
ATOM      9  C   UNL     1       3.069  -2.258  -6.356  1.00  0.00     0.004 C 
ENDBRANCH   7   8
ENDBRANCH   6   7
ENDBRANCH   1   6
TORSDOF 5
ENDMDL
MODEL 6
REMARK VINA RESULT:    -3.038     21.103     21.612
REMARK INTER + INTRA:          -4.276
REMARK INTER:                  -4.012
REMARK INTRA:                  -0.264
REMARK UNBOUND:                -0.350
REMARK SMILES CCCCCCC(=O)[O-]
REMARK SMILES IDX 5 1 6 2 7 3 8 4 9 5 4 6 3 7 2 8 1 9
REMARK H PARENT
REMARK Flexibility Score: inf
ROOT
ATOM      1  C   UNL     1     -13.812  -9.649   4.318  1.00  0.00     0.006 C 
ENDROOT
BRANCH   1   2
ATOM      2  C   UNL     1     -13.122  -9.853   5.674  1.00  0.00     0.053 C 
BRANCH   2   3
ATOM      3  C   UNL     1     -11.708 -10.318   5.512  1.00  0.00     0.041 C 
ATOM      4  O   UNL     1     -10.962  -9.789   4.647  1.00  0.00    -0.550 OA
ATOM      5  O   UNL     1     -11.203 -11.313   6.340  1.00  0.00    -0.550 OA
ENDBRANCH   2   3
ENDBRANCH   1   2
BRANCH   1   6
ATOM      6  C   UNL     1     -14.939 -10.667   4.081  1.00  0.00     0.000 C 
BRANCH   6   7
ATOM      7  C   UNL     1     -14.665 -11.594   2.882  1.00  0.00    -0.000 C 
BRANCH   7   8
ATOM      8  C   UNL     1     -13.272 -11.437   2.250  1.00  0.00    -0.003 C 
ATOM      9  C   UNL     1     -13.286 -11.568   0.728  1.00  0.00     0.004 C 
ENDBRANCH   7   8
ENDBRANCH   6   7
ENDBRANCH   1   6
TORSDOF 5
ENDMDL
MODEL 7
REMARK VINA RESULT:    -3.028     21.365     22.028
REMARK INTER + INTRA:          -4.263
REMARK INTER:                  -3.825
REMARK INTRA:                  -0.438
REMARK UNBOUND:                -0.350
REMARK SMILES CCCCCCC(=O)[O-]
REMARK SMILES IDX 5 1 6 2 7 3 8 4 9 5 4 6 3 7 2 8 1 9
REMARK H PARENT
REMARK Flexibility Score: inf
ROOT
ATOM      1  C   UNL     1     -13.751  -9.622   4.887  1.00  0.00     0.006 C 
ENDROOT
BRANCH   1   2
ATOM      2  C   UNL     1     -12.826 -10.575   4.119  1.00  0.00     0.053 C 
BRANCH   2   3
ATOM      3  C   UNL     1     -11.473 -10.666   4.755  1.00  0.00     0.041 C 
ATOM      4  O   UNL     1     -10.733  -9.649   4.816  1.00  0.00    -0.550 OA
ATOM      5  O   UNL     1     -11.043 -11.865   5.311  1.00  0.00    -0.550 OA
ENDBRANCH   2   3
ENDBRANCH   1   2
BRANCH   1   6
ATOM      6  C   UNL     1     -14.147 -10.180   6.264  1.00  0.00     0.000 C 
BRANCH   6   7
ATOM      7  C   UNL     1     -13.922  -9.171   7.405  1.00  0.00    -0.000 C 
BRANCH   7   8
ATOM      8  C   UNL     1     -12.457  -9.006   7.842  1.00  0.00    -0.003 C 
ATOM      9  C   UNL     1     -11.870 -10.273   8.462  1.00  0.00     0.004 C 
ENDBRANCH   7   8
ENDBRANCH   6   7
ENDBRANCH   1   6
TORSDOF 5
ENDMDL
MODEL 8
REMARK VINA RESULT:    -3.008     14.932     15.772
REMARK INTER + INTRA:          -4.237
REMARK INTER:                  -3.847
REMARK INTRA:                  -0.390
REMARK UNBOUND:                -0.350
REMARK SMILES CCCCCCC(=O)[O-]
REMARK SMILES IDX 5 1 6 2 7 3 8 4 9 5 4 6 3 7 2 8 1 9
REMARK H PARENT
REMARK Flexibility Score: inf
ROOT
ATOM      1  C   UNL     1      -4.450 -13.173  -6.112  1.00  0.00     0.006 C 
ENDROOT
BRANCH   1   2
ATOM      2  C   UNL     1      -5.369 -13.478  -4.922  1.00  0.00     0.053 C 
BRANCH   2   3
ATOM      3  C   UNL     1      -6.205 -12.292  -4.550  1.00  0.00     0.041 C 
ATOM      4  O   UNL     1      -6.918 -12.320  -3.512  1.00  0.00    -0.550 OA
ATOM      5  O   UNL     1      -6.169 -11.142  -5.329  1.00  0.00    -0.550 OA
ENDBRANCH   2   3
ENDBRANCH   1   2
BRANCH   1   6
ATOM      6  C   UNL     1      -4.891 -13.906  -7.390  1.00  0.00     0.000 C 
BRANCH   6   7
ATOM      7  C   UNL     1      -5.750 -13.027  -8.317  1.00  0.00    -0.000 C 
BRANCH   7   8
ATOM      8  C   UNL     1      -7.268 -13.234  -8.178  1.00  0.00    -0.003 C 
ATOM      9  C   UNL     1      -8.054 -11.924  -8.176  1.00  0.00     0.004 C 
ENDBRANCH   7   8
ENDBRANCH   6   7
ENDBRANCH   1   6
TORSDOF 5
ENDMDL
