MODEL 1
REMARK VINA RESULT:     0.000      0.000      0.000
REMARK INTER + INTRA:           0.000
REMARK INTER:                   0.000
REMARK INTRA:                   0.000
REMARK UNBOUND:                 0.000
REMARK SMILES C=C1CCCC(C)(C)[C@]12CC=C(C)CC2
REMARK SMILES IDX 13 1 12 2 11 3 10 4 9 5 15 6 14 7 2 8 1 9 3 10 4 11 5 12
REMARK SMILES IDX 6 13 7 14 8 15
REMARK H PARENT
REMARK Flexibility Score: inf
ROOT
ATOM      1  C   UNL     1     136.433 133.348 142.822  1.00  0.00     0.039 C 
ATOM      2  C   UNL     1     136.545 132.317 143.909  1.00  0.00    -0.077 C 
ATOM      3  C   UNL     1     137.690 131.639 144.084  1.00  0.00    -0.027 C 
ATOM      4  C   UNL     1     137.783 130.605 145.175  1.00  0.00     0.039 C 
ATOM      5  C   UNL     1     136.532 129.644 145.242  1.00  0.00    -0.000 C 
ATOM      6  C   UNL     1     135.226 130.405 144.746  1.00  0.00     0.017 C 
ATOM      7  C   UNL     1     135.359 131.937 144.758  1.00  0.00     0.031 C 
ATOM      8  C   UNL     1     136.404 129.223 146.732  1.00  0.00    -0.070 C 
ATOM      9  C   UNL     1     135.632 129.886 147.620  1.00  0.00     0.008 C 
ATOM     10  C   UNL     1     137.417 128.247 147.300  1.00  0.00     0.031 C 
ATOM     11  C   UNL     1     137.550 127.009 146.425  1.00  0.00     0.005 C 
ATOM     12  C   UNL     1     137.846 127.392 144.976  1.00  0.00     0.008 C 
ATOM     13  C   UNL     1     136.754 128.322 144.358  1.00  0.00    -0.026 C 
ATOM     14  C   UNL     1     135.436 127.497 144.243  1.00  0.00     0.012 C 
ATOM     15  C   UNL     1     137.222 128.653 142.915  1.00  0.00     0.012 C 
ENDROOT
TORSDOF 0
ENDMDL
MODEL 2
REMARK VINA RESULT:     0.000      2.222      2.828
REMARK INTER + INTRA:           0.000
REMARK INTER:                   0.000
REMARK INTRA:                   0.000
REMARK UNBOUND:                 0.000
REMARK SMILES C=C1CCCC(C)(C)[C@]12CC=C(C)CC2
REMARK SMILES IDX 13 1 12 2 11 3 10 4 9 5 15 6 14 7 2 8 1 9 3 10 4 11 5 12
REMARK SMILES IDX 6 13 7 14 8 15
REMARK H PARENT
REMARK Flexibility Score: inf
ROOT
ATOM      1  C   UNL     1     138.628 133.705 142.806  1.00  0.00     0.039 C 
ATOM      2  C   UNL     1     139.003 132.539 143.677  1.00  0.00    -0.077 C 
ATOM      3  C   UNL     1     140.134 131.856 143.443  1.00  0.00    -0.027 C 
ATOM      4  C   UNL     1     140.493 130.687 144.322  1.00  0.00     0.039 C 
ATOM      5  C   UNL     1     139.283 129.713 144.602  1.00  0.00    -0.000 C 
ATOM      6  C   UNL     1     137.912 130.520 144.585  1.00  0.00     0.017 C 
ATOM      7  C   UNL     1     138.083 132.037 144.760  1.00  0.00     0.031 C 
ATOM      8  C   UNL     1     139.554 129.097 146.001  1.00  0.00    -0.070 C 
ATOM      9  C   UNL     1     139.070 129.627 147.145  1.00  0.00     0.008 C 
ATOM     10  C   UNL     1     140.657 128.064 146.138  1.00  0.00     0.031 C 
ATOM     11  C   UNL     1     140.514 126.955 145.106  1.00  0.00     0.005 C 
ATOM     12  C   UNL     1     140.415 127.531 143.694  1.00  0.00     0.008 C 
ATOM     13  C   UNL     1     139.221 128.522 143.525  1.00  0.00    -0.026 C 
ATOM     14  C   UNL     1     137.900 127.707 143.667  1.00  0.00     0.012 C 
ATOM     15  C   UNL     1     139.288 129.047 142.065  1.00  0.00     0.012 C 
ENDROOT
TORSDOF 0
ENDMDL
MODEL 3
REMARK VINA RESULT:     0.000      3.760      4.760
REMARK INTER + INTRA:           0.000
REMARK INTER:                   0.000
REMARK INTRA:                   0.000
REMARK UNBOUND:                 0.000
REMARK SMILES C=C1CCCC(C)(C)[C@]12CC=C(C)CC2
REMARK SMILES IDX 13 1 12 2 11 3 10 4 9 5 15 6 14 7 2 8 1 9 3 10 4 11 5 12
REMARK SMILES IDX 6 13 7 14 8 15
REMARK H PARENT
REMARK Flexibility Score: inf
ROOT
ATOM      1  C   UNL     1     139.601 135.709 140.813  1.00  0.00     0.039 C 
ATOM      2  C   UNL     1     139.839 134.605 141.805  1.00  0.00    -0.077 C 
ATOM      3  C   UNL     1     141.026 133.981 141.852  1.00  0.00    -0.027 C 
ATOM      4  C   UNL     1     141.246 132.873 142.848  1.00  0.00     0.039 C 
ATOM      5  C   UNL     1     140.053 131.842 142.918  1.00  0.00    -0.000 C 
ATOM      6  C   UNL     1     138.679 132.565 142.569  1.00  0.00     0.017 C 
ATOM      7  C   UNL     1     138.735 134.096 142.695  1.00  0.00     0.031 C 
ATOM      8  C   UNL     1     140.049 131.302 144.374  1.00  0.00    -0.070 C 
ATOM      9  C   UNL     1     139.307 131.851 145.360  1.00  0.00     0.008 C 
ATOM     10  C   UNL     1     141.146 130.344 144.796  1.00  0.00     0.031 C 
ATOM     11  C   UNL     1     141.281 129.186 143.818  1.00  0.00     0.005 C 
ATOM     12  C   UNL     1     141.458 129.694 142.389  1.00  0.00     0.008 C 
ATOM     13  C   UNL     1     140.281 130.606 141.919  1.00  0.00    -0.026 C 
ATOM     14  C   UNL     1     139.001 129.720 141.823  1.00  0.00     0.012 C 
ATOM     15  C   UNL     1     140.631 131.072 140.479  1.00  0.00     0.012 C 
ENDROOT
TORSDOF 0
ENDMDL
MODEL 4
REMARK VINA RESULT:     0.000      9.336     11.845
REMARK INTER + INTRA:           0.000
REMARK INTER:                   0.000
REMARK INTRA:                   0.000
REMARK UNBOUND:                 0.000
REMARK SMILES C=C1CCCC(C)(C)[C@]12CC=C(C)CC2
REMARK SMILES IDX 13 1 12 2 11 3 10 4 9 5 15 6 14 7 2 8 1 9 3 10 4 11 5 12
REMARK SMILES IDX 6 13 7 14 8 15
REMARK H PARENT
REMARK Flexibility Score: inf
ROOT
ATOM      1  C   UNL     1     144.804 132.767 142.933  1.00  0.00     0.039 C 
ATOM      2  C   UNL     1     144.751 132.806 141.432  1.00  0.00    -0.077 C 
ATOM      3  C   UNL     1     145.869 133.013 140.719  1.00  0.00    -0.027 C 
ATOM      4  C   UNL     1     145.797 133.054 139.215  1.00  0.00     0.039 C 
ATOM      5  C   UNL     1     144.598 133.922 138.665  1.00  0.00    -0.000 C 
ATOM      6  C   UNL     1     143.379 133.888 139.687  1.00  0.00     0.017 C 
ATOM      7  C   UNL     1     143.442 132.723 140.688  1.00  0.00     0.031 C 
ATOM      8  C   UNL     1     144.208 133.283 137.304  1.00  0.00    -0.070 C 
ATOM      9  C   UNL     1     143.253 132.336 137.184  1.00  0.00     0.008 C 
ATOM     10  C   UNL     1     145.134 133.476 136.119  1.00  0.00     0.031 C 
ATOM     11  C   UNL     1     145.484 134.943 135.918  1.00  0.00     0.005 C 
ATOM     12  C   UNL     1     146.034 135.556 137.204  1.00  0.00     0.008 C 
ATOM     13  C   UNL     1     145.041 135.443 138.404  1.00  0.00    -0.026 C 
ATOM     14  C   UNL     1     143.805 136.339 138.086  1.00  0.00     0.012 C 
ATOM     15  C   UNL     1     145.761 136.064 139.632  1.00  0.00     0.012 C 
ENDROOT
TORSDOF 0
ENDMDL
MODEL 5
REMARK VINA RESULT:     0.000      8.808     10.893
REMARK INTER + INTRA:           0.000
REMARK INTER:                   0.000
REMARK INTRA:                   0.000
REMARK UNBOUND:                 0.000
REMARK SMILES C=C1CCCC(C)(C)[C@]12CC=C(C)CC2
REMARK SMILES IDX 13 1 12 2 11 3 10 4 9 5 15 6 14 7 2 8 1 9 3 10 4 11 5 12
REMARK SMILES IDX 6 13 7 14 8 15
REMARK H PARENT
REMARK Flexibility Score: inf
ROOT
ATOM      1  C   UNL     1     144.804 132.767 142.933  1.00  0.00     0.039 C 
ATOM      2  C   UNL     1     144.645 132.103 141.595  1.00  0.00    -0.077 C 
ATOM      3  C   UNL     1     145.702 131.957 140.781  1.00  0.00    -0.027 C 
ATOM      4  C   UNL     1     145.523 131.293 139.441  1.00  0.00     0.039 C 
ATOM      5  C   UNL     1     144.257 131.801 138.648  1.00  0.00    -0.000 C 
ATOM      6  C   UNL     1     143.114 132.244 139.663  1.00  0.00     0.017 C 
ATOM      7  C   UNL     1     143.292 131.680 141.082  1.00  0.00     0.031 C 
ATOM      8  C   UNL     1     143.797 130.602 137.775  1.00  0.00    -0.070 C 
ATOM      9  C   UNL     1     142.875 129.705 138.185  1.00  0.00     0.008 C 
ATOM     10  C   UNL     1     144.631 130.223 136.566  1.00  0.00     0.031 C 
ATOM     11  C   UNL     1     144.908 131.429 135.680  1.00  0.00     0.005 C 
ATOM     12  C   UNL     1     145.521 132.572 136.486  1.00  0.00     0.008 C 
ATOM     13  C   UNL     1     144.620 133.027 137.677  1.00  0.00    -0.026 C 
ATOM     14  C   UNL     1     143.330 133.669 137.080  1.00  0.00     0.012 C 
ATOM     15  C   UNL     1     145.398 134.150 138.415  1.00  0.00     0.012 C 
ENDROOT
TORSDOF 0
ENDMDL
MODEL 6
REMARK VINA RESULT:     0.000      5.569      8.125
REMARK INTER + INTRA:           0.000
REMARK INTER:                   0.000
REMARK INTRA:                   0.000
REMARK UNBOUND:                 0.000
REMARK SMILES C=C1CCCC(C)(C)[C@]12CC=C(C)CC2
REMARK SMILES IDX 13 1 12 2 11 3 10 4 9 5 15 6 14 7 2 8 1 9 3 10 4 11 5 12
REMARK SMILES IDX 6 13 7 14 8 15
REMARK H PARENT
REMARK Flexibility Score: inf
ROOT
ATOM      1  C   UNL     1     139.628 133.852 142.831  1.00  0.00     0.039 C 
ATOM      2  C   UNL     1     138.652 134.618 141.982  1.00  0.00    -0.077 C 
ATOM      3  C   UNL     1     137.690 135.356 142.556  1.00  0.00    -0.027 C 
ATOM      4  C   UNL     1     136.716 136.113 141.690  1.00  0.00     0.039 C 
ATOM      5  C   UNL     1     136.146 135.262 140.489  1.00  0.00    -0.000 C 
ATOM      6  C   UNL     1     137.221 134.187 140.017  1.00  0.00     0.017 C 
ATOM      7  C   UNL     1     138.654 134.499 140.480  1.00  0.00     0.031 C 
ATOM      8  C   UNL     1     135.840 136.283 139.359  1.00  0.00    -0.070 C 
ATOM      9  C   UNL     1     136.728 136.597 138.392  1.00  0.00     0.008 C 
ATOM     10  C   UNL     1     134.645 137.203 139.517  1.00  0.00     0.031 C 
ATOM     11  C   UNL     1     133.384 136.424 139.863  1.00  0.00     0.005 C 
ATOM     12  C   UNL     1     133.609 135.533 141.083  1.00  0.00     0.008 C 
ATOM     13  C   UNL     1     134.780 134.519 140.887  1.00  0.00    -0.026 C 
ATOM     14  C   UNL     1     134.352 133.504 139.783  1.00  0.00     0.012 C 
ATOM     15  C   UNL     1     134.907 133.729 142.219  1.00  0.00     0.012 C 
ENDROOT
TORSDOF 0
ENDMDL
MODEL 7
REMARK VINA RESULT:     0.000      3.520      5.980
REMARK INTER + INTRA:           0.000
REMARK INTER:                   0.000
REMARK INTRA:                   0.000
REMARK UNBOUND:                 0.000
REMARK SMILES C=C1CCCC(C)(C)[C@]12CC=C(C)CC2
REMARK SMILES IDX 13 1 12 2 11 3 10 4 9 5 15 6 14 7 2 8 1 9 3 10 4 11 5 12
REMARK SMILES IDX 6 13 7 14 8 15
REMARK H PARENT
REMARK Flexibility Score: inf
ROOT
ATOM      1  C   UNL     1     139.932 132.169 143.651  1.00  0.00     0.039 C 
ATOM      2  C   UNL     1     138.835 132.466 142.668  1.00  0.00    -0.077 C 
ATOM      3  C   UNL     1     137.804 133.249 143.020  1.00  0.00    -0.027 C 
ATOM      4  C   UNL     1     136.709 133.531 142.025  1.00  0.00     0.039 C 
ATOM      5  C   UNL     1     136.216 132.249 141.249  1.00  0.00    -0.000 C 
ATOM      6  C   UNL     1     137.406 131.203 141.101  1.00  0.00     0.017 C 
ATOM      7  C   UNL     1     138.800 131.817 141.308  1.00  0.00     0.031 C 
ATOM      8  C   UNL     1     135.738 132.755 139.860  1.00  0.00    -0.070 C 
ATOM      9  C   UNL     1     136.542 132.798 138.776  1.00  0.00     0.008 C 
ATOM     10  C   UNL     1     134.438 133.531 139.779  1.00  0.00     0.031 C 
ATOM     11  C   UNL     1     133.303 132.794 140.476  1.00  0.00     0.005 C 
ATOM     12  C   UNL     1     133.686 132.431 141.910  1.00  0.00     0.008 C 
ATOM     13  C   UNL     1     134.974 131.551 141.990  1.00  0.00    -0.026 C 
ATOM     14  C   UNL     1     134.646 130.167 141.351  1.00  0.00     0.012 C 
ATOM     15  C   UNL     1     135.251 131.311 143.500  1.00  0.00     0.012 C 
ENDROOT
TORSDOF 0
ENDMDL
MODEL 8
REMARK VINA RESULT:     0.000     11.614     13.651
REMARK INTER + INTRA:           0.000
REMARK INTER:                   0.000
REMARK INTRA:                   0.000
REMARK UNBOUND:                 0.000
REMARK SMILES C=C1CCCC(C)(C)[C@]12CC=C(C)CC2
REMARK SMILES IDX 13 1 12 2 11 3 10 4 9 5 15 6 14 7 2 8 1 9 3 10 4 11 5 12
REMARK SMILES IDX 6 13 7 14 8 15
REMARK H PARENT
REMARK Flexibility Score: inf
ROOT
ATOM      1  C   UNL     1     130.302 142.655 148.709  1.00  0.00     0.039 C 
ATOM      2  C   UNL     1     131.718 142.771 149.197  1.00  0.00    -0.077 C 
ATOM      3  C   UNL     1     132.739 142.419 148.401  1.00  0.00    -0.027 C 
ATOM      4  C   UNL     1     134.153 142.536 148.908  1.00  0.00     0.039 C 
ATOM      5  C   UNL     1     134.347 141.975 150.371  1.00  0.00    -0.000 C 
ATOM      6  C   UNL     1     133.006 142.148 151.210  1.00  0.00     0.017 C 
ATOM      7  C   UNL     1     132.031 143.178 150.614  1.00  0.00     0.031 C 
ATOM      8  C   UNL     1     135.506 142.804 150.988  1.00  0.00    -0.070 C 
ATOM      9  C   UNL     1     135.303 143.926 151.712  1.00  0.00     0.008 C 
ATOM     10  C   UNL     1     136.920 142.548 150.504  1.00  0.00     0.031 C 
ATOM     11  C   UNL     1     137.265 141.066 150.549  1.00  0.00     0.005 C 
ATOM     12  C   UNL     1     136.224 140.238 149.799  1.00  0.00     0.008 C 
ATOM     13  C   UNL     1     134.779 140.428 150.359  1.00  0.00    -0.026 C 
ATOM     14  C   UNL     1     134.741 139.825 151.796  1.00  0.00     0.012 C 
ATOM     15  C   UNL     1     133.844 139.565 149.468  1.00  0.00     0.012 C 
ENDROOT
TORSDOF 0
ENDMDL
MODEL 9
REMARK VINA RESULT:     0.000     13.352     15.475
REMARK INTER + INTRA:           0.000
REMARK INTER:                   0.000
REMARK INTRA:                   0.000
REMARK UNBOUND:                 0.000
REMARK SMILES C=C1CCCC(C)(C)[C@]12CC=C(C)CC2
REMARK SMILES IDX 13 1 12 2 11 3 10 4 9 5 15 6 14 7 2 8 1 9 3 10 4 11 5 12
REMARK SMILES IDX 6 13 7 14 8 15
REMARK H PARENT
REMARK Flexibility Score: inf
ROOT
ATOM      1  C   UNL     1     128.138 143.867 150.132  1.00  0.00     0.039 C 
ATOM      2  C   UNL     1     129.618 143.936 150.382  1.00  0.00    -0.077 C 
ATOM      3  C   UNL     1     130.480 143.426 149.489  1.00  0.00    -0.027 C 
ATOM      4  C   UNL     1     131.961 143.499 149.757  1.00  0.00     0.039 C 
ATOM      5  C   UNL     1     132.356 143.095 151.231  1.00  0.00    -0.000 C 
ATOM      6  C   UNL     1     131.176 143.455 152.236  1.00  0.00     0.017 C 
ATOM      7  C   UNL     1     130.174 144.477 151.674  1.00  0.00     0.031 C 
ATOM      8  C   UNL     1     133.640 143.904 151.559  1.00  0.00    -0.070 C 
ATOM      9  C   UNL     1     133.613 145.113 152.162  1.00  0.00     0.008 C 
ATOM     10  C   UNL     1     134.943 143.496 150.901  1.00  0.00     0.031 C 
ATOM     11  C   UNL     1     135.214 142.009 151.074  1.00  0.00     0.005 C 
ATOM     12  C   UNL     1     134.025 141.177 150.598  1.00  0.00     0.008 C 
ATOM     13  C   UNL     1     132.699 141.530 151.343  1.00  0.00    -0.026 C 
ATOM     14  C   UNL     1     132.859 141.096 152.832  1.00  0.00     0.012 C 
ATOM     15  C   UNL     1     131.591 140.640 150.716  1.00  0.00     0.012 C 
ENDROOT
TORSDOF 0
ENDMDL
