MODEL 1
REMARK VINA RESULT:    -5.088      0.000      0.000
REMARK INTER + INTRA:          -6.176
REMARK INTER:                  -5.832
REMARK INTRA:                  -0.345
REMARK UNBOUND:                -0.345
REMARK SMILES COC(=O)c1ccccc1O
REMARK SMILES IDX 5 1 6 2 7 3 8 4 9 5 10 6 3 7 4 8 2 9 1 10 11 11
REMARK H PARENT 11 12
REMARK Flexibility Score: inf
ROOT
ATOM      1  C   UNL     1      -1.194  28.700  51.999  1.00  0.00     0.101 A 
ATOM      2  C   UNL     1      -1.653  27.366  52.014  1.00  0.00     0.019 A 
ATOM      3  C   UNL     1      -1.050  26.414  52.838  1.00  0.00     0.001 A 
ATOM      4  C   UNL     1       0.018  26.774  53.659  1.00  0.00     0.004 A 
ATOM      5  C   UNL     1       0.486  28.088  53.659  1.00  0.00     0.047 A 
ATOM      6  C   UNL     1      -0.110  29.056  52.835  1.00  0.00     0.130 A 
ENDROOT
BRANCH   1   7
ATOM      7  C   UNL     1      -1.856  29.691  51.110  1.00  0.00     0.341 C 
ATOM      8  O   UNL     1      -3.109  29.660  50.956  1.00  0.00    -0.246 OA
BRANCH   7   9
ATOM      9  O   UNL     1      -1.102  30.660  50.440  1.00  0.00    -0.465 OA
ATOM     10  C   UNL     1      -0.294  30.361  49.308  1.00  0.00     0.282 C 
ENDBRANCH   7   9
ENDBRANCH   1   7
BRANCH   6  11
ATOM     11  O   UNL     1       0.379  30.363  52.855  1.00  0.00    -0.507 OA
ATOM     12  H   UNL     1       0.542  30.884  52.001  1.00  0.00     0.293 HD
ENDBRANCH   6  11
TORSDOF 3
ENDMDL
MODEL 2
REMARK VINA RESULT:    -4.969      1.980      4.301
REMARK INTER + INTRA:          -6.039
REMARK INTER:                  -5.796
REMARK INTRA:                  -0.243
REMARK UNBOUND:                -0.345
REMARK SMILES COC(=O)c1ccccc1O
REMARK SMILES IDX 5 1 6 2 7 3 8 4 9 5 10 6 3 7 4 8 2 9 1 10 11 11
REMARK H PARENT 11 12
REMARK Flexibility Score: inf
ROOT
ATOM      1  C   UNL     1       0.283  27.651  53.345  1.00  0.00     0.101 A 
ATOM      2  C   UNL     1      -0.573  26.532  53.358  1.00  0.00     0.019 A 
ATOM      3  C   UNL     1      -1.828  26.587  52.746  1.00  0.00     0.001 A 
ATOM      4  C   UNL     1      -2.247  27.756  52.114  1.00  0.00     0.004 A 
ATOM      5  C   UNL     1      -1.414  28.875  52.091  1.00  0.00     0.047 A 
ATOM      6  C   UNL     1      -0.151  28.834  52.702  1.00  0.00     0.130 A 
ENDROOT
BRANCH   1   7
ATOM      7  C   UNL     1       1.613  27.562  54.005  1.00  0.00     0.341 C 
ATOM      8  O   UNL     1       2.663  27.767  53.335  1.00  0.00    -0.246 OA
BRANCH   7   9
ATOM      9  O   UNL     1       1.711  27.253  55.366  1.00  0.00    -0.465 OA
ATOM     10  C   UNL     1       1.919  25.928  55.841  1.00  0.00     0.282 C 
ENDBRANCH   7   9
ENDBRANCH   1   7
BRANCH   6  11
ATOM     11  O   UNL     1       0.662  29.967  52.663  1.00  0.00    -0.507 OA
ATOM     12  H   UNL     1       1.310  30.133  51.902  1.00  0.00     0.293 HD
ENDBRANCH   6  11
TORSDOF 3
ENDMDL
MODEL 3
REMARK VINA RESULT:    -4.854      1.736      1.989
REMARK INTER + INTRA:          -5.908
REMARK INTER:                  -5.583
REMARK INTRA:                  -0.324
REMARK UNBOUND:                -0.345
REMARK SMILES COC(=O)c1ccccc1O
REMARK SMILES IDX 5 1 6 2 7 3 8 4 9 5 10 6 3 7 4 8 2 9 1 10 11 11
REMARK H PARENT 11 12
REMARK Flexibility Score: inf
ROOT
ATOM      1  C   UNL     1      -0.695  27.824  52.988  1.00  0.00     0.101 A 
ATOM      2  C   UNL     1      -0.706  26.472  53.391  1.00  0.00     0.019 A 
ATOM      3  C   UNL     1       0.437  25.879  53.931  1.00  0.00     0.001 A 
ATOM      4  C   UNL     1       1.608  26.622  54.078  1.00  0.00     0.004 A 
ATOM      5  C   UNL     1       1.639  27.961  53.686  1.00  0.00     0.047 A 
ATOM      6  C   UNL     1       0.497  28.569  53.142  1.00  0.00     0.130 A 
ENDROOT
BRANCH   1   7
ATOM      7  C   UNL     1      -1.928  28.427  52.417  1.00  0.00     0.341 C 
ATOM      8  O   UNL     1      -2.616  27.779  51.580  1.00  0.00    -0.246 OA
BRANCH   7   9
ATOM      9  O   UNL     1      -2.334  29.710  52.799  1.00  0.00    -0.465 OA
ATOM     10  C   UNL     1      -2.941  30.626  51.896  1.00  0.00     0.282 C 
ENDBRANCH   7   9
ENDBRANCH   1   7
BRANCH   6  11
ATOM     11  O   UNL     1       0.557  29.910  52.758  1.00  0.00    -0.507 OA
ATOM     12  H   UNL     1       1.351  30.285  52.252  1.00  0.00     0.293 HD
ENDBRANCH   6  11
TORSDOF 3
ENDMDL
MODEL 4
REMARK VINA RESULT:    -4.817      2.102      3.888
REMARK INTER + INTRA:          -5.866
REMARK INTER:                  -5.579
REMARK INTRA:                  -0.287
REMARK UNBOUND:                -0.345
REMARK SMILES COC(=O)c1ccccc1O
REMARK SMILES IDX 5 1 6 2 7 3 8 4 9 5 10 6 3 7 4 8 2 9 1 10 11 11
REMARK H PARENT 11 12
REMARK Flexibility Score: inf
ROOT
ATOM      1  C   UNL     1      -1.018  28.176  52.530  1.00  0.00     0.101 A 
ATOM      2  C   UNL     1      -2.315  28.261  51.984  1.00  0.00     0.019 A 
ATOM      3  C   UNL     1      -2.692  29.360  51.210  1.00  0.00     0.001 A 
ATOM      4  C   UNL     1      -1.784  30.390  50.967  1.00  0.00     0.004 A 
ATOM      5  C   UNL     1      -0.495  30.324  51.498  1.00  0.00     0.047 A 
ATOM      6  C   UNL     1      -0.103  29.226  52.279  1.00  0.00     0.130 A 
ENDROOT
BRANCH   1   7
ATOM      7  C   UNL     1      -0.646  26.993  53.351  1.00  0.00     0.341 C 
ATOM      8  O   UNL     1      -1.253  25.898  53.188  1.00  0.00    -0.246 OA
BRANCH   7   9
ATOM      9  O   UNL     1       0.374  27.083  54.305  1.00  0.00    -0.465 OA
ATOM     10  C   UNL     1       1.374  26.084  54.458  1.00  0.00     0.282 C 
ENDBRANCH   7   9
ENDBRANCH   1   7
BRANCH   6  11
ATOM     11  O   UNL     1       1.192  29.186  52.797  1.00  0.00    -0.507 OA
ATOM     12  H   UNL     1       1.663  28.310  52.989  1.00  0.00     0.293 HD
ENDBRANCH   6  11
TORSDOF 3
ENDMDL
MODEL 5
REMARK VINA RESULT:    -4.729      2.318      3.905
REMARK INTER + INTRA:          -5.765
REMARK INTER:                  -5.481
REMARK INTRA:                  -0.284
REMARK UNBOUND:                -0.345
REMARK SMILES COC(=O)c1ccccc1O
REMARK SMILES IDX 5 1 6 2 7 3 8 4 9 5 10 6 3 7 4 8 2 9 1 10 11 11
REMARK H PARENT 11 12
REMARK Flexibility Score: inf
ROOT
ATOM      1  C   UNL     1      -1.550  28.807  52.537  1.00  0.00     0.101 A 
ATOM      2  C   UNL     1      -2.556  29.202  51.631  1.00  0.00     0.019 A 
ATOM      3  C   UNL     1      -2.290  30.146  50.637  1.00  0.00     0.001 A 
ATOM      4  C   UNL     1      -1.020  30.710  50.530  1.00  0.00     0.004 A 
ATOM      5  C   UNL     1      -0.011  30.333  51.416  1.00  0.00     0.047 A 
ATOM      6  C   UNL     1      -0.265  29.386  52.421  1.00  0.00     0.130 A 
ENDROOT
BRANCH   1   7
ATOM      7  C   UNL     1      -1.864  27.800  53.585  1.00  0.00     0.341 C 
ATOM      8  O   UNL     1      -1.367  26.642  53.513  1.00  0.00    -0.246 OA
BRANCH   7   9
ATOM      9  O   UNL     1      -2.707  28.125  54.653  1.00  0.00    -0.465 OA
ATOM     10  C   UNL     1      -2.254  28.821  55.808  1.00  0.00     0.282 C 
ENDBRANCH   7   9
ENDBRANCH   1   7
BRANCH   6  11
ATOM     11  O   UNL     1       0.763  29.026  53.294  1.00  0.00    -0.507 OA
ATOM     12  H   UNL     1       1.660  29.498  53.284  1.00  0.00     0.293 HD
ENDBRANCH   6  11
TORSDOF 3
ENDMDL
MODEL 6
REMARK VINA RESULT:    -4.645      2.627      4.586
REMARK INTER + INTRA:          -5.668
REMARK INTER:                  -5.358
REMARK INTRA:                  -0.310
REMARK UNBOUND:                -0.345
REMARK SMILES COC(=O)c1ccccc1O
REMARK SMILES IDX 5 1 6 2 7 3 8 4 9 5 10 6 3 7 4 8 2 9 1 10 11 11
REMARK H PARENT 11 12
REMARK Flexibility Score: inf
ROOT
ATOM      1  C   UNL     1       0.023  28.168  53.053  1.00  0.00     0.101 A 
ATOM      2  C   UNL     1      -0.029  29.432  52.432  1.00  0.00     0.019 A 
ATOM      3  C   UNL     1      -1.156  29.825  51.707  1.00  0.00     0.001 A 
ATOM      4  C   UNL     1      -2.248  28.966  51.591  1.00  0.00     0.004 A 
ATOM      5  C   UNL     1      -2.216  27.711  52.199  1.00  0.00     0.047 A 
ATOM      6  C   UNL     1      -1.090  27.303  52.930  1.00  0.00     0.130 A 
ENDROOT
BRANCH   1   7
ATOM      7  C   UNL     1       1.237  27.778  53.818  1.00  0.00     0.341 C 
ATOM      8  O   UNL     1       2.366  27.788  53.253  1.00  0.00    -0.246 OA
BRANCH   7   9
ATOM      9  O   UNL     1       1.140  27.398  55.161  1.00  0.00    -0.465 OA
ATOM     10  C   UNL     1       1.915  26.346  55.722  1.00  0.00     0.282 C 
ENDBRANCH   7   9
ENDBRANCH   1   7
BRANCH   6  11
ATOM     11  O   UNL     1      -1.086  26.042  53.528  1.00  0.00    -0.507 OA
ATOM     12  H   UNL     1      -0.426  25.800  54.258  1.00  0.00     0.293 HD
ENDBRANCH   6  11
TORSDOF 3
ENDMDL
MODEL 7
REMARK VINA RESULT:    -4.523      1.126      2.118
REMARK INTER + INTRA:          -5.528
REMARK INTER:                  -5.250
REMARK INTRA:                  -0.278
REMARK UNBOUND:                -0.345
REMARK SMILES COC(=O)c1ccccc1O
REMARK SMILES IDX 5 1 6 2 7 3 8 4 9 5 10 6 3 7 4 8 2 9 1 10 11 11
REMARK H PARENT 11 12
REMARK Flexibility Score: inf
ROOT
ATOM      1  C   UNL     1      -0.544  28.666  52.410  1.00  0.00     0.101 A 
ATOM      2  C   UNL     1       0.640  28.490  53.156  1.00  0.00     0.019 A 
ATOM      3  C   UNL     1       0.893  27.288  53.820  1.00  0.00     0.001 A 
ATOM      4  C   UNL     1      -0.029  26.244  53.752  1.00  0.00     0.004 A 
ATOM      5  C   UNL     1      -1.206  26.398  53.019  1.00  0.00     0.047 A 
ATOM      6  C   UNL     1      -1.473  27.601  52.347  1.00  0.00     0.130 A 
ENDROOT
BRANCH   1   7
ATOM      7  C   UNL     1      -0.785  29.957  51.714  1.00  0.00     0.341 C 
ATOM      8  O   UNL     1      -1.771  30.674  52.042  1.00  0.00    -0.246 OA
BRANCH   7   9
ATOM      9  O   UNL     1       0.073  30.387  50.697  1.00  0.00    -0.465 OA
ATOM     10  C   UNL     1      -0.289  30.361  49.321  1.00  0.00     0.282 C 
ENDBRANCH   7   9
ENDBRANCH   1   7
BRANCH   6  11
ATOM     11  O   UNL     1      -2.659  27.727  51.622  1.00  0.00    -0.507 OA
ATOM     12  H   UNL     1      -2.673  28.121  50.689  1.00  0.00     0.293 HD
ENDBRANCH   6  11
TORSDOF 3
ENDMDL
MODEL 8
REMARK VINA RESULT:    -4.402      1.837      4.557
REMARK INTER + INTRA:          -5.390
REMARK INTER:                  -5.038
REMARK INTRA:                  -0.352
REMARK UNBOUND:                -0.345
REMARK SMILES COC(=O)c1ccccc1O
REMARK SMILES IDX 5 1 6 2 7 3 8 4 9 5 10 6 3 7 4 8 2 9 1 10 11 11
REMARK H PARENT 11 12
REMARK Flexibility Score: inf
ROOT
ATOM      1  C   UNL     1      -1.227  30.305  50.606  1.00  0.00     0.101 A 
ATOM      2  C   UNL     1      -0.077  30.080  49.820  1.00  0.00     0.019 A 
ATOM      3  C   UNL     1      -0.060  30.423  48.467  1.00  0.00     0.001 A 
ATOM      4  C   UNL     1      -1.185  30.995  47.875  1.00  0.00     0.004 A 
ATOM      5  C   UNL     1      -2.332  31.227  48.635  1.00  0.00     0.047 A 
ATOM      6  C   UNL     1      -2.364  30.886  49.997  1.00  0.00     0.130 A 
ENDROOT
BRANCH   1   7
ATOM      7  C   UNL     1      -1.215  29.929  52.044  1.00  0.00     0.341 C 
ATOM      8  O   UNL     1      -0.304  30.366  52.801  1.00  0.00    -0.246 OA
BRANCH   7   9
ATOM      9  O   UNL     1      -2.207  29.093  52.568  1.00  0.00    -0.465 OA
ATOM     10  C   UNL     1      -2.379  27.745  52.147  1.00  0.00     0.282 C 
ENDBRANCH   7   9
ENDBRANCH   1   7
BRANCH   6  11
ATOM     11  O   UNL     1      -3.524  31.129  50.733  1.00  0.00    -0.507 OA
ATOM     12  H   UNL     1      -3.700  30.669  51.618  1.00  0.00     0.293 HD
ENDBRANCH   6  11
TORSDOF 3
ENDMDL
MODEL 9
REMARK VINA RESULT:    -4.348      1.802      4.010
REMARK INTER + INTRA:          -5.328
REMARK INTER:                  -5.051
REMARK INTRA:                  -0.277
REMARK UNBOUND:                -0.345
REMARK SMILES COC(=O)c1ccccc1O
REMARK SMILES IDX 5 1 6 2 7 3 8 4 9 5 10 6 3 7 4 8 2 9 1 10 11 11
REMARK H PARENT 11 12
REMARK Flexibility Score: inf
ROOT
ATOM      1  C   UNL     1      -1.727  29.355  51.530  1.00  0.00     0.101 A 
ATOM      2  C   UNL     1      -3.072  29.547  51.154  1.00  0.00     0.019 A 
ATOM      3  C   UNL     1      -3.400  30.366  50.072  1.00  0.00     0.001 A 
ATOM      4  C   UNL     1      -2.394  31.007  49.349  1.00  0.00     0.004 A 
ATOM      5  C   UNL     1      -1.057  30.829  49.706  1.00  0.00     0.047 A 
ATOM      6  C   UNL     1      -0.713  30.009  50.791  1.00  0.00     0.130 A 
ENDROOT
BRANCH   1   7
ATOM      7  C   UNL     1      -1.409  28.476  52.687  1.00  0.00     0.341 C 
ATOM      8  O   UNL     1      -1.929  28.707  53.814  1.00  0.00    -0.246 OA
BRANCH   7   9
ATOM      9  O   UNL     1      -0.538  27.392  52.537  1.00  0.00    -0.465 OA
ATOM     10  C   UNL     1      -0.130  26.575  53.628  1.00  0.00     0.282 C 
ENDBRANCH   7   9
ENDBRANCH   1   7
BRANCH   6  11
ATOM     11  O   UNL     1       0.632  29.849  51.125  1.00  0.00    -0.507 OA
ATOM     12  H   UNL     1       0.951  29.889  52.086  1.00  0.00     0.293 HD
ENDBRANCH   6  11
TORSDOF 3
ENDMDL
