MODEL 1
REMARK VINA RESULT:    -3.859      0.000      0.000
REMARK INTER + INTRA:          -9.466
REMARK INTER:                  -7.242
REMARK INTRA:                  -2.223
REMARK UNBOUND:                -2.223
REMARK SMILES O=C([O-])CCCCCCCCCCCCCCC(=O)[O-]
REMARK SMILES IDX 10 1 9 2 8 3 7 4 6 5 5 6 4 7 2 8 1 9 3 10 11 11 12 12 13 13
REMARK SMILES IDX 14 14 15 15 16 16 17 17 18 18 19 19 20 20
REMARK H PARENT
REMARK Flexibility Score: inf
ROOT
ATOM      1  C   UNL     1      -9.609 -20.062  30.195  1.00  0.00     0.000 C 
ENDROOT
BRANCH   1   2
ATOM      2  C   UNL     1      -8.478 -20.132  31.235  1.00  0.00     0.000 C 
BRANCH   2   3
ATOM      3  C   UNL     1      -8.544 -21.341  32.187  1.00  0.00     0.000 C 
BRANCH   3   4
ATOM      4  C   UNL     1      -7.502 -22.420  31.859  1.00  0.00     0.000 C 
BRANCH   4   5
ATOM      5  C   UNL     1      -6.395 -21.856  30.957  1.00  0.00     0.000 C 
BRANCH   5   6
ATOM      6  C   UNL     1      -6.270 -22.614  29.621  1.00  0.00     0.006 C 
BRANCH   6   7
ATOM      7  C   UNL     1      -7.604 -23.136  29.064  1.00  0.00     0.053 C 
BRANCH   7   8
ATOM      8  C   UNL     1      -7.836 -22.694  27.651  1.00  0.00     0.041 C 
ATOM      9  O   UNL     1      -8.042 -21.479  27.394  1.00  0.00    -0.550 OA
ATOM     10  O   UNL     1      -7.858 -23.630  26.624  1.00  0.00    -0.550 OA
ENDBRANCH   7   8
ENDBRANCH   6   7
ENDBRANCH   5   6
ENDBRANCH   4   5
ENDBRANCH   3   4
ENDBRANCH   2   3
ENDBRANCH   1   2
BRANCH   1  11
ATOM     11  C   UNL     1     -10.812 -20.947  30.556  1.00  0.00     0.000 C 
BRANCH  11  12
ATOM     12  C   UNL     1     -11.107 -21.957  29.437  1.00  0.00     0.000 C 
BRANCH  12  13
ATOM     13  C   UNL     1     -11.210 -23.406  29.946  1.00  0.00     0.000 C 
BRANCH  13  14
ATOM     14  C   UNL     1     -11.505 -23.552  31.451  1.00  0.00     0.000 C 
BRANCH  14  15
ATOM     15  C   UNL     1     -10.587 -24.573  32.145  1.00  0.00     0.000 C 
BRANCH  15  16
ATOM     16  C   UNL     1     -10.867 -24.695  33.655  1.00  0.00     0.006 C 
BRANCH  16  17
ATOM     17  C   UNL     1     -11.422 -26.062  34.089  1.00  0.00     0.053 C 
BRANCH  17  18
ATOM     18  C   UNL     1     -12.908 -26.029  34.276  1.00  0.00     0.041 C 
ATOM     19  O   UNL     1     -13.399 -25.947  35.432  1.00  0.00    -0.550 OA
ATOM     20  O   UNL     1     -13.749 -26.119  33.174  1.00  0.00    -0.550 OA
ENDBRANCH  17  18
ENDBRANCH  16  17
ENDBRANCH  15  16
ENDBRANCH  14  15
ENDBRANCH  13  14
ENDBRANCH  12  13
ENDBRANCH  11  12
ENDBRANCH   1  11
TORSDOF 15
ENDMDL
MODEL 2
REMARK VINA RESULT:    -3.783      0.947      6.634
REMARK INTER + INTRA:          -9.324
REMARK INTER:                  -6.926
REMARK INTRA:                  -2.399
REMARK UNBOUND:                -2.223
REMARK SMILES O=C([O-])CCCCCCCCCCCCCCC(=O)[O-]
REMARK SMILES IDX 10 1 9 2 8 3 7 4 6 5 5 6 4 7 2 8 1 9 3 10 11 11 12 12 13 13
REMARK SMILES IDX 14 14 15 15 16 16 17 17 18 18 19 19 20 20
REMARK H PARENT
REMARK Flexibility Score: inf
ROOT
ATOM      1  C   UNL     1     -11.052 -21.653  28.957  1.00  0.00     0.000 C 
ENDROOT
BRANCH   1   2
ATOM      2  C   UNL     1     -10.864 -23.141  28.611  1.00  0.00     0.000 C 
BRANCH   2   3
ATOM      3  C   UNL     1      -9.940 -23.918  29.566  1.00  0.00     0.000 C 
BRANCH   3   4
ATOM      4  C   UNL     1     -10.678 -25.006  30.361  1.00  0.00     0.000 C 
BRANCH   4   5
ATOM      5  C   UNL     1     -10.244 -24.997  31.834  1.00  0.00     0.000 C 
BRANCH   5   6
ATOM      6  C   UNL     1     -11.203 -24.195  32.734  1.00  0.00     0.006 C 
BRANCH   6   7
ATOM      7  C   UNL     1     -11.438 -24.816  34.120  1.00  0.00     0.053 C 
BRANCH   7   8
ATOM      8  C   UNL     1     -12.725 -25.580  34.184  1.00  0.00     0.041 C 
ATOM      9  O   UNL     1     -13.602 -25.417  33.296  1.00  0.00    -0.550 OA
ATOM     10  O   UNL     1     -12.968 -26.445  35.243  1.00  0.00    -0.550 OA
ENDBRANCH   7   8
ENDBRANCH   6   7
ENDBRANCH   5   6
ENDBRANCH   4   5
ENDBRANCH   3   4
ENDBRANCH   2   3
ENDBRANCH   1   2
BRANCH   1  11
ATOM     11  C   UNL     1     -10.603 -21.308  30.385  1.00  0.00     0.000 C 
BRANCH  11  12
ATOM     12  C   UNL     1      -9.591 -20.152  30.378  1.00  0.00     0.000 C 
BRANCH  12  13
ATOM     13  C   UNL     1      -8.494 -20.306  31.447  1.00  0.00     0.000 C 
BRANCH  13  14
ATOM     14  C   UNL     1      -8.522 -21.633  32.227  1.00  0.00     0.000 C 
BRANCH  14  15
ATOM     15  C   UNL     1      -7.373 -22.580  31.840  1.00  0.00     0.000 C 
BRANCH  15  16
ATOM     16  C   UNL     1      -6.406 -21.955  30.816  1.00  0.00     0.006 C 
BRANCH  16  17
ATOM     17  C   UNL     1      -6.407 -22.643  29.441  1.00  0.00     0.053 C 
BRANCH  17  18
ATOM     18  C   UNL     1      -6.893 -21.730  28.357  1.00  0.00     0.041 C 
ATOM     19  O   UNL     1      -6.601 -20.505  28.383  1.00  0.00    -0.550 OA
ATOM     20  O   UNL     1      -7.691 -22.228  27.335  1.00  0.00    -0.550 OA
ENDBRANCH  17  18
ENDBRANCH  16  17
ENDBRANCH  15  16
ENDBRANCH  14  15
ENDBRANCH  13  14
ENDBRANCH  12  13
ENDBRANCH  11  12
ENDBRANCH   1  11
TORSDOF 15
ENDMDL
MODEL 3
REMARK VINA RESULT:    -3.748      2.034      2.716
REMARK INTER + INTRA:          -9.257
REMARK INTER:                  -7.295
REMARK INTRA:                  -1.962
REMARK UNBOUND:                -2.223
REMARK SMILES O=C([O-])CCCCCCCCCCCCCCC(=O)[O-]
REMARK SMILES IDX 10 1 9 2 8 3 7 4 6 5 5 6 4 7 2 8 1 9 3 10 11 11 12 12 13 13
REMARK SMILES IDX 14 14 15 15 16 16 17 17 18 18 19 19 20 20
REMARK H PARENT
REMARK Flexibility Score: inf
ROOT
ATOM      1  C   UNL     1      -9.698 -24.068  29.932  1.00  0.00     0.000 C 
ENDROOT
BRANCH   1   2
ATOM      2  C   UNL     1      -9.019 -23.511  31.196  1.00  0.00     0.000 C 
BRANCH   2   3
ATOM      3  C   UNL     1      -9.470 -22.097  31.605  1.00  0.00     0.000 C 
BRANCH   3   4
ATOM      4  C   UNL     1      -8.294 -21.137  31.840  1.00  0.00     0.000 C 
BRANCH   4   5
ATOM      5  C   UNL     1      -6.961 -21.802  31.464  1.00  0.00     0.000 C 
BRANCH   5   6
ATOM      6  C   UNL     1      -5.991 -20.837  30.757  1.00  0.00     0.006 C 
BRANCH   6   7
ATOM      7  C   UNL     1      -6.348 -20.545  29.291  1.00  0.00     0.053 C 
BRANCH   7   8
ATOM      8  C   UNL     1      -6.680 -21.794  28.533  1.00  0.00     0.041 C 
ATOM      9  O   UNL     1      -7.830 -21.953  28.046  1.00  0.00    -0.550 OA
ATOM     10  O   UNL     1      -5.729 -22.797  28.394  1.00  0.00    -0.550 OA
ENDBRANCH   7   8
ENDBRANCH   6   7
ENDBRANCH   5   6
ENDBRANCH   4   5
ENDBRANCH   3   4
ENDBRANCH   2   3
ENDBRANCH   1   2
BRANCH   1  11
ATOM     11  C   UNL     1     -11.207 -23.788  29.889  1.00  0.00     0.000 C 
BRANCH  11  12
ATOM     12  C   UNL     1     -11.978 -25.008  29.361  1.00  0.00     0.000 C 
BRANCH  12  13
ATOM     13  C   UNL     1     -11.122 -26.286  29.315  1.00  0.00     0.000 C 
BRANCH  13  14
ATOM     14  C   UNL     1     -11.635 -27.449  30.184  1.00  0.00     0.000 C 
BRANCH  14  15
ATOM     15  C   UNL     1     -12.028 -27.008  31.604  1.00  0.00     0.000 C 
BRANCH  15  16
ATOM     16  C   UNL     1     -10.813 -26.601  32.460  1.00  0.00     0.006 C 
BRANCH  16  17
ATOM     17  C   UNL     1     -11.169 -26.104  33.871  1.00  0.00     0.053 C 
BRANCH  17  18
ATOM     18  C   UNL     1     -11.329 -24.616  33.917  1.00  0.00     0.041 C 
ATOM     19  O   UNL     1     -12.258 -24.058  33.275  1.00  0.00    -0.550 OA
ATOM     20  O   UNL     1     -10.434 -23.843  34.645  1.00  0.00    -0.550 OA
ENDBRANCH  17  18
ENDBRANCH  16  17
ENDBRANCH  15  16
ENDBRANCH  14  15
ENDBRANCH  13  14
ENDBRANCH  12  13
ENDBRANCH  11  12
ENDBRANCH   1  11
TORSDOF 15
ENDMDL
MODEL 4
REMARK VINA RESULT:    -3.741      1.597      6.649
REMARK INTER + INTRA:          -9.245
REMARK INTER:                  -7.610
REMARK INTRA:                  -1.634
REMARK UNBOUND:                -2.223
REMARK SMILES O=C([O-])CCCCCCCCCCCCCCC(=O)[O-]
REMARK SMILES IDX 10 1 9 2 8 3 7 4 6 5 5 6 4 7 2 8 1 9 3 10 11 11 12 12 13 13
REMARK SMILES IDX 14 14 15 15 16 16 17 17 18 18 19 19 20 20
REMARK H PARENT
REMARK Flexibility Score: inf
ROOT
ATOM      1  C   UNL     1      -7.217 -22.329  31.751  1.00  0.00     0.000 C 
ENDROOT
BRANCH   1   2
ATOM      2  C   UNL     1      -8.597 -22.207  32.422  1.00  0.00     0.000 C 
BRANCH   2   3
ATOM      3  C   UNL     1      -9.733 -22.969  31.716  1.00  0.00     0.000 C 
BRANCH   3   4
ATOM      4  C   UNL     1     -10.414 -24.005  32.623  1.00  0.00     0.000 C 
BRANCH   4   5
ATOM      5  C   UNL     1     -10.707 -25.300  31.850  1.00  0.00     0.000 C 
BRANCH   5   6
ATOM      6  C   UNL     1     -11.026 -26.489  32.777  1.00  0.00     0.006 C 
BRANCH   6   7
ATOM      7  C   UNL     1     -11.449 -26.086  34.198  1.00  0.00     0.053 C 
BRANCH   7   8
ATOM      8  C   UNL     1     -12.915 -26.289  34.428  1.00  0.00     0.041 C 
ATOM      9  O   UNL     1     -13.690 -26.469  33.452  1.00  0.00    -0.550 OA
ATOM     10  O   UNL     1     -13.431 -26.245  35.718  1.00  0.00    -0.550 OA
ENDBRANCH   7   8
ENDBRANCH   6   7
ENDBRANCH   5   6
ENDBRANCH   4   5
ENDBRANCH   3   4
ENDBRANCH   2   3
ENDBRANCH   1   2
BRANCH   1  11
ATOM     11  C   UNL     1      -6.731 -21.009  31.136  1.00  0.00     0.000 C 
BRANCH  11  12
ATOM     12  C   UNL     1      -7.847 -19.953  31.149  1.00  0.00     0.000 C 
BRANCH  12  13
ATOM     13  C   UNL     1      -8.568 -19.823  29.795  1.00  0.00     0.000 C 
BRANCH  13  14
ATOM     14  C   UNL     1      -7.884 -20.541  28.617  1.00  0.00     0.000 C 
BRANCH  14  15
ATOM     15  C   UNL     1      -8.734 -21.682  28.035  1.00  0.00     0.000 C 
BRANCH  15  16
ATOM     16  C   UNL     1      -8.095 -23.068  28.245  1.00  0.00     0.006 C 
BRANCH  16  17
ATOM     17  C   UNL     1      -9.106 -24.219  28.379  1.00  0.00     0.053 C 
BRANCH  17  18
ATOM     18  C   UNL     1      -9.114 -25.102  27.170  1.00  0.00     0.041 C 
ATOM     19  O   UNL     1      -9.115 -26.355  27.300  1.00  0.00    -0.550 OA
ATOM     20  O   UNL     1      -9.091 -24.541  25.899  1.00  0.00    -0.550 OA
ENDBRANCH  17  18
ENDBRANCH  16  17
ENDBRANCH  15  16
ENDBRANCH  14  15
ENDBRANCH  13  14
ENDBRANCH  12  13
ENDBRANCH  11  12
ENDBRANCH   1  11
TORSDOF 15
ENDMDL
MODEL 5
REMARK VINA RESULT:    -3.707      1.805      6.999
REMARK INTER + INTRA:          -9.181
REMARK INTER:                  -6.975
REMARK INTRA:                  -2.206
REMARK UNBOUND:                -2.223
REMARK SMILES O=C([O-])CCCCCCCCCCCCCCC(=O)[O-]
REMARK SMILES IDX 10 1 9 2 8 3 7 4 6 5 5 6 4 7 2 8 1 9 3 10 11 11 12 12 13 13
REMARK SMILES IDX 14 14 15 15 16 16 17 17 18 18 19 19 20 20
REMARK H PARENT
REMARK Flexibility Score: inf
ROOT
ATOM      1  C   UNL     1      -6.596 -21.261  31.159  1.00  0.00     0.000 C 
ENDROOT
BRANCH   1   2
ATOM      2  C   UNL     1      -7.393 -22.497  31.613  1.00  0.00     0.000 C 
BRANCH   2   3
ATOM      3  C   UNL     1      -8.690 -22.186  32.383  1.00  0.00     0.000 C 
BRANCH   3   4
ATOM      4  C   UNL     1      -9.948 -22.712  31.675  1.00  0.00     0.000 C 
BRANCH   4   5
ATOM      5  C   UNL     1      -9.697 -24.104  31.075  1.00  0.00     0.000 C 
BRANCH   5   6
ATOM      6  C   UNL     1     -10.797 -25.118  31.441  1.00  0.00     0.006 C 
BRANCH   6   7
ATOM      7  C   UNL     1     -10.414 -26.084  32.573  1.00  0.00     0.053 C 
BRANCH   7   8
ATOM      8  C   UNL     1     -11.178 -25.807  33.831  1.00  0.00     0.041 C 
ATOM      9  O   UNL     1     -11.149 -24.661  34.350  1.00  0.00    -0.550 OA
ATOM     10  O   UNL     1     -11.895 -26.825  34.448  1.00  0.00    -0.550 OA
ENDBRANCH   7   8
ENDBRANCH   6   7
ENDBRANCH   5   6
ENDBRANCH   4   5
ENDBRANCH   3   4
ENDBRANCH   2   3
ENDBRANCH   1   2
BRANCH   1  11
ATOM     11  C   UNL     1      -7.437 -19.976  31.148  1.00  0.00     0.000 C 
BRANCH  11  12
ATOM     12  C   UNL     1      -7.789 -19.562  29.710  1.00  0.00     0.000 C 
BRANCH  12  13
ATOM     13  C   UNL     1      -9.201 -20.003  29.286  1.00  0.00     0.000 C 
BRANCH  13  14
ATOM     14  C   UNL     1      -9.252 -21.237  28.365  1.00  0.00     0.000 C 
BRANCH  14  15
ATOM     15  C   UNL     1      -7.960 -21.434  27.555  1.00  0.00     0.000 C 
BRANCH  15  16
ATOM     16  C   UNL     1      -7.288 -22.793  27.826  1.00  0.00     0.006 C 
BRANCH  16  17
ATOM     17  C   UNL     1      -5.757 -22.782  27.691  1.00  0.00     0.053 C 
BRANCH  17  18
ATOM     18  C   UNL     1      -5.303 -23.404  26.406  1.00  0.00     0.041 C 
ATOM     19  O   UNL     1      -4.341 -24.217  26.401  1.00  0.00    -0.550 OA
ATOM     20  O   UNL     1      -5.925 -23.064  25.211  1.00  0.00    -0.550 OA
ENDBRANCH  17  18
ENDBRANCH  16  17
ENDBRANCH  15  16
ENDBRANCH  14  15
ENDBRANCH  13  14
ENDBRANCH  12  13
ENDBRANCH  11  12
ENDBRANCH   1  11
TORSDOF 15
ENDMDL
MODEL 6
REMARK VINA RESULT:    -3.663      1.992      2.938
REMARK INTER + INTRA:          -9.098
REMARK INTER:                  -7.006
REMARK INTRA:                  -2.091
REMARK UNBOUND:                -2.223
REMARK SMILES O=C([O-])CCCCCCCCCCCCCCC(=O)[O-]
REMARK SMILES IDX 10 1 9 2 8 3 7 4 6 5 5 6 4 7 2 8 1 9 3 10 11 11 12 12 13 13
REMARK SMILES IDX 14 14 15 15 16 16 17 17 18 18 19 19 20 20
REMARK H PARENT
REMARK Flexibility Score: inf
ROOT
ATOM      1  C   UNL     1      -8.339 -21.469  31.958  1.00  0.00     0.000 C 
ENDROOT
BRANCH   1   2
ATOM      2  C   UNL     1      -6.962 -22.029  31.557  1.00  0.00     0.000 C 
BRANCH   2   3
ATOM      3  C   UNL     1      -7.003 -23.183  30.538  1.00  0.00     0.000 C 
BRANCH   3   4
ATOM      4  C   UNL     1      -6.277 -22.850  29.226  1.00  0.00     0.000 C 
BRANCH   4   5
ATOM      5  C   UNL     1      -7.270 -22.364  28.159  1.00  0.00     0.000 C 
BRANCH   5   6
ATOM      6  C   UNL     1      -7.152 -20.854  27.877  1.00  0.00     0.006 C 
BRANCH   6   7
ATOM      7  C   UNL     1      -5.739 -20.284  28.076  1.00  0.00     0.053 C 
BRANCH   7   8
ATOM      8  C   UNL     1      -5.704 -19.228  29.138  1.00  0.00     0.041 C 
ATOM      9  O   UNL     1      -4.846 -19.283  30.057  1.00  0.00    -0.550 OA
ATOM     10  O   UNL     1      -6.641 -18.202  29.131  1.00  0.00    -0.550 OA
ENDBRANCH   7   8
ENDBRANCH   6   7
ENDBRANCH   5   6
ENDBRANCH   4   5
ENDBRANCH   3   4
ENDBRANCH   2   3
ENDBRANCH   1   2
BRANCH   1  11
ATOM     11  C   UNL     1      -8.743 -20.232  31.142  1.00  0.00     0.000 C 
BRANCH  11  12
ATOM     12  C   UNL     1     -10.120 -20.431  30.489  1.00  0.00     0.000 C 
BRANCH  12  13
ATOM     13  C   UNL     1     -10.405 -21.898  30.122  1.00  0.00     0.000 C 
BRANCH  13  14
ATOM     14  C   UNL     1     -11.696 -22.484  30.722  1.00  0.00     0.000 C 
BRANCH  14  15
ATOM     15  C   UNL     1     -11.598 -23.995  30.996  1.00  0.00     0.000 C 
BRANCH  15  16
ATOM     16  C   UNL     1     -10.670 -24.325  32.180  1.00  0.00     0.006 C 
BRANCH  16  17
ATOM     17  C   UNL     1     -10.680 -25.805  32.599  1.00  0.00     0.053 C 
BRANCH  17  18
ATOM     18  C   UNL     1     -11.441 -26.022  33.871  1.00  0.00     0.041 C 
ATOM     19  O   UNL     1     -12.052 -25.064  34.416  1.00  0.00    -0.550 OA
ATOM     20  O   UNL     1     -11.450 -27.275  34.471  1.00  0.00    -0.550 OA
ENDBRANCH  17  18
ENDBRANCH  16  17
ENDBRANCH  15  16
ENDBRANCH  14  15
ENDBRANCH  13  14
ENDBRANCH  12  13
ENDBRANCH  11  12
ENDBRANCH   1  11
TORSDOF 15
ENDMDL
MODEL 7
REMARK VINA RESULT:    -3.641      1.467      6.829
REMARK INTER + INTRA:          -9.057
REMARK INTER:                  -7.297
REMARK INTRA:                  -1.760
REMARK UNBOUND:                -2.223
REMARK SMILES O=C([O-])CCCCCCCCCCCCCCC(=O)[O-]
REMARK SMILES IDX 10 1 9 2 8 3 7 4 6 5 5 6 4 7 2 8 1 9 3 10 11 11 12 12 13 13
REMARK SMILES IDX 14 14 15 15 16 16 17 17 18 18 19 19 20 20
REMARK H PARENT
REMARK Flexibility Score: inf
ROOT
ATOM      1  C   UNL     1      -9.502 -20.602  30.887  1.00  0.00     0.000 C 
ENDROOT
BRANCH   1   2
ATOM      2  C   UNL     1      -8.547 -21.261  31.899  1.00  0.00     0.000 C 
BRANCH   2   3
ATOM      3  C   UNL     1      -8.972 -22.663  32.374  1.00  0.00     0.000 C 
BRANCH   3   4
ATOM      4  C   UNL     1     -10.291 -23.135  31.745  1.00  0.00     0.000 C 
BRANCH   4   5
ATOM      5  C   UNL     1     -10.628 -24.566  32.190  1.00  0.00     0.000 C 
BRANCH   5   6
ATOM      6  C   UNL     1     -10.892 -24.674  33.705  1.00  0.00     0.006 C 
BRANCH   6   7
ATOM      7  C   UNL     1     -11.523 -26.004  34.143  1.00  0.00     0.053 C 
BRANCH   7   8
ATOM      8  C   UNL     1     -12.964 -25.846  34.520  1.00  0.00     0.041 C 
ATOM      9  O   UNL     1     -13.769 -25.294  33.726  1.00  0.00    -0.550 OA
ATOM     10  O   UNL     1     -13.409 -26.277  35.764  1.00  0.00    -0.550 OA
ENDBRANCH   7   8
ENDBRANCH   6   7
ENDBRANCH   5   6
ENDBRANCH   4   5
ENDBRANCH   3   4
ENDBRANCH   2   3
ENDBRANCH   1   2
BRANCH   1  11
ATOM     11  C   UNL     1      -8.971 -19.266  30.345  1.00  0.00     0.000 C 
BRANCH  11  12
ATOM     12  C   UNL     1      -7.745 -18.798  31.144  1.00  0.00     0.000 C 
BRANCH  12  13
ATOM     13  C   UNL     1      -6.514 -18.535  30.257  1.00  0.00     0.000 C 
BRANCH  13  14
ATOM     14  C   UNL     1      -5.558 -19.730  30.092  1.00  0.00     0.000 C 
BRANCH  14  15
ATOM     15  C   UNL     1      -5.682 -20.411  28.719  1.00  0.00     0.000 C 
BRANCH  15  16
ATOM     16  C   UNL     1      -6.544 -21.688  28.762  1.00  0.00     0.006 C 
BRANCH  16  17
ATOM     17  C   UNL     1      -7.737 -21.680  27.793  1.00  0.00     0.053 C 
BRANCH  17  18
ATOM     18  C   UNL     1      -8.694 -22.798  28.074  1.00  0.00     0.041 C 
ATOM     19  O   UNL     1      -9.827 -22.816  27.523  1.00  0.00    -0.550 OA
ATOM     20  O   UNL     1      -8.345 -23.804  28.966  1.00  0.00    -0.550 OA
ENDBRANCH  17  18
ENDBRANCH  16  17
ENDBRANCH  15  16
ENDBRANCH  14  15
ENDBRANCH  13  14
ENDBRANCH  12  13
ENDBRANCH  11  12
ENDBRANCH   1  11
TORSDOF 15
ENDMDL
MODEL 8
REMARK VINA RESULT:    -3.632      1.848      6.877
REMARK INTER + INTRA:          -9.040
REMARK INTER:                  -6.717
REMARK INTRA:                  -2.323
REMARK UNBOUND:                -2.223
REMARK SMILES O=C([O-])CCCCCCCCCCCCCCC(=O)[O-]
REMARK SMILES IDX 10 1 9 2 8 3 7 4 6 5 5 6 4 7 2 8 1 9 3 10 11 11 12 12 13 13
REMARK SMILES IDX 14 14 15 15 16 16 17 17 18 18 19 19 20 20
REMARK H PARENT
REMARK Flexibility Score: inf
ROOT
ATOM      1  C   UNL     1      -8.716 -22.949  28.270  1.00  0.00     0.000 C 
ENDROOT
BRANCH   1   2
ATOM      2  C   UNL     1      -9.806 -21.875  28.433  1.00  0.00     0.000 C 
BRANCH   2   3
ATOM      3  C   UNL     1     -11.203 -22.416  28.787  1.00  0.00     0.000 C 
BRANCH   3   4
ATOM      4  C   UNL     1     -11.154 -23.689  29.644  1.00  0.00     0.000 C 
BRANCH   4   5
ATOM      5  C   UNL     1     -11.094 -23.341  31.139  1.00  0.00     0.000 C 
BRANCH   5   6
ATOM      6  C   UNL     1     -10.163 -24.277  31.933  1.00  0.00     0.006 C 
BRANCH   6   7
ATOM      7  C   UNL     1     -10.777 -25.646  32.264  1.00  0.00     0.053 C 
BRANCH   7   8
ATOM      8  C   UNL     1     -11.163 -25.755  33.708  1.00  0.00     0.041 C 
ATOM      9  O   UNL     1     -11.184 -24.730  34.437  1.00  0.00    -0.550 OA
ATOM     10  O   UNL     1     -11.466 -26.996  34.255  1.00  0.00    -0.550 OA
ENDBRANCH   7   8
ENDBRANCH   6   7
ENDBRANCH   5   6
ENDBRANCH   4   5
ENDBRANCH   3   4
ENDBRANCH   2   3
ENDBRANCH   1   2
BRANCH   1  11
ATOM     11  C   UNL     1      -7.325 -22.356  28.001  1.00  0.00     0.000 C 
BRANCH  11  12
ATOM     12  C   UNL     1      -6.331 -22.767  29.098  1.00  0.00     0.000 C 
BRANCH  12  13
ATOM     13  C   UNL     1      -7.016 -23.110  30.433  1.00  0.00     0.000 C 
BRANCH  13  14
ATOM     14  C   UNL     1      -6.872 -22.044  31.535  1.00  0.00     0.000 C 
BRANCH  14  15
ATOM     15  C   UNL     1      -8.171 -21.256  31.780  1.00  0.00     0.000 C 
BRANCH  15  16
ATOM     16  C   UNL     1      -8.149 -19.858  31.134  1.00  0.00     0.006 C 
BRANCH  16  17
ATOM     17  C   UNL     1      -6.761 -19.404  30.652  1.00  0.00     0.053 C 
BRANCH  17  18
ATOM     18  C   UNL     1      -6.782 -18.962  29.221  1.00  0.00     0.041 C 
ATOM     19  O   UNL     1      -5.704 -18.713  28.619  1.00  0.00    -0.550 OA
ATOM     20  O   UNL     1      -7.993 -18.796  28.562  1.00  0.00    -0.550 OA
ENDBRANCH  17  18
ENDBRANCH  16  17
ENDBRANCH  15  16
ENDBRANCH  14  15
ENDBRANCH  13  14
ENDBRANCH  12  13
ENDBRANCH  11  12
ENDBRANCH   1  11
TORSDOF 15
ENDMDL
MODEL 9
REMARK VINA RESULT:    -3.615      1.740      2.728
REMARK INTER + INTRA:          -9.008
REMARK INTER:                  -6.907
REMARK INTRA:                  -2.101
REMARK UNBOUND:                -2.223
REMARK SMILES O=C([O-])CCCCCCCCCCCCCCC(=O)[O-]
REMARK SMILES IDX 10 1 9 2 8 3 7 4 6 5 5 6 4 7 2 8 1 9 3 10 11 11 12 12 13 13
REMARK SMILES IDX 14 14 15 15 16 16 17 17 18 18 19 19 20 20
REMARK H PARENT
REMARK Flexibility Score: inf
ROOT
ATOM      1  C   UNL     1      -9.220 -23.564  28.921  1.00  0.00     0.000 C 
ENDROOT
BRANCH   1   2
ATOM      2  C   UNL     1      -7.800 -23.122  29.318  1.00  0.00     0.000 C 
BRANCH   2   3
ATOM      3  C   UNL     1      -7.386 -23.480  30.757  1.00  0.00     0.000 C 
BRANCH   3   4
ATOM      4  C   UNL     1      -6.987 -22.253  31.589  1.00  0.00     0.000 C 
BRANCH   4   5
ATOM      5  C   UNL     1      -8.206 -21.359  31.866  1.00  0.00     0.000 C 
BRANCH   5   6
ATOM      6  C   UNL     1      -8.126 -20.001  31.144  1.00  0.00     0.006 C 
BRANCH   6   7
ATOM      7  C   UNL     1      -6.713 -19.613  30.682  1.00  0.00     0.053 C 
BRANCH   7   8
ATOM      8  C   UNL     1      -6.619 -19.502  29.190  1.00  0.00     0.041 C 
ATOM      9  O   UNL     1      -7.348 -18.685  28.569  1.00  0.00    -0.550 OA
ATOM     10  O   UNL     1      -5.751 -20.326  28.485  1.00  0.00    -0.550 OA
ENDBRANCH   7   8
ENDBRANCH   6   7
ENDBRANCH   5   6
ENDBRANCH   4   5
ENDBRANCH   3   4
ENDBRANCH   2   3
ENDBRANCH   1   2
BRANCH   1  11
ATOM     11  C   UNL     1     -10.137 -22.385  28.567  1.00  0.00     0.000 C 
BRANCH  11  12
ATOM     12  C   UNL     1     -11.107 -22.078  29.719  1.00  0.00     0.000 C 
BRANCH  12  13
ATOM     13  C   UNL     1     -11.190 -23.214  30.754  1.00  0.00     0.000 C 
BRANCH  13  14
ATOM     14  C   UNL     1     -12.418 -24.134  30.620  1.00  0.00     0.000 C 
BRANCH  14  15
ATOM     15  C   UNL     1     -12.151 -25.565  31.116  1.00  0.00     0.000 C 
BRANCH  15  16
ATOM     16  C   UNL     1     -10.750 -25.729  31.735  1.00  0.00     0.006 C 
BRANCH  16  17
ATOM     17  C   UNL     1     -10.754 -26.206  33.197  1.00  0.00     0.053 C 
BRANCH  17  18
ATOM     18  C   UNL     1     -11.366 -25.193  34.115  1.00  0.00     0.041 C 
ATOM     19  O   UNL     1     -10.736 -24.144  34.412  1.00  0.00    -0.550 OA
ATOM     20  O   UNL     1     -12.621 -25.423  34.666  1.00  0.00    -0.550 OA
ENDBRANCH  17  18
ENDBRANCH  16  17
ENDBRANCH  15  16
ENDBRANCH  14  15
ENDBRANCH  13  14
ENDBRANCH  12  13
ENDBRANCH  11  12
ENDBRANCH   1  11
TORSDOF 15
ENDMDL
