MODEL 1
REMARK VINA RESULT:     0.682      0.000      0.000
REMARK INTER + INTRA:           0.537
REMARK INTER:                   0.802
REMARK INTRA:                  -0.264
REMARK UNBOUND:                -0.264
REMARK SMILES O=c1cc(-c2ccc(O)c(O)c2)oc2cc(O)cc(O)c12
REMARK SMILES IDX 4 1 3 2 2 3 1 4 21 5 19 6 18 7 16 8 15 9 14 10 13 11 5 12
REMARK SMILES IDX 6 13 7 14 8 15 12 16 10 17 9 18 11 20 20 22 17 24
REMARK H PARENT 9 19 11 21 20 23 17 25
REMARK Flexibility Score: inf
ROOT
ATOM      1  C   UNL     1       8.360  16.804  38.067  1.00  0.00     0.138 A 
ATOM      2  C   UNL     1       8.649  15.703  38.888  1.00  0.00     0.100 A 
ATOM      3  C   UNL     1       8.501  15.819  40.271  1.00  0.00     0.197 A 
ATOM      4  O   UNL     1       8.764  14.825  41.000  1.00  0.00    -0.289 OA
ATOM      5  C   UNL     1       8.065  17.040  40.823  1.00  0.00     0.107 A 
ATOM      6  C   UNL     1       7.887  17.242  42.213  1.00  0.00     0.134 A 
ATOM      7  C   UNL     1       7.457  18.491  42.684  1.00  0.00     0.093 A 
ATOM      8  C   UNL     1       7.201  19.539  41.795  1.00  0.00     0.123 A 
ATOM      9  C   UNL     1       7.376  19.345  40.420  1.00  0.00     0.094 A 
ATOM     10  C   UNL     1       7.803  18.107  39.932  1.00  0.00     0.146 A 
ATOM     11  O   UNL     1       7.961  17.947  38.621  1.00  0.00    -0.456 OA
ENDROOT
BRANCH   1  12
ATOM     12  C   UNL     1       8.501  16.739  36.590  1.00  0.00     0.021 A 
ATOM     13  C   UNL     1       9.720  17.106  35.995  1.00  0.00     0.016 A 
ATOM     14  C   UNL     1       9.875  17.061  34.608  1.00  0.00     0.051 A 
ATOM     15  C   UNL     1       8.813  16.657  33.789  1.00  0.00     0.157 A 
ATOM     16  C   UNL     1       7.432  16.345  35.761  1.00  0.00     0.062 A 
ATOM     17  C   UNL     1       7.585  16.300  34.370  1.00  0.00     0.158 A 
BRANCH  15  18
ATOM     18  O   UNL     1       8.973  16.610  32.406  1.00  0.00    -0.504 OA
ATOM     19  H   UNL     1       9.887  16.677  31.975  1.00  0.00     0.293 HD
ENDBRANCH  15  18
BRANCH  17  20
ATOM     20  O   UNL     1       6.505  15.904  33.582  1.00  0.00    -0.504 OA
ATOM     21  H   UNL     1       6.618  15.291  32.784  1.00  0.00     0.293 HD
ENDBRANCH  17  20
ENDBRANCH   1  12
BRANCH   6  22
ATOM     22  O   UNL     1       8.135  16.216  43.125  1.00  0.00    -0.507 OA
ATOM     23  H   UNL     1       9.078  15.932  43.365  1.00  0.00     0.293 HD
ENDBRANCH   6  22
BRANCH   8  24
ATOM     24  O   UNL     1       6.775  20.770  42.289  1.00  0.00    -0.508 OA
ATOM     25  H   UNL     1       5.804  20.939  42.524  1.00  0.00     0.293 HD
ENDBRANCH   8  24
TORSDOF 5
ENDMDL
MODEL 2
REMARK VINA RESULT:     3.202      1.232      2.720
REMARK INTER + INTRA:           3.499
REMARK INTER:                   3.766
REMARK INTRA:                  -0.267
REMARK UNBOUND:                -0.264
REMARK SMILES O=c1cc(-c2ccc(O)c(O)c2)oc2cc(O)cc(O)c12
REMARK SMILES IDX 4 1 3 2 2 3 1 4 21 5 19 6 18 7 16 8 15 9 14 10 13 11 5 12
REMARK SMILES IDX 6 13 7 14 8 15 12 16 10 17 9 18 11 20 20 22 17 24
REMARK H PARENT 9 19 11 21 20 23 17 25
REMARK Flexibility Score: inf
ROOT
ATOM      1  C   UNL     1       8.268  17.228  38.204  1.00  0.00     0.138 A 
ATOM      2  C   UNL     1       7.984  18.473  38.788  1.00  0.00     0.100 A 
ATOM      3  C   UNL     1       7.749  18.551  40.162  1.00  0.00     0.197 A 
ATOM      4  O   UNL     1       7.494  19.672  40.676  1.00  0.00    -0.289 OA
ATOM      5  C   UNL     1       7.798  17.379  40.942  1.00  0.00     0.107 A 
ATOM      6  C   UNL     1       7.574  17.368  42.340  1.00  0.00     0.134 A 
ATOM      7  C   UNL     1       7.633  16.157  43.045  1.00  0.00     0.093 A 
ATOM      8  C   UNL     1       7.912  14.959  42.381  1.00  0.00     0.123 A 
ATOM      9  C   UNL     1       8.134  14.963  40.999  1.00  0.00     0.094 A 
ATOM     10  C   UNL     1       8.080  16.160  40.280  1.00  0.00     0.146 A 
ATOM     11  O   UNL     1       8.296  16.138  38.968  1.00  0.00    -0.456 OA
ENDROOT
BRANCH   1  12
ATOM     12  C   UNL     1       8.524  17.086  36.748  1.00  0.00     0.021 A 
ATOM     13  C   UNL     1       9.752  17.518  36.217  1.00  0.00     0.016 A 
ATOM     14  C   UNL     1      10.014  17.402  34.850  1.00  0.00     0.051 A 
ATOM     15  C   UNL     1       9.052  16.860  33.988  1.00  0.00     0.157 A 
ATOM     16  C   UNL     1       7.556  16.553  35.875  1.00  0.00     0.062 A 
ATOM     17  C   UNL     1       7.817  16.436  34.504  1.00  0.00     0.158 A 
BRANCH  15  18
ATOM     18  O   UNL     1       9.319  16.743  32.626  1.00  0.00    -0.504 OA
ATOM     19  H   UNL     1      10.221  16.429  32.286  1.00  0.00     0.293 HD
ENDBRANCH  15  18
BRANCH  17  20
ATOM     20  O   UNL     1       6.834  15.903  33.671  1.00  0.00    -0.504 OA
ATOM     21  H   UNL     1       5.865  15.837  33.957  1.00  0.00     0.293 HD
ENDBRANCH  17  20
ENDBRANCH   1  12
BRANCH   6  22
ATOM     22  O   UNL     1       7.293  18.548  43.030  1.00  0.00    -0.507 OA
ATOM     23  H   UNL     1       7.976  18.986  43.637  1.00  0.00     0.293 HD
ENDBRANCH   6  22
BRANCH   8  24
ATOM     24  O   UNL     1       7.965  13.770  43.105  1.00  0.00    -0.508 OA
ATOM     25  H   UNL     1       8.487  13.699  43.970  1.00  0.00     0.293 HD
ENDBRANCH   8  24
TORSDOF 5
ENDMDL
