MODEL 1
REMARK VINA RESULT:    -2.710      0.000      0.000
REMARK INTER + INTRA:          -3.037
REMARK INTER:                  -3.027
REMARK INTRA:                  -0.010
REMARK UNBOUND:                -0.010
REMARK SMILES CCCC(=O)[O-]
REMARK SMILES IDX 3 1 4 2 5 3 6 4 2 5 1 6
REMARK H PARENT
REMARK Flexibility Score: inf
ROOT
ATOM      1  C   UNL     1     -23.910   6.764  22.462  1.00  0.00     0.052 C 
ENDROOT
BRANCH   1   2
ATOM      2  C   UNL     1     -22.626   7.378  21.994  1.00  0.00     0.041 C 
ATOM      3  O   UNL     1     -22.534   7.841  20.826  1.00  0.00    -0.550 OA
ATOM      4  O   UNL     1     -21.522   7.408  22.835  1.00  0.00    -0.550 OA
ENDBRANCH   1   2
BRANCH   1   5
ATOM      5  C   UNL     1     -23.663   5.504  23.301  1.00  0.00     0.003 C 
ATOM      6  C   UNL     1     -24.863   5.145  24.179  1.00  0.00     0.004 C 
ENDBRANCH   1   5
TORSDOF 2
ENDMDL
MODEL 2
REMARK VINA RESULT:    -2.700      0.136      1.326
REMARK INTER + INTRA:          -3.026
REMARK INTER:                  -3.011
REMARK INTRA:                  -0.015
REMARK UNBOUND:                -0.010
REMARK SMILES CCCC(=O)[O-]
REMARK SMILES IDX 3 1 4 2 5 3 6 4 2 5 1 6
REMARK H PARENT
REMARK Flexibility Score: inf
ROOT
ATOM      1  C   UNL     1     -23.966   6.697  22.499  1.00  0.00     0.052 C 
ENDROOT
BRANCH   1   2
ATOM      2  C   UNL     1     -22.657   7.288  22.073  1.00  0.00     0.041 C 
ATOM      3  O   UNL     1     -21.672   7.281  22.858  1.00  0.00    -0.550 OA
ATOM      4  O   UNL     1     -22.533   7.877  20.821  1.00  0.00    -0.550 OA
ENDBRANCH   1   2
BRANCH   1   5
ATOM      5  C   UNL     1     -23.768   5.454  23.376  1.00  0.00     0.003 C 
ATOM      6  C   UNL     1     -24.957   5.202  24.303  1.00  0.00     0.004 C 
ENDBRANCH   1   5
TORSDOF 2
ENDMDL
MODEL 3
REMARK VINA RESULT:    -2.697      2.274      3.261
REMARK INTER + INTRA:          -3.022
REMARK INTER:                  -2.982
REMARK INTRA:                  -0.041
REMARK UNBOUND:                -0.010
REMARK SMILES CCCC(=O)[O-]
REMARK SMILES IDX 3 1 4 2 5 3 6 4 2 5 1 6
REMARK H PARENT
REMARK Flexibility Score: inf
ROOT
ATOM      1  C   UNL     1     -21.932   7.817  20.302  1.00  0.00     0.052 C 
ENDROOT
BRANCH   1   2
ATOM      2  C   UNL     1     -21.057   6.697  19.829  1.00  0.00     0.041 C 
ATOM      3  O   UNL     1     -19.994   6.419  20.444  1.00  0.00    -0.550 OA
ATOM      4  O   UNL     1     -21.399   5.980  18.690  1.00  0.00    -0.550 OA
ENDBRANCH   1   2
BRANCH   1   5
ATOM      5  C   UNL     1     -22.192   7.735  21.811  1.00  0.00     0.003 C 
ATOM      6  C   UNL     1     -23.437   6.912  22.142  1.00  0.00     0.004 C 
ENDBRANCH   1   5
TORSDOF 2
ENDMDL
MODEL 4
REMARK VINA RESULT:    -2.594      1.315      1.699
REMARK INTER + INTRA:          -2.908
REMARK INTER:                  -2.898
REMARK INTRA:                  -0.010
REMARK UNBOUND:                -0.010
REMARK SMILES CCCC(=O)[O-]
REMARK SMILES IDX 3 1 4 2 5 3 6 4 2 5 1 6
REMARK H PARENT
REMARK Flexibility Score: inf
ROOT
ATOM      1  C   UNL     1     -22.100   6.886  22.424  1.00  0.00     0.052 C 
ENDROOT
BRANCH   1   2
ATOM      2  C   UNL     1     -21.523   7.262  21.094  1.00  0.00     0.041 C 
ATOM      3  O   UNL     1     -22.093   8.125  20.376  1.00  0.00    -0.550 OA
ATOM      4  O   UNL     1     -20.373   6.635  20.632  1.00  0.00    -0.550 OA
ENDBRANCH   1   2
BRANCH   1   5
ATOM      5  C   UNL     1     -23.630   6.996  22.430  1.00  0.00     0.003 C 
ATOM      6  C   UNL     1     -24.290   5.872  23.229  1.00  0.00     0.004 C 
ENDBRANCH   1   5
TORSDOF 2
ENDMDL
MODEL 5
REMARK VINA RESULT:    -2.553      2.326      3.431
REMARK INTER + INTRA:          -2.862
REMARK INTER:                  -2.852
REMARK INTRA:                  -0.010
REMARK UNBOUND:                -0.010
REMARK SMILES CCCC(=O)[O-]
REMARK SMILES IDX 3 1 4 2 5 3 6 4 2 5 1 6
REMARK H PARENT
REMARK Flexibility Score: inf
ROOT
ATOM      1  C   UNL     1     -22.931   5.998  22.176  1.00  0.00     0.052 C 
ENDROOT
BRANCH   1   2
ATOM      2  C   UNL     1     -23.956   5.652  23.212  1.00  0.00     0.041 C 
ATOM      3  O   UNL     1     -25.065   6.249  23.232  1.00  0.00    -0.550 OA
ATOM      4  O   UNL     1     -23.674   4.693  24.177  1.00  0.00    -0.550 OA
ENDBRANCH   1   2
BRANCH   1   5
ATOM      5  C   UNL     1     -22.968   7.489  21.818  1.00  0.00     0.003 C 
ATOM      6  C   UNL     1     -22.056   7.825  20.638  1.00  0.00     0.004 C 
ENDBRANCH   1   5
TORSDOF 2
ENDMDL
MODEL 6
REMARK VINA RESULT:    -2.551      2.156      3.583
REMARK INTER + INTRA:          -2.859
REMARK INTER:                  -2.819
REMARK INTRA:                  -0.040
REMARK UNBOUND:                -0.010
REMARK SMILES CCCC(=O)[O-]
REMARK SMILES IDX 3 1 4 2 5 3 6 4 2 5 1 6
REMARK H PARENT
REMARK Flexibility Score: inf
ROOT
ATOM      1  C   UNL     1     -21.844   7.519  21.762  1.00  0.00     0.052 C 
ENDROOT
BRANCH   1   2
ATOM      2  C   UNL     1     -22.918   6.515  22.048  1.00  0.00     0.041 C 
ATOM      3  O   UNL     1     -24.047   6.893  22.459  1.00  0.00    -0.550 OA
ATOM      4  O   UNL     1     -22.662   5.159  21.891  1.00  0.00    -0.550 OA
ENDBRANCH   1   2
BRANCH   1   5
ATOM      5  C   UNL     1     -21.986   8.117  20.357  1.00  0.00     0.003 C 
ATOM      6  C   UNL     1     -21.505   7.159  19.266  1.00  0.00     0.004 C 
ENDBRANCH   1   5
TORSDOF 2
ENDMDL
MODEL 7
REMARK VINA RESULT:    -2.549     25.787     26.272
REMARK INTER + INTRA:          -2.858
REMARK INTER:                  -2.820
REMARK INTRA:                  -0.038
REMARK UNBOUND:                -0.010
REMARK SMILES CCCC(=O)[O-]
REMARK SMILES IDX 3 1 4 2 5 3 6 4 2 5 1 6
REMARK H PARENT
REMARK Flexibility Score: inf
ROOT
ATOM      1  C   UNL     1      -4.875  -9.051  34.743  1.00  0.00     0.052 C 
ENDROOT
BRANCH   1   2
ATOM      2  C   UNL     1      -5.261  -9.020  33.296  1.00  0.00     0.041 C 
ATOM      3  O   UNL     1      -5.732  -7.968  32.787  1.00  0.00    -0.550 OA
ATOM      4  O   UNL     1      -5.132 -10.162  32.516  1.00  0.00    -0.550 OA
ENDBRANCH   1   2
BRANCH   1   5
ATOM      5  C   UNL     1      -6.006  -8.536  35.643  1.00  0.00     0.003 C 
ATOM      6  C   UNL     1      -5.625  -7.249  36.375  1.00  0.00     0.004 C 
ENDBRANCH   1   5
TORSDOF 2
ENDMDL
MODEL 8
REMARK VINA RESULT:    -2.468      3.368      4.174
REMARK INTER + INTRA:          -2.767
REMARK INTER:                  -2.762
REMARK INTRA:                  -0.005
REMARK UNBOUND:                -0.010
REMARK SMILES CCCC(=O)[O-]
REMARK SMILES IDX 3 1 4 2 5 3 6 4 2 5 1 6
REMARK H PARENT
REMARK Flexibility Score: inf
ROOT
ATOM      1  C   UNL     1     -24.948   5.786  23.627  1.00  0.00     0.052 C 
ENDROOT
BRANCH   1   2
ATOM      2  C   UNL     1     -25.041   4.759  24.713  1.00  0.00     0.041 C 
ATOM      3  O   UNL     1     -25.125   5.114  25.918  1.00  0.00    -0.550 OA
ATOM      4  O   UNL     1     -25.003   3.407  24.396  1.00  0.00    -0.550 OA
ENDBRANCH   1   2
BRANCH   1   5
ATOM      5  C   UNL     1     -23.560   5.795  22.973  1.00  0.00     0.003 C 
ATOM      6  C   UNL     1     -23.328   7.041  22.119  1.00  0.00     0.004 C 
ENDBRANCH   1   5
TORSDOF 2
ENDMDL
MODEL 9
REMARK VINA RESULT:    -2.427      2.347      3.155
REMARK INTER + INTRA:          -2.721
REMARK INTER:                  -2.685
REMARK INTRA:                  -0.037
REMARK UNBOUND:                -0.010
REMARK SMILES CCCC(=O)[O-]
REMARK SMILES IDX 3 1 4 2 5 3 6 4 2 5 1 6
REMARK H PARENT
REMARK Flexibility Score: inf
ROOT
ATOM      1  C   UNL     1     -22.409   5.386  22.080  1.00  0.00     0.052 C 
ENDROOT
BRANCH   1   2
ATOM      2  C   UNL     1     -23.329   6.566  22.131  1.00  0.00     0.041 C 
ATOM      3  O   UNL     1     -23.011   7.644  21.563  1.00  0.00    -0.550 OA
ATOM      4  O   UNL     1     -24.525   6.486  22.834  1.00  0.00    -0.550 OA
ENDBRANCH   1   2
BRANCH   1   5
ATOM      5  C   UNL     1     -21.812   5.193  20.680  1.00  0.00     0.003 C 
ATOM      6  C   UNL     1     -20.284   5.261  20.685  1.00  0.00     0.004 C 
ENDBRANCH   1   5
TORSDOF 2
ENDMDL
