MODEL 1
REMARK VINA RESULT:    -1.324      0.000      0.000
REMARK INTER + INTRA:          -1.723
REMARK INTER:                  -1.944
REMARK INTRA:                   0.221
REMARK UNBOUND:                 0.221
REMARK SMILES C=C1CC=CC(C)(C)CC=C(C)CCC1
REMARK SMILES IDX 2 1 1 2 15 3 14 4 13 5 11 6 12 7 10 8 3 10 4 11 5 12 6 13
REMARK SMILES IDX 7 14 8 15 9 16
REMARK H PARENT
REMARK Flexibility Score: 60.00
ROOT
ATOM      1  C   UNL     1     169.009 170.693 140.326  1.00  0.00    -0.074 C 
ATOM      2  C   UNL     1     170.106 170.460 141.065  1.00  0.00     0.008 C 
ENDROOT
BRANCH   1   3
ATOM      3  C   UNL     1     168.836 169.913 139.024  1.00  0.00     0.031 C 
BRANCH   3   4
ATOM      4  C   UNL     1     170.124 169.563 138.255  1.00  0.00     0.009 C 
BRANCH   4   5
ATOM      5  C   UNL     1     170.361 170.483 137.043  1.00  0.00     0.030 C 
BRANCH   5   6
ATOM      6  C   UNL     1     170.954 171.840 137.383  1.00  0.00    -0.077 C 
ATOM      7  C   UNL     1     172.457 171.947 137.497  1.00  0.00     0.039 C 
ATOM      8  C   UNL     1     170.232 172.946 137.708  1.00  0.00    -0.027 CG0
ATOM      9  G   UNL     1     168.743 173.184 137.522  1.00  0.00     0.000 G0
ENDBRANCH   5   6
ENDBRANCH   4   5
ENDBRANCH   3   4
ENDBRANCH   1   3
BRANCH   1  10
ATOM     10  C   UNL     1     167.958 171.648 140.872  1.00  0.00     0.057 C 
BRANCH  10  11
ATOM     11  C   UNL     1     168.537 173.041 140.981  1.00  0.00    -0.026 C 
ATOM     12  C   UNL     1     168.653 173.977 140.011  1.00  0.00    -0.024 C 
BRANCH  12  13
ATOM     13  C   UNL     1     167.998 174.018 138.627  1.00  0.00    -0.014 C 
ATOM     14  C   UNL     1     167.933 175.498 138.174  1.00  0.00     0.016 C 
ATOM     15  C   UNL     1     166.541 173.514 138.743  1.00  0.00     0.016 C 
BRANCH  13  16
ATOM     16  C   UNL     1     168.739 173.200 137.526  1.00  0.00     0.038 CG0
ATOM     17  G   UNL     1     170.230 172.973 137.714  1.00  0.00     0.000 G0
ENDBRANCH  13  16
ENDBRANCH  12  13
ENDBRANCH  10  11
ENDBRANCH   1  10
TORSDOF 0
ENDMDL
MODEL 2
REMARK VINA RESULT:    -1.296      2.499      4.069
REMARK INTER + INTRA:          -1.681
REMARK INTER:                  -1.794
REMARK INTRA:                   0.114
REMARK UNBOUND:                 0.221
REMARK SMILES C=C1CC=CC(C)(C)CC=C(C)CCC1
REMARK SMILES IDX 2 1 1 2 15 3 14 4 13 5 11 6 12 7 10 8 3 10 4 11 5 12 6 13
REMARK SMILES IDX 7 14 8 15 9 16
REMARK H PARENT
REMARK Flexibility Score: 60.00
ROOT
ATOM      1  C   UNL     1     168.601 171.518 140.367  1.00  0.00    -0.074 C 
ATOM      2  C   UNL     1     169.890 171.889 140.281  1.00  0.00     0.008 C 
ENDROOT
BRANCH   1   3
ATOM      3  C   UNL     1     167.830 171.283 139.070  1.00  0.00     0.031 C 
BRANCH   3   4
ATOM      4  C   UNL     1     167.900 172.403 138.014  1.00  0.00     0.009 C 
BRANCH   4   5
ATOM      5  C   UNL     1     166.741 173.409 138.138  1.00  0.00     0.030 C 
BRANCH   5   6
ATOM      6  C   UNL     1     167.058 174.644 138.965  1.00  0.00    -0.077 C 
ATOM      7  C   UNL     1     167.873 175.740 138.318  1.00  0.00     0.039 C 
ATOM      8  C   UNL     1     166.765 174.793 140.285  1.00  0.00    -0.027 CG0
ATOM      9  G   UNL     1     165.829 173.956 141.140  1.00  0.00     0.000 G0
ENDBRANCH   5   6
ENDBRANCH   4   5
ENDBRANCH   3   4
ENDBRANCH   1   3
BRANCH   1  10
ATOM     10  C   UNL     1     168.012 171.263 141.746  1.00  0.00     0.057 C 
BRANCH  10  11
ATOM     11  C   UNL     1     168.372 172.399 142.677  1.00  0.00    -0.026 C 
ATOM     12  C   UNL     1     167.647 173.505 142.965  1.00  0.00    -0.024 C 
BRANCH  12  13
ATOM     13  C   UNL     1     166.173 173.796 142.671  1.00  0.00    -0.014 C 
ATOM     14  C   UNL     1     165.796 175.116 143.389  1.00  0.00     0.016 C 
ATOM     15  C   UNL     1     165.304 172.678 143.290  1.00  0.00     0.016 C 
BRANCH  13  16
ATOM     16  C   UNL     1     165.823 173.943 141.158  1.00  0.00     0.038 CG0
ATOM     17  G   UNL     1     166.751 174.796 140.310  1.00  0.00     0.000 G0
ENDBRANCH  13  16
ENDBRANCH  12  13
ENDBRANCH  10  11
ENDBRANCH   1  10
TORSDOF 0
ENDMDL
MODEL 3
REMARK VINA RESULT:    -1.248      1.942      4.355
REMARK INTER + INTRA:          -1.610
REMARK INTER:                  -2.166
REMARK INTRA:                   0.556
REMARK UNBOUND:                 0.221
REMARK SMILES C=C1CC=CC(C)(C)CC=C(C)CCC1
REMARK SMILES IDX 2 1 1 2 15 3 14 4 13 5 11 6 12 7 10 8 3 10 4 11 5 12 6 13
REMARK SMILES IDX 7 14 8 15 9 16
REMARK H PARENT
REMARK Flexibility Score: 60.00
ROOT
ATOM      1  C   UNL     1     165.758 174.773 139.540  1.00  0.00    -0.074 C 
ATOM      2  C   UNL     1     165.659 175.690 140.517  1.00  0.00     0.008 C 
ENDROOT
BRANCH   1   3
ATOM      3  C   UNL     1     164.718 173.654 139.492  1.00  0.00     0.031 C 
BRANCH   3   4
ATOM      4  C   UNL     1     165.003 172.490 138.524  1.00  0.00     0.009 C 
BRANCH   4   5
ATOM      5  C   UNL     1     165.569 171.249 139.237  1.00  0.00     0.030 C 
BRANCH   5   6
ATOM      6  C   UNL     1     166.750 170.597 138.537  1.00  0.00    -0.077 C 
ATOM      7  C   UNL     1     166.462 169.517 137.520  1.00  0.00     0.039 C 
ATOM      8  C   UNL     1     168.056 170.829 138.837  1.00  0.00    -0.027 CG0
ATOM      9  G   UNL     1     168.643 171.953 139.673  1.00  0.00     0.000 G0
ENDBRANCH   5   6
ENDBRANCH   4   5
ENDBRANCH   3   4
ENDBRANCH   1   3
BRANCH   1  10
ATOM     10  C   UNL     1     166.839 174.952 138.485  1.00  0.00     0.057 C 
BRANCH  10  11
ATOM     11  C   UNL     1     168.152 175.301 139.149  1.00  0.00    -0.026 C 
ATOM     12  C   UNL     1     169.187 174.478 139.440  1.00  0.00    -0.024 C 
BRANCH  12  13
ATOM     13  C   UNL     1     169.455 173.054 138.946  1.00  0.00    -0.014 C 
ATOM     14  C   UNL     1     170.964 172.761 139.135  1.00  0.00     0.016 C 
ATOM     15  C   UNL     1     169.164 172.982 137.430  1.00  0.00     0.016 C 
BRANCH  13  16
ATOM     16  C   UNL     1     168.644 171.942 139.679  1.00  0.00     0.038 CG0
ATOM     17  G   UNL     1     168.088 170.812 138.830  1.00  0.00     0.000 G0
ENDBRANCH  13  16
ENDBRANCH  12  13
ENDBRANCH  10  11
ENDBRANCH   1  10
TORSDOF 0
ENDMDL
MODEL 4
REMARK VINA RESULT:    -1.242      3.228      5.311
REMARK INTER + INTRA:          -1.603
REMARK INTER:                  -1.819
REMARK INTRA:                   0.217
REMARK UNBOUND:                 0.221
REMARK SMILES C=C1CC=CC(C)(C)CC=C(C)CCC1
REMARK SMILES IDX 2 1 1 2 15 3 14 4 13 5 11 6 12 7 10 8 3 10 4 11 5 12 6 13
REMARK SMILES IDX 7 14 8 15 9 16
REMARK H PARENT
REMARK Flexibility Score: 60.00
ROOT
ATOM      1  C   UNL     1     167.463 175.009 139.645  1.00  0.00    -0.074 C 
ATOM      2  C   UNL     1     167.905 175.468 138.462  1.00  0.00     0.008 C 
ENDROOT
BRANCH   1   3
ATOM      3  C   UNL     1     168.062 173.712 140.186  1.00  0.00     0.031 C 
BRANCH   3   4
ATOM      4  C   UNL     1     167.943 172.470 139.283  1.00  0.00     0.009 C 
BRANCH   4   5
ATOM      5  C   UNL     1     166.864 171.485 139.769  1.00  0.00     0.030 C 
BRANCH   5   6
ATOM      6  C   UNL     1     165.542 171.573 139.025  1.00  0.00    -0.077 C 
ATOM      7  C   UNL     1     165.421 170.844 137.707  1.00  0.00     0.039 C 
ATOM      8  C   UNL     1     164.491 172.353 139.395  1.00  0.00    -0.027 CG0
ATOM      9  G   UNL     1     164.261 173.049 140.726  1.00  0.00     0.000 G0
ENDBRANCH   5   6
ENDBRANCH   4   5
ENDBRANCH   3   4
ENDBRANCH   1   3
BRANCH   1  10
ATOM     10  C   UNL     1     166.462 175.853 140.421  1.00  0.00     0.057 C 
BRANCH  10  11
ATOM     11  C   UNL     1     165.221 176.074 139.586  1.00  0.00    -0.026 C 
ATOM     12  C   UNL     1     164.047 175.401 139.639  1.00  0.00    -0.024 C 
BRANCH  12  13
ATOM     13  C   UNL     1     163.535 174.437 140.712  1.00  0.00    -0.014 C 
ATOM     14  C   UNL     1     162.022 174.209 140.465  1.00  0.00     0.016 C 
ATOM     15  C   UNL     1     163.675 175.105 142.099  1.00  0.00     0.016 C 
BRANCH  13  16
ATOM     16  C   UNL     1     164.242 173.047 140.736  1.00  0.00     0.038 CG0
ATOM     17  G   UNL     1     164.489 172.370 139.399  1.00  0.00     0.000 G0
ENDBRANCH  13  16
ENDBRANCH  12  13
ENDBRANCH  10  11
ENDBRANCH   1  10
TORSDOF 0
ENDMDL
MODEL 5
REMARK VINA RESULT:    -1.233      1.873      4.397
REMARK INTER + INTRA:          -1.589
REMARK INTER:                  -1.675
REMARK INTRA:                   0.086
REMARK UNBOUND:                 0.221
REMARK SMILES C=C1CC=CC(C)(C)CC=C(C)CCC1
REMARK SMILES IDX 2 1 1 2 15 3 14 4 13 5 11 6 12 7 10 8 3 10 4 11 5 12 6 13
REMARK SMILES IDX 7 14 8 15 9 16
REMARK H PARENT
REMARK Flexibility Score: 60.00
ROOT
ATOM      1  C   UNL     1     166.107 170.955 139.070  1.00  0.00    -0.074 C 
ATOM      2  C   UNL     1     165.790 170.183 140.122  1.00  0.00     0.008 C 
ENDROOT
BRANCH   1   3
ATOM      3  C   UNL     1     165.241 172.181 138.786  1.00  0.00     0.031 C 
BRANCH   3   4
ATOM      4  C   UNL     1     164.835 173.034 140.003  1.00  0.00     0.009 C 
BRANCH   4   5
ATOM      5  C   UNL     1     165.749 174.257 140.201  1.00  0.00     0.030 C 
BRANCH   5   6
ATOM      6  C   UNL     1     166.992 173.993 141.034  1.00  0.00    -0.077 C 
ATOM      7  C   UNL     1     166.844 173.962 142.538  1.00  0.00     0.039 C 
ATOM      8  C   UNL     1     168.255 173.895 140.538  1.00  0.00    -0.027 CG0
ATOM      9  G   UNL     1     168.685 173.722 139.091  1.00  0.00     0.000 G0
ENDBRANCH   5   6
ENDBRANCH   4   5
ENDBRANCH   3   4
ENDBRANCH   1   3
BRANCH   1  10
ATOM     10  C   UNL     1     167.363 170.620 138.278  1.00  0.00     0.057 C 
BRANCH  10  11
ATOM     11  C   UNL     1     168.539 170.479 139.218  1.00  0.00    -0.026 C 
ATOM     12  C   UNL     1     169.618 171.289 139.334  1.00  0.00    -0.024 C 
BRANCH  12  13
ATOM     13  C   UNL     1     169.833 172.697 138.772  1.00  0.00    -0.014 C 
ATOM     14  C   UNL     1     169.982 172.579 137.234  1.00  0.00     0.016 C 
ATOM     15  C   UNL     1     171.166 173.260 139.317  1.00  0.00     0.016 C 
BRANCH  13  16
ATOM     16  C   UNL     1     168.685 173.707 139.077  1.00  0.00     0.038 CG0
ATOM     17  G   UNL     1     168.279 173.879 140.531  1.00  0.00     0.000 G0
ENDBRANCH  13  16
ENDBRANCH  12  13
ENDBRANCH  10  11
ENDBRANCH   1  10
TORSDOF 0
ENDMDL
MODEL 6
REMARK VINA RESULT:    -1.158      1.976      3.484
REMARK INTER + INTRA:          -1.479
REMARK INTER:                  -1.574
REMARK INTRA:                   0.096
REMARK UNBOUND:                 0.221
REMARK SMILES C=C1CC=CC(C)(C)CC=C(C)CCC1
REMARK SMILES IDX 2 1 1 2 15 3 14 4 13 5 11 6 12 7 10 8 3 10 4 11 5 12 6 13
REMARK SMILES IDX 7 14 8 15 9 16
REMARK H PARENT
REMARK Flexibility Score: 60.00
ROOT
ATOM      1  C   UNL     1     168.626 174.063 139.665  1.00  0.00    -0.074 C 
ATOM      2  C   UNL     1     168.813 175.382 139.490  1.00  0.00     0.008 C 
ENDROOT
BRANCH   1   3
ATOM      3  C   UNL     1     169.855 173.181 139.872  1.00  0.00     0.031 C 
BRANCH   3   4
ATOM      4  C   UNL     1     170.679 172.841 138.616  1.00  0.00     0.009 C 
BRANCH   4   5
ATOM      5  C   UNL     1     169.830 172.193 137.507  1.00  0.00     0.030 C 
BRANCH   5   6
ATOM      6  C   UNL     1     169.526 170.720 137.719  1.00  0.00    -0.077 C 
ATOM      7  C   UNL     1     170.691 169.762 137.819  1.00  0.00     0.039 C 
ATOM      8  C   UNL     1     168.280 170.174 137.711  1.00  0.00    -0.027 CG0
ATOM      9  G   UNL     1     166.941 170.887 137.797  1.00  0.00     0.000 G0
ENDBRANCH   5   6
ENDBRANCH   4   5
ENDBRANCH   3   4
ENDBRANCH   1   3
BRANCH   1  10
ATOM     10  C   UNL     1     167.200 173.538 139.740  1.00  0.00     0.057 C 
BRANCH  10  11
ATOM     11  C   UNL     1     167.151 172.310 140.621  1.00  0.00    -0.026 C 
ATOM     12  C   UNL     1     166.560 171.119 140.364  1.00  0.00    -0.024 C 
BRANCH  12  13
ATOM     13  C   UNL     1     166.026 170.574 139.036  1.00  0.00    -0.014 C 
ATOM     14  C   UNL     1     164.632 171.204 138.789  1.00  0.00     0.016 C 
ATOM     15  C   UNL     1     165.819 169.047 139.165  1.00  0.00     0.016 C 
BRANCH  13  16
ATOM     16  C   UNL     1     166.925 170.869 137.797  1.00  0.00     0.038 CG0
ATOM     17  G   UNL     1     168.270 170.166 137.731  1.00  0.00     0.000 G0
ENDBRANCH  13  16
ENDBRANCH  12  13
ENDBRANCH  10  11
ENDBRANCH   1  10
TORSDOF 0
ENDMDL
MODEL 7
REMARK VINA RESULT:    -1.137      2.517      4.562
REMARK INTER + INTRA:          -1.447
REMARK INTER:                  -1.601
REMARK INTRA:                   0.154
REMARK UNBOUND:                 0.221
REMARK SMILES C=C1CC=CC(C)(C)CC=C(C)CCC1
REMARK SMILES IDX 2 1 1 2 15 3 14 4 13 5 11 6 12 7 10 8 3 10 4 11 5 12 6 13
REMARK SMILES IDX 7 14 8 15 9 16
REMARK H PARENT
REMARK Flexibility Score: 60.00
ROOT
ATOM      1  C   UNL     1     167.785 174.680 139.495  1.00  0.00    -0.074 C 
ATOM      2  C   UNL     1     167.137 174.249 138.400  1.00  0.00     0.008 C 
ENDROOT
BRANCH   1   3
ATOM      3  C   UNL     1     169.312 174.640 139.493  1.00  0.00     0.031 C 
BRANCH   3   4
ATOM      4  C   UNL     1     169.966 173.319 139.044  1.00  0.00     0.009 C 
BRANCH   4   5
ATOM      5  C   UNL     1     170.011 172.268 140.168  1.00  0.00     0.030 C 
BRANCH   5   6
ATOM      6  C   UNL     1     168.807 171.343 140.221  1.00  0.00    -0.077 C 
ATOM      7  C   UNL     1     168.686 170.275 139.158  1.00  0.00     0.039 C 
ATOM      8  C   UNL     1     167.764 171.471 141.084  1.00  0.00    -0.027 CG0
ATOM      9  G   UNL     1     167.684 172.322 142.340  1.00  0.00     0.000 G0
ENDBRANCH   5   6
ENDBRANCH   4   5
ENDBRANCH   3   4
ENDBRANCH   1   3
BRANCH   1  10
ATOM     10  C   UNL     1     166.967 175.270 140.634  1.00  0.00     0.057 C 
BRANCH  10  11
ATOM     11  C   UNL     1     165.680 174.494 140.798  1.00  0.00    -0.026 C 
ATOM     12  C   UNL     1     165.442 173.430 141.601  1.00  0.00    -0.024 C 
BRANCH  12  13
ATOM     13  C   UNL     1     166.286 172.885 142.756  1.00  0.00    -0.014 C 
ATOM     14  C   UNL     1     165.480 171.753 143.442  1.00  0.00     0.016 C 
ATOM     15  C   UNL     1     166.486 174.002 143.806  1.00  0.00     0.016 C 
BRANCH  13  16
ATOM     16  C   UNL     1     167.676 172.314 142.341  1.00  0.00     0.038 CG0
ATOM     17  G   UNL     1     167.733 171.478 141.074  1.00  0.00     0.000 G0
ENDBRANCH  13  16
ENDBRANCH  12  13
ENDBRANCH  10  11
ENDBRANCH   1  10
TORSDOF 0
ENDMDL
MODEL 8
REMARK VINA RESULT:    -1.061      1.268      3.943
REMARK INTER + INTRA:          -1.336
REMARK INTER:                  -1.598
REMARK INTRA:                   0.262
REMARK UNBOUND:                 0.221
REMARK SMILES C=C1CC=CC(C)(C)CC=C(C)CCC1
REMARK SMILES IDX 2 1 1 2 15 3 14 4 13 5 11 6 12 7 10 8 3 10 4 11 5 12 6 13
REMARK SMILES IDX 7 14 8 15 9 16
REMARK H PARENT
REMARK Flexibility Score: 60.00
ROOT
ATOM      1  C   UNL     1     167.372 170.986 140.853  1.00  0.00    -0.074 C 
ATOM      2  C   UNL     1     166.780 170.557 141.980  1.00  0.00     0.008 C 
ENDROOT
BRANCH   1   3
ATOM      3  C   UNL     1     166.633 172.009 139.993  1.00  0.00     0.031 C 
BRANCH   3   4
ATOM      4  C   UNL     1     166.708 173.478 140.453  1.00  0.00     0.009 C 
BRANCH   4   5
ATOM      5  C   UNL     1     168.155 173.989 140.575  1.00  0.00     0.030 C 
BRANCH   5   6
ATOM      6  C   UNL     1     168.776 174.454 139.268  1.00  0.00    -0.077 C 
ATOM      7  C   UNL     1     168.125 175.612 138.547  1.00  0.00     0.039 C 
ATOM      8  C   UNL     1     169.807 173.835 138.633  1.00  0.00    -0.027 CG0
ATOM      9  G   UNL     1     170.749 172.777 139.182  1.00  0.00     0.000 G0
ENDBRANCH   5   6
ENDBRANCH   4   5
ENDBRANCH   3   4
ENDBRANCH   1   3
BRANCH   1  10
ATOM     10  C   UNL     1     168.781 170.500 140.546  1.00  0.00     0.057 C 
BRANCH  10  11
ATOM     11  C   UNL     1     168.886 170.120 139.087  1.00  0.00    -0.026 C 
ATOM     12  C   UNL     1     169.727 170.620 138.151  1.00  0.00    -0.024 C 
BRANCH  12  13
ATOM     13  C   UNL     1     170.976 171.486 138.340  1.00  0.00    -0.014 C 
ATOM     14  C   UNL     1     171.484 171.901 136.936  1.00  0.00     0.016 C 
ATOM     15  C   UNL     1     172.088 170.633 138.992  1.00  0.00     0.016 C 
BRANCH  13  16
ATOM     16  C   UNL     1     170.756 172.778 139.184  1.00  0.00     0.038 CG0
ATOM     17  G   UNL     1     169.805 173.821 138.624  1.00  0.00     0.000 G0
ENDBRANCH  13  16
ENDBRANCH  12  13
ENDBRANCH  10  11
ENDBRANCH   1  10
TORSDOF 0
ENDMDL
MODEL 9
REMARK VINA RESULT:    -1.060     13.404     15.005
REMARK INTER + INTRA:          -1.334
REMARK INTER:                  -1.533
REMARK INTRA:                   0.199
REMARK UNBOUND:                 0.221
REMARK SMILES C=C1CC=CC(C)(C)CC=C(C)CCC1
REMARK SMILES IDX 2 1 1 2 15 3 14 4 13 5 11 6 12 7 10 8 3 10 4 11 5 12 6 13
REMARK SMILES IDX 7 14 8 15 9 16
REMARK H PARENT
REMARK Flexibility Score: 60.00
ROOT
ATOM      1  C   UNL     1     166.502 157.741 139.746  1.00  0.00    -0.074 C 
ATOM      2  C   UNL     1     166.088 156.530 139.338  1.00  0.00     0.008 C 
ENDROOT
BRANCH   1   3
ATOM      3  C   UNL     1     166.451 158.895 138.746  1.00  0.00     0.031 C 
BRANCH   3   4
ATOM      4  C   UNL     1     165.059 159.473 138.431  1.00  0.00     0.009 C 
BRANCH   4   5
ATOM      5  C   UNL     1     164.443 160.225 139.626  1.00  0.00     0.030 C 
BRANCH   5   6
ATOM      6  C   UNL     1     163.477 159.404 140.463  1.00  0.00    -0.077 C 
ATOM      7  C   UNL     1     162.336 158.713 139.754  1.00  0.00     0.039 C 
ATOM      8  C   UNL     1     163.489 159.334 141.822  1.00  0.00    -0.027 CG0
ATOM      9  G   UNL     1     164.588 159.774 142.775  1.00  0.00     0.000 G0
ENDBRANCH   5   6
ENDBRANCH   4   5
ENDBRANCH   3   4
ENDBRANCH   1   3
BRANCH   1  10
ATOM     10  C   UNL     1     166.909 157.916 141.201  1.00  0.00     0.057 C 
BRANCH  10  11
ATOM     11  C   UNL     1     166.059 157.028 142.082  1.00  0.00    -0.026 C 
ATOM     12  C   UNL     1     165.415 157.356 143.226  1.00  0.00    -0.024 C 
BRANCH  12  13
ATOM     13  C   UNL     1     165.124 158.743 143.807  1.00  0.00    -0.014 C 
ATOM     14  C   UNL     1     166.441 159.291 144.412  1.00  0.00     0.016 C 
ATOM     15  C   UNL     1     164.113 158.603 144.968  1.00  0.00     0.016 C 
BRANCH  13  16
ATOM     16  C   UNL     1     164.586 159.785 142.779  1.00  0.00     0.038 CG0
ATOM     17  G   UNL     1     163.500 159.321 141.824  1.00  0.00     0.000 G0
ENDBRANCH  13  16
ENDBRANCH  12  13
ENDBRANCH  10  11
ENDBRANCH   1  10
TORSDOF 0
ENDMDL
