MODEL 1
REMARK VINA RESULT:    16.316      0.000      0.000
REMARK INTER + INTRA:          31.363
REMARK INTER:                  30.623
REMARK INTRA:                   0.740
REMARK UNBOUND:                 0.740
REMARK SMILES CCCCCCCCC=CCCCCCCCC(=O)[O-]
REMARK SMILES IDX 10 1 9 2 11 3 12 4 13 5 14 6 15 7 16 8 17 9 18 10 19 11
REMARK SMILES IDX 20 12 8 13 7 14 6 15 5 16 4 17 3 18 2 19 1 20
REMARK H PARENT
REMARK Flexibility Score: inf
ROOT
ATOM      1  C   UNL     1      13.997   6.553   8.345  1.00  0.00    -0.031 C 
ATOM      2  C   UNL     1      15.065   5.838   7.948  1.00  0.00    -0.031 C 
ENDROOT
BRANCH   1   3
ATOM      3  C   UNL     1      13.336   7.635   7.527  1.00  0.00     0.027 C 
BRANCH   3   4
ATOM      4  C   UNL     1      11.814   7.444   7.446  1.00  0.00     0.004 C 
BRANCH   4   5
ATOM      5  C   UNL     1      11.260   6.689   8.662  1.00  0.00     0.000 C 
BRANCH   5   6
ATOM      6  C   UNL     1       9.997   5.898   8.293  1.00  0.00     0.000 C 
BRANCH   6   7
ATOM      7  C   UNL     1      10.261   4.878   7.166  1.00  0.00     0.000 C 
BRANCH   7   8
ATOM      8  C   UNL     1      11.307   3.806   7.528  1.00  0.00     0.006 C 
BRANCH   8   9
ATOM      9  C   UNL     1      10.708   2.523   8.130  1.00  0.00     0.053 C 
BRANCH   9  10
ATOM     10  C   UNL     1      10.596   2.580   9.625  1.00  0.00     0.041 C 
ATOM     11  O   UNL     1      11.529   2.142  10.348  1.00  0.00    -0.550 OA
ATOM     12  O   UNL     1       9.493   3.178  10.223  1.00  0.00    -0.550 OA
ENDBRANCH   9  10
ENDBRANCH   8   9
ENDBRANCH   7   8
ENDBRANCH   6   7
ENDBRANCH   5   6
ENDBRANCH   4   5
ENDBRANCH   3   4
ENDBRANCH   1   3
BRANCH   2  13
ATOM     13  C   UNL     1      15.707   5.942   6.588  1.00  0.00     0.027 C 
BRANCH  13  14
ATOM     14  C   UNL     1      16.348   4.608   6.187  1.00  0.00     0.004 C 
BRANCH  14  15
ATOM     15  C   UNL     1      17.853   4.611   6.480  1.00  0.00     0.000 C 
BRANCH  15  16
ATOM     16  C   UNL     1      18.125   4.933   7.957  1.00  0.00     0.000 C 
BRANCH  16  17
ATOM     17  C   UNL     1      17.662   6.345   8.350  1.00  0.00    -0.000 C 
BRANCH  17  18
ATOM     18  C   UNL     1      18.089   6.733   9.776  1.00  0.00    -0.000 C 
BRANCH  18  19
ATOM     19  C   UNL     1      17.374   7.996  10.282  1.00  0.00    -0.003 C 
ATOM     20  C   UNL     1      17.869   9.269   9.596  1.00  0.00     0.004 C 
ENDBRANCH  18  19
ENDBRANCH  17  18
ENDBRANCH  16  17
ENDBRANCH  15  16
ENDBRANCH  14  15
ENDBRANCH  13  14
ENDBRANCH   2  13
TORSDOF 15
ENDMDL
MODEL 2
REMARK VINA RESULT:    17.331      0.976      1.370
REMARK INTER + INTRA:          33.269
REMARK INTER:                  33.630
REMARK INTRA:                  -0.361
REMARK UNBOUND:                 0.740
REMARK SMILES CCCCCCCCC=CCCCCCCCC(=O)[O-]
REMARK SMILES IDX 10 1 9 2 11 3 12 4 13 5 14 6 15 7 16 8 17 9 18 10 19 11
REMARK SMILES IDX 20 12 8 13 7 14 6 15 5 16 4 17 3 18 2 19 1 20
REMARK H PARENT
REMARK Flexibility Score: inf
ROOT
ATOM      1  C   UNL     1      14.568   6.410   8.122  1.00  0.00    -0.031 C 
ATOM      2  C   UNL     1      15.181   5.334   7.595  1.00  0.00    -0.031 C 
ENDROOT
BRANCH   1   3
ATOM      3  C   UNL     1      14.523   7.774   7.478  1.00  0.00     0.027 C 
BRANCH   3   4
ATOM      4  C   UNL     1      13.089   8.313   7.375  1.00  0.00     0.004 C 
BRANCH   4   5
ATOM      5  C   UNL     1      12.161   7.348   6.625  1.00  0.00     0.000 C 
BRANCH   5   6
ATOM      6  C   UNL     1      10.802   7.227   7.330  1.00  0.00     0.000 C 
BRANCH   6   7
ATOM      7  C   UNL     1      10.882   6.344   8.593  1.00  0.00     0.000 C 
BRANCH   7   8
ATOM      8  C   UNL     1      10.311   4.927   8.400  1.00  0.00     0.006 C 
BRANCH   8   9
ATOM      9  C   UNL     1      11.363   3.808   8.484  1.00  0.00     0.053 C 
BRANCH   9  10
ATOM     10  C   UNL     1      10.802   2.521   9.013  1.00  0.00     0.041 C 
ATOM     11  O   UNL     1      10.901   2.242  10.237  1.00  0.00    -0.550 OA
ATOM     12  O   UNL     1      10.110   1.659   8.170  1.00  0.00    -0.550 OA
ENDBRANCH   9  10
ENDBRANCH   8   9
ENDBRANCH   7   8
ENDBRANCH   6   7
ENDBRANCH   5   6
ENDBRANCH   4   5
ENDBRANCH   3   4
ENDBRANCH   1   3
BRANCH   2  13
ATOM     13  C   UNL     1      15.835   5.302   6.237  1.00  0.00     0.027 C 
BRANCH  13  14
ATOM     14  C   UNL     1      17.021   4.330   6.231  1.00  0.00     0.004 C 
BRANCH  14  15
ATOM     15  C   UNL     1      18.125   4.803   7.183  1.00  0.00     0.000 C 
BRANCH  15  16
ATOM     16  C   UNL     1      17.712   6.096   7.904  1.00  0.00     0.000 C 
BRANCH  16  17
ATOM     17  C   UNL     1      18.125   6.105   9.384  1.00  0.00    -0.000 C 
BRANCH  17  18
ATOM     18  C   UNL     1      17.387   7.182  10.198  1.00  0.00    -0.000 C 
BRANCH  18  19
ATOM     19  C   UNL     1      17.126   8.459   9.384  1.00  0.00    -0.003 C 
ATOM     20  C   UNL     1      18.110   9.581   9.716  1.00  0.00     0.004 C 
ENDBRANCH  18  19
ENDBRANCH  17  18
ENDBRANCH  16  17
ENDBRANCH  15  16
ENDBRANCH  14  15
ENDBRANCH  13  14
ENDBRANCH   2  13
TORSDOF 15
ENDMDL
MODEL 3
REMARK VINA RESULT:    18.147      3.180      7.211
REMARK INTER + INTRA:          34.799
REMARK INTER:                  32.958
REMARK INTRA:                   1.842
REMARK UNBOUND:                 0.740
REMARK SMILES CCCCCCCCC=CCCCCCCCC(=O)[O-]
REMARK SMILES IDX 10 1 9 2 11 3 12 4 13 5 14 6 15 7 16 8 17 9 18 10 19 11
REMARK SMILES IDX 20 12 8 13 7 14 6 15 5 16 4 17 3 18 2 19 1 20
REMARK H PARENT
REMARK Flexibility Score: inf
ROOT
ATOM      1  C   UNL     1      15.392   5.053   7.695  1.00  0.00    -0.031 C 
ATOM      2  C   UNL     1      14.688   6.089   8.188  1.00  0.00    -0.031 C 
ENDROOT
BRANCH   1   3
ATOM      3  C   UNL     1      15.789   4.897   6.247  1.00  0.00     0.027 C 
BRANCH   3   4
ATOM      4  C   UNL     1      17.268   4.516   6.096  1.00  0.00     0.004 C 
BRANCH   4   5
ATOM      5  C   UNL     1      18.122   5.038   7.260  1.00  0.00     0.000 C 
BRANCH   5   6
ATOM      6  C   UNL     1      17.494   6.291   7.887  1.00  0.00     0.000 C 
BRANCH   6   7
ATOM      7  C   UNL     1      18.052   6.573   9.298  1.00  0.00     0.000 C 
BRANCH   7   8
ATOM      8  C   UNL     1      16.965   6.761  10.372  1.00  0.00     0.006 C 
BRANCH   8   9
ATOM      9  C   UNL     1      16.192   8.087  10.259  1.00  0.00     0.053 C 
BRANCH   9  10
ATOM     10  C   UNL     1      17.018   9.193   9.673  1.00  0.00     0.041 C 
ATOM     11  O   UNL     1      18.125   9.499  10.189  1.00  0.00    -0.550 OA
ATOM     12  O   UNL     1      16.602   9.842   8.516  1.00  0.00    -0.550 OA
ENDBRANCH   9  10
ENDBRANCH   8   9
ENDBRANCH   7   8
ENDBRANCH   6   7
ENDBRANCH   5   6
ENDBRANCH   4   5
ENDBRANCH   3   4
ENDBRANCH   1   3
BRANCH   2  13
ATOM     13  C   UNL     1      14.270   7.297   7.390  1.00  0.00     0.027 C 
BRANCH  13  14
ATOM     14  C   UNL     1      12.762   7.269   7.115  1.00  0.00     0.004 C 
BRANCH  14  15
ATOM     15  C   UNL     1      11.971   7.035   8.406  1.00  0.00     0.000 C 
BRANCH  15  16
ATOM     16  C   UNL     1      10.694   6.226   8.130  1.00  0.00     0.000 C 
BRANCH  16  17
ATOM     17  C   UNL     1      10.351   5.255   9.271  1.00  0.00    -0.000 C 
BRANCH  17  18
ATOM     18  C   UNL     1      10.571   3.783   8.882  1.00  0.00    -0.000 C 
BRANCH  18  19
ATOM     19  C   UNL     1      10.241   3.509   7.406  1.00  0.00    -0.003 C 
ATOM     20  C   UNL     1      11.413   3.815   6.473  1.00  0.00     0.004 C 
ENDBRANCH  18  19
ENDBRANCH  17  18
ENDBRANCH  16  17
ENDBRANCH  15  16
ENDBRANCH  14  15
ENDBRANCH  13  14
ENDBRANCH   2  13
TORSDOF 15
ENDMDL
