MODEL 1
REMARK VINA RESULT:    -4.246      0.000      0.000
REMARK INTER + INTRA:          -5.665
REMARK INTER:                  -5.487
REMARK INTRA:                  -0.178
REMARK UNBOUND:                -0.178
REMARK SMILES CCO[C@H]1O[C@@H](CO)[C@@H](O)[C@H](O)[C@@H]1O
REMARK SMILES IDX 4 1 13 2 11 3 9 4 6 5 5 6 3 7 2 8 1 9 14 10 12 12 7 14 8 15
REMARK SMILES IDX 10 17
REMARK H PARENT 14 11 12 13 8 16 10 18
REMARK Flexibility Score: inf
ROOT
ATOM      1  C   UNL     1       7.444  -4.818  -2.985  1.00  0.00     0.281 C 
ATOM      2  C   UNL     1       8.833  -5.251  -2.487  1.00  0.00     0.202 C 
ATOM      3  C   UNL     1       8.925  -5.101  -0.963  1.00  0.00     0.179 C 
ATOM      4  C   UNL     1       8.541  -3.667  -0.566  1.00  0.00     0.177 C 
ATOM      5  C   UNL     1       7.174  -3.266  -1.179  1.00  0.00     0.178 C 
ATOM      6  O   UNL     1       7.115  -3.490  -2.586  1.00  0.00    -0.341 OA
ENDROOT
BRANCH   1   7
ATOM      7  O   UNL     1       6.463  -5.749  -2.559  1.00  0.00    -0.350 OA
BRANCH   7   8
ATOM      8  C   UNL     1       6.711  -7.019  -3.125  1.00  0.00     0.160 C 
ATOM      9  C   UNL     1       6.710  -8.066  -2.021  1.00  0.00     0.035 C 
ENDBRANCH   7   8
ENDBRANCH   1   7
BRANCH   2  10
ATOM     10  O   UNL     1       9.812  -4.464  -3.120  1.00  0.00    -0.385 OA
ATOM     11  H   UNL     1       9.954  -4.848  -4.025  1.00  0.00     0.211 HD
ENDBRANCH   2  10
BRANCH   3  12
ATOM     12  O   UNL     1      10.234  -5.389  -0.543  1.00  0.00    -0.387 OA
ATOM     13  H   UNL     1      10.325  -6.377  -0.531  1.00  0.00     0.211 HD
ENDBRANCH   3  12
BRANCH   5  14
ATOM     14  C   UNL     1       5.943  -3.849  -0.443  1.00  0.00     0.191 C 
BRANCH  14  15
ATOM     15  O   UNL     1       4.914  -2.899  -0.362  1.00  0.00    -0.394 OA
ATOM     16  H   UNL     1       5.343  -2.028  -0.156  1.00  0.00     0.210 HD
ENDBRANCH  14  15
ENDBRANCH   5  14
BRANCH   4  17
ATOM     17  O   UNL     1       8.501  -3.542   0.833  1.00  0.00    -0.387 OA
ATOM     18  H   UNL     1       9.354  -3.119   1.112  1.00  0.00     0.211 HD
ENDBRANCH   4  17
TORSDOF 7
ENDMDL
MODEL 2
REMARK VINA RESULT:    -3.651      1.780      3.660
REMARK INTER + INTRA:          -4.897
REMARK INTER:                  -4.465
REMARK INTRA:                  -0.431
REMARK UNBOUND:                -0.178
REMARK SMILES CCO[C@H]1O[C@@H](CO)[C@@H](O)[C@H](O)[C@@H]1O
REMARK SMILES IDX 4 1 13 2 11 3 9 4 6 5 5 6 3 7 2 8 1 9 14 10 12 12 7 14 8 15
REMARK SMILES IDX 10 17
REMARK H PARENT 14 11 12 13 8 16 10 18
REMARK Flexibility Score: inf
ROOT
ATOM      1  C   UNL     1       9.154  -4.670  -1.929  1.00  0.00     0.281 C 
ATOM      2  C   UNL     1       8.165  -5.799  -2.262  1.00  0.00     0.202 C 
ATOM      3  C   UNL     1       6.893  -5.225  -2.899  1.00  0.00     0.179 C 
ATOM      4  C   UNL     1       6.310  -4.136  -1.984  1.00  0.00     0.177 C 
ATOM      5  C   UNL     1       7.386  -3.083  -1.615  1.00  0.00     0.178 C 
ATOM      6  O   UNL     1       8.575  -3.671  -1.093  1.00  0.00    -0.341 OA
ENDROOT
BRANCH   1   7
ATOM      7  O   UNL     1       9.674  -4.112  -3.125  1.00  0.00    -0.350 OA
BRANCH   7   8
ATOM      8  C   UNL     1      11.038  -3.783  -2.962  1.00  0.00     0.160 C 
ATOM      9  C   UNL     1      11.856  -5.064  -2.901  1.00  0.00     0.035 C 
ENDBRANCH   7   8
ENDBRANCH   1   7
BRANCH   2  10
ATOM     10  O   UNL     1       7.853  -6.497  -1.081  1.00  0.00    -0.385 OA
ATOM     11  H   UNL     1       8.471  -6.170  -0.377  1.00  0.00     0.211 HD
ENDBRANCH   2  10
BRANCH   3  12
ATOM     12  O   UNL     1       5.957  -6.256  -3.086  1.00  0.00    -0.387 OA
ATOM     13  H   UNL     1       5.379  -6.274  -2.279  1.00  0.00     0.211 HD
ENDBRANCH   3  12
BRANCH   5  14
ATOM     14  C   UNL     1       7.686  -2.051  -2.729  1.00  0.00     0.191 C 
BRANCH  14  15
ATOM     15  O   UNL     1       6.727  -1.027  -2.734  1.00  0.00    -0.394 OA
ATOM     16  H   UNL     1       6.226  -1.099  -1.880  1.00  0.00     0.210 HD
ENDBRANCH  14  15
ENDBRANCH   5  14
BRANCH   4  17
ATOM     17  O   UNL     1       5.213  -3.512  -2.604  1.00  0.00    -0.387 OA
ATOM     18  H   UNL     1       5.000  -4.040  -3.418  1.00  0.00     0.211 HD
ENDBRANCH   4  17
TORSDOF 7
ENDMDL
MODEL 3
REMARK VINA RESULT:    -3.537      1.731      3.626
REMARK INTER + INTRA:          -4.748
REMARK INTER:                  -4.291
REMARK INTRA:                  -0.457
REMARK UNBOUND:                -0.178
REMARK SMILES CCO[C@H]1O[C@@H](CO)[C@@H](O)[C@H](O)[C@@H]1O
REMARK SMILES IDX 4 1 13 2 11 3 9 4 6 5 5 6 3 7 2 8 1 9 14 10 12 12 7 14 8 15
REMARK SMILES IDX 10 17
REMARK H PARENT 14 11 12 13 8 16 10 18
REMARK Flexibility Score: inf
ROOT
ATOM      1  C   UNL     1       8.489  -3.659  -1.457  1.00  0.00     0.281 C 
ATOM      2  C   UNL     1       9.476  -4.753  -1.896  1.00  0.00     0.202 C 
ATOM      3  C   UNL     1       8.783  -5.756  -2.828  1.00  0.00     0.179 C 
ATOM      4  C   UNL     1       7.518  -6.298  -2.145  1.00  0.00     0.177 C 
ATOM      5  C   UNL     1       6.615  -5.141  -1.645  1.00  0.00     0.178 C 
ATOM      6  O   UNL     1       7.321  -4.198  -0.842  1.00  0.00    -0.341 OA
ENDROOT
BRANCH   1   7
ATOM      7  O   UNL     1       8.162  -2.829  -2.559  1.00  0.00    -0.350 OA
BRANCH   7   8
ATOM      8  C   UNL     1       8.104  -1.476  -2.156  1.00  0.00     0.160 C 
ATOM      9  C   UNL     1       7.219  -0.706  -3.124  1.00  0.00     0.035 C 
ENDBRANCH   7   8
ENDBRANCH   1   7
BRANCH   2  10
ATOM     10  O   UNL     1       9.977  -5.405  -0.755  1.00  0.00    -0.385 OA
ATOM     11  H   UNL     1      10.678  -4.818  -0.368  1.00  0.00     0.211 HD
ENDBRANCH   2  10
BRANCH   3  12
ATOM     12  O   UNL     1       9.666  -6.807  -3.123  1.00  0.00    -0.387 OA
ATOM     13  H   UNL     1       9.610  -7.454  -2.372  1.00  0.00     0.211 HD
ENDBRANCH   3  12
BRANCH   5  14
ATOM     14  C   UNL     1       5.779  -4.453  -2.751  1.00  0.00     0.191 C 
BRANCH  14  15
ATOM     15  O   UNL     1       5.066  -3.362  -2.233  1.00  0.00    -0.394 OA
ATOM     16  H   UNL     1       4.743  -3.630  -1.334  1.00  0.00     0.210 HD
ENDBRANCH  14  15
ENDBRANCH   5  14
BRANCH   4  17
ATOM     17  O   UNL     1       6.803  -7.125  -3.027  1.00  0.00    -0.387 OA
ATOM     18  H   UNL     1       6.324  -7.797  -2.474  1.00  0.00     0.211 HD
ENDBRANCH   4  17
TORSDOF 7
ENDMDL
MODEL 4
REMARK VINA RESULT:    -3.414      1.474      3.435
REMARK INTER + INTRA:          -4.590
REMARK INTER:                  -4.141
REMARK INTRA:                  -0.450
REMARK UNBOUND:                -0.178
REMARK SMILES CCO[C@H]1O[C@@H](CO)[C@@H](O)[C@H](O)[C@@H]1O
REMARK SMILES IDX 4 1 13 2 11 3 9 4 6 5 5 6 3 7 2 8 1 9 14 10 12 12 7 14 8 15
REMARK SMILES IDX 10 17
REMARK H PARENT 14 11 12 13 8 16 10 18
REMARK Flexibility Score: inf
ROOT
ATOM      1  C   UNL     1       6.346  -5.106  -1.938  1.00  0.00     0.281 C 
ATOM      2  C   UNL     1       5.873  -3.694  -2.320  1.00  0.00     0.202 C 
ATOM      3  C   UNL     1       7.066  -2.826  -2.740  1.00  0.00     0.179 C 
ATOM      4  C   UNL     1       8.129  -2.847  -1.630  1.00  0.00     0.177 C 
ATOM      5  C   UNL     1       8.489  -4.301  -1.231  1.00  0.00     0.178 C 
ATOM      6  O   UNL     1       7.341  -5.088  -0.918  1.00  0.00    -0.341 OA
ENDROOT
BRANCH   1   7
ATOM      7  O   UNL     1       6.794  -5.797  -3.093  1.00  0.00    -0.350 OA
BRANCH   7   8
ATOM      8  C   UNL     1       6.258  -7.103  -3.125  1.00  0.00     0.160 C 
ATOM      9  C   UNL     1       7.343  -8.097  -2.741  1.00  0.00     0.035 C 
ENDBRANCH   7   8
ENDBRANCH   1   7
BRANCH   2  10
ATOM     10  O   UNL     1       5.208  -3.120  -1.221  1.00  0.00    -0.385 OA
ATOM     11  H   UNL     1       4.826  -2.257  -1.531  1.00  0.00     0.211 HD
ENDBRANCH   2  10
BRANCH   3  12
ATOM     12  O   UNL     1       6.630  -1.511  -2.971  1.00  0.00    -0.387 OA
ATOM     13  H   UNL     1       5.750  -1.573  -3.428  1.00  0.00     0.211 HD
ENDBRANCH   3  12
BRANCH   5  14
ATOM     14  C   UNL     1       9.439  -5.024  -2.218  1.00  0.00     0.191 C 
BRANCH  14  15
ATOM     15  O   UNL     1      10.771  -4.641  -2.000  1.00  0.00    -0.394 OA
ATOM     16  H   UNL     1      11.317  -5.470  -2.033  1.00  0.00     0.210 HD
ENDBRANCH  14  15
ENDBRANCH   5  14
BRANCH   4  17
ATOM     17  O   UNL     1       9.282  -2.158  -2.044  1.00  0.00    -0.387 OA
ATOM     18  H   UNL     1       8.979  -1.386  -2.591  1.00  0.00     0.211 HD
ENDBRANCH   4  17
TORSDOF 7
ENDMDL
MODEL 5
REMARK VINA RESULT:    -3.130      1.438      3.962
REMARK INTER + INTRA:          -4.222
REMARK INTER:                  -4.001
REMARK INTRA:                  -0.221
REMARK UNBOUND:                -0.178
REMARK SMILES CCO[C@H]1O[C@@H](CO)[C@@H](O)[C@H](O)[C@@H]1O
REMARK SMILES IDX 4 1 13 2 11 3 9 4 6 5 5 6 3 7 2 8 1 9 14 10 12 12 7 14 8 15
REMARK SMILES IDX 10 17
REMARK H PARENT 14 11 12 13 8 16 10 18
REMARK Flexibility Score: inf
ROOT
ATOM      1  C   UNL     1       6.960  -3.856  -2.138  1.00  0.00     0.281 C 
ATOM      2  C   UNL     1       7.201  -3.463  -0.671  1.00  0.00     0.202 C 
ATOM      3  C   UNL     1       8.663  -3.715  -0.283  1.00  0.00     0.179 C 
ATOM      4  C   UNL     1       9.034  -5.171  -0.606  1.00  0.00     0.177 C 
ATOM      5  C   UNL     1       8.680  -5.524  -2.073  1.00  0.00     0.178 C 
ATOM      6  O   UNL     1       7.330  -5.206  -2.405  1.00  0.00    -0.341 OA
ENDROOT
BRANCH   1   7
ATOM      7  O   UNL     1       7.632  -2.951  -2.999  1.00  0.00    -0.350 OA
BRANCH   7   8
ATOM      8  C   UNL     1       6.897  -1.752  -3.124  1.00  0.00     0.160 C 
ATOM      9  C   UNL     1       7.777  -0.582  -2.712  1.00  0.00     0.035 C 
ENDBRANCH   7   8
ENDBRANCH   1   7
BRANCH   2  10
ATOM     10  O   UNL     1       6.337  -4.209   0.151  1.00  0.00    -0.385 OA
ATOM     11  H   UNL     1       5.998  -4.967  -0.394  1.00  0.00     0.211 HD
ENDBRANCH   2  10
BRANCH   3  12
ATOM     12  O   UNL     1       8.834  -3.462   1.088  1.00  0.00    -0.387 OA
ATOM     13  H   UNL     1       9.679  -3.903   1.363  1.00  0.00     0.211 HD
ENDBRANCH   3  12
BRANCH   5  14
ATOM     14  C   UNL     1       9.680  -4.988  -3.125  1.00  0.00     0.191 C 
BRANCH  14  15
ATOM     15  O   UNL     1      10.353  -3.854  -2.643  1.00  0.00    -0.394 OA
ATOM     16  H   UNL     1      10.735  -3.390  -3.433  1.00  0.00     0.210 HD
ENDBRANCH  14  15
ENDBRANCH   5  14
BRANCH   4  17
ATOM     17  O   UNL     1      10.403  -5.390  -0.371  1.00  0.00    -0.387 OA
ATOM     18  H   UNL     1      10.691  -4.730   0.312  1.00  0.00     0.211 HD
ENDBRANCH   4  17
TORSDOF 7
ENDMDL
MODEL 6
REMARK VINA RESULT:    -3.093      1.566      3.787
REMARK INTER + INTRA:          -4.175
REMARK INTER:                  -3.881
REMARK INTRA:                  -0.294
REMARK UNBOUND:                -0.178
REMARK SMILES CCO[C@H]1O[C@@H](CO)[C@@H](O)[C@H](O)[C@@H]1O
REMARK SMILES IDX 4 1 13 2 11 3 9 4 6 5 5 6 3 7 2 8 1 9 14 10 12 12 7 14 8 15
REMARK SMILES IDX 10 17
REMARK H PARENT 14 11 12 13 8 16 10 18
REMARK Flexibility Score: inf
ROOT
ATOM      1  C   UNL     1       7.585  -5.248  -2.537  1.00  0.00     0.281 C 
ATOM      2  C   UNL     1       6.202  -4.922  -3.125  1.00  0.00     0.202 C 
ATOM      3  C   UNL     1       5.574  -3.733  -2.386  1.00  0.00     0.179 C 
ATOM      4  C   UNL     1       5.556  -4.021  -0.877  1.00  0.00     0.177 C 
ATOM      5  C   UNL     1       6.962  -4.433  -0.371  1.00  0.00     0.178 C 
ATOM      6  O   UNL     1       7.533  -5.494  -1.134  1.00  0.00    -0.341 OA
ENDROOT
BRANCH   1   7
ATOM      7  O   UNL     1       8.502  -4.213  -2.852  1.00  0.00    -0.350 OA
BRANCH   7   8
ATOM      8  C   UNL     1       9.778  -4.753  -3.125  1.00  0.00     0.160 C 
ATOM      9  C   UNL     1      10.838  -3.707  -2.816  1.00  0.00     0.035 C 
ENDBRANCH   7   8
ENDBRANCH   1   7
BRANCH   2  10
ATOM     10  O   UNL     1       5.380  -6.058  -3.020  1.00  0.00    -0.385 OA
ATOM     11  H   UNL     1       5.370  -6.494  -3.912  1.00  0.00     0.211 HD
ENDBRANCH   2  10
BRANCH   3  12
ATOM     12  O   UNL     1       4.267  -3.527  -2.858  1.00  0.00    -0.387 OA
ATOM     13  H   UNL     1       3.720  -4.295  -2.547  1.00  0.00     0.211 HD
ENDBRANCH   3  12
BRANCH   5  14
ATOM     14  C   UNL     1       7.949  -3.255  -0.181  1.00  0.00     0.191 C 
BRANCH  14  15
ATOM     15  O   UNL     1       9.019  -3.628   0.645  1.00  0.00    -0.394 OA
ATOM     16  H   UNL     1       8.639  -4.185   1.373  1.00  0.00     0.210 HD
ENDBRANCH  14  15
ENDBRANCH   5  14
BRANCH   4  17
ATOM     17  O   UNL     1       5.096  -2.897  -0.170  1.00  0.00    -0.387 OA
ATOM     18  H   UNL     1       4.977  -3.175   0.776  1.00  0.00     0.211 HD
ENDBRANCH   4  17
TORSDOF 7
ENDMDL
MODEL 7
REMARK VINA RESULT:    -2.926      1.517      2.972
REMARK INTER + INTRA:          -3.959
REMARK INTER:                  -3.861
REMARK INTRA:                  -0.099
REMARK UNBOUND:                -0.178
REMARK SMILES CCO[C@H]1O[C@@H](CO)[C@@H](O)[C@H](O)[C@@H]1O
REMARK SMILES IDX 4 1 13 2 11 3 9 4 6 5 5 6 3 7 2 8 1 9 14 10 12 12 7 14 8 15
REMARK SMILES IDX 10 17
REMARK H PARENT 14 11 12 13 8 16 10 18
REMARK Flexibility Score: inf
ROOT
ATOM      1  C   UNL     1       6.691  -5.013  -2.320  1.00  0.00     0.281 C 
ATOM      2  C   UNL     1       7.254  -6.396  -1.954  1.00  0.00     0.202 C 
ATOM      3  C   UNL     1       8.615  -6.253  -1.259  1.00  0.00     0.179 C 
ATOM      4  C   UNL     1       9.552  -5.413  -2.140  1.00  0.00     0.177 C 
ATOM      5  C   UNL     1       8.885  -4.074  -2.547  1.00  0.00     0.178 C 
ATOM      6  O   UNL     1       7.593  -4.256  -3.123  1.00  0.00    -0.341 OA
ENDROOT
BRANCH   1   7
ATOM      7  O   UNL     1       6.325  -4.311  -1.143  1.00  0.00    -0.350 OA
BRANCH   7   8
ATOM      8  C   UNL     1       5.321  -3.361  -1.429  1.00  0.00     0.160 C 
ATOM      9  C   UNL     1       4.443  -3.886  -2.555  1.00  0.00     0.035 C 
ENDBRANCH   7   8
ENDBRANCH   1   7
BRANCH   2  10
ATOM     10  O   UNL     1       7.377  -7.166  -3.125  1.00  0.00    -0.385 OA
ATOM     11  H   UNL     1       7.579  -8.096  -2.842  1.00  0.00     0.211 HD
ENDBRANCH   2  10
BRANCH   3  12
ATOM     12  O   UNL     1       9.164  -7.527  -1.040  1.00  0.00    -0.387 OA
ATOM     13  H   UNL     1       9.594  -7.508  -0.145  1.00  0.00     0.211 HD
ENDBRANCH   3  12
BRANCH   5  14
ATOM     14  C   UNL     1       8.882  -2.993  -1.439  1.00  0.00     0.191 C 
BRANCH  14  15
ATOM     15  O   UNL     1       8.864  -3.582  -0.166  1.00  0.00    -0.394 OA
ATOM     16  H   UNL     1       9.387  -4.423  -0.232  1.00  0.00     0.210 HD
ENDBRANCH  14  15
ENDBRANCH   5  14
BRANCH   4  17
ATOM     17  O   UNL     1      10.763  -5.167  -1.470  1.00  0.00    -0.387 OA
ATOM     18  H   UNL     1      10.870  -4.181  -1.414  1.00  0.00     0.211 HD
ENDBRANCH   4  17
TORSDOF 7
ENDMDL
MODEL 8
REMARK VINA RESULT:    -2.817      1.681      3.736
REMARK INTER + INTRA:          -3.819
REMARK INTER:                  -3.401
REMARK INTRA:                  -0.417
REMARK UNBOUND:                -0.178
REMARK SMILES CCO[C@H]1O[C@@H](CO)[C@@H](O)[C@H](O)[C@@H]1O
REMARK SMILES IDX 4 1 13 2 11 3 9 4 6 5 5 6 3 7 2 8 1 9 14 10 12 12 7 14 8 15
REMARK SMILES IDX 10 17
REMARK H PARENT 14 11 12 13 8 16 10 18
REMARK Flexibility Score: inf
ROOT
ATOM      1  C   UNL     1       8.145  -4.816  -0.875  1.00  0.00     0.281 C 
ATOM      2  C   UNL     1       6.650  -4.482  -1.008  1.00  0.00     0.202 C 
ATOM      3  C   UNL     1       6.420  -3.515  -2.177  1.00  0.00     0.179 C 
ATOM      4  C   UNL     1       7.320  -2.282  -2.004  1.00  0.00     0.177 C 
ATOM      5  C   UNL     1       8.798  -2.697  -1.783  1.00  0.00     0.178 C 
ATOM      6  O   UNL     1       8.951  -3.649  -0.733  1.00  0.00    -0.341 OA
ENDROOT
BRANCH   1   7
ATOM      7  O   UNL     1       8.564  -5.609  -1.973  1.00  0.00    -0.350 OA
BRANCH   7   8
ATOM      8  C   UNL     1       9.100  -6.835  -1.519  1.00  0.00     0.160 C 
ATOM      9  C   UNL     1       8.136  -7.959  -1.865  1.00  0.00     0.035 C 
ENDBRANCH   7   8
ENDBRANCH   1   7
BRANCH   2  10
ATOM     10  O   UNL     1       6.198  -3.915   0.197  1.00  0.00    -0.385 OA
ATOM     11  H   UNL     1       6.111  -4.655   0.853  1.00  0.00     0.211 HD
ENDBRANCH   2  10
BRANCH   3  12
ATOM     12  O   UNL     1       5.069  -3.132  -2.208  1.00  0.00    -0.387 OA
ATOM     13  H   UNL     1       4.539  -3.950  -2.394  1.00  0.00     0.211 HD
ENDBRANCH   3  12
BRANCH   5  14
ATOM     14  C   UNL     1       9.547  -3.121  -3.069  1.00  0.00     0.191 C 
BRANCH  14  15
ATOM     15  O   UNL     1      10.779  -3.716  -2.756  1.00  0.00    -0.394 OA
ATOM     16  H   UNL     1      11.289  -3.784  -3.605  1.00  0.00     0.210 HD
ENDBRANCH  14  15
ENDBRANCH   5  14
BRANCH   4  17
ATOM     17  O   UNL     1       7.216  -1.440  -3.125  1.00  0.00    -0.387 OA
ATOM     18  H   UNL     1       7.096  -2.025  -3.919  1.00  0.00     0.211 HD
ENDBRANCH   4  17
TORSDOF 7
ENDMDL
