MODEL 1
REMARK VINA RESULT:     4.424      0.000      0.000
REMARK INTER + INTRA:           7.211
REMARK INTER:                   5.976
REMARK INTRA:                   1.235
REMARK UNBOUND:                 1.235
REMARK SMILES COc1ccc(-c2cc(=O)c3c(OC)c(OC)c(OC)c(OC)c3o2)cc1
REMARK SMILES IDX 7 1 8 2 9 3 10 4 11 5 24 6 25 7 21 8 18 9 15 10 12 11 6 12
REMARK SMILES IDX 3 13 4 14 27 15 5 16 26 17 2 18 1 19 22 20 23 21 13 22 14 23
REMARK SMILES IDX 19 24 20 25 16 26 17 27
REMARK H PARENT
REMARK Flexibility Score: inf
ROOT
ATOM      1  C   UNL     1      13.870   2.667 -20.545  1.00  0.00     0.138 A 
ATOM      2  C   UNL     1      13.625   2.904 -19.189  1.00  0.00     0.100 A 
ATOM      3  C   UNL     1      12.847   2.003 -18.469  1.00  0.00     0.197 A 
ATOM      4  O   UNL     1      12.636   2.236 -17.248  1.00  0.00    -0.289 OA
ATOM      5  C   UNL     1      12.315   0.858 -19.112  1.00  0.00     0.115 A 
ATOM      6  C   UNL     1      12.596   0.694 -20.490  1.00  0.00     0.188 A 
ATOM      7  O   UNL     1      13.344   1.594 -21.125  1.00  0.00    -0.452 OA
ATOM      8  C   UNL     1      12.094  -0.425 -21.188  1.00  0.00     0.209 A 
ATOM      9  C   UNL     1      11.304  -1.368 -20.512  1.00  0.00     0.211 A 
ATOM     10  C   UNL     1      11.050  -1.243 -19.124  1.00  0.00     0.208 A 
ATOM     11  C   UNL     1      11.535  -0.106 -18.426  1.00  0.00     0.179 A 
ENDROOT
BRANCH   1  12
ATOM     12  C   UNL     1      14.699   3.591 -21.356  1.00  0.00     0.018 A 
ATOM     13  C   UNL     1      16.317   5.310 -22.907  1.00  0.00     0.118 A 
ATOM     14  C   UNL     1      16.185   3.960 -23.247  1.00  0.00     0.047 A 
ATOM     15  C   UNL     1      15.637   5.801 -21.777  1.00  0.00     0.047 A 
ATOM     16  C   UNL     1      15.389   3.107 -22.479  1.00  0.00     0.016 A 
ATOM     17  C   UNL     1      14.838   4.949 -21.008  1.00  0.00     0.016 A 
BRANCH  13  18
ATOM     18  O   UNL     1      17.128   6.124 -23.711  1.00  0.00    -0.497 OA
ATOM     19  C   UNL     1      17.594   5.765 -25.007  1.00  0.00     0.278 C 
ENDBRANCH  13  18
ENDBRANCH   1  12
BRANCH   8  20
ATOM     20  O   UNL     1      12.367  -0.675 -22.547  1.00  0.00    -0.490 OA
ATOM     21  C   UNL     1      13.159  -1.731 -23.077  1.00  0.00     0.278 C 
ENDBRANCH   8  20
BRANCH  11  22
ATOM     22  O   UNL     1      11.277   0.109 -17.054  1.00  0.00    -0.492 OA
ATOM     23  C   UNL     1      11.920  -0.508 -15.945  1.00  0.00     0.278 C 
ENDBRANCH  11  22
BRANCH   9  24
ATOM     24  O   UNL     1      10.779  -2.446 -21.233  1.00  0.00    -0.490 OA
ATOM     25  C   UNL     1      10.116  -2.280 -22.483  1.00  0.00     0.279 C 
ENDBRANCH   9  24
BRANCH  10  26
ATOM     26  O   UNL     1      10.332  -2.215 -18.402  1.00  0.00    -0.490 OA
ATOM     27  C   UNL     1       9.435  -3.191 -18.919  1.00  0.00     0.278 C 
ENDBRANCH  10  26
TORSDOF 6
ENDMDL
