MODEL 1
REMARK VINA RESULT:    -2.838      0.000      0.000
REMARK INTER + INTRA:          -7.018
REMARK INTER:                  -5.327
REMARK INTRA:                  -1.692
REMARK UNBOUND:                -1.692
REMARK SMILES O=C([O-])CCCCCCCCCCCCCCC(=O)[O-]
REMARK SMILES IDX 10 1 9 2 8 3 7 4 6 5 5 6 4 7 2 8 1 9 3 10 11 11 12 12 13 13
REMARK SMILES IDX 14 14 15 15 16 16 17 17 18 18 19 19 20 20
REMARK H PARENT
REMARK Flexibility Score: inf
ROOT
ATOM      1  C   UNL     1     -15.133  11.616   8.613  1.00  0.00     0.000 C 
ENDROOT
BRANCH   1   2
ATOM      2  C   UNL     1     -16.043  12.854   8.583  1.00  0.00     0.000 C 
BRANCH   2   3
ATOM      3  C   UNL     1     -17.056  12.872   9.738  1.00  0.00     0.000 C 
BRANCH   3   4
ATOM      4  C   UNL     1     -16.547  12.037  10.922  1.00  0.00     0.000 C 
BRANCH   4   5
ATOM      5  C   UNL     1     -16.597  12.803  12.254  1.00  0.00     0.000 C 
BRANCH   5   6
ATOM      6  C   UNL     1     -16.122  14.260  12.116  1.00  0.00     0.006 C 
BRANCH   6   7
ATOM      7  C   UNL     1     -14.827  14.524  12.897  1.00  0.00     0.053 C 
BRANCH   7   8
ATOM      8  C   UNL     1     -13.621  14.018  12.166  1.00  0.00     0.041 C 
ATOM      9  O   UNL     1     -13.576  14.065  10.908  1.00  0.00    -0.550 OA
ATOM     10  O   UNL     1     -12.561  13.466  12.874  1.00  0.00    -0.550 OA
ENDBRANCH   7   8
ENDBRANCH   6   7
ENDBRANCH   5   6
ENDBRANCH   4   5
ENDBRANCH   3   4
ENDBRANCH   2   3
ENDBRANCH   1   2
BRANCH   1  11
ATOM     11  C   UNL     1     -15.564  10.542   7.604  1.00  0.00     0.000 C 
BRANCH  11  12
ATOM     12  C   UNL     1     -15.565   9.149   8.252  1.00  0.00     0.000 C 
BRANCH  12  13
ATOM     13  C   UNL     1     -16.977   8.664   8.630  1.00  0.00     0.000 C 
BRANCH  13  14
ATOM     14  C   UNL     1     -17.043   7.737   9.858  1.00  0.00     0.000 C 
BRANCH  14  15
ATOM     15  C   UNL     1     -16.544   8.413  11.146  1.00  0.00     0.000 C 
BRANCH  15  16
ATOM     16  C   UNL     1     -15.654   7.486  11.992  1.00  0.00     0.006 C 
BRANCH  16  17
ATOM     17  C   UNL     1     -15.075   6.319  11.182  1.00  0.00     0.053 C 
BRANCH  17  18
ATOM     18  C   UNL     1     -13.772   5.875  11.768  1.00  0.00     0.041 C 
ATOM     19  O   UNL     1     -13.087   6.669  12.465  1.00  0.00    -0.550 OA
ATOM     20  O   UNL     1     -13.336   4.569  11.584  1.00  0.00    -0.550 OA
ENDBRANCH  17  18
ENDBRANCH  16  17
ENDBRANCH  15  16
ENDBRANCH  14  15
ENDBRANCH  13  14
ENDBRANCH  12  13
ENDBRANCH  11  12
ENDBRANCH   1  11
TORSDOF 15
ENDMDL
MODEL 2
REMARK VINA RESULT:    -2.766      1.759      7.077
REMARK INTER + INTRA:          -6.884
REMARK INTER:                  -5.882
REMARK INTRA:                  -1.001
REMARK UNBOUND:                -1.692
REMARK SMILES O=C([O-])CCCCCCCCCCCCCCC(=O)[O-]
REMARK SMILES IDX 10 1 9 2 8 3 7 4 6 5 5 6 4 7 2 8 1 9 3 10 11 11 12 12 13 13
REMARK SMILES IDX 14 14 15 15 16 16 17 17 18 18 19 19 20 20
REMARK H PARENT
REMARK Flexibility Score: inf
ROOT
ATOM      1  C   UNL     1     -15.645   9.615   8.871  1.00  0.00     0.000 C 
ENDROOT
BRANCH   1   2
ATOM      2  C   UNL     1     -16.511   8.654   9.700  1.00  0.00     0.000 C 
BRANCH   2   3
ATOM      3  C   UNL     1     -16.658   7.273   9.043  1.00  0.00     0.000 C 
BRANCH   3   4
ATOM      4  C   UNL     1     -17.051   6.214  10.085  1.00  0.00     0.000 C 
BRANCH   4   5
ATOM      5  C   UNL     1     -16.983   6.745  11.526  1.00  0.00     0.000 C 
BRANCH   5   6
ATOM      6  C   UNL     1     -16.294   5.761  12.486  1.00  0.00     0.006 C 
BRANCH   6   7
ATOM      7  C   UNL     1     -15.297   4.845  11.762  1.00  0.00     0.053 C 
BRANCH   7   8
ATOM      8  C   UNL     1     -13.879   5.270  11.994  1.00  0.00     0.041 C 
ATOM      9  O   UNL     1     -13.052   4.468  12.502  1.00  0.00    -0.550 OA
ATOM     10  O   UNL     1     -13.480   6.562  11.678  1.00  0.00    -0.550 OA
ENDBRANCH   7   8
ENDBRANCH   6   7
ENDBRANCH   5   6
ENDBRANCH   4   5
ENDBRANCH   3   4
ENDBRANCH   2   3
ENDBRANCH   1   2
BRANCH   1  11
ATOM     11  C   UNL     1     -16.482  10.524   7.957  1.00  0.00     0.000 C 
BRANCH  11  12
ATOM     12  C   UNL     1     -15.581  11.312   6.993  1.00  0.00     0.000 C 
BRANCH  12  13
ATOM     13  C   UNL     1     -15.505  12.811   7.333  1.00  0.00     0.000 C 
BRANCH  13  14
ATOM     14  C   UNL     1     -14.240  13.246   8.095  1.00  0.00     0.000 C 
BRANCH  14  15
ATOM     15  C   UNL     1     -14.399  13.152   9.622  1.00  0.00     0.000 C 
BRANCH  15  16
ATOM     16  C   UNL     1     -13.867  14.400  10.348  1.00  0.00     0.006 C 
BRANCH  16  17
ATOM     17  C   UNL     1     -14.140  14.370  11.857  1.00  0.00     0.053 C 
BRANCH  17  18
ATOM     18  C   UNL     1     -15.607  14.499  12.123  1.00  0.00     0.041 C 
ATOM     19  O   UNL     1     -16.170  13.735  12.950  1.00  0.00    -0.550 OA
ATOM     20  O   UNL     1     -16.342  15.496  11.495  1.00  0.00    -0.550 OA
ENDBRANCH  17  18
ENDBRANCH  16  17
ENDBRANCH  15  16
ENDBRANCH  14  15
ENDBRANCH  13  14
ENDBRANCH  12  13
ENDBRANCH  11  12
ENDBRANCH   1  11
TORSDOF 15
ENDMDL
MODEL 3
REMARK VINA RESULT:    -2.702      1.925      2.958
REMARK INTER + INTRA:          -6.762
REMARK INTER:                  -5.837
REMARK INTRA:                  -0.925
REMARK UNBOUND:                -1.692
REMARK SMILES O=C([O-])CCCCCCCCCCCCCCC(=O)[O-]
REMARK SMILES IDX 10 1 9 2 8 3 7 4 6 5 5 6 4 7 2 8 1 9 3 10 11 11 12 12 13 13
REMARK SMILES IDX 14 14 15 15 16 16 17 17 18 18 19 19 20 20
REMARK H PARENT
REMARK Flexibility Score: inf
ROOT
ATOM      1  C   UNL     1     -16.793  10.827  10.327  1.00  0.00     0.000 C 
ENDROOT
BRANCH   1   2
ATOM      2  C   UNL     1     -17.112  12.301  10.622  1.00  0.00     0.000 C 
BRANCH   2   3
ATOM      3  C   UNL     1     -16.497  12.788  11.942  1.00  0.00     0.000 C 
BRANCH   3   4
ATOM      4  C   UNL     1     -15.745  14.112  11.737  1.00  0.00     0.000 C 
BRANCH   4   5
ATOM      5  C   UNL     1     -14.263  13.904  11.383  1.00  0.00     0.000 C 
BRANCH   5   6
ATOM      6  C   UNL     1     -13.962  14.198   9.904  1.00  0.00     0.006 C 
BRANCH   6   7
ATOM      7  C   UNL     1     -14.202  12.973   9.009  1.00  0.00     0.053 C 
BRANCH   7   8
ATOM      8  C   UNL     1     -14.160  13.329   7.554  1.00  0.00     0.041 C 
ATOM      9  O   UNL     1     -13.163  13.932   7.077  1.00  0.00    -0.550 OA
ATOM     10  O   UNL     1     -15.237  13.021   6.733  1.00  0.00    -0.550 OA
ENDBRANCH   7   8
ENDBRANCH   6   7
ENDBRANCH   5   6
ENDBRANCH   4   5
ENDBRANCH   3   4
ENDBRANCH   2   3
ENDBRANCH   1   2
BRANCH   1  11
ATOM     11  C   UNL     1     -16.949  10.475   8.840  1.00  0.00     0.000 C 
BRANCH  11  12
ATOM     12  C   UNL     1     -16.309   9.113   8.528  1.00  0.00     0.000 C 
BRANCH  12  13
ATOM     13  C   UNL     1     -16.811   7.989   9.452  1.00  0.00     0.000 C 
BRANCH  13  14
ATOM     14  C   UNL     1     -15.732   7.339  10.338  1.00  0.00     0.000 C 
BRANCH  14  15
ATOM     15  C   UNL     1     -16.322   6.547  11.517  1.00  0.00     0.000 C 
BRANCH  15  16
ATOM     16  C   UNL     1     -16.051   5.037  11.407  1.00  0.00     0.006 C 
BRANCH  16  17
ATOM     17  C   UNL     1     -15.152   4.512  12.533  1.00  0.00     0.053 C 
BRANCH  17  18
ATOM     18  C   UNL     1     -13.713   4.760  12.210  1.00  0.00     0.041 C 
ATOM     19  O   UNL     1     -13.032   3.875  11.629  1.00  0.00    -0.550 OA
ATOM     20  O   UNL     1     -13.135   5.988  12.508  1.00  0.00    -0.550 OA
ENDBRANCH  17  18
ENDBRANCH  16  17
ENDBRANCH  15  16
ENDBRANCH  14  15
ENDBRANCH  13  14
ENDBRANCH  12  13
ENDBRANCH  11  12
ENDBRANCH   1  11
TORSDOF 15
ENDMDL
MODEL 4
REMARK VINA RESULT:    -2.604      0.765      6.391
REMARK INTER + INTRA:          -6.579
REMARK INTER:                  -5.406
REMARK INTRA:                  -1.173
REMARK UNBOUND:                -1.692
REMARK SMILES O=C([O-])CCCCCCCCCCCCCCC(=O)[O-]
REMARK SMILES IDX 10 1 9 2 8 3 7 4 6 5 5 6 4 7 2 8 1 9 3 10 11 11 12 12 13 13
REMARK SMILES IDX 14 14 15 15 16 16 17 17 18 18 19 19 20 20
REMARK H PARENT
REMARK Flexibility Score: inf
ROOT
ATOM      1  C   UNL     1     -15.974  11.473   7.239  1.00  0.00     0.000 C 
ENDROOT
BRANCH   1   2
ATOM      2  C   UNL     1     -15.900   9.947   7.070  1.00  0.00     0.000 C 
BRANCH   2   3
ATOM      3  C   UNL     1     -16.640   9.191   8.184  1.00  0.00     0.000 C 
BRANCH   3   4
ATOM      4  C   UNL     1     -15.647   8.434   9.080  1.00  0.00     0.000 C 
BRANCH   4   5
ATOM      5  C   UNL     1     -16.276   7.205   9.756  1.00  0.00     0.000 C 
BRANCH   5   6
ATOM      6  C   UNL     1     -15.987   7.148  11.266  1.00  0.00     0.006 C 
BRANCH   6   7
ATOM      7  C   UNL     1     -15.591   5.739  11.728  1.00  0.00     0.053 C 
BRANCH   7   8
ATOM      8  C   UNL     1     -14.104   5.559  11.753  1.00  0.00     0.041 C 
ATOM      9  O   UNL     1     -13.342   6.556  11.650  1.00  0.00    -0.550 OA
ATOM     10  O   UNL     1     -13.561   4.285  11.860  1.00  0.00    -0.550 OA
ENDBRANCH   7   8
ENDBRANCH   6   7
ENDBRANCH   5   6
ENDBRANCH   4   5
ENDBRANCH   3   4
ENDBRANCH   2   3
ENDBRANCH   1   2
BRANCH   1  11
ATOM     11  C   UNL     1     -14.916  12.009   8.215  1.00  0.00     0.000 C 
BRANCH  11  12
ATOM     12  C   UNL     1     -15.537  13.013   9.199  1.00  0.00     0.000 C 
BRANCH  12  13
ATOM     13  C   UNL     1     -16.819  12.484   9.868  1.00  0.00     0.000 C 
BRANCH  13  14
ATOM     14  C   UNL     1     -16.593  11.606  11.112  1.00  0.00     0.000 C 
BRANCH  14  15
ATOM     15  C   UNL     1     -15.584  12.217  12.100  1.00  0.00     0.000 C 
BRANCH  15  16
ATOM     16  C   UNL     1     -15.963  13.647  12.521  1.00  0.00     0.006 C 
BRANCH  16  17
ATOM     17  C   UNL     1     -14.781  14.423  13.116  1.00  0.00     0.053 C 
BRANCH  17  18
ATOM     18  C   UNL     1     -13.513  14.068  12.405  1.00  0.00     0.041 C 
ATOM     19  O   UNL     1     -12.619  13.409  12.997  1.00  0.00    -0.550 OA
ATOM     20  O   UNL     1     -13.340  14.424  11.074  1.00  0.00    -0.550 OA
ENDBRANCH  17  18
ENDBRANCH  16  17
ENDBRANCH  15  16
ENDBRANCH  14  15
ENDBRANCH  13  14
ENDBRANCH  12  13
ENDBRANCH  11  12
ENDBRANCH   1  11
TORSDOF 15
ENDMDL
MODEL 5
REMARK VINA RESULT:    -2.490      0.956      6.738
REMARK INTER + INTRA:          -6.365
REMARK INTER:                  -5.233
REMARK INTRA:                  -1.132
REMARK UNBOUND:                -1.692
REMARK SMILES O=C([O-])CCCCCCCCCCCCCCC(=O)[O-]
REMARK SMILES IDX 10 1 9 2 8 3 7 4 6 5 5 6 4 7 2 8 1 9 3 10 11 11 12 12 13 13
REMARK SMILES IDX 14 14 15 15 16 16 17 17 18 18 19 19 20 20
REMARK H PARENT
REMARK Flexibility Score: inf
ROOT
ATOM      1  C   UNL     1     -16.052  10.400   8.807  1.00  0.00     0.000 C 
ENDROOT
BRANCH   1   2
ATOM      2  C   UNL     1     -15.254   9.107   8.572  1.00  0.00     0.000 C 
BRANCH   2   3
ATOM      3  C   UNL     1     -16.010   7.852   9.035  1.00  0.00     0.000 C 
BRANCH   3   4
ATOM      4  C   UNL     1     -16.906   8.171  10.242  1.00  0.00     0.000 C 
BRANCH   4   5
ATOM      5  C   UNL     1     -16.633   7.251  11.443  1.00  0.00     0.000 C 
BRANCH   5   6
ATOM      6  C   UNL     1     -15.985   5.918  11.031  1.00  0.00     0.006 C 
BRANCH   6   7
ATOM      7  C   UNL     1     -15.293   5.221  12.211  1.00  0.00     0.053 C 
BRANCH   7   8
ATOM      8  C   UNL     1     -13.806   5.402  12.170  1.00  0.00     0.041 C 
ATOM      9  O   UNL     1     -13.309   6.475  11.738  1.00  0.00    -0.550 OA
ATOM     10  O   UNL     1     -12.970   4.371  12.581  1.00  0.00    -0.550 OA
ENDBRANCH   7   8
ENDBRANCH   6   7
ENDBRANCH   5   6
ENDBRANCH   4   5
ENDBRANCH   3   4
ENDBRANCH   2   3
ENDBRANCH   1   2
BRANCH   1  11
ATOM     11  C   UNL     1     -15.155  11.644   8.868  1.00  0.00     0.000 C 
BRANCH  11  12
ATOM     12  C   UNL     1     -15.854  12.857   8.236  1.00  0.00     0.000 C 
BRANCH  12  13
ATOM     13  C   UNL     1     -17.123  13.283   8.997  1.00  0.00     0.000 C 
BRANCH  13  14
ATOM     14  C   UNL     1     -16.995  13.286  10.531  1.00  0.00     0.000 C 
BRANCH  14  15
ATOM     15  C   UNL     1     -17.123  14.693  11.140  1.00  0.00     0.000 C 
BRANCH  15  16
ATOM     16  C   UNL     1     -15.894  15.087  11.977  1.00  0.00     0.006 C 
BRANCH  16  17
ATOM     17  C   UNL     1     -14.992  13.891  12.305  1.00  0.00     0.053 C 
BRANCH  17  18
ATOM     18  C   UNL     1     -13.652  14.058  11.662  1.00  0.00     0.041 C 
ATOM     19  O   UNL     1     -13.556  14.600  10.529  1.00  0.00    -0.550 OA
ATOM     20  O   UNL     1     -12.503  13.658  12.333  1.00  0.00    -0.550 OA
ENDBRANCH  17  18
ENDBRANCH  16  17
ENDBRANCH  15  16
ENDBRANCH  14  15
ENDBRANCH  13  14
ENDBRANCH  12  13
ENDBRANCH  11  12
ENDBRANCH   1  11
TORSDOF 15
ENDMDL
MODEL 6
REMARK VINA RESULT:    -2.384      2.185      3.014
REMARK INTER + INTRA:          -6.166
REMARK INTER:                  -5.072
REMARK INTRA:                  -1.093
REMARK UNBOUND:                -1.692
REMARK SMILES O=C([O-])CCCCCCCCCCCCCCC(=O)[O-]
REMARK SMILES IDX 10 1 9 2 8 3 7 4 6 5 5 6 4 7 2 8 1 9 3 10 11 11 12 12 13 13
REMARK SMILES IDX 14 14 15 15 16 16 17 17 18 18 19 19 20 20
REMARK H PARENT
REMARK Flexibility Score: inf
ROOT
ATOM      1  C   UNL     1     -13.744  13.374   8.035  1.00  0.00     0.000 C 
ENDROOT
BRANCH   1   2
ATOM      2  C   UNL     1     -14.608  13.280   9.302  1.00  0.00     0.000 C 
BRANCH   2   3
ATOM      3  C   UNL     1     -14.034  14.091  10.473  1.00  0.00     0.000 C 
BRANCH   3   4
ATOM      4  C   UNL     1     -15.138  14.902  11.167  1.00  0.00     0.000 C 
BRANCH   4   5
ATOM      5  C   UNL     1     -16.489  14.168  11.190  1.00  0.00     0.000 C 
BRANCH   5   6
ATOM      6  C   UNL     1     -16.843  13.627  12.586  1.00  0.00     0.006 C 
BRANCH   6   7
ATOM      7  C   UNL     1     -15.773  12.667  13.124  1.00  0.00     0.053 C 
BRANCH   7   8
ATOM      8  C   UNL     1     -16.021  11.255  12.688  1.00  0.00     0.041 C 
ATOM      9  O   UNL     1     -17.025  10.976  11.980  1.00  0.00    -0.550 OA
ATOM     10  O   UNL     1     -15.160  10.242  13.091  1.00  0.00    -0.550 OA
ENDBRANCH   7   8
ENDBRANCH   6   7
ENDBRANCH   5   6
ENDBRANCH   4   5
ENDBRANCH   3   4
ENDBRANCH   2   3
ENDBRANCH   1   2
BRANCH   1  11
ATOM     11  C   UNL     1     -14.494  12.922   6.774  1.00  0.00     0.000 C 
BRANCH  11  12
ATOM     12  C   UNL     1     -15.767  12.144   7.142  1.00  0.00     0.000 C 
BRANCH  12  13
ATOM     13  C   UNL     1     -15.659  10.638   6.840  1.00  0.00     0.000 C 
BRANCH  13  14
ATOM     14  C   UNL     1     -16.952   9.832   7.058  1.00  0.00     0.000 C 
BRANCH  14  15
ATOM     15  C   UNL     1     -17.104   9.323   8.502  1.00  0.00     0.000 C 
BRANCH  15  16
ATOM     16  C   UNL     1     -16.426   7.961   8.722  1.00  0.00     0.006 C 
BRANCH  16  17
ATOM     17  C   UNL     1     -15.577   7.921   9.999  1.00  0.00     0.053 C 
BRANCH  17  18
ATOM     18  C   UNL     1     -15.807   6.640  10.737  1.00  0.00     0.041 C 
ATOM     19  O   UNL     1     -16.977   6.203  10.898  1.00  0.00    -0.550 OA
ATOM     20  O   UNL     1     -14.726   5.903  11.206  1.00  0.00    -0.550 OA
ENDBRANCH  17  18
ENDBRANCH  16  17
ENDBRANCH  15  16
ENDBRANCH  14  15
ENDBRANCH  13  14
ENDBRANCH  12  13
ENDBRANCH  11  12
ENDBRANCH   1  11
TORSDOF 15
ENDMDL
MODEL 7
REMARK VINA RESULT:    -2.346      1.838      2.556
REMARK INTER + INTRA:          -6.094
REMARK INTER:                  -5.026
REMARK INTRA:                  -1.068
REMARK UNBOUND:                -1.692
REMARK SMILES O=C([O-])CCCCCCCCCCCCCCC(=O)[O-]
REMARK SMILES IDX 10 1 9 2 8 3 7 4 6 5 5 6 4 7 2 8 1 9 3 10 11 11 12 12 13 13
REMARK SMILES IDX 14 14 15 15 16 16 17 17 18 18 19 19 20 20
REMARK H PARENT
REMARK Flexibility Score: inf
ROOT
ATOM      1  C   UNL     1     -14.849  11.833   8.199  1.00  0.00     0.000 C 
ENDROOT
BRANCH   1   2
ATOM      2  C   UNL     1     -14.267  13.244   8.026  1.00  0.00     0.000 C 
BRANCH   2   3
ATOM      3  C   UNL     1     -14.100  13.984   9.362  1.00  0.00     0.000 C 
BRANCH   3   4
ATOM      4  C   UNL     1     -14.261  13.016  10.544  1.00  0.00     0.000 C 
BRANCH   4   5
ATOM      5  C   UNL     1     -14.251  13.733  11.904  1.00  0.00     0.000 C 
BRANCH   5   6
ATOM      6  C   UNL     1     -15.120  13.019  12.954  1.00  0.00     0.006 C 
BRANCH   6   7
ATOM      7  C   UNL     1     -16.575  13.506  12.931  1.00  0.00     0.053 C 
BRANCH   7   8
ATOM      8  C   UNL     1     -16.688  14.899  12.391  1.00  0.00     0.041 C 
ATOM      9  O   UNL     1     -16.416  15.888  13.122  1.00  0.00    -0.550 OA
ATOM     10  O   UNL     1     -17.124  15.105  11.088  1.00  0.00    -0.550 OA
ENDBRANCH   7   8
ENDBRANCH   6   7
ENDBRANCH   5   6
ENDBRANCH   4   5
ENDBRANCH   3   4
ENDBRANCH   2   3
ENDBRANCH   1   2
BRANCH   1  11
ATOM     11  C   UNL     1     -16.352  11.772   7.890  1.00  0.00     0.000 C 
BRANCH  11  12
ATOM     12  C   UNL     1     -17.109  11.012   8.990  1.00  0.00     0.000 C 
BRANCH  12  13
ATOM     13  C   UNL     1     -16.310   9.823   9.556  1.00  0.00     0.000 C 
BRANCH  13  14
ATOM     14  C   UNL     1     -16.027   8.688   8.555  1.00  0.00     0.000 C 
BRANCH  14  15
ATOM     15  C   UNL     1     -16.575   7.329   9.020  1.00  0.00     0.000 C 
BRANCH  15  16
ATOM     16  C   UNL     1     -16.497   7.153  10.546  1.00  0.00     0.006 C 
BRANCH  16  17
ATOM     17  C   UNL     1     -15.262   6.359  10.989  1.00  0.00     0.053 C 
BRANCH  17  18
ATOM     18  C   UNL     1     -14.553   7.073  12.096  1.00  0.00     0.041 C 
ATOM     19  O   UNL     1     -13.376   6.752  12.406  1.00  0.00    -0.550 OA
ATOM     20  O   UNL     1     -15.175   8.126  12.755  1.00  0.00    -0.550 OA
ENDBRANCH  17  18
ENDBRANCH  16  17
ENDBRANCH  15  16
ENDBRANCH  14  15
ENDBRANCH  13  14
ENDBRANCH  12  13
ENDBRANCH  11  12
ENDBRANCH   1  11
TORSDOF 15
ENDMDL
