MODEL 1
REMARK VINA RESULT:    -7.319      0.000      0.000
REMARK INTER + INTRA:          -8.608
REMARK INTER:                  -9.031
REMARK INTRA:                   0.423
REMARK UNBOUND:                 0.423
REMARK SMILES O=c1c(O)c(-c2cc(O)c(O)c(O)c2)oc2cc(O)cc(O)c12
REMARK SMILES IDX 5 1 3 2 2 3 1 4 23 5 21 6 20 7 18 8 17 9 16 10 15 11 6 12
REMARK SMILES IDX 7 13 8 14 14 15 10 16 12 17 9 18 11 20 13 22 4 24 22 26
REMARK SMILES IDX 19 28
REMARK H PARENT 9 19 11 21 13 23 4 25 22 27 19 29
REMARK Flexibility Score: inf
ROOT
ATOM      1  C   UNL     1       9.640  13.107  23.384  1.00  0.00     0.180 A 
ATOM      2  C   UNL     1       9.114  13.779  24.505  1.00  0.00     0.208 A 
ATOM      3  C   UNL     1       8.711  13.028  25.620  1.00  0.00     0.238 A 
ATOM      4  O   UNL     1       8.229  13.619  26.624  1.00  0.00    -0.285 OA
ATOM      5  C   UNL     1       8.857  11.626  25.606  1.00  0.00     0.111 A 
ATOM      6  C   UNL     1       8.480  10.798  26.689  1.00  0.00     0.134 A 
ATOM      7  C   UNL     1       8.666   9.410  26.601  1.00  0.00     0.093 A 
ATOM      8  C   UNL     1       9.222   8.836  25.456  1.00  0.00     0.123 A 
ATOM      9  C   UNL     1       9.597   9.650  24.382  1.00  0.00     0.094 A 
ATOM     10  C   UNL     1       9.418  11.035  24.449  1.00  0.00     0.146 A 
ATOM     11  O   UNL     1       9.777  11.784  23.413  1.00  0.00    -0.452 OA
ENDROOT
BRANCH   1  12
ATOM     12  C   UNL     1      10.070  13.826  22.165  1.00  0.00     0.029 A 
ATOM     13  C   UNL     1      10.363  13.100  21.001  1.00  0.00     0.062 A 
ATOM     14  C   UNL     1      10.752  13.758  19.826  1.00  0.00     0.162 A 
ATOM     15  C   UNL     1      10.135  15.230  22.129  1.00  0.00     0.062 A 
ATOM     16  C   UNL     1      10.835  15.162  19.805  1.00  0.00     0.200 A 
ATOM     17  C   UNL     1      10.520  15.897  20.961  1.00  0.00     0.162 A 
BRANCH  14  18
ATOM     18  O   UNL     1      11.054  13.023  18.681  1.00  0.00    -0.504 OA
ATOM     19  H   UNL     1      10.602  13.212  17.794  1.00  0.00     0.293 HD
ENDBRANCH  14  18
BRANCH  16  20
ATOM     20  O   UNL     1      11.223  15.833  18.645  1.00  0.00    -0.502 OA
ATOM     21  H   UNL     1      11.467  16.817  18.645  1.00  0.00     0.293 HD
ENDBRANCH  16  20
BRANCH  17  22
ATOM     22  O   UNL     1      10.579  17.289  20.967  1.00  0.00    -0.504 OA
ATOM     23  H   UNL     1       9.956  17.854  21.533  1.00  0.00     0.293 HD
ENDBRANCH  17  22
ENDBRANCH   1  12
BRANCH   2  24
ATOM     24  O   UNL     1       9.025  15.174  24.512  1.00  0.00    -0.502 OA
ATOM     25  H   UNL     1       8.351  15.678  23.948  1.00  0.00     0.293 HD
ENDBRANCH   2  24
BRANCH   6  26
ATOM     26  O   UNL     1       7.922  11.339  27.848  1.00  0.00    -0.507 OA
ATOM     27  H   UNL     1       8.371  12.095  28.353  1.00  0.00     0.293 HD
ENDBRANCH   6  26
BRANCH   8  28
ATOM     28  O   UNL     1       9.398   7.456  25.396  1.00  0.00    -0.508 OA
ATOM     29  H   UNL     1       8.659   6.816  25.667  1.00  0.00     0.293 HD
ENDBRANCH   8  28
TORSDOF 7
ENDMDL
MODEL 2
REMARK VINA RESULT:    -7.060      3.840      6.138
REMARK INTER + INTRA:          -8.288
REMARK INTER:                  -8.409
REMARK INTRA:                   0.121
REMARK UNBOUND:                 0.423
REMARK SMILES O=c1c(O)c(-c2cc(O)c(O)c(O)c2)oc2cc(O)cc(O)c12
REMARK SMILES IDX 5 1 3 2 2 3 1 4 23 5 21 6 20 7 18 8 17 9 16 10 15 11 6 12
REMARK SMILES IDX 7 13 8 14 14 15 10 16 12 17 9 18 11 20 13 22 4 24 22 26
REMARK SMILES IDX 19 28
REMARK H PARENT 9 19 11 21 13 23 4 25 22 27 19 29
REMARK Flexibility Score: inf
ROOT
ATOM      1  C   UNL     1       9.788  17.034  22.974  1.00  0.00     0.180 A 
ATOM      2  C   UNL     1       9.263  18.299  22.646  1.00  0.00     0.208 A 
ATOM      3  C   UNL     1       8.977  19.205  23.679  1.00  0.00     0.238 A 
ATOM      4  O   UNL     1       8.496  20.337  23.397  1.00  0.00    -0.285 OA
ATOM      5  C   UNL     1       9.238  18.843  25.016  1.00  0.00     0.111 A 
ATOM      6  C   UNL     1       8.983  19.698  26.114  1.00  0.00     0.134 A 
ATOM      7  C   UNL     1       9.280  19.266  27.416  1.00  0.00     0.093 A 
ATOM      8  C   UNL     1       9.826  18.000  27.639  1.00  0.00     0.123 A 
ATOM      9  C   UNL     1      10.080  17.151  26.558  1.00  0.00     0.094 A 
ATOM     10  C   UNL     1       9.789  17.561  25.254  1.00  0.00     0.146 A 
ATOM     11  O   UNL     1      10.036  16.733  24.246  1.00  0.00    -0.452 OA
ENDROOT
BRANCH   1  12
ATOM     12  C   UNL     1      10.097  16.019  21.943  1.00  0.00     0.029 A 
ATOM     13  C   UNL     1       9.755  14.678  22.170  1.00  0.00     0.062 A 
ATOM     14  C   UNL     1      10.018  13.699  21.201  1.00  0.00     0.162 A 
ATOM     15  C   UNL     1      10.676  16.378  20.714  1.00  0.00     0.062 A 
ATOM     16  C   UNL     1      10.616  14.064  19.981  1.00  0.00     0.200 A 
ATOM     17  C   UNL     1      10.940  15.410  19.739  1.00  0.00     0.162 A 
BRANCH  14  18
ATOM     18  O   UNL     1       9.686  12.368  21.445  1.00  0.00    -0.504 OA
ATOM     19  H   UNL     1       9.935  11.630  20.796  1.00  0.00     0.293 HD
ENDBRANCH  14  18
BRANCH  16  20
ATOM     20  O   UNL     1      10.888  13.102  19.008  1.00  0.00    -0.502 OA
ATOM     21  H   UNL     1      10.831  13.305  18.017  1.00  0.00     0.293 HD
ENDBRANCH  16  20
BRANCH  17  22
ATOM     22  O   UNL     1      11.521  15.805  18.535  1.00  0.00    -0.504 OA
ATOM     23  H   UNL     1      11.846  15.135  17.848  1.00  0.00     0.293 HD
ENDBRANCH  17  22
ENDBRANCH   1  12
BRANCH   2  24
ATOM     24  O   UNL     1       9.059  18.653  21.308  1.00  0.00    -0.502 OA
ATOM     25  H   UNL     1       9.414  18.096  20.540  1.00  0.00     0.293 HD
ENDBRANCH   2  24
BRANCH   6  26
ATOM     26  O   UNL     1       8.439  20.969  25.924  1.00  0.00    -0.507 OA
ATOM     27  H   UNL     1       8.254  21.592  26.702  1.00  0.00     0.293 HD
ENDBRANCH   6  26
BRANCH   8  28
ATOM     28  O   UNL     1      10.111  17.597  28.942  1.00  0.00    -0.508 OA
ATOM     29  H   UNL     1       9.458  17.038  29.479  1.00  0.00     0.293 HD
ENDBRANCH   8  28
TORSDOF 7
ENDMDL
MODEL 3
REMARK VINA RESULT:    -7.037      3.833      6.245
REMARK INTER + INTRA:          -8.260
REMARK INTER:                  -8.410
REMARK INTRA:                   0.150
REMARK UNBOUND:                 0.423
REMARK SMILES O=c1c(O)c(-c2cc(O)c(O)c(O)c2)oc2cc(O)cc(O)c12
REMARK SMILES IDX 5 1 3 2 2 3 1 4 23 5 21 6 20 7 18 8 17 9 16 10 15 11 6 12
REMARK SMILES IDX 7 13 8 14 14 15 10 16 12 17 9 18 11 20 13 22 4 24 22 26
REMARK SMILES IDX 19 28
REMARK H PARENT 9 19 11 21 13 23 4 25 22 27 19 29
REMARK Flexibility Score: inf
ROOT
ATOM      1  C   UNL     1       9.765  17.047  22.969  1.00  0.00     0.180 A 
ATOM      2  C   UNL     1       9.271  18.324  22.641  1.00  0.00     0.208 A 
ATOM      3  C   UNL     1       9.029  19.244  23.672  1.00  0.00     0.238 A 
ATOM      4  O   UNL     1       8.575  20.387  23.391  1.00  0.00    -0.285 OA
ATOM      5  C   UNL     1       9.303  18.883  25.007  1.00  0.00     0.111 A 
ATOM      6  C   UNL     1       9.092  19.752  26.104  1.00  0.00     0.134 A 
ATOM      7  C   UNL     1       9.398  19.320  27.403  1.00  0.00     0.093 A 
ATOM      8  C   UNL     1       9.912  18.041  27.626  1.00  0.00     0.123 A 
ATOM      9  C   UNL     1      10.123  17.178  26.547  1.00  0.00     0.094 A 
ATOM     10  C   UNL     1       9.822  17.588  25.244  1.00  0.00     0.146 A 
ATOM     11  O   UNL     1      10.027  16.747  24.238  1.00  0.00    -0.452 OA
ENDROOT
BRANCH   1  12
ATOM     12  C   UNL     1      10.028  16.016  21.940  1.00  0.00     0.029 A 
ATOM     13  C   UNL     1      10.623  16.389  20.725  1.00  0.00     0.062 A 
ATOM     14  C   UNL     1      10.903  15.430  19.742  1.00  0.00     0.162 A 
ATOM     15  C   UNL     1       9.749  14.660  22.175  1.00  0.00     0.062 A 
ATOM     16  C   UNL     1      10.600  14.077  19.977  1.00  0.00     0.200 A 
ATOM     17  C   UNL     1      10.026  13.694  21.202  1.00  0.00     0.162 A 
BRANCH  14  18
ATOM     18  O   UNL     1      11.481  15.816  18.534  1.00  0.00    -0.504 OA
ATOM     19  H   UNL     1      12.004  15.163  17.962  1.00  0.00     0.293 HD
ENDBRANCH  14  18
BRANCH  16  20
ATOM     20  O   UNL     1      10.869  13.109  19.009  1.00  0.00    -0.502 OA
ATOM     21  H   UNL     1      11.658  13.181  18.378  1.00  0.00     0.293 HD
ENDBRANCH  16  20
BRANCH  17  22
ATOM     22  O   UNL     1       9.727  12.359  21.470  1.00  0.00    -0.504 OA
ATOM     23  H   UNL     1       9.939  11.928  22.363  1.00  0.00     0.293 HD
ENDBRANCH  17  22
ENDBRANCH   1  12
BRANCH   2  24
ATOM     24  O   UNL     1       9.053  18.674  21.305  1.00  0.00    -0.502 OA
ATOM     25  H   UNL     1       8.577  18.061  20.654  1.00  0.00     0.293 HD
ENDBRANCH   2  24
BRANCH   6  26
ATOM     26  O   UNL     1       8.580  21.036  25.915  1.00  0.00    -0.507 OA
ATOM     27  H   UNL     1       9.178  21.855  25.917  1.00  0.00     0.293 HD
ENDBRANCH   6  26
BRANCH   8  28
ATOM     28  O   UNL     1      10.210  17.638  28.926  1.00  0.00    -0.508 OA
ATOM     29  H   UNL     1       9.780  18.083  29.730  1.00  0.00     0.293 HD
ENDBRANCH   8  28
TORSDOF 7
ENDMDL
MODEL 4
REMARK VINA RESULT:    -6.716      1.618      3.349
REMARK INTER + INTRA:          -7.863
REMARK INTER:                  -7.852
REMARK INTRA:                  -0.011
REMARK UNBOUND:                 0.423
REMARK SMILES O=c1c(O)c(-c2cc(O)c(O)c(O)c2)oc2cc(O)cc(O)c12
REMARK SMILES IDX 5 1 3 2 2 3 1 4 23 5 21 6 20 7 18 8 17 9 16 10 15 11 6 12
REMARK SMILES IDX 7 13 8 14 14 15 10 16 12 17 9 18 11 20 13 22 4 24 22 26
REMARK SMILES IDX 19 28
REMARK H PARENT 9 19 11 21 13 23 4 25 22 27 19 29
REMARK Flexibility Score: inf
ROOT
ATOM      1  C   UNL     1       9.678  13.110  23.936  1.00  0.00     0.180 A 
ATOM      2  C   UNL     1       9.950  11.856  23.355  1.00  0.00     0.208 A 
ATOM      3  C   UNL     1       9.770  10.697  24.126  1.00  0.00     0.238 A 
ATOM      4  O   UNL     1      10.021   9.569  23.620  1.00  0.00    -0.285 OA
ATOM      5  C   UNL     1       9.304  10.807  25.452  1.00  0.00     0.111 A 
ATOM      6  C   UNL     1       9.093   9.690  26.294  1.00  0.00     0.134 A 
ATOM      7  C   UNL     1       8.618   9.883  27.600  1.00  0.00     0.093 A 
ATOM      8  C   UNL     1       8.351  11.168  28.079  1.00  0.00     0.123 A 
ATOM      9  C   UNL     1       8.558  12.276  27.252  1.00  0.00     0.094 A 
ATOM     10  C   UNL     1       9.032  12.105  25.947  1.00  0.00     0.146 A 
ATOM     11  O   UNL     1       9.225  13.174  25.185  1.00  0.00    -0.452 OA
ENDROOT
BRANCH   1  12
ATOM     12  C   UNL     1       9.861  14.377  23.193  1.00  0.00     0.029 A 
ATOM     13  C   UNL     1      10.633  15.403  23.758  1.00  0.00     0.062 A 
ATOM     14  C   UNL     1      10.840  16.605  23.066  1.00  0.00     0.162 A 
ATOM     15  C   UNL     1       9.325  14.554  21.907  1.00  0.00     0.062 A 
ATOM     16  C   UNL     1      10.282  16.782  21.788  1.00  0.00     0.200 A 
ATOM     17  C   UNL     1       9.526  15.749  21.207  1.00  0.00     0.162 A 
BRANCH  14  18
ATOM     18  O   UNL     1      11.598  17.622  23.645  1.00  0.00    -0.504 OA
ATOM     19  H   UNL     1      11.775  17.651  24.642  1.00  0.00     0.293 HD
ENDBRANCH  14  18
BRANCH  16  20
ATOM     20  O   UNL     1      10.475  17.973  21.087  1.00  0.00    -0.502 OA
ATOM     21  H   UNL     1      11.339  18.500  21.143  1.00  0.00     0.293 HD
ENDBRANCH  16  20
BRANCH  17  22
ATOM     22  O   UNL     1       8.972  15.889  19.936  1.00  0.00    -0.504 OA
ATOM     23  H   UNL     1       7.974  15.830  19.773  1.00  0.00     0.293 HD
ENDBRANCH  17  22
ENDBRANCH   1  12
BRANCH   2  24
ATOM     24  O   UNL     1      10.364  11.770  22.022  1.00  0.00    -0.502 OA
ATOM     25  H   UNL     1      10.045  12.419  21.313  1.00  0.00     0.293 HD
ENDBRANCH   2  24
BRANCH   6  26
ATOM     26  O   UNL     1       9.349   8.394  25.846  1.00  0.00    -0.507 OA
ATOM     27  H   UNL     1      10.288   8.082  25.624  1.00  0.00     0.293 HD
ENDBRANCH   6  26
BRANCH   8  28
ATOM     28  O   UNL     1       7.879  11.331  29.379  1.00  0.00    -0.508 OA
ATOM     29  H   UNL     1       7.743  10.538  29.997  1.00  0.00     0.293 HD
ENDBRANCH   8  28
TORSDOF 7
ENDMDL
MODEL 5
REMARK VINA RESULT:    -6.690      1.794      7.304
REMARK INTER + INTRA:          -7.832
REMARK INTER:                  -7.728
REMARK INTRA:                  -0.104
REMARK UNBOUND:                 0.423
REMARK SMILES O=c1c(O)c(-c2cc(O)c(O)c(O)c2)oc2cc(O)cc(O)c12
REMARK SMILES IDX 5 1 3 2 2 3 1 4 23 5 21 6 20 7 18 8 17 9 16 10 15 11 6 12
REMARK SMILES IDX 7 13 8 14 14 15 10 16 12 17 9 18 11 20 13 22 4 24 22 26
REMARK SMILES IDX 19 28
REMARK H PARENT 9 19 11 21 13 23 4 25 22 27 19 29
REMARK Flexibility Score: inf
ROOT
ATOM      1  C   UNL     1       9.534  13.070  23.873  1.00  0.00     0.180 A 
ATOM      2  C   UNL     1      10.345  13.075  22.722  1.00  0.00     0.208 A 
ATOM      3  C   UNL     1      10.546  14.284  22.038  1.00  0.00     0.238 A 
ATOM      4  O   UNL     1      11.262  14.299  21.000  1.00  0.00    -0.285 OA
ATOM      5  C   UNL     1       9.953  15.467  22.524  1.00  0.00     0.111 A 
ATOM      6  C   UNL     1      10.109  16.726  21.897  1.00  0.00     0.134 A 
ATOM      7  C   UNL     1       9.492  17.859  22.449  1.00  0.00     0.093 A 
ATOM      8  C   UNL     1       8.726  17.759  23.613  1.00  0.00     0.123 A 
ATOM      9  C   UNL     1       8.568  16.517  24.237  1.00  0.00     0.094 A 
ATOM     10  C   UNL     1       9.173  15.376  23.701  1.00  0.00     0.146 A 
ATOM     11  O   UNL     1       9.003  14.209  24.311  1.00  0.00    -0.452 OA
ENDROOT
BRANCH   1  12
ATOM     12  C   UNL     1       9.260  11.833  24.638  1.00  0.00     0.029 A 
ATOM     13  C   UNL     1       9.472  11.817  26.024  1.00  0.00     0.062 A 
ATOM     14  C   UNL     1       9.200  10.665  26.775  1.00  0.00     0.162 A 
ATOM     15  C   UNL     1       8.736  10.689  24.013  1.00  0.00     0.062 A 
ATOM     16  C   UNL     1       8.696   9.517  26.139  1.00  0.00     0.200 A 
ATOM     17  C   UNL     1       8.460   9.534  24.754  1.00  0.00     0.162 A 
BRANCH  14  18
ATOM     18  O   UNL     1       9.429  10.658  28.150  1.00  0.00    -0.504 OA
ATOM     19  H   UNL     1       9.236  11.470  28.725  1.00  0.00     0.293 HD
ENDBRANCH  14  18
BRANCH  16  20
ATOM     20  O   UNL     1       8.423   8.360  26.871  1.00  0.00    -0.502 OA
ATOM     21  H   UNL     1       8.851   8.177  27.771  1.00  0.00     0.293 HD
ENDBRANCH  16  20
BRANCH  17  22
ATOM     22  O   UNL     1       7.948   8.417  24.097  1.00  0.00    -0.504 OA
ATOM     23  H   UNL     1       7.758   7.546  24.580  1.00  0.00     0.293 HD
ENDBRANCH  17  22
ENDBRANCH   1  12
BRANCH   2  24
ATOM     24  O   UNL     1      10.962  11.898  22.289  1.00  0.00    -0.502 OA
ATOM     25  H   UNL     1      10.437  11.116  21.917  1.00  0.00     0.293 HD
ENDBRANCH   2  24
BRANCH   6  26
ATOM     26  O   UNL     1      10.868  16.861  20.734  1.00  0.00    -0.507 OA
ATOM     27  H   UNL     1      11.157  16.056  20.190  1.00  0.00     0.293 HD
ENDBRANCH   6  26
BRANCH   8  28
ATOM     28  O   UNL     1       8.126  18.900  24.140  1.00  0.00    -0.508 OA
ATOM     29  H   UNL     1       7.498  19.472  23.586  1.00  0.00     0.293 HD
ENDBRANCH   8  28
TORSDOF 7
ENDMDL
MODEL 6
REMARK VINA RESULT:    -6.654      1.789      7.096
REMARK INTER + INTRA:          -7.787
REMARK INTER:                  -7.976
REMARK INTRA:                   0.190
REMARK UNBOUND:                 0.423
REMARK SMILES O=c1c(O)c(-c2cc(O)c(O)c(O)c2)oc2cc(O)cc(O)c12
REMARK SMILES IDX 5 1 3 2 2 3 1 4 23 5 21 6 20 7 18 8 17 9 16 10 15 11 6 12
REMARK SMILES IDX 7 13 8 14 14 15 10 16 12 17 9 18 11 20 13 22 4 24 22 26
REMARK SMILES IDX 19 28
REMARK H PARENT 9 19 11 21 13 23 4 25 22 27 19 29
REMARK Flexibility Score: inf
ROOT
ATOM      1  C   UNL     1       9.710  13.210  23.811  1.00  0.00     0.180 A 
ATOM      2  C   UNL     1      10.472  13.263  22.628  1.00  0.00     0.208 A 
ATOM      3  C   UNL     1      10.628  14.495  21.975  1.00  0.00     0.238 A 
ATOM      4  O   UNL     1      11.299  14.552  20.908  1.00  0.00    -0.285 OA
ATOM      5  C   UNL     1      10.039  15.654  22.522  1.00  0.00     0.111 A 
ATOM      6  C   UNL     1      10.152  16.934  21.929  1.00  0.00     0.134 A 
ATOM      7  C   UNL     1       9.544  18.040  22.541  1.00  0.00     0.093 A 
ATOM      8  C   UNL     1       8.829  17.892  23.732  1.00  0.00     0.123 A 
ATOM      9  C   UNL     1       8.715  16.630  24.323  1.00  0.00     0.094 A 
ATOM     10  C   UNL     1       9.311  15.514  23.727  1.00  0.00     0.146 A 
ATOM     11  O   UNL     1       9.182  14.327  24.306  1.00  0.00    -0.452 OA
ENDROOT
BRANCH   1  12
ATOM     12  C   UNL     1       9.485  11.946  24.547  1.00  0.00     0.029 A 
ATOM     13  C   UNL     1       9.327  10.750  23.832  1.00  0.00     0.062 A 
ATOM     14  C   UNL     1       9.134   9.535  24.505  1.00  0.00     0.162 A 
ATOM     15  C   UNL     1       9.486  11.908  25.952  1.00  0.00     0.062 A 
ATOM     16  C   UNL     1       9.115   9.509  25.911  1.00  0.00     0.200 A 
ATOM     17  C   UNL     1       9.297  10.701  26.633  1.00  0.00     0.162 A 
BRANCH  14  18
ATOM     18  O   UNL     1       8.963   8.356  23.783  1.00  0.00    -0.504 OA
ATOM     19  H   UNL     1       8.849   8.361  22.776  1.00  0.00     0.293 HD
ENDBRANCH  14  18
BRANCH  16  20
ATOM     20  O   UNL     1       8.921   8.309  26.597  1.00  0.00    -0.502 OA
ATOM     21  H   UNL     1       9.420   7.461  26.355  1.00  0.00     0.293 HD
ENDBRANCH  16  20
BRANCH  17  22
ATOM     22  O   UNL     1       9.297  10.705  28.027  1.00  0.00    -0.504 OA
ATOM     23  H   UNL     1       8.658  11.280  28.565  1.00  0.00     0.293 HD
ENDBRANCH  17  22
ENDBRANCH   1  12
BRANCH   2  24
ATOM     24  O   UNL     1      11.086  12.109  22.133  1.00  0.00    -0.502 OA
ATOM     25  H   UNL     1      11.111  11.890  21.144  1.00  0.00     0.293 HD
ENDBRANCH   2  24
BRANCH   6  26
ATOM     26  O   UNL     1      10.859  17.115  20.740  1.00  0.00    -0.507 OA
ATOM     27  H   UNL     1      11.867  17.011  20.697  1.00  0.00     0.293 HD
ENDBRANCH   6  26
BRANCH   8  28
ATOM     28  O   UNL     1       8.237  19.008  24.319  1.00  0.00    -0.508 OA
ATOM     29  H   UNL     1       8.166  19.891  23.827  1.00  0.00     0.293 HD
ENDBRANCH   8  28
TORSDOF 7
ENDMDL
MODEL 7
REMARK VINA RESULT:    -6.564      2.323      4.032
REMARK INTER + INTRA:          -7.677
REMARK INTER:                  -7.719
REMARK INTRA:                   0.043
REMARK UNBOUND:                 0.423
REMARK SMILES O=c1c(O)c(-c2cc(O)c(O)c(O)c2)oc2cc(O)cc(O)c12
REMARK SMILES IDX 5 1 3 2 2 3 1 4 23 5 21 6 20 7 18 8 17 9 16 10 15 11 6 12
REMARK SMILES IDX 7 13 8 14 14 15 10 16 12 17 9 18 11 20 13 22 4 24 22 26
REMARK SMILES IDX 19 28
REMARK H PARENT 9 19 11 21 13 23 4 25 22 27 19 29
REMARK Flexibility Score: inf
ROOT
ATOM      1  C   UNL     1       9.826  14.896  23.762  1.00  0.00     0.180 A 
ATOM      2  C   UNL     1      10.366  14.012  22.807  1.00  0.00     0.208 A 
ATOM      3  C   UNL     1      10.323  12.632  23.058  1.00  0.00     0.238 A 
ATOM      4  O   UNL     1      10.813  11.832  22.215  1.00  0.00    -0.285 OA
ATOM      5  C   UNL     1       9.726  12.157  24.244  1.00  0.00     0.111 A 
ATOM      6  C   UNL     1       9.638  10.783  24.571  1.00  0.00     0.134 A 
ATOM      7  C   UNL     1       9.020  10.391  25.768  1.00  0.00     0.093 A 
ATOM      8  C   UNL     1       8.489  11.343  26.641  1.00  0.00     0.123 A 
ATOM      9  C   UNL     1       8.573  12.702  26.324  1.00  0.00     0.094 A 
ATOM     10  C   UNL     1       9.187  13.114  25.137  1.00  0.00     0.146 A 
ATOM     11  O   UNL     1       9.257  14.411  24.863  1.00  0.00    -0.452 OA
ENDROOT
BRANCH   1  12
ATOM     12  C   UNL     1       9.850  16.364  23.578  1.00  0.00     0.029 A 
ATOM     13  C   UNL     1       9.423  16.914  22.360  1.00  0.00     0.062 A 
ATOM     14  C   UNL     1       9.415  18.303  22.167  1.00  0.00     0.162 A 
ATOM     15  C   UNL     1      10.237  17.225  24.619  1.00  0.00     0.062 A 
ATOM     16  C   UNL     1       9.823  19.157  23.207  1.00  0.00     0.200 A 
ATOM     17  C   UNL     1      10.231  18.612  24.437  1.00  0.00     0.162 A 
BRANCH  14  18
ATOM     18  O   UNL     1       9.001  18.836  20.947  1.00  0.00    -0.504 OA
ATOM     19  H   UNL     1       8.615  19.770  20.879  1.00  0.00     0.293 HD
ENDBRANCH  14  18
BRANCH  16  20
ATOM     20  O   UNL     1       9.825  20.541  23.030  1.00  0.00    -0.502 OA
ATOM     21  H   UNL     1       8.969  21.079  22.972  1.00  0.00     0.293 HD
ENDBRANCH  16  20
BRANCH  17  22
ATOM     22  O   UNL     1      10.628  19.433  25.491  1.00  0.00    -0.504 OA
ATOM     23  H   UNL     1      10.174  19.407  26.397  1.00  0.00     0.293 HD
ENDBRANCH  17  22
ENDBRANCH   1  12
BRANCH   2  24
ATOM     24  O   UNL     1      10.908  14.506  21.617  1.00  0.00    -0.502 OA
ATOM     25  H   UNL     1      11.173  15.477  21.503  1.00  0.00     0.293 HD
ENDBRANCH   2  24
BRANCH   6  26
ATOM     26  O   UNL     1      10.159   9.808  23.719  1.00  0.00    -0.507 OA
ATOM     27  H   UNL     1       9.798   8.860  23.710  1.00  0.00     0.293 HD
ENDBRANCH   6  26
BRANCH   8  28
ATOM     28  O   UNL     1       7.880  10.925  27.822  1.00  0.00    -0.508 OA
ATOM     29  H   UNL     1       7.978   9.975  28.162  1.00  0.00     0.293 HD
ENDBRANCH   8  28
TORSDOF 7
ENDMDL
MODEL 8
REMARK VINA RESULT:    -6.543      1.170      6.726
REMARK INTER + INTRA:          -7.651
REMARK INTER:                  -8.010
REMARK INTRA:                   0.360
REMARK UNBOUND:                 0.423
REMARK SMILES O=c1c(O)c(-c2cc(O)c(O)c(O)c2)oc2cc(O)cc(O)c12
REMARK SMILES IDX 5 1 3 2 2 3 1 4 23 5 21 6 20 7 18 8 17 9 16 10 15 11 6 12
REMARK SMILES IDX 7 13 8 14 14 15 10 16 12 17 9 18 11 20 13 22 4 24 22 26
REMARK SMILES IDX 19 28
REMARK H PARENT 9 19 11 21 13 23 4 25 22 27 19 29
REMARK Flexibility Score: inf
ROOT
ATOM      1  C   UNL     1       9.614  13.209  24.080  1.00  0.00     0.180 A 
ATOM      2  C   UNL     1       9.449  14.416  24.786  1.00  0.00     0.208 A 
ATOM      3  C   UNL     1       9.703  15.629  24.127  1.00  0.00     0.238 A 
ATOM      4  O   UNL     1       9.569  16.715  24.753  1.00  0.00    -0.285 OA
ATOM      5  C   UNL     1      10.095  15.618  22.773  1.00  0.00     0.111 A 
ATOM      6  C   UNL     1      10.366  16.795  22.035  1.00  0.00     0.134 A 
ATOM      7  C   UNL     1      10.743  16.699  20.687  1.00  0.00     0.093 A 
ATOM      8  C   UNL     1      10.853  15.454  20.064  1.00  0.00     0.123 A 
ATOM      9  C   UNL     1      10.587  14.288  20.788  1.00  0.00     0.094 A 
ATOM     10  C   UNL     1      10.212  14.361  22.133  1.00  0.00     0.146 A 
ATOM     11  O   UNL     1       9.970  13.238  22.798  1.00  0.00    -0.452 OA
ENDROOT
BRANCH   1  12
ATOM     12  C   UNL     1       9.383  11.890  24.710  1.00  0.00     0.029 A 
ATOM     13  C   UNL     1       9.285  10.747  23.904  1.00  0.00     0.062 A 
ATOM     14  C   UNL     1       9.088   9.482  24.477  1.00  0.00     0.162 A 
ATOM     15  C   UNL     1       9.318  11.749  26.107  1.00  0.00     0.062 A 
ATOM     16  C   UNL     1       9.003   9.352  25.875  1.00  0.00     0.200 A 
ATOM     17  C   UNL     1       9.124  10.492  26.689  1.00  0.00     0.162 A 
BRANCH  14  18
ATOM     18  O   UNL     1       8.979   8.356  23.663  1.00  0.00    -0.504 OA
ATOM     19  H   UNL     1       8.138   7.790  23.649  1.00  0.00     0.293 HD
ENDBRANCH  14  18
BRANCH  16  20
ATOM     20  O   UNL     1       8.804   8.103  26.461  1.00  0.00    -0.502 OA
ATOM     21  H   UNL     1       9.562   7.572  26.874  1.00  0.00     0.293 HD
ENDBRANCH  16  20
BRANCH  17  22
ATOM     22  O   UNL     1       9.057  10.394  28.078  1.00  0.00    -0.504 OA
ATOM     23  H   UNL     1       9.888  10.372  28.658  1.00  0.00     0.293 HD
ENDBRANCH  17  22
ENDBRANCH   1  12
BRANCH   2  24
ATOM     24  O   UNL     1       9.012  14.402  26.114  1.00  0.00    -0.502 OA
ATOM     25  H   UNL     1       9.531  14.848  26.861  1.00  0.00     0.293 HD
ENDBRANCH   2  24
BRANCH   6  26
ATOM     26  O   UNL     1      10.264  18.054  22.628  1.00  0.00    -0.507 OA
ATOM     27  H   UNL     1      10.669  18.250  23.536  1.00  0.00     0.293 HD
ENDBRANCH   6  26
BRANCH   8  28
ATOM     28  O   UNL     1      11.228  15.389  18.724  1.00  0.00    -0.508 OA
ATOM     29  H   UNL     1      12.200  15.297  18.450  1.00  0.00     0.293 HD
ENDBRANCH   8  28
TORSDOF 7
ENDMDL
MODEL 9
REMARK VINA RESULT:    -6.327      3.395      6.877
REMARK INTER + INTRA:          -7.384
REMARK INTER:                  -7.245
REMARK INTRA:                  -0.138
REMARK UNBOUND:                 0.423
REMARK SMILES O=c1c(O)c(-c2cc(O)c(O)c(O)c2)oc2cc(O)cc(O)c12
REMARK SMILES IDX 5 1 3 2 2 3 1 4 23 5 21 6 20 7 18 8 17 9 16 10 15 11 6 12
REMARK SMILES IDX 7 13 8 14 14 15 10 16 12 17 9 18 11 20 13 22 4 24 22 26
REMARK SMILES IDX 19 28
REMARK H PARENT 9 19 11 21 13 23 4 25 22 27 19 29
REMARK Flexibility Score: inf
ROOT
ATOM      1  C   UNL     1       9.635  16.222  24.075  1.00  0.00     0.180 A 
ATOM      2  C   UNL     1       9.249  14.883  24.279  1.00  0.00     0.208 A 
ATOM      3  C   UNL     1       9.368  13.972  23.219  1.00  0.00     0.238 A 
ATOM      4  O   UNL     1       9.016  12.772  23.387  1.00  0.00    -0.285 OA
ATOM      5  C   UNL     1       9.888  14.406  21.982  1.00  0.00     0.111 A 
ATOM      6  C   UNL     1      10.044  13.551  20.865  1.00  0.00     0.134 A 
ATOM      7  C   UNL     1      10.578  14.059  19.670  1.00  0.00     0.093 A 
ATOM      8  C   UNL     1      10.958  15.399  19.572  1.00  0.00     0.123 A 
ATOM      9  C   UNL     1      10.806  16.248  20.672  1.00  0.00     0.094 A 
ATOM     10  C   UNL     1      10.274  15.763  21.871  1.00  0.00     0.146 A 
ATOM     11  O   UNL     1      10.135  16.592  22.899  1.00  0.00    -0.452 OA
ENDROOT
BRANCH   1  12
ATOM     12  C   UNL     1       9.523  17.244  25.138  1.00  0.00     0.029 A 
ATOM     13  C   UNL     1      10.254  17.090  26.325  1.00  0.00     0.062 A 
ATOM     14  C   UNL     1      10.182  18.055  27.340  1.00  0.00     0.162 A 
ATOM     15  C   UNL     1       8.743  18.400  24.962  1.00  0.00     0.062 A 
ATOM     16  C   UNL     1       9.383  19.198  27.164  1.00  0.00     0.200 A 
ATOM     17  C   UNL     1       8.666  19.370  25.967  1.00  0.00     0.162 A 
BRANCH  14  18
ATOM     18  O   UNL     1      10.903  17.882  28.520  1.00  0.00    -0.504 OA
ATOM     19  H   UNL     1      11.313  16.989  28.767  1.00  0.00     0.293 HD
ENDBRANCH  14  18
BRANCH  16  20
ATOM     20  O   UNL     1       9.297  20.167  28.164  1.00  0.00    -0.502 OA
ATOM     21  H   UNL     1       8.510  20.799  28.238  1.00  0.00     0.293 HD
ENDBRANCH  16  20
BRANCH  17  22
ATOM     22  O   UNL     1       7.875  20.499  25.757  1.00  0.00    -0.504 OA
ATOM     23  H   UNL     1       8.274  21.424  25.651  1.00  0.00     0.293 HD
ENDBRANCH  17  22
ENDBRANCH   1  12
BRANCH   2  24
ATOM     24  O   UNL     1       8.783  14.466  25.530  1.00  0.00    -0.502 OA
ATOM     25  H   UNL     1       8.038  13.788  25.633  1.00  0.00     0.293 HD
ENDBRANCH   2  24
BRANCH   6  26
ATOM     26  O   UNL     1       9.675  12.208  20.930  1.00  0.00    -0.507 OA
ATOM     27  H   UNL     1      10.291  11.503  21.320  1.00  0.00     0.293 HD
ENDBRANCH   6  26
BRANCH   8  28
ATOM     28  O   UNL     1      11.486  15.876  18.375  1.00  0.00    -0.508 OA
ATOM     29  H   UNL     1      10.897  16.304  17.669  1.00  0.00     0.293 HD
ENDBRANCH   8  28
TORSDOF 7
ENDMDL
