MODEL 1
REMARK VINA RESULT:    -3.469      0.000      0.000
REMARK INTER + INTRA:          -4.182
REMARK INTER:                  -4.179
REMARK INTRA:                  -0.003
REMARK UNBOUND:                -0.003
REMARK SMILES OCC(O)CO
REMARK SMILES IDX 3 1 5 2 6 3 2 5 1 6 4 8
REMARK H PARENT 6 4 1 7 4 9
REMARK Flexibility Score: inf
ROOT
ATOM      1  C   UNL     1     119.109 130.377 133.180  1.00  0.00     0.165 C 
ENDROOT
BRANCH   1   2
ATOM      2  C   UNL     1     118.758 130.487 131.685  1.00  0.00     0.190 C 
BRANCH   2   3
ATOM      3  O   UNL     1     118.970 131.793 131.221  1.00  0.00    -0.394 OA
ATOM      4  H   UNL     1     119.901 131.831 130.880  1.00  0.00     0.210 HD
ENDBRANCH   2   3
ENDBRANCH   1   2
BRANCH   1   5
ATOM      5  C   UNL     1     118.120 129.497 133.963  1.00  0.00     0.190 C 
BRANCH   5   6
ATOM      6  O   UNL     1     118.805 128.588 134.781  1.00  0.00    -0.394 OA
ATOM      7  H   UNL     1     119.315 129.134 135.434  1.00  0.00     0.210 HD
ENDBRANCH   5   6
ENDBRANCH   1   5
BRANCH   1   8
ATOM      8  O   UNL     1     120.425 129.909 133.347  1.00  0.00    -0.388 OA
ATOM      9  H   UNL     1     120.593 129.820 134.321  1.00  0.00     0.211 HD
ENDBRANCH   1   8
TORSDOF 5
ENDMDL
MODEL 2
REMARK VINA RESULT:    -3.396     15.394     16.043
REMARK INTER + INTRA:          -4.093
REMARK INTER:                  -3.899
REMARK INTRA:                  -0.194
REMARK UNBOUND:                -0.003
REMARK SMILES OCC(O)CO
REMARK SMILES IDX 3 1 5 2 6 3 2 5 1 6 4 8
REMARK H PARENT 6 4 1 7 4 9
REMARK Flexibility Score: inf
ROOT
ATOM      1  C   UNL     1     135.225 134.472 132.464  1.00  0.00     0.165 C 
ENDROOT
BRANCH   1   2
ATOM      2  C   UNL     1     134.694 135.628 131.596  1.00  0.00     0.190 C 
BRANCH   2   3
ATOM      3  O   UNL     1     133.442 136.059 132.057  1.00  0.00    -0.394 OA
ATOM      4  H   UNL     1     133.372 135.780 133.007  1.00  0.00     0.210 HD
ENDBRANCH   2   3
ENDBRANCH   1   2
BRANCH   1   5
ATOM      5  C   UNL     1     134.295 134.135 133.642  1.00  0.00     0.190 C 
BRANCH   5   6
ATOM      6  O   UNL     1     133.344 133.177 133.265  1.00  0.00    -0.394 OA
ATOM      7  H   UNL     1     133.022 133.447 132.366  1.00  0.00     0.210 HD
ENDBRANCH   5   6
ENDBRANCH   1   5
BRANCH   1   8
ATOM      8  O   UNL     1     135.459 133.329 131.677  1.00  0.00    -0.388 OA
ATOM      9  H   UNL     1     136.258 133.509 131.116  1.00  0.00     0.211 HD
ENDBRANCH   1   8
TORSDOF 5
ENDMDL
MODEL 3
REMARK VINA RESULT:    -3.395     15.590     16.115
REMARK INTER + INTRA:          -4.092
REMARK INTER:                  -4.087
REMARK INTRA:                  -0.005
REMARK UNBOUND:                -0.003
REMARK SMILES OCC(O)CO
REMARK SMILES IDX 3 1 5 2 6 3 2 5 1 6 4 8
REMARK H PARENT 6 4 1 7 4 9
REMARK Flexibility Score: inf
ROOT
ATOM      1  C   UNL     1     130.023 118.951 133.338  1.00  0.00     0.165 C 
ENDROOT
BRANCH   1   2
ATOM      2  C   UNL     1     130.098 118.418 131.895  1.00  0.00     0.190 C 
BRANCH   2   3
ATOM      3  O   UNL     1     128.812 118.186 131.384  1.00  0.00    -0.394 OA
ATOM      4  H   UNL     1     128.809 117.261 131.022  1.00  0.00     0.210 HD
ENDBRANCH   2   3
ENDBRANCH   1   2
BRANCH   1   5
ATOM      5  C   UNL     1     131.311 118.694 134.137  1.00  0.00     0.190 C 
BRANCH   5   6
ATOM      6  O   UNL     1     132.439 118.820 133.314  1.00  0.00    -0.394 OA
ATOM      7  H   UNL     1     133.207 118.487 133.846  1.00  0.00     0.210 HD
ENDBRANCH   5   6
ENDBRANCH   1   5
BRANCH   1   8
ATOM      8  O   UNL     1     129.702 120.320 133.344  1.00  0.00    -0.388 OA
ATOM      9  H   UNL     1     129.945 120.691 132.455  1.00  0.00     0.211 HD
ENDBRANCH   1   8
TORSDOF 5
ENDMDL
MODEL 4
REMARK VINA RESULT:    -3.394     15.334     15.961
REMARK INTER + INTRA:          -4.092
REMARK INTER:                  -4.087
REMARK INTRA:                  -0.004
REMARK UNBOUND:                -0.003
REMARK SMILES OCC(O)CO
REMARK SMILES IDX 3 1 5 2 6 3 2 5 1 6 4 8
REMARK H PARENT 6 4 1 7 4 9
REMARK Flexibility Score: inf
ROOT
ATOM      1  C   UNL     1     134.349 134.119 133.414  1.00  0.00     0.165 C 
ENDROOT
BRANCH   1   2
ATOM      2  C   UNL     1     134.862 134.390 131.988  1.00  0.00     0.190 C 
BRANCH   2   3
ATOM      3  O   UNL     1     135.532 133.268 131.480  1.00  0.00    -0.394 OA
ATOM      4  H   UNL     1     136.200 133.603 130.826  1.00  0.00     0.210 HD
ENDBRANCH   2   3
ENDBRANCH   1   2
BRANCH   1   5
ATOM      5  C   UNL     1     133.951 135.404 134.160  1.00  0.00     0.190 C 
BRANCH   5   6
ATOM      6  O   UNL     1     133.240 136.267 133.316  1.00  0.00    -0.394 OA
ATOM      7  H   UNL     1     132.841 135.696 132.609  1.00  0.00     0.210 HD
ENDBRANCH   5   6
ENDBRANCH   1   5
BRANCH   1   8
ATOM      8  O   UNL     1     133.277 133.209 133.390  1.00  0.00    -0.388 OA
ATOM      9  H   UNL     1     133.382 132.599 134.166  1.00  0.00     0.211 HD
ENDBRANCH   1   8
TORSDOF 5
ENDMDL
MODEL 5
REMARK VINA RESULT:    -3.374     16.105     16.706
REMARK INTER + INTRA:          -4.067
REMARK INTER:                  -3.851
REMARK INTRA:                  -0.217
REMARK UNBOUND:                -0.003
REMARK SMILES OCC(O)CO
REMARK SMILES IDX 3 1 5 2 6 3 2 5 1 6 4 8
REMARK H PARENT 6 4 1 7 4 9
REMARK Flexibility Score: inf
ROOT
ATOM      1  C   UNL     1     131.498 118.228 132.832  1.00  0.00     0.165 C 
ENDROOT
BRANCH   1   2
ATOM      2  C   UNL     1     131.291 118.317 134.354  1.00  0.00     0.190 C 
BRANCH   2   3
ATOM      3  O   UNL     1     131.543 119.618 134.814  1.00  0.00    -0.394 OA
ATOM      4  H   UNL     1     131.055 120.237 134.210  1.00  0.00     0.210 HD
ENDBRANCH   2   3
ENDBRANCH   1   2
BRANCH   1   5
ATOM      5  C   UNL     1     130.298 118.764 132.034  1.00  0.00     0.190 C 
BRANCH   5   6
ATOM      6  O   UNL     1     129.251 119.124 132.893  1.00  0.00    -0.394 OA
ATOM      7  H   UNL     1     128.451 118.630 132.576  1.00  0.00     0.210 HD
ENDBRANCH   5   6
ENDBRANCH   1   5
BRANCH   1   8
ATOM      8  O   UNL     1     132.679 118.892 132.453  1.00  0.00    -0.388 OA
ATOM      9  H   UNL     1     132.420 119.760 132.046  1.00  0.00     0.211 HD
ENDBRANCH   1   8
TORSDOF 5
ENDMDL
MODEL 6
REMARK VINA RESULT:    -3.354     15.622     15.907
REMARK INTER + INTRA:          -4.043
REMARK INTER:                  -3.824
REMARK INTRA:                  -0.219
REMARK UNBOUND:                -0.003
REMARK SMILES OCC(O)CO
REMARK SMILES IDX 3 1 5 2 6 3 2 5 1 6 4 8
REMARK H PARENT 6 4 1 7 4 9
REMARK Flexibility Score: inf
ROOT
ATOM      1  C   UNL     1     134.325 135.605 132.747  1.00  0.00     0.165 C 
ENDROOT
BRANCH   1   2
ATOM      2  C   UNL     1     134.267 135.629 134.285  1.00  0.00     0.190 C 
BRANCH   2   3
ATOM      3  O   UNL     1     133.014 135.194 134.741  1.00  0.00    -0.394 OA
ATOM      4  H   UNL     1     132.357 135.896 134.491  1.00  0.00     0.210 HD
ENDBRANCH   2   3
ENDBRANCH   1   2
BRANCH   1   5
ATOM      5  C   UNL     1     134.516 134.190 132.178  1.00  0.00     0.190 C 
BRANCH   5   6
ATOM      6  O   UNL     1     134.379 133.227 133.187  1.00  0.00    -0.394 OA
ATOM      7  H   UNL     1     133.405 133.145 133.359  1.00  0.00     0.210 HD
ENDBRANCH   5   6
ENDBRANCH   1   5
BRANCH   1   8
ATOM      8  O   UNL     1     133.177 136.207 132.199  1.00  0.00    -0.388 OA
ATOM      9  H   UNL     1     132.421 136.036 132.821  1.00  0.00     0.211 HD
ENDBRANCH   1   8
TORSDOF 5
ENDMDL
MODEL 7
REMARK VINA RESULT:    -3.316     15.658     16.367
REMARK INTER + INTRA:          -3.997
REMARK INTER:                  -3.773
REMARK INTRA:                  -0.224
REMARK UNBOUND:                -0.003
REMARK SMILES OCC(O)CO
REMARK SMILES IDX 3 1 5 2 6 3 2 5 1 6 4 8
REMARK H PARENT 6 4 1 7 4 9
REMARK Flexibility Score: inf
ROOT
ATOM      1  C   UNL     1     134.363 135.311 132.325  1.00  0.00     0.165 C 
ENDROOT
BRANCH   1   2
ATOM      2  C   UNL     1     135.384 134.897 131.250  1.00  0.00     0.190 C 
BRANCH   2   3
ATOM      3  O   UNL     1     135.680 133.529 131.348  1.00  0.00    -0.394 OA
ATOM      4  H   UNL     1     135.643 133.295 132.312  1.00  0.00     0.210 HD
ENDBRANCH   2   3
ENDBRANCH   1   2
BRANCH   1   5
ATOM      5  C   UNL     1     134.309 134.330 133.508  1.00  0.00     0.190 C 
BRANCH   5   6
ATOM      6  O   UNL     1     133.446 133.262 133.227  1.00  0.00    -0.394 OA
ATOM      7  H   UNL     1     132.879 133.556 132.468  1.00  0.00     0.210 HD
ENDBRANCH   5   6
ENDBRANCH   1   5
BRANCH   1   8
ATOM      8  O   UNL     1     134.624 136.617 132.778  1.00  0.00    -0.388 OA
ATOM      9  H   UNL     1     135.591 136.673 132.996  1.00  0.00     0.211 HD
ENDBRANCH   1   8
TORSDOF 5
ENDMDL
MODEL 8
REMARK VINA RESULT:    -3.308     15.441     16.300
REMARK INTER + INTRA:          -3.988
REMARK INTER:                  -3.775
REMARK INTRA:                  -0.213
REMARK UNBOUND:                -0.003
REMARK SMILES OCC(O)CO
REMARK SMILES IDX 3 1 5 2 6 3 2 5 1 6 4 8
REMARK H PARENT 6 4 1 7 4 9
REMARK Flexibility Score: inf
ROOT
ATOM      1  C   UNL     1     134.518 135.513 132.777  1.00  0.00     0.165 C 
ENDROOT
BRANCH   1   2
ATOM      2  C   UNL     1     134.274 134.389 133.800  1.00  0.00     0.190 C 
BRANCH   2   3
ATOM      3  O   UNL     1     133.459 133.388 133.252  1.00  0.00    -0.394 OA
ATOM      4  H   UNL     1     132.604 133.404 133.757  1.00  0.00     0.210 HD
ENDBRANCH   2   3
ENDBRANCH   1   2
BRANCH   1   5
ATOM      5  C   UNL     1     135.025 134.988 131.423  1.00  0.00     0.190 C 
BRANCH   5   6
ATOM      6  O   UNL     1     135.695 133.768 131.584  1.00  0.00    -0.394 OA
ATOM      7  H   UNL     1     135.172 133.251 132.250  1.00  0.00     0.210 HD
ENDBRANCH   5   6
ENDBRANCH   1   5
BRANCH   1   8
ATOM      8  O   UNL     1     133.355 136.285 132.604  1.00  0.00    -0.388 OA
ATOM      9  H   UNL     1     132.761 135.797 131.976  1.00  0.00     0.211 HD
ENDBRANCH   1   8
TORSDOF 5
ENDMDL
MODEL 9
REMARK VINA RESULT:    -3.264     16.084     16.897
REMARK INTER + INTRA:          -3.935
REMARK INTER:                  -3.716
REMARK INTRA:                  -0.219
REMARK UNBOUND:                -0.003
REMARK SMILES OCC(O)CO
REMARK SMILES IDX 3 1 5 2 6 3 2 5 1 6 4 8
REMARK H PARENT 6 4 1 7 4 9
REMARK Flexibility Score: inf
ROOT
ATOM      1  C   UNL     1     134.844 134.523 131.695  1.00  0.00     0.165 C 
ENDROOT
BRANCH   1   2
ATOM      2  C   UNL     1     134.350 135.237 132.966  1.00  0.00     0.190 C 
BRANCH   2   3
ATOM      3  O   UNL     1     133.480 136.288 132.638  1.00  0.00    -0.394 OA
ATOM      4  H   UNL     1     133.333 136.810 133.469  1.00  0.00     0.210 HD
ENDBRANCH   2   3
ENDBRANCH   1   2
BRANCH   1   5
ATOM      5  C   UNL     1     135.858 135.358 130.896  1.00  0.00     0.190 C 
BRANCH   5   6
ATOM      6  O   UNL     1     135.210 136.374 130.181  1.00  0.00    -0.394 OA
ATOM      7  H   UNL     1     134.421 135.952 129.754  1.00  0.00     0.210 HD
ENDBRANCH   5   6
ENDBRANCH   1   5
BRANCH   1   8
ATOM      8  O   UNL     1     135.383 133.263 132.014  1.00  0.00    -0.388 OA
ATOM      9  H   UNL     1     134.650 132.707 132.388  1.00  0.00     0.211 HD
ENDBRANCH   1   8
TORSDOF 5
ENDMDL
