MODEL 1
REMARK VINA RESULT:    -4.040      0.000      0.000
REMARK INTER + INTRA:          -5.678
REMARK INTER:                  -5.221
REMARK INTRA:                  -0.457
REMARK UNBOUND:                -0.457
REMARK SMILES C=CC(=O)CCCCC
REMARK SMILES IDX 6 1 7 2 8 3 9 4 5 5 3 6 4 7 2 8 1 9
REMARK H PARENT
REMARK Flexibility Score: inf
ROOT
ATOM      1  C   UNL     1       4.164   5.366  11.580  1.00  0.00     0.008 C 
ENDROOT
BRANCH   1   2
ATOM      2  C   UNL     1       3.416   4.921  10.319  1.00  0.00     0.000 C 
BRANCH   2   3
ATOM      3  C   UNL     1       2.001   5.507  10.282  1.00  0.00    -0.003 C 
ATOM      4  C   UNL     1       1.039   4.677  11.129  1.00  0.00     0.004 C 
ENDBRANCH   2   3
ENDBRANCH   1   2
BRANCH   1   5
ATOM      5  C   UNL     1       4.992   4.216  12.164  1.00  0.00     0.080 C 
BRANCH   5   6
ATOM      6  C   UNL     1       4.096   3.148  12.718  1.00  0.00     0.155 C 
ATOM      7  O   UNL     1       4.071   2.016  12.164  1.00  0.00    -0.295 OA
BRANCH   6   8
ATOM      8  C   UNL     1       3.222   3.442  13.870  1.00  0.00     0.039 C 
ATOM      9  C   UNL     1       3.705   3.718  15.081  1.00  0.00     0.012 C 
ENDBRANCH   6   8
ENDBRANCH   5   6
ENDBRANCH   1   5
TORSDOF 5
ENDMDL
MODEL 2
REMARK VINA RESULT:    -3.920      1.211      1.541
REMARK INTER + INTRA:          -5.523
REMARK INTER:                  -5.221
REMARK INTRA:                  -0.302
REMARK UNBOUND:                -0.457
REMARK SMILES C=CC(=O)CCCCC
REMARK SMILES IDX 6 1 7 2 8 3 9 4 5 5 3 6 4 7 2 8 1 9
REMARK H PARENT
REMARK Flexibility Score: inf
ROOT
ATOM      1  C   UNL     1       4.835   4.469  12.145  1.00  0.00     0.008 C 
ENDROOT
BRANCH   1   2
ATOM      2  C   UNL     1       4.103   5.581  11.385  1.00  0.00     0.000 C 
BRANCH   2   3
ATOM      3  C   UNL     1       3.196   4.998  10.296  1.00  0.00    -0.003 C 
ATOM      4  C   UNL     1       2.516   6.105   9.495  1.00  0.00     0.004 C 
ENDBRANCH   2   3
ENDBRANCH   1   2
BRANCH   1   5
ATOM      5  C   UNL     1       4.101   3.131  12.004  1.00  0.00     0.080 C 
BRANCH   5   6
ATOM      6  C   UNL     1       3.364   2.797  13.267  1.00  0.00     0.155 C 
ATOM      7  O   UNL     1       2.188   2.346  13.194  1.00  0.00    -0.295 OA
BRANCH   6   8
ATOM      8  C   UNL     1       3.996   3.041  14.577  1.00  0.00     0.039 C 
ATOM      9  C   UNL     1       3.448   3.829  15.500  1.00  0.00     0.012 C 
ENDBRANCH   6   8
ENDBRANCH   5   6
ENDBRANCH   1   5
TORSDOF 5
ENDMDL
MODEL 3
REMARK VINA RESULT:    -3.888      1.733      4.449
REMARK INTER + INTRA:          -5.482
REMARK INTER:                  -5.281
REMARK INTRA:                  -0.201
REMARK UNBOUND:                -0.457
REMARK SMILES C=CC(=O)CCCCC
REMARK SMILES IDX 6 1 7 2 8 3 9 4 5 5 3 6 4 7 2 8 1 9
REMARK H PARENT
REMARK Flexibility Score: inf
ROOT
ATOM      1  C   UNL     1       3.236   3.922  13.545  1.00  0.00     0.008 C 
ENDROOT
BRANCH   1   2
ATOM      2  C   UNL     1       3.882   3.651  14.909  1.00  0.00     0.000 C 
BRANCH   2   3
ATOM      3  C   UNL     1       3.449   2.288  15.461  1.00  0.00    -0.003 C 
ATOM      4  C   UNL     1       4.501   1.219  15.178  1.00  0.00     0.004 C 
ENDBRANCH   2   3
ENDBRANCH   1   2
BRANCH   1   5
ATOM      5  C   UNL     1       4.243   3.716  12.408  1.00  0.00     0.080 C 
BRANCH   5   6
ATOM      6  C   UNL     1       4.269   4.913  11.504  1.00  0.00     0.155 C 
ATOM      7  O   UNL     1       4.990   5.902  11.810  1.00  0.00    -0.295 OA
BRANCH   6   8
ATOM      8  C   UNL     1       3.422   4.945  10.297  1.00  0.00     0.039 C 
ATOM      9  C   UNL     1       2.657   5.991   9.988  1.00  0.00     0.012 C 
ENDBRANCH   6   8
ENDBRANCH   5   6
ENDBRANCH   1   5
TORSDOF 5
ENDMDL
MODEL 4
REMARK VINA RESULT:    -3.855      1.848      3.923
REMARK INTER + INTRA:          -5.438
REMARK INTER:                  -5.020
REMARK INTRA:                  -0.418
REMARK UNBOUND:                -0.457
REMARK SMILES C=CC(=O)CCCCC
REMARK SMILES IDX 6 1 7 2 8 3 9 4 5 5 3 6 4 7 2 8 1 9
REMARK H PARENT
REMARK Flexibility Score: inf
ROOT
ATOM      1  C   UNL     1       4.382   4.880  11.971  1.00  0.00     0.008 C 
ENDROOT
BRANCH   1   2
ATOM      2  C   UNL     1       4.333   3.669  12.908  1.00  0.00     0.000 C 
BRANCH   2   3
ATOM      3  C   UNL     1       3.147   3.769  13.874  1.00  0.00    -0.003 C 
ATOM      4  C   UNL     1       3.621   3.790  15.326  1.00  0.00     0.004 C 
ENDBRANCH   2   3
ENDBRANCH   1   2
BRANCH   1   5
ATOM      5  C   UNL     1       3.721   4.563  10.625  1.00  0.00     0.080 C 
BRANCH   5   6
ATOM      6  C   UNL     1       2.480   5.385  10.440  1.00  0.00     0.155 C 
ATOM      7  O   UNL     1       2.576   6.552   9.971  1.00  0.00    -0.295 OA
BRANCH   6   8
ATOM      8  C   UNL     1       1.169   4.844  10.847  1.00  0.00     0.039 C 
ATOM      9  C   UNL     1       0.868   3.550  10.751  1.00  0.00     0.012 C 
ENDBRANCH   6   8
ENDBRANCH   5   6
ENDBRANCH   1   5
TORSDOF 5
ENDMDL
MODEL 5
REMARK VINA RESULT:    -3.801     16.248     17.457
REMARK INTER + INTRA:          -5.370
REMARK INTER:                  -4.785
REMARK INTRA:                  -0.585
REMARK UNBOUND:                -0.457
REMARK SMILES C=CC(=O)CCCCC
REMARK SMILES IDX 6 1 7 2 8 3 9 4 5 5 3 6 4 7 2 8 1 9
REMARK H PARENT
REMARK Flexibility Score: inf
ROOT
ATOM      1  C   UNL     1      -8.789  -8.286  14.737  1.00  0.00     0.008 C 
ENDROOT
BRANCH   1   2
ATOM      2  C   UNL     1      -8.655  -9.651  14.053  1.00  0.00     0.000 C 
BRANCH   2   3
ATOM      3  C   UNL     1      -9.877  -9.949  13.177  1.00  0.00    -0.003 C 
ATOM      4  C   UNL     1     -11.063  -9.071  13.569  1.00  0.00     0.004 C 
ENDBRANCH   2   3
ENDBRANCH   1   2
BRANCH   1   5
ATOM      5  C   UNL     1      -7.762  -7.290  14.186  1.00  0.00     0.080 C 
BRANCH   5   6
ATOM      6  C   UNL     1      -8.361  -6.471  13.081  1.00  0.00     0.155 C 
ATOM      7  O   UNL     1      -9.116  -5.503  13.370  1.00  0.00    -0.295 OA
BRANCH   6   8
ATOM      8  C   UNL     1      -8.103  -6.829  11.673  1.00  0.00     0.039 C 
ATOM      9  C   UNL     1      -7.094  -7.619  11.310  1.00  0.00     0.012 C 
ENDBRANCH   6   8
ENDBRANCH   5   6
ENDBRANCH   1   5
TORSDOF 5
ENDMDL
MODEL 6
REMARK VINA RESULT:    -3.781     16.256     17.402
REMARK INTER + INTRA:          -5.344
REMARK INTER:                  -4.933
REMARK INTRA:                  -0.410
REMARK UNBOUND:                -0.457
REMARK SMILES C=CC(=O)CCCCC
REMARK SMILES IDX 6 1 7 2 8 3 9 4 5 5 3 6 4 7 2 8 1 9
REMARK H PARENT
REMARK Flexibility Score: inf
ROOT
ATOM      1  C   UNL     1      -7.860  -7.159  14.164  1.00  0.00     0.008 C 
ENDROOT
BRANCH   1   2
ATOM      2  C   UNL     1      -7.225  -7.580  12.835  1.00  0.00     0.000 C 
BRANCH   2   3
ATOM      3  C   UNL     1      -8.048  -7.070  11.647  1.00  0.00    -0.003 C 
ATOM      4  C   UNL     1      -7.256  -6.060  10.821  1.00  0.00     0.004 C 
ENDBRANCH   2   3
ENDBRANCH   1   2
BRANCH   1   5
ATOM      5  C   UNL     1      -9.259  -6.572  13.946  1.00  0.00     0.080 C 
BRANCH   5   6
ATOM      6  C   UNL     1     -10.300  -7.430  14.601  1.00  0.00     0.155 C 
ATOM      7  O   UNL     1     -11.125  -6.902  15.395  1.00  0.00    -0.295 OA
BRANCH   6   8
ATOM      8  C   UNL     1     -10.323  -8.884  14.350  1.00  0.00     0.039 C 
ATOM      9  C   UNL     1     -11.088  -9.435  13.409  1.00  0.00     0.012 C 
ENDBRANCH   6   8
ENDBRANCH   5   6
ENDBRANCH   1   5
TORSDOF 5
ENDMDL
MODEL 7
REMARK VINA RESULT:    -3.738     16.243     17.437
REMARK INTER + INTRA:          -5.288
REMARK INTER:                  -4.854
REMARK INTRA:                  -0.434
REMARK UNBOUND:                -0.457
REMARK SMILES C=CC(=O)CCCCC
REMARK SMILES IDX 6 1 7 2 8 3 9 4 5 5 3 6 4 7 2 8 1 9
REMARK H PARENT
REMARK Flexibility Score: inf
ROOT
ATOM      1  C   UNL     1      -8.643  -8.324  14.717  1.00  0.00     0.008 C 
ENDROOT
BRANCH   1   2
ATOM      2  C   UNL     1      -8.369  -9.600  13.914  1.00  0.00     0.000 C 
BRANCH   2   3
ATOM      3  C   UNL     1      -9.605 -10.021  13.112  1.00  0.00    -0.003 C 
ATOM      4  C   UNL     1     -10.850  -9.277  13.587  1.00  0.00     0.004 C 
ENDBRANCH   2   3
ENDBRANCH   1   2
BRANCH   1   5
ATOM      5  C   UNL     1      -7.775  -7.163  14.219  1.00  0.00     0.080 C 
BRANCH   5   6
ATOM      6  C   UNL     1      -8.511  -6.358  13.188  1.00  0.00     0.155 C 
ATOM      7  O   UNL     1      -8.467  -6.716  11.980  1.00  0.00    -0.295 OA
BRANCH   6   8
ATOM      8  C   UNL     1      -9.238  -5.137  13.585  1.00  0.00     0.039 C 
ATOM      9  C   UNL     1     -10.372  -5.176  14.283  1.00  0.00     0.012 C 
ENDBRANCH   6   8
ENDBRANCH   5   6
ENDBRANCH   1   5
TORSDOF 5
ENDMDL
MODEL 8
REMARK VINA RESULT:    -3.689     16.680     17.881
REMARK INTER + INTRA:          -5.224
REMARK INTER:                  -4.666
REMARK INTRA:                  -0.558
REMARK UNBOUND:                -0.457
REMARK SMILES C=CC(=O)CCCCC
REMARK SMILES IDX 6 1 7 2 8 3 9 4 5 5 3 6 4 7 2 8 1 9
REMARK H PARENT
REMARK Flexibility Score: inf
ROOT
ATOM      1  C   UNL     1     -10.386  -9.253  14.068  1.00  0.00     0.008 C 
ENDROOT
BRANCH   1   2
ATOM      2  C   UNL     1      -9.719  -9.946  12.876  1.00  0.00     0.000 C 
BRANCH   2   3
ATOM      3  C   UNL     1      -8.194  -9.952  13.026  1.00  0.00    -0.003 C 
ATOM      4  C   UNL     1      -7.513  -9.486  11.742  1.00  0.00     0.004 C 
ENDBRANCH   2   3
ENDBRANCH   1   2
BRANCH   1   5
ATOM      5  C   UNL     1      -9.417  -8.285  14.756  1.00  0.00     0.080 C 
BRANCH   5   6
ATOM      6  C   UNL     1      -9.703  -6.871  14.347  1.00  0.00     0.155 C 
ATOM      7  O   UNL     1     -10.757  -6.312  14.755  1.00  0.00    -0.295 OA
BRANCH   6   8
ATOM      8  C   UNL     1      -8.781  -6.164  13.438  1.00  0.00     0.039 C 
ATOM      9  C   UNL     1      -7.459  -6.183  13.605  1.00  0.00     0.012 C 
ENDBRANCH   6   8
ENDBRANCH   5   6
ENDBRANCH   1   5
TORSDOF 5
ENDMDL
MODEL 9
REMARK VINA RESULT:    -3.613     16.722     17.929
REMARK INTER + INTRA:          -5.126
REMARK INTER:                  -4.645
REMARK INTRA:                  -0.481
REMARK UNBOUND:                -0.457
REMARK SMILES C=CC(=O)CCCCC
REMARK SMILES IDX 6 1 7 2 8 3 9 4 5 5 3 6 4 7 2 8 1 9
REMARK H PARENT
REMARK Flexibility Score: inf
ROOT
ATOM      1  C   UNL     1      -9.722  -9.874  13.167  1.00  0.00     0.008 C 
ENDROOT
BRANCH   1   2
ATOM      2  C   UNL     1     -10.817  -9.004  13.794  1.00  0.00     0.000 C 
BRANCH   2   3
ATOM      3  C   UNL     1     -10.233  -8.063  14.853  1.00  0.00    -0.003 C 
ATOM      4  C   UNL     1     -11.125  -6.841  15.057  1.00  0.00     0.004 C 
ENDBRANCH   2   3
ENDBRANCH   1   2
BRANCH   1   5
ATOM      5  C   UNL     1      -8.334  -9.269  13.404  1.00  0.00     0.080 C 
BRANCH   5   6
ATOM      6  C   UNL     1      -7.687  -8.910  12.099  1.00  0.00     0.155 C 
ATOM      7  O   UNL     1      -7.283  -9.829  11.336  1.00  0.00    -0.295 OA
BRANCH   6   8
ATOM      8  C   UNL     1      -7.486  -7.493  11.740  1.00  0.00     0.039 C 
ATOM      9  C   UNL     1      -8.131  -6.502  12.353  1.00  0.00     0.012 C 
ENDBRANCH   6   8
ENDBRANCH   5   6
ENDBRANCH   1   5
TORSDOF 5
ENDMDL
