MODEL 1
REMARK VINA RESULT:    -3.389      0.000      0.000
REMARK INTER + INTRA:          -3.543
REMARK INTER:                  -4.181
REMARK INTRA:                   0.638
REMARK UNBOUND:                 0.638
REMARK SMILES C=C1[C@H]2CC[C@@H]3[C@H]2C(C)(C)CCC[C@]13C
REMARK SMILES IDX 14 1 6 2 7 3 3 4 2 5 1 6 4 7 5 8 15 9 8 10 9 11 10 12 11 13
REMARK SMILES IDX 13 15 12 16
REMARK H PARENT
REMARK Flexibility Score: 80.00
ROOT
ATOM      1  C   UNL     1      48.744  33.502  29.230  1.00  0.00    -0.008 C 
ATOM      2  C   UNL     1      48.341  31.981  29.108  1.00  0.00     0.003 C 
ATOM      3  C   UNL     1      49.649  31.259  28.720  1.00  0.00     0.006 C 
ATOM      4  C   UNL     1      50.443  31.871  29.875  1.00  0.00     0.019 C 
ATOM      5  C   UNL     1      50.167  33.339  29.706  1.00  0.00    -0.068 C 
ATOM      6  C   UNL     1      51.017  34.323  30.017  1.00  0.00     0.009 C 
ATOM      7  C   UNL     1      49.606  31.401  31.089  1.00  0.00     0.008 C 
ATOM      8  C   UNL     1      48.162  31.376  30.528  1.00  0.00     0.005 C 
ATOM      9  C   UNL     1      47.903  34.285  30.276  1.00  0.00     0.016 C 
ENDROOT
BRANCH   3  10
ATOM     10  C   UNL     1      50.203  31.368  27.235  1.00  0.00    -0.032 C 
ATOM     11  C   UNL     1      49.936  30.010  26.527  1.00  0.00     0.011 C 
ATOM     12  C   UNL     1      51.740  31.568  27.215  1.00  0.00     0.011 C 
BRANCH  10  13
ATOM     13  C   UNL     1      49.501  32.435  26.348  1.00  0.00     0.007 CG0
ATOM     14  G   UNL     1      49.647  33.884  26.810  1.00  0.00     0.000 G0
ENDBRANCH  10  13
ENDBRANCH   3  10
BRANCH   1  15
ATOM     15  C   UNL     1      48.632  34.264  27.882  1.00  0.00     0.011 C 
BRANCH  15  16
ATOM     16  C   UNL     1      49.650  33.882  26.813  1.00  0.00     0.001 CG0
ATOM     17  G   UNL     1      49.496  32.434  26.352  1.00  0.00     0.000 G0
ENDBRANCH  15  16
ENDBRANCH   1  15
TORSDOF 0
ENDMDL
MODEL 2
REMARK VINA RESULT:    -3.238      1.741      3.461
REMARK INTER + INTRA:          -3.358
REMARK INTER:                  -3.994
REMARK INTRA:                   0.636
REMARK UNBOUND:                 0.638
REMARK SMILES C=C1[C@H]2CC[C@@H]3[C@H]2C(C)(C)CCC[C@]13C
REMARK SMILES IDX 14 1 6 2 7 3 3 4 2 5 1 6 4 7 5 8 15 9 8 10 9 11 10 12 11 13
REMARK SMILES IDX 13 15 12 16
REMARK H PARENT
REMARK Flexibility Score: 80.00
ROOT
ATOM      1  C   UNL     1      50.493  33.160  29.799  1.00  0.00    -0.008 C 
ATOM      2  C   UNL     1      51.141  32.758  28.417  1.00  0.00     0.003 C 
ATOM      3  C   UNL     1      49.974  32.178  27.591  1.00  0.00     0.006 C 
ATOM      4  C   UNL     1      49.077  33.395  27.823  1.00  0.00     0.019 C 
ATOM      5  C   UNL     1      49.111  33.531  29.320  1.00  0.00    -0.068 C 
ATOM      6  C   UNL     1      48.107  33.993  30.074  1.00  0.00     0.009 C 
ATOM      7  C   UNL     1      49.966  34.529  27.257  1.00  0.00     0.008 C 
ATOM      8  C   UNL     1      51.401  34.038  27.574  1.00  0.00     0.005 C 
ATOM      9  C   UNL     1      51.182  34.376  30.478  1.00  0.00     0.016 C 
ENDROOT
BRANCH   3  10
ATOM     10  C   UNL     1      49.426  30.721  27.907  1.00  0.00    -0.032 C 
ATOM     11  C   UNL     1      49.924  29.771  26.783  1.00  0.00     0.011 C 
ATOM     12  C   UNL     1      47.878  30.672  27.857  1.00  0.00     0.011 C 
BRANCH  10  13
ATOM     13  C   UNL     1      49.950  30.096  29.232  1.00  0.00     0.007 CG0
ATOM     14  G   UNL     1      49.558  30.829  30.513  1.00  0.00     0.000 G0
ENDBRANCH  10  13
ENDBRANCH   3  10
BRANCH   1  15
ATOM     15  C   UNL     1      50.493  31.995  30.825  1.00  0.00     0.011 C 
BRANCH  15  16
ATOM     16  C   UNL     1      49.558  30.831  30.514  1.00  0.00     0.001 CG0
ATOM     17  G   UNL     1      49.942  30.102  29.228  1.00  0.00     0.000 G0
ENDBRANCH  15  16
ENDBRANCH   1  15
TORSDOF 0
ENDMDL
MODEL 3
REMARK VINA RESULT:    -3.190      1.239      2.355
REMARK INTER + INTRA:          -3.299
REMARK INTER:                  -3.937
REMARK INTRA:                   0.638
REMARK UNBOUND:                 0.638
REMARK SMILES C=C1[C@H]2CC[C@@H]3[C@H]2C(C)(C)CCC[C@]13C
REMARK SMILES IDX 14 1 6 2 7 3 3 4 2 5 1 6 4 7 5 8 15 9 8 10 9 11 10 12 11 13
REMARK SMILES IDX 13 15 12 16
REMARK H PARENT
REMARK Flexibility Score: 80.00
ROOT
ATOM      1  C   UNL     1      48.696  31.787  29.572  1.00  0.00    -0.008 C 
ATOM      2  C   UNL     1      50.218  31.373  29.649  1.00  0.00     0.003 C 
ATOM      3  C   UNL     1      50.921  32.268  28.607  1.00  0.00     0.006 C 
ATOM      4  C   UNL     1      50.328  33.559  29.173  1.00  0.00     0.019 C 
ATOM      5  C   UNL     1      48.859  33.243  29.210  1.00  0.00    -0.068 C 
ATOM      6  C   UNL     1      47.875  34.134  29.041  1.00  0.00     0.009 C 
ATOM      7  C   UNL     1      50.830  33.497  30.636  1.00  0.00     0.008 C 
ATOM      8  C   UNL     1      50.854  31.976  30.932  1.00  0.00     0.005 C 
ATOM      9  C   UNL     1      47.942  31.638  30.921  1.00  0.00     0.016 C 
ENDROOT
BRANCH   3  10
ATOM     10  C   UNL     1      50.776  31.944  27.058  1.00  0.00    -0.032 C 
ATOM     11  C   UNL     1      52.119  31.331  26.573  1.00  0.00     0.011 C 
ATOM     12  C   UNL     1      50.566  33.234  26.225  1.00  0.00     0.011 C 
BRANCH  10  13
ATOM     13  C   UNL     1      49.693  30.885  26.707  1.00  0.00     0.007 CG0
ATOM     14  G   UNL     1      48.254  31.265  27.051  1.00  0.00     0.000 G0
ENDBRANCH  10  13
ENDBRANCH   3  10
BRANCH   1  15
ATOM     15  C   UNL     1      47.906  30.977  28.509  1.00  0.00     0.011 C 
BRANCH  15  16
ATOM     16  C   UNL     1      48.259  31.264  27.053  1.00  0.00     0.001 CG0
ATOM     17  G   UNL     1      49.700  30.887  26.716  1.00  0.00     0.000 G0
ENDBRANCH  15  16
ENDBRANCH   1  15
TORSDOF 0
ENDMDL
MODEL 4
REMARK VINA RESULT:    -3.122      5.120      7.513
REMARK INTER + INTRA:          -3.215
REMARK INTER:                  -3.855
REMARK INTRA:                   0.640
REMARK UNBOUND:                 0.638
REMARK SMILES C=C1[C@H]2CC[C@@H]3[C@H]2C(C)(C)CCC[C@]13C
REMARK SMILES IDX 14 1 6 2 7 3 3 4 2 5 1 6 4 7 5 8 15 9 8 10 9 11 10 12 11 13
REMARK SMILES IDX 13 15 12 16
REMARK H PARENT
REMARK Flexibility Score: 80.00
ROOT
ATOM      1  C   UNL     1      55.576  29.585  24.860  1.00  0.00    -0.008 C 
ATOM      2  C   UNL     1      55.238  29.948  26.359  1.00  0.00     0.003 C 
ATOM      3  C   UNL     1      54.535  28.693  26.917  1.00  0.00     0.006 C 
ATOM      4  C   UNL     1      55.652  27.749  26.469  1.00  0.00     0.019 C 
ATOM      5  C   UNL     1      55.797  28.100  25.014  1.00  0.00    -0.068 C 
ATOM      6  C   UNL     1      56.154  27.246  24.048  1.00  0.00     0.009 C 
ATOM      7  C   UNL     1      56.870  28.368  27.195  1.00  0.00     0.008 C 
ATOM      8  C   UNL     1      56.534  29.880  27.213  1.00  0.00     0.005 C 
ATOM      9  C   UNL     1      56.860  30.277  24.327  1.00  0.00     0.016 C 
ENDROOT
BRANCH   3  10
ATOM     10  C   UNL     1      53.030  28.383  26.515  1.00  0.00    -0.032 C 
ATOM     11  C   UNL     1      52.132  28.719  27.739  1.00  0.00     0.011 C 
ATOM     12  C   UNL     1      52.817  26.875  26.226  1.00  0.00     0.011 C 
BRANCH  10  13
ATOM     13  C   UNL     1      52.470  29.247  25.349  1.00  0.00     0.007 CG0
ATOM     14  G   UNL     1      53.161  29.069  23.999  1.00  0.00     0.000 G0
ENDBRANCH  10  13
ENDBRANCH   3  10
BRANCH   1  15
ATOM     15  C   UNL     1      54.422  29.934  23.882  1.00  0.00     0.011 C 
BRANCH  15  16
ATOM     16  C   UNL     1      53.163  29.079  24.002  1.00  0.00     0.001 CG0
ATOM     17  G   UNL     1      52.468  29.251  25.351  1.00  0.00     0.000 G0
ENDBRANCH  15  16
ENDBRANCH   1  15
TORSDOF 0
ENDMDL
MODEL 5
REMARK VINA RESULT:    -2.969      1.506      3.314
REMARK INTER + INTRA:          -3.025
REMARK INTER:                  -3.663
REMARK INTRA:                   0.638
REMARK UNBOUND:                 0.638
REMARK SMILES C=C1[C@H]2CC[C@@H]3[C@H]2C(C)(C)CCC[C@]13C
REMARK SMILES IDX 14 1 6 2 7 3 3 4 2 5 1 6 4 7 5 8 15 9 8 10 9 11 10 12 11 13
REMARK SMILES IDX 13 15 12 16
REMARK H PARENT
REMARK Flexibility Score: 80.00
ROOT
ATOM      1  C   UNL     1      50.224  31.550  30.305  1.00  0.00    -0.008 C 
ATOM      2  C   UNL     1      50.548  32.759  29.343  1.00  0.00     0.003 C 
ATOM      3  C   UNL     1      49.391  32.767  28.321  1.00  0.00     0.006 C 
ATOM      4  C   UNL     1      48.308  32.764  29.400  1.00  0.00     0.019 C 
ATOM      5  C   UNL     1      48.717  31.597  30.255  1.00  0.00    -0.068 C 
ATOM      6  C   UNL     1      47.876  30.802  30.926  1.00  0.00     0.009 C 
ATOM      7  C   UNL     1      48.678  34.042  30.193  1.00  0.00     0.008 C 
ATOM      8  C   UNL     1      50.221  34.097  30.064  1.00  0.00     0.005 C 
ATOM      9  C   UNL     1      50.732  31.759  31.757  1.00  0.00     0.016 C 
ENDROOT
BRANCH   3  10
ATOM     10  C   UNL     1      49.353  31.684  27.160  1.00  0.00    -0.032 C 
ATOM     11  C   UNL     1      49.752  32.391  25.835  1.00  0.00     0.011 C 
ATOM     12  C   UNL     1      47.919  31.136  26.940  1.00  0.00     0.011 C 
BRANCH  10  13
ATOM     13  C   UNL     1      50.366  30.514  27.319  1.00  0.00     0.007 CG0
ATOM     14  G   UNL     1      50.169  29.626  28.546  1.00  0.00     0.000 G0
ENDBRANCH  10  13
ENDBRANCH   3  10
BRANCH   1  15
ATOM     15  C   UNL     1      50.812  30.205  29.798  1.00  0.00     0.011 C 
BRANCH  15  16
ATOM     16  C   UNL     1      50.168  29.626  28.543  1.00  0.00     0.001 CG0
ATOM     17  G   UNL     1      50.379  30.512  27.317  1.00  0.00     0.000 G0
ENDBRANCH  15  16
ENDBRANCH   1  15
TORSDOF 0
ENDMDL
MODEL 6
REMARK VINA RESULT:    -2.875      4.977      7.013
REMARK INTER + INTRA:          -2.910
REMARK INTER:                  -3.548
REMARK INTRA:                   0.638
REMARK UNBOUND:                 0.638
REMARK SMILES C=C1[C@H]2CC[C@@H]3[C@H]2C(C)(C)CCC[C@]13C
REMARK SMILES IDX 14 1 6 2 7 3 3 4 2 5 1 6 4 7 5 8 15 9 8 10 9 11 10 12 11 13
REMARK SMILES IDX 13 15 12 16
REMARK H PARENT
REMARK Flexibility Score: 80.00
ROOT
ATOM      1  C   UNL     1      53.214  29.185  24.880  1.00  0.00    -0.008 C 
ATOM      2  C   UNL     1      53.797  27.768  25.263  1.00  0.00     0.003 C 
ATOM      3  C   UNL     1      54.722  28.038  26.469  1.00  0.00     0.006 C 
ATOM      4  C   UNL     1      53.644  28.789  27.252  1.00  0.00     0.019 C 
ATOM      5  C   UNL     1      53.183  29.813  26.252  1.00  0.00    -0.068 C 
ATOM      6  C   UNL     1      52.736  31.037  26.555  1.00  0.00     0.009 C 
ATOM      7  C   UNL     1      52.533  27.714  27.326  1.00  0.00     0.008 C 
ATOM      8  C   UNL     1      52.706  26.939  25.996  1.00  0.00     0.005 C 
ATOM      9  C   UNL     1      51.786  29.124  24.273  1.00  0.00     0.016 C 
ENDROOT
BRANCH   3  10
ATOM     10  C   UNL     1      56.145  28.708  26.242  1.00  0.00    -0.032 C 
ATOM     11  C   UNL     1      57.224  27.602  26.407  1.00  0.00     0.011 C 
ATOM     12  C   UNL     1      56.451  29.773  27.326  1.00  0.00     0.011 C 
BRANCH  10  13
ATOM     13  C   UNL     1      56.375  29.294  24.820  1.00  0.00     0.007 CG0
ATOM     14  G   UNL     1      55.459  30.449  24.420  1.00  0.00     0.000 G0
ENDBRANCH  10  13
ENDBRANCH   3  10
BRANCH   1  15
ATOM     15  C   UNL     1      54.114  29.953  23.875  1.00  0.00     0.011 C 
BRANCH  15  16
ATOM     16  C   UNL     1      55.460  30.428  24.412  1.00  0.00     0.001 CG0
ATOM     17  G   UNL     1      56.372  29.269  24.808  1.00  0.00     0.000 G0
ENDBRANCH  15  16
ENDBRANCH   1  15
TORSDOF 0
ENDMDL
MODEL 7
REMARK VINA RESULT:    -2.697      1.349      3.867
REMARK INTER + INTRA:          -2.690
REMARK INTER:                  -3.317
REMARK INTRA:                   0.628
REMARK UNBOUND:                 0.638
REMARK SMILES C=C1[C@H]2CC[C@@H]3[C@H]2C(C)(C)CCC[C@]13C
REMARK SMILES IDX 14 1 6 2 7 3 3 4 2 5 1 6 4 7 5 8 15 9 8 10 9 11 10 12 11 13
REMARK SMILES IDX 13 15 12 16
REMARK H PARENT
REMARK Flexibility Score: 80.00
ROOT
ATOM      1  C   UNL     1      49.655  32.622  26.420  1.00  0.00    -0.008 C 
ATOM      2  C   UNL     1      50.999  32.908  27.197  1.00  0.00     0.003 C 
ATOM      3  C   UNL     1      50.892  32.066  28.486  1.00  0.00     0.006 C 
ATOM      4  C   UNL     1      50.567  30.776  27.733  1.00  0.00     0.019 C 
ATOM      5  C   UNL     1      49.416  31.200  26.863  1.00  0.00    -0.068 C 
ATOM      6  C   UNL     1      48.407  30.408  26.482  1.00  0.00     0.009 C 
ATOM      7  C   UNL     1      51.800  30.657  26.805  1.00  0.00     0.008 C 
ATOM      8  C   UNL     1      52.164  32.135  26.518  1.00  0.00     0.005 C 
ATOM      9  C   UNL     1      49.802  32.697  24.875  1.00  0.00     0.016 C 
ENDROOT
BRANCH   3  10
ATOM     10  C   UNL     1      49.951  32.549  29.671  1.00  0.00    -0.032 C 
ATOM     11  C   UNL     1      50.858  33.119  30.797  1.00  0.00     0.011 C 
ATOM     12  C   UNL     1      49.178  31.362  30.302  1.00  0.00     0.011 C 
BRANCH  10  13
ATOM     13  C   UNL     1      48.976  33.704  29.307  1.00  0.00     0.007 CG0
ATOM     14  G   UNL     1      47.939  33.386  28.233  1.00  0.00     0.000 G0
ENDBRANCH  10  13
ENDBRANCH   3  10
BRANCH   1  15
ATOM     15  C   UNL     1      48.510  33.590  26.823  1.00  0.00     0.011 C 
BRANCH  15  16
ATOM     16  C   UNL     1      47.935  33.398  28.223  1.00  0.00     0.001 CG0
ATOM     17  G   UNL     1      48.952  33.709  29.318  1.00  0.00     0.000 G0
ENDBRANCH  15  16
ENDBRANCH   1  15
TORSDOF 0
ENDMDL
MODEL 8
REMARK VINA RESULT:    -2.534      4.621      6.621
REMARK INTER + INTRA:          -2.489
REMARK INTER:                  -3.126
REMARK INTRA:                   0.638
REMARK UNBOUND:                 0.638
REMARK SMILES C=C1[C@H]2CC[C@@H]3[C@H]2C(C)(C)CCC[C@]13C
REMARK SMILES IDX 14 1 6 2 7 3 3 4 2 5 1 6 4 7 5 8 15 9 8 10 9 11 10 12 11 13
REMARK SMILES IDX 13 15 12 16
REMARK H PARENT
REMARK Flexibility Score: 80.00
ROOT
ATOM      1  C   UNL     1      55.166  29.761  26.470  1.00  0.00    -0.008 C 
ATOM      2  C   UNL     1      54.222  28.661  27.094  1.00  0.00     0.003 C 
ATOM      3  C   UNL     1      53.321  28.210  25.925  1.00  0.00     0.006 C 
ATOM      4  C   UNL     1      54.501  27.933  24.993  1.00  0.00     0.019 C 
ATOM      5  C   UNL     1      55.268  29.224  25.063  1.00  0.00    -0.068 C 
ATOM      6  C   UNL     1      55.989  29.746  24.064  1.00  0.00     0.009 C 
ATOM      7  C   UNL     1      55.299  26.901  25.827  1.00  0.00     0.008 C 
ATOM      8  C   UNL     1      55.020  27.342  27.286  1.00  0.00     0.005 C 
ATOM      9  C   UNL     1      56.569  29.826  27.134  1.00  0.00     0.016 C 
ENDROOT
BRANCH   3  10
ATOM     10  C   UNL     1      52.130  29.142  25.437  1.00  0.00    -0.032 C 
ATOM     11  C   UNL     1      50.799  28.517  25.941  1.00  0.00     0.011 C 
ATOM     12  C   UNL     1      52.032  29.176  23.891  1.00  0.00     0.011 C 
BRANCH  10  13
ATOM     13  C   UNL     1      52.148  30.586  26.015  1.00  0.00     0.007 CG0
ATOM     14  G   UNL     1      53.361  31.436  25.644  1.00  0.00     0.000 G0
ENDBRANCH  10  13
ENDBRANCH   3  10
BRANCH   1  15
ATOM     15  C   UNL     1      54.555  31.187  26.538  1.00  0.00     0.011 C 
BRANCH  15  16
ATOM     16  C   UNL     1      53.349  31.440  25.640  1.00  0.00     0.001 CG0
ATOM     17  G   UNL     1      52.149  30.573  26.017  1.00  0.00     0.000 G0
ENDBRANCH  15  16
ENDBRANCH   1  15
TORSDOF 0
ENDMDL
MODEL 9
REMARK VINA RESULT:    -2.487      1.412      3.740
REMARK INTER + INTRA:          -2.431
REMARK INTER:                  -3.078
REMARK INTRA:                   0.647
REMARK UNBOUND:                 0.638
REMARK SMILES C=C1[C@H]2CC[C@@H]3[C@H]2C(C)(C)CCC[C@]13C
REMARK SMILES IDX 14 1 6 2 7 3 3 4 2 5 1 6 4 7 5 8 15 9 8 10 9 11 10 12 11 13
REMARK SMILES IDX 13 15 12 16
REMARK H PARENT
REMARK Flexibility Score: 80.00
ROOT
ATOM      1  C   UNL     1      50.414  31.690  26.747  1.00  0.00    -0.008 C 
ATOM      2  C   UNL     1      51.077  30.857  27.913  1.00  0.00     0.003 C 
ATOM      3  C   UNL     1      50.108  31.010  29.104  1.00  0.00     0.006 C 
ATOM      4  C   UNL     1      48.887  30.575  28.293  1.00  0.00     0.019 C 
ATOM      5  C   UNL     1      48.961  31.484  27.098  1.00  0.00    -0.068 C 
ATOM      6  C   UNL     1      47.906  31.948  26.417  1.00  0.00     0.009 C 
ATOM      7  C   UNL     1      49.339  29.175  27.810  1.00  0.00     0.008 C 
ATOM      8  C   UNL     1      50.871  29.340  27.647  1.00  0.00     0.005 C 
ATOM      9  C   UNL     1      50.720  31.130  25.331  1.00  0.00     0.016 C 
ENDROOT
BRANCH   3  10
ATOM     10  C   UNL     1      50.068  32.371  29.923  1.00  0.00    -0.032 C 
ATOM     11  C   UNL     1      50.765  32.125  31.290  1.00  0.00     0.011 C 
ATOM     12  C   UNL     1      48.613  32.795  30.252  1.00  0.00     0.011 C 
BRANCH  10  13
ATOM     13  C   UNL     1      50.846  33.551  29.274  1.00  0.00     0.007 CG0
ATOM     14  G   UNL     1      50.323  34.029  27.921  1.00  0.00     0.000 G0
ENDBRANCH  10  13
ENDBRANCH   3  10
BRANCH   1  15
ATOM     15  C   UNL     1      50.841  33.183  26.757  1.00  0.00     0.011 C 
BRANCH  15  16
ATOM     16  C   UNL     1      50.317  34.019  27.921  1.00  0.00     0.001 CG0
ATOM     17  G   UNL     1      50.850  33.540  29.269  1.00  0.00     0.000 G0
ENDBRANCH  15  16
ENDBRANCH   1  15
TORSDOF 0
ENDMDL
