MODEL 1
REMARK VINA RESULT:    -3.052      0.000      0.000
REMARK INTER + INTRA:          -3.426
REMARK INTER:                  -3.408
REMARK INTRA:                  -0.017
REMARK UNBOUND:                -0.017
REMARK SMILES CCCC(=O)[O-]
REMARK SMILES IDX 3 1 4 2 5 3 6 4 2 5 1 6
REMARK H PARENT
REMARK Flexibility Score: inf
ROOT
ATOM      1  C   UNL     1      23.763   1.487  39.015  1.00  0.00     0.052 C 
ENDROOT
BRANCH   1   2
ATOM      2  C   UNL     1      23.623   0.191  39.750  1.00  0.00     0.041 C 
ATOM      3  O   UNL     1      23.246   0.183  40.951  1.00  0.00    -0.550 OA
ATOM      4  O   UNL     1      23.861  -1.009  39.094  1.00  0.00    -0.550 OA
ENDBRANCH   1   2
BRANCH   1   5
ATOM      5  C   UNL     1      24.029   2.633  39.993  1.00  0.00     0.003 C 
ATOM      6  C   UNL     1      25.220   3.475  39.546  1.00  0.00     0.004 C 
ENDBRANCH   1   5
TORSDOF 2
ENDMDL
MODEL 2
REMARK VINA RESULT:    -3.004      1.469      1.759
REMARK INTER + INTRA:          -3.373
REMARK INTER:                  -3.367
REMARK INTRA:                  -0.005
REMARK UNBOUND:                -0.017
REMARK SMILES CCCC(=O)[O-]
REMARK SMILES IDX 3 1 4 2 5 3 6 4 2 5 1 6
REMARK H PARENT
REMARK Flexibility Score: inf
ROOT
ATOM      1  C   UNL     1      23.881   2.411  40.055  1.00  0.00     0.052 C 
ENDROOT
BRANCH   1   2
ATOM      2  C   UNL     1      23.346   1.380  39.113  1.00  0.00     0.041 C 
ATOM      3  O   UNL     1      22.559   1.715  38.188  1.00  0.00    -0.550 OA
ATOM      4  O   UNL     1      23.755   0.058  39.223  1.00  0.00    -0.550 OA
ENDBRANCH   1   2
BRANCH   1   5
ATOM      5  C   UNL     1      25.040   3.176  39.412  1.00  0.00     0.003 C 
ATOM      6  C   UNL     1      25.848   3.937  40.459  1.00  0.00     0.004 C 
ENDBRANCH   1   5
TORSDOF 2
ENDMDL
MODEL 3
REMARK VINA RESULT:    -2.984     10.923     11.851
REMARK INTER + INTRA:          -3.350
REMARK INTER:                  -3.307
REMARK INTRA:                  -0.043
REMARK UNBOUND:                -0.017
REMARK SMILES CCCC(=O)[O-]
REMARK SMILES IDX 3 1 4 2 5 3 6 4 2 5 1 6
REMARK H PARENT
REMARK Flexibility Score: inf
ROOT
ATOM      1  C   UNL     1      31.484   5.788  48.368  1.00  0.00     0.052 C 
ENDROOT
BRANCH   1   2
ATOM      2  C   UNL     1      30.790   5.470  47.081  1.00  0.00     0.041 C 
ATOM      3  O   UNL     1      31.452   5.073  46.086  1.00  0.00    -0.550 OA
ATOM      4  O   UNL     1      29.407   5.563  46.996  1.00  0.00    -0.550 OA
ENDBRANCH   1   2
BRANCH   1   5
ATOM      5  C   UNL     1      31.032   4.830  49.472  1.00  0.00     0.003 C 
ATOM      6  C   UNL     1      31.974   3.634  49.585  1.00  0.00     0.004 C 
ENDBRANCH   1   5
TORSDOF 2
ENDMDL
MODEL 4
REMARK VINA RESULT:    -2.966     11.340     12.133
REMARK INTER + INTRA:          -3.330
REMARK INTER:                  -3.319
REMARK INTRA:                  -0.011
REMARK UNBOUND:                -0.017
REMARK SMILES CCCC(=O)[O-]
REMARK SMILES IDX 3 1 4 2 5 3 6 4 2 5 1 6
REMARK H PARENT
REMARK Flexibility Score: inf
ROOT
ATOM      1  C   UNL     1      29.845   4.514  49.630  1.00  0.00     0.052 C 
ENDROOT
BRANCH   1   2
ATOM      2  C   UNL     1      31.285   4.645  49.246  1.00  0.00     0.041 C 
ATOM      3  O   UNL     1      31.705   5.707  48.715  1.00  0.00    -0.550 OA
ATOM      4  O   UNL     1      32.174   3.614  49.520  1.00  0.00    -0.550 OA
ENDBRANCH   1   2
BRANCH   1   5
ATOM      5  C   UNL     1      28.962   5.338  48.690  1.00  0.00     0.003 C 
ATOM      6  C   UNL     1      27.610   4.665  48.474  1.00  0.00     0.004 C 
ENDBRANCH   1   5
TORSDOF 2
ENDMDL
MODEL 5
REMARK VINA RESULT:    -2.961      2.412      3.216
REMARK INTER + INTRA:          -3.325
REMARK INTER:                  -3.285
REMARK INTRA:                  -0.039
REMARK UNBOUND:                -0.017
REMARK SMILES CCCC(=O)[O-]
REMARK SMILES IDX 3 1 4 2 5 3 6 4 2 5 1 6
REMARK H PARENT
REMARK Flexibility Score: inf
ROOT
ATOM      1  C   UNL     1      22.767   2.195  39.091  1.00  0.00     0.052 C 
ENDROOT
BRANCH   1   2
ATOM      2  C   UNL     1      22.325   2.785  40.393  1.00  0.00     0.041 C 
ATOM      3  O   UNL     1      21.201   3.345  40.486  1.00  0.00    -0.550 OA
ATOM      4  O   UNL     1      23.132   2.670  41.518  1.00  0.00    -0.550 OA
ENDBRANCH   1   2
BRANCH   1   5
ATOM      5  C   UNL     1      24.038   1.365  39.281  1.00  0.00     0.003 C 
ATOM      6  C   UNL     1      23.716  -0.124  39.366  1.00  0.00     0.004 C 
ENDBRANCH   1   5
TORSDOF 2
ENDMDL
MODEL 6
REMARK VINA RESULT:    -2.927     16.435     17.228
REMARK INTER + INTRA:          -3.287
REMARK INTER:                  -3.229
REMARK INTRA:                  -0.058
REMARK UNBOUND:                -0.017
REMARK SMILES CCCC(=O)[O-]
REMARK SMILES IDX 3 1 4 2 5 3 6 4 2 5 1 6
REMARK H PARENT
REMARK Flexibility Score: inf
ROOT
ATOM      1  C   UNL     1      24.083  -2.820  56.434  1.00  0.00     0.052 C 
ENDROOT
BRANCH   1   2
ATOM      2  C   UNL     1      23.238  -2.048  55.471  1.00  0.00     0.041 C 
ATOM      3  O   UNL     1      23.172  -2.400  54.263  1.00  0.00    -0.550 OA
ATOM      4  O   UNL     1      22.483  -0.971  55.916  1.00  0.00    -0.550 OA
ENDBRANCH   1   2
BRANCH   1   5
ATOM      5  C   UNL     1      23.323  -3.063  57.740  1.00  0.00     0.003 C 
ATOM      6  C   UNL     1      22.184  -4.058  57.538  1.00  0.00     0.004 C 
ENDBRANCH   1   5
TORSDOF 2
ENDMDL
MODEL 7
REMARK VINA RESULT:    -2.911      2.480      3.499
REMARK INTER + INTRA:          -3.269
REMARK INTER:                  -3.228
REMARK INTRA:                  -0.041
REMARK UNBOUND:                -0.017
REMARK SMILES CCCC(=O)[O-]
REMARK SMILES IDX 3 1 4 2 5 3 6 4 2 5 1 6
REMARK H PARENT
REMARK Flexibility Score: inf
ROOT
ATOM      1  C   UNL     1      23.256   2.409  40.124  1.00  0.00     0.052 C 
ENDROOT
BRANCH   1   2
ATOM      2  C   UNL     1      24.593   3.068  40.255  1.00  0.00     0.041 C 
ATOM      3  O   UNL     1      25.329   3.213  39.244  1.00  0.00    -0.550 OA
ATOM      4  O   UNL     1      25.004   3.567  41.484  1.00  0.00    -0.550 OA
ENDBRANCH   1   2
BRANCH   1   5
ATOM      5  C   UNL     1      23.254   1.430  38.947  1.00  0.00     0.003 C 
ATOM      6  C   UNL     1      23.709   0.041  39.384  1.00  0.00     0.004 C 
ENDBRANCH   1   5
TORSDOF 2
ENDMDL
MODEL 8
REMARK VINA RESULT:    -2.821     10.771     11.603
REMARK INTER + INTRA:          -3.169
REMARK INTER:                  -3.159
REMARK INTRA:                  -0.009
REMARK UNBOUND:                -0.017
REMARK SMILES CCCC(=O)[O-]
REMARK SMILES IDX 3 1 4 2 5 3 6 4 2 5 1 6
REMARK H PARENT
REMARK Flexibility Score: inf
ROOT
ATOM      1  C   UNL     1      29.421   4.656  49.436  1.00  0.00     0.052 C 
ENDROOT
BRANCH   1   2
ATOM      2  C   UNL     1      28.716   5.328  48.301  1.00  0.00     0.041 C 
ATOM      3  O   UNL     1      29.073   6.475  47.924  1.00  0.00    -0.550 OA
ATOM      4  O   UNL     1      27.697   4.668  47.627  1.00  0.00    -0.550 OA
ENDBRANCH   1   2
BRANCH   1   5
ATOM      5  C   UNL     1      30.925   4.938  49.376  1.00  0.00     0.003 C 
ATOM      6  C   UNL     1      31.730   3.737  49.862  1.00  0.00     0.004 C 
ENDBRANCH   1   5
TORSDOF 2
ENDMDL
MODEL 9
REMARK VINA RESULT:    -2.780     11.024     11.957
REMARK INTER + INTRA:          -3.123
REMARK INTER:                  -3.092
REMARK INTRA:                  -0.031
REMARK UNBOUND:                -0.017
REMARK SMILES CCCC(=O)[O-]
REMARK SMILES IDX 3 1 4 2 5 3 6 4 2 5 1 6
REMARK H PARENT
REMARK Flexibility Score: inf
ROOT
ATOM      1  C   UNL     1      31.465   5.578  48.652  1.00  0.00     0.052 C 
ENDROOT
BRANCH   1   2
ATOM      2  C   UNL     1      30.747   4.533  49.448  1.00  0.00     0.041 C 
ATOM      3  O   UNL     1      31.399   3.692  50.121  1.00  0.00    -0.550 OA
ATOM      4  O   UNL     1      29.359   4.520  49.487  1.00  0.00    -0.550 OA
ENDBRANCH   1   2
BRANCH   1   5
ATOM      5  C   UNL     1      30.667   5.939  47.397  1.00  0.00     0.003 C 
ATOM      6  C   UNL     1      31.280   5.305  46.153  1.00  0.00     0.004 C 
ENDBRANCH   1   5
TORSDOF 2
ENDMDL
