MODEL 1
REMARK VINA RESULT:    -6.638      0.000      0.000
REMARK INTER + INTRA:          -8.065
REMARK INTER:                  -7.802
REMARK INTRA:                  -0.264
REMARK UNBOUND:                -0.264
REMARK SMILES O=c1cc(-c2ccc(O)c(O)c2)oc2cc(O)cc(O)c12
REMARK SMILES IDX 4 1 3 2 2 3 1 4 21 5 19 6 18 7 16 8 15 9 14 10 13 11 5 12
REMARK SMILES IDX 6 13 7 14 8 15 12 16 10 17 9 18 11 20 20 22 17 24
REMARK H PARENT 9 19 11 21 20 23 17 25
REMARK Flexibility Score: inf
ROOT
ATOM      1  C   UNL     1      18.876  -1.719 -17.137  1.00  0.00     0.138 A 
ATOM      2  C   UNL     1      18.142  -1.005 -16.181  1.00  0.00     0.100 A 
ATOM      3  C   UNL     1      17.395  -1.695 -15.226  1.00  0.00     0.197 A 
ATOM      4  O   UNL     1      16.797  -1.028 -14.343  1.00  0.00    -0.289 OA
ATOM      5  C   UNL     1      17.359  -3.110 -15.250  1.00  0.00     0.107 A 
ATOM      6  C   UNL     1      16.599  -3.919 -14.352  1.00  0.00     0.134 A 
ATOM      7  C   UNL     1      16.733  -5.312 -14.397  1.00  0.00     0.093 A 
ATOM      8  C   UNL     1      17.553  -5.927 -15.348  1.00  0.00     0.123 A 
ATOM      9  C   UNL     1      18.255  -5.148 -16.264  1.00  0.00     0.094 A 
ATOM     10  C   UNL     1      18.170  -3.755 -16.222  1.00  0.00     0.146 A 
ATOM     11  O   UNL     1      18.869  -3.048 -17.104  1.00  0.00    -0.456 OA
ENDROOT
BRANCH   1  12
ATOM     12  C   UNL     1      19.687  -1.035 -18.175  1.00  0.00     0.021 A 
ATOM     13  C   UNL     1      19.228  -1.006 -19.503  1.00  0.00     0.016 A 
ATOM     14  C   UNL     1      19.968  -0.361 -20.498  1.00  0.00     0.051 A 
ATOM     15  C   UNL     1      21.172   0.274 -20.183  1.00  0.00     0.157 A 
ATOM     16  C   UNL     1      20.894  -0.382 -17.860  1.00  0.00     0.062 A 
ATOM     17  C   UNL     1      21.638   0.267 -18.858  1.00  0.00     0.158 A 
BRANCH  15  18
ATOM     18  O   UNL     1      21.891   0.908 -21.197  1.00  0.00    -0.504 OA
ATOM     19  H   UNL     1      21.979   1.915 -21.244  1.00  0.00     0.293 HD
ENDBRANCH  15  18
BRANCH  17  20
ATOM     20  O   UNL     1      22.833   0.908 -18.536  1.00  0.00    -0.504 OA
ATOM     21  H   UNL     1      23.414   1.338 -19.246  1.00  0.00     0.293 HD
ENDBRANCH  17  20
ENDBRANCH   1  12
BRANCH   6  22
ATOM     22  O   UNL     1      15.688  -3.409 -13.422  1.00  0.00    -0.507 OA
ATOM     23  H   UNL     1      15.610  -3.715 -12.465  1.00  0.00     0.293 HD
ENDBRANCH   6  22
BRANCH   8  24
ATOM     24  O   UNL     1      17.667  -7.315 -15.394  1.00  0.00    -0.508 OA
ATOM     25  H   UNL     1      16.885  -7.919 -15.174  1.00  0.00     0.293 HD
ENDBRANCH   8  24
TORSDOF 5
ENDMDL
MODEL 2
REMARK VINA RESULT:    -6.483      1.768      3.428
REMARK INTER + INTRA:          -7.883
REMARK INTER:                  -7.569
REMARK INTRA:                  -0.315
REMARK UNBOUND:                -0.264
REMARK SMILES O=c1cc(-c2ccc(O)c(O)c2)oc2cc(O)cc(O)c12
REMARK SMILES IDX 4 1 3 2 2 3 1 4 21 5 19 6 18 7 16 8 15 9 14 10 13 11 5 12
REMARK SMILES IDX 6 13 7 14 8 15 12 16 10 17 9 18 11 20 20 22 17 24
REMARK H PARENT 9 19 11 21 20 23 17 25
REMARK Flexibility Score: inf
ROOT
ATOM      1  C   UNL     1      19.885  -1.402 -18.904  1.00  0.00     0.138 A 
ATOM      2  C   UNL     1      19.661  -2.785 -18.935  1.00  0.00     0.100 A 
ATOM      3  C   UNL     1      18.957  -3.395 -17.897  1.00  0.00     0.197 A 
ATOM      4  O   UNL     1      18.716  -4.627 -17.984  1.00  0.00    -0.289 OA
ATOM      5  C   UNL     1      18.504  -2.618 -16.803  1.00  0.00     0.107 A 
ATOM      6  C   UNL     1      17.812  -3.139 -15.668  1.00  0.00     0.134 A 
ATOM      7  C   UNL     1      17.310  -2.257 -14.703  1.00  0.00     0.093 A 
ATOM      8  C   UNL     1      17.527  -0.880 -14.802  1.00  0.00     0.123 A 
ATOM      9  C   UNL     1      18.248  -0.368 -15.878  1.00  0.00     0.094 A 
ATOM     10  C   UNL     1      18.732  -1.218 -16.875  1.00  0.00     0.146 A 
ATOM     11  O   UNL     1      19.402  -0.687 -17.893  1.00  0.00    -0.456 OA
ENDROOT
BRANCH   1  12
ATOM     12  C   UNL     1      20.628  -0.704 -19.982  1.00  0.00     0.021 A 
ATOM     13  C   UNL     1      20.843  -1.356 -21.208  1.00  0.00     0.016 A 
ATOM     14  C   UNL     1      21.532  -0.717 -22.243  1.00  0.00     0.051 A 
ATOM     15  C   UNL     1      22.008   0.586 -22.075  1.00  0.00     0.157 A 
ATOM     16  C   UNL     1      21.098   0.615 -19.823  1.00  0.00     0.062 A 
ATOM     17  C   UNL     1      21.789   1.258 -20.862  1.00  0.00     0.158 A 
BRANCH  15  18
ATOM     18  O   UNL     1      22.694   1.197 -23.125  1.00  0.00    -0.504 OA
ATOM     19  H   UNL     1      22.221   1.765 -23.817  1.00  0.00     0.293 HD
ENDBRANCH  15  18
BRANCH  17  20
ATOM     20  O   UNL     1      22.252   2.561 -20.693  1.00  0.00    -0.504 OA
ATOM     21  H   UNL     1      23.243   2.771 -20.646  1.00  0.00     0.293 HD
ENDBRANCH  17  20
ENDBRANCH   1  12
BRANCH   6  22
ATOM     22  O   UNL     1      17.616  -4.502 -15.431  1.00  0.00    -0.507 OA
ATOM     23  H   UNL     1      16.823  -4.895 -14.946  1.00  0.00     0.293 HD
ENDBRANCH   6  22
BRANCH   8  24
ATOM     24  O   UNL     1      17.036  -0.012 -13.828  1.00  0.00    -0.508 OA
ATOM     25  H   UNL     1      17.211   0.984 -13.869  1.00  0.00     0.293 HD
ENDBRANCH   8  24
TORSDOF 5
ENDMDL
MODEL 3
REMARK VINA RESULT:    -6.274      1.373      2.988
REMARK INTER + INTRA:          -7.638
REMARK INTER:                  -7.371
REMARK INTRA:                  -0.267
REMARK UNBOUND:                -0.264
REMARK SMILES O=c1cc(-c2ccc(O)c(O)c2)oc2cc(O)cc(O)c12
REMARK SMILES IDX 4 1 3 2 2 3 1 4 21 5 19 6 18 7 16 8 15 9 14 10 13 11 5 12
REMARK SMILES IDX 6 13 7 14 8 15 12 16 10 17 9 18 11 20 20 22 17 24
REMARK H PARENT 9 19 11 21 20 23 17 25
REMARK Flexibility Score: inf
ROOT
ATOM      1  C   UNL     1      18.884  -1.502 -17.355  1.00  0.00     0.138 A 
ATOM      2  C   UNL     1      18.892  -2.884 -17.123  1.00  0.00     0.100 A 
ATOM      3  C   UNL     1      18.124  -3.415 -16.086  1.00  0.00     0.197 A 
ATOM      4  O   UNL     1      18.103  -4.665 -15.942  1.00  0.00    -0.289 OA
ATOM      5  C   UNL     1      17.369  -2.551 -15.257  1.00  0.00     0.107 A 
ATOM      6  C   UNL     1      16.582  -2.976 -14.144  1.00  0.00     0.134 A 
ATOM      7  C   UNL     1      15.784  -2.045 -13.468  1.00  0.00     0.093 A 
ATOM      8  C   UNL     1      15.793  -0.693 -13.826  1.00  0.00     0.123 A 
ATOM      9  C   UNL     1      16.600  -0.261 -14.876  1.00  0.00     0.094 A 
ATOM     10  C   UNL     1      17.380  -1.171 -15.592  1.00  0.00     0.146 A 
ATOM     11  O   UNL     1      18.123  -0.719 -16.597  1.00  0.00    -0.456 OA
ENDROOT
BRANCH   1  12
ATOM     12  C   UNL     1      19.682  -0.885 -18.444  1.00  0.00     0.021 A 
ATOM     13  C   UNL     1      19.212  -0.948 -19.767  1.00  0.00     0.016 A 
ATOM     14  C   UNL     1      19.940  -0.368 -20.809  1.00  0.00     0.051 A 
ATOM     15  C   UNL     1      21.143   0.293 -20.548  1.00  0.00     0.157 A 
ATOM     16  C   UNL     1      20.888  -0.206 -18.184  1.00  0.00     0.062 A 
ATOM     17  C   UNL     1      21.620   0.378 -19.230  1.00  0.00     0.158 A 
BRANCH  15  18
ATOM     18  O   UNL     1      21.849   0.860 -21.608  1.00  0.00    -0.504 OA
ATOM     19  H   UNL     1      21.391   1.402 -22.331  1.00  0.00     0.293 HD
ENDBRANCH  15  18
BRANCH  17  20
ATOM     20  O   UNL     1      22.814   1.045 -18.962  1.00  0.00    -0.504 OA
ATOM     21  H   UNL     1      23.173   1.761 -19.582  1.00  0.00     0.293 HD
ENDBRANCH  17  20
ENDBRANCH   1  12
BRANCH   6  22
ATOM     22  O   UNL     1      16.568  -4.284 -13.652  1.00  0.00    -0.507 OA
ATOM     23  H   UNL     1      15.740  -4.849 -13.541  1.00  0.00     0.293 HD
ENDBRANCH   6  22
BRANCH   8  24
ATOM     24  O   UNL     1      15.007   0.228 -13.137  1.00  0.00    -0.508 OA
ATOM     25  H   UNL     1      15.312   0.632 -12.260  1.00  0.00     0.293 HD
ENDBRANCH   8  24
TORSDOF 5
ENDMDL
MODEL 4
REMARK VINA RESULT:    -6.113      0.773      1.536
REMARK INTER + INTRA:          -7.448
REMARK INTER:                  -7.163
REMARK INTRA:                  -0.285
REMARK UNBOUND:                -0.264
REMARK SMILES O=c1cc(-c2ccc(O)c(O)c2)oc2cc(O)cc(O)c12
REMARK SMILES IDX 4 1 3 2 2 3 1 4 21 5 19 6 18 7 16 8 15 9 14 10 13 11 5 12
REMARK SMILES IDX 6 13 7 14 8 15 12 16 10 17 9 18 11 20 20 22 17 24
REMARK H PARENT 9 19 11 21 20 23 17 25
REMARK Flexibility Score: inf
ROOT
ATOM      1  C   UNL     1      18.993  -1.512 -17.255  1.00  0.00     0.138 A 
ATOM      2  C   UNL     1      18.341  -0.694 -16.322  1.00  0.00     0.100 A 
ATOM      3  C   UNL     1      17.572  -1.274 -15.313  1.00  0.00     0.197 A 
ATOM      4  O   UNL     1      17.049  -0.517 -14.454  1.00  0.00    -0.289 OA
ATOM      5  C   UNL     1      17.430  -2.681 -15.258  1.00  0.00     0.107 A 
ATOM      6  C   UNL     1      16.637  -3.381 -14.299  1.00  0.00     0.134 A 
ATOM      7  C   UNL     1      16.666  -4.781 -14.270  1.00  0.00     0.093 A 
ATOM      8  C   UNL     1      17.411  -5.506 -15.205  1.00  0.00     0.123 A 
ATOM      9  C   UNL     1      18.145  -4.833 -16.179  1.00  0.00     0.094 A 
ATOM     10  C   UNL     1      18.164  -3.436 -16.212  1.00  0.00     0.146 A 
ATOM     11  O   UNL     1      18.889  -2.833 -17.148  1.00  0.00    -0.456 OA
ENDROOT
BRANCH   1  12
ATOM     12  C   UNL     1      19.824  -0.947 -18.348  1.00  0.00     0.021 A 
ATOM     13  C   UNL     1      20.847  -0.035 -18.038  1.00  0.00     0.016 A 
ATOM     14  C   UNL     1      21.648   0.505 -19.048  1.00  0.00     0.051 A 
ATOM     15  C   UNL     1      21.449   0.137 -20.381  1.00  0.00     0.157 A 
ATOM     16  C   UNL     1      19.636  -1.326 -19.691  1.00  0.00     0.062 A 
ATOM     17  C   UNL     1      20.441  -0.785 -20.706  1.00  0.00     0.158 A 
BRANCH  15  18
ATOM     18  O   UNL     1      22.263   0.694 -21.367  1.00  0.00    -0.504 OA
ATOM     19  H   UNL     1      21.930   0.859 -22.309  1.00  0.00     0.293 HD
ENDBRANCH  15  18
BRANCH  17  20
ATOM     20  O   UNL     1      20.244  -1.164 -22.033  1.00  0.00    -0.504 OA
ATOM     21  H   UNL     1      19.316  -1.324 -22.407  1.00  0.00     0.293 HD
ENDBRANCH  17  20
ENDBRANCH   1  12
BRANCH   6  22
ATOM     22  O   UNL     1      15.793  -2.755 -13.378  1.00  0.00    -0.507 OA
ATOM     23  H   UNL     1      15.267  -1.914 -13.557  1.00  0.00     0.293 HD
ENDBRANCH   6  22
BRANCH   8  24
ATOM     24  O   UNL     1      17.421  -6.900 -15.177  1.00  0.00    -0.508 OA
ATOM     25  H   UNL     1      18.267  -7.427 -15.356  1.00  0.00     0.293 HD
ENDBRANCH   8  24
TORSDOF 5
ENDMDL
MODEL 5
REMARK VINA RESULT:    -6.028      1.620      1.739
REMARK INTER + INTRA:          -7.349
REMARK INTER:                  -7.081
REMARK INTRA:                  -0.268
REMARK UNBOUND:                -0.264
REMARK SMILES O=c1cc(-c2ccc(O)c(O)c2)oc2cc(O)cc(O)c12
REMARK SMILES IDX 4 1 3 2 2 3 1 4 21 5 19 6 18 7 16 8 15 9 14 10 13 11 5 12
REMARK SMILES IDX 6 13 7 14 8 15 12 16 10 17 9 18 11 20 20 22 17 24
REMARK H PARENT 9 19 11 21 20 23 17 25
REMARK Flexibility Score: inf
ROOT
ATOM      1  C   UNL     1      18.327  -1.261 -16.378  1.00  0.00     0.138 A 
ATOM      2  C   UNL     1      17.226  -0.483 -15.995  1.00  0.00     0.100 A 
ATOM      3  C   UNL     1      16.458  -0.866 -14.896  1.00  0.00     0.197 A 
ATOM      4  O   UNL     1      15.514  -0.114 -14.538  1.00  0.00    -0.289 OA
ATOM      5  C   UNL     1      16.775  -2.056 -14.197  1.00  0.00     0.107 A 
ATOM      6  C   UNL     1      16.037  -2.568 -13.087  1.00  0.00     0.134 A 
ATOM      7  C   UNL     1      16.514  -3.691 -12.401  1.00  0.00     0.093 A 
ATOM      8  C   UNL     1      17.668  -4.357 -12.823  1.00  0.00     0.123 A 
ATOM      9  C   UNL     1      18.365  -3.897 -13.937  1.00  0.00     0.094 A 
ATOM     10  C   UNL     1      17.934  -2.758 -14.622  1.00  0.00     0.146 A 
ATOM     11  O   UNL     1      18.637  -2.343 -15.671  1.00  0.00    -0.456 OA
ENDROOT
BRANCH   1  12
ATOM     12  C   UNL     1      19.178  -0.898 -17.539  1.00  0.00     0.021 A 
ATOM     13  C   UNL     1      18.717  -1.156 -18.841  1.00  0.00     0.016 A 
ATOM     14  C   UNL     1      19.495  -0.817 -19.951  1.00  0.00     0.051 A 
ATOM     15  C   UNL     1      20.740  -0.206 -19.781  1.00  0.00     0.157 A 
ATOM     16  C   UNL     1      20.427  -0.269 -17.373  1.00  0.00     0.062 A 
ATOM     17  C   UNL     1      21.209   0.073 -18.487  1.00  0.00     0.158 A 
BRANCH  15  18
ATOM     18  O   UNL     1      21.495   0.120 -20.908  1.00  0.00    -0.504 OA
ATOM     19  H   UNL     1      22.318   0.708 -20.852  1.00  0.00     0.293 HD
ENDBRANCH  15  18
BRANCH  17  20
ATOM     20  O   UNL     1      22.445   0.692 -18.312  1.00  0.00    -0.504 OA
ATOM     21  H   UNL     1      23.130   0.334 -17.656  1.00  0.00     0.293 HD
ENDBRANCH  17  20
ENDBRANCH   1  12
BRANCH   6  22
ATOM     22  O   UNL     1      14.828  -2.029 -12.638  1.00  0.00    -0.507 OA
ATOM     23  H   UNL     1      13.942  -2.510 -12.651  1.00  0.00     0.293 HD
ENDBRANCH   6  22
BRANCH   8  24
ATOM     24  O   UNL     1      18.126  -5.484 -12.143  1.00  0.00    -0.508 OA
ATOM     25  H   UNL     1      18.539  -6.268 -12.633  1.00  0.00     0.293 HD
ENDBRANCH   8  24
TORSDOF 5
ENDMDL
MODEL 6
REMARK VINA RESULT:    -5.747      7.055     10.440
REMARK INTER + INTRA:          -7.018
REMARK INTER:                  -6.732
REMARK INTRA:                  -0.286
REMARK UNBOUND:                -0.264
REMARK SMILES O=c1cc(-c2ccc(O)c(O)c2)oc2cc(O)cc(O)c12
REMARK SMILES IDX 4 1 3 2 2 3 1 4 21 5 19 6 18 7 16 8 15 9 14 10 13 11 5 12
REMARK SMILES IDX 6 13 7 14 8 15 12 16 10 17 9 18 11 20 20 22 17 24
REMARK H PARENT 9 19 11 21 20 23 17 25
REMARK Flexibility Score: inf
ROOT
ATOM      1  C   UNL     1      12.012  -5.410 -10.541  1.00  0.00     0.138 A 
ATOM      2  C   UNL     1      11.889  -5.850  -9.216  1.00  0.00     0.100 A 
ATOM      3  C   UNL     1      10.805  -6.649  -8.851  1.00  0.00     0.197 A 
ATOM      4  O   UNL     1      10.755  -7.079  -7.670  1.00  0.00    -0.289 OA
ATOM      5  C   UNL     1       9.821  -6.981  -9.813  1.00  0.00     0.107 A 
ATOM      6  C   UNL     1       8.651  -7.754  -9.545  1.00  0.00     0.134 A 
ATOM      7  C   UNL     1       7.809  -8.118 -10.602  1.00  0.00     0.093 A 
ATOM      8  C   UNL     1       8.060  -7.686 -11.907  1.00  0.00     0.123 A 
ATOM      9  C   UNL     1       9.170  -6.885 -12.169  1.00  0.00     0.094 A 
ATOM     10  C   UNL     1      10.049  -6.534 -11.142  1.00  0.00     0.146 A 
ATOM     11  O   UNL     1      11.104  -5.782 -11.438  1.00  0.00    -0.456 OA
ENDROOT
BRANCH   1  12
ATOM     12  C   UNL     1      13.145  -4.559 -10.983  1.00  0.00     0.021 A 
ATOM     13  C   UNL     1      12.943  -3.613 -12.002  1.00  0.00     0.016 A 
ATOM     14  C   UNL     1      13.991  -2.794 -12.431  1.00  0.00     0.051 A 
ATOM     15  C   UNL     1      15.254  -2.897 -11.843  1.00  0.00     0.157 A 
ATOM     16  C   UNL     1      14.416  -4.649 -10.384  1.00  0.00     0.062 A 
ATOM     17  C   UNL     1      15.469  -3.826 -10.812  1.00  0.00     0.158 A 
BRANCH  15  18
ATOM     18  O   UNL     1      16.281  -2.067 -12.293  1.00  0.00    -0.504 OA
ATOM     19  H   UNL     1      16.917  -2.350 -13.028  1.00  0.00     0.293 HD
ENDBRANCH  15  18
BRANCH  17  20
ATOM     20  O   UNL     1      16.725  -3.926 -10.215  1.00  0.00    -0.504 OA
ATOM     21  H   UNL     1      17.017  -3.289  -9.484  1.00  0.00     0.293 HD
ENDBRANCH  17  20
ENDBRANCH   1  12
BRANCH   6  22
ATOM     22  O   UNL     1       8.263  -8.165  -8.267  1.00  0.00    -0.507 OA
ATOM     23  H   UNL     1       7.404  -8.648  -8.052  1.00  0.00     0.293 HD
ENDBRANCH   6  22
BRANCH   8  24
ATOM     24  O   UNL     1       7.207  -8.041 -12.950  1.00  0.00    -0.508 OA
ATOM     25  H   UNL     1       7.013  -7.406 -13.715  1.00  0.00     0.293 HD
ENDBRANCH   8  24
TORSDOF 5
ENDMDL
MODEL 7
REMARK VINA RESULT:    -5.699      6.929      9.051
REMARK INTER + INTRA:          -6.962
REMARK INTER:                  -6.682
REMARK INTRA:                  -0.280
REMARK UNBOUND:                -0.264
REMARK SMILES O=c1cc(-c2ccc(O)c(O)c2)oc2cc(O)cc(O)c12
REMARK SMILES IDX 4 1 3 2 2 3 1 4 21 5 19 6 18 7 16 8 15 9 14 10 13 11 5 12
REMARK SMILES IDX 6 13 7 14 8 15 12 16 10 17 9 18 11 20 20 22 17 24
REMARK H PARENT 9 19 11 21 20 23 17 25
REMARK Flexibility Score: inf
ROOT
ATOM      1  C   UNL     1      17.884  -2.067  -9.434  1.00  0.00     0.138 A 
ATOM      2  C   UNL     1      17.689  -0.873 -10.141  1.00  0.00     0.100 A 
ATOM      3  C   UNL     1      16.655  -0.784 -11.074  1.00  0.00     0.197 A 
ATOM      4  O   UNL     1      16.466   0.320 -11.647  1.00  0.00    -0.289 OA
ATOM      5  C   UNL     1      15.834  -1.909 -11.322  1.00  0.00     0.107 A 
ATOM      6  C   UNL     1      14.776  -1.947 -12.281  1.00  0.00     0.134 A 
ATOM      7  C   UNL     1      13.954  -3.078 -12.357  1.00  0.00     0.093 A 
ATOM      8  C   UNL     1      14.190  -4.196 -11.551  1.00  0.00     0.123 A 
ATOM      9  C   UNL     1      15.253  -4.189 -10.651  1.00  0.00     0.094 A 
ATOM     10  C   UNL     1      16.070  -3.062 -10.528  1.00  0.00     0.146 A 
ATOM     11  O   UNL     1      17.064  -3.091  -9.646  1.00  0.00    -0.456 OA
ENDROOT
BRANCH   1  12
ATOM     12  C   UNL     1      18.968  -2.216  -8.430  1.00  0.00     0.021 A 
ATOM     13  C   UNL     1      20.301  -1.997  -8.815  1.00  0.00     0.016 A 
ATOM     14  C   UNL     1      21.339  -2.122  -7.888  1.00  0.00     0.051 A 
ATOM     15  C   UNL     1      21.064  -2.458  -6.560  1.00  0.00     0.157 A 
ATOM     16  C   UNL     1      18.694  -2.541  -7.088  1.00  0.00     0.062 A 
ATOM     17  C   UNL     1      19.736  -2.666  -6.155  1.00  0.00     0.158 A 
BRANCH  15  18
ATOM     18  O   UNL     1      22.121  -2.579  -5.658  1.00  0.00    -0.504 OA
ATOM     19  H   UNL     1      22.369  -3.465  -5.236  1.00  0.00     0.293 HD
ENDBRANCH  15  18
BRANCH  17  20
ATOM     20  O   UNL     1      19.454  -2.991  -4.830  1.00  0.00    -0.504 OA
ATOM     21  H   UNL     1      19.389  -3.954  -4.521  1.00  0.00     0.293 HD
ENDBRANCH  17  20
ENDBRANCH   1  12
BRANCH   6  22
ATOM     22  O   UNL     1      14.509  -0.920 -13.190  1.00  0.00    -0.507 OA
ATOM     23  H   UNL     1      13.622  -0.767 -13.644  1.00  0.00     0.293 HD
ENDBRANCH   6  22
BRANCH   8  24
ATOM     24  O   UNL     1      13.376  -5.323 -11.645  1.00  0.00    -0.508 OA
ATOM     25  H   UNL     1      12.639  -5.501 -10.974  1.00  0.00     0.293 HD
ENDBRANCH   8  24
TORSDOF 5
ENDMDL
MODEL 8
REMARK VINA RESULT:    -5.683      2.399      3.968
REMARK INTER + INTRA:          -6.943
REMARK INTER:                  -6.677
REMARK INTRA:                  -0.266
REMARK UNBOUND:                -0.264
REMARK SMILES O=c1cc(-c2ccc(O)c(O)c2)oc2cc(O)cc(O)c12
REMARK SMILES IDX 4 1 3 2 2 3 1 4 21 5 19 6 18 7 16 8 15 9 14 10 13 11 5 12
REMARK SMILES IDX 6 13 7 14 8 15 12 16 10 17 9 18 11 20 20 22 17 24
REMARK H PARENT 9 19 11 21 20 23 17 25
REMARK Flexibility Score: inf
ROOT
ATOM      1  C   UNL     1      17.845  -0.880 -16.113  1.00  0.00     0.138 A 
ATOM      2  C   UNL     1      18.012  -1.781 -15.054  1.00  0.00     0.100 A 
ATOM      3  C   UNL     1      17.043  -1.860 -14.054  1.00  0.00     0.197 A 
ATOM      4  O   UNL     1      17.189  -2.722 -13.149  1.00  0.00    -0.289 OA
ATOM      5  C   UNL     1      15.915  -1.005 -14.099  1.00  0.00     0.107 A 
ATOM      6  C   UNL     1      14.884  -0.966 -13.112  1.00  0.00     0.134 A 
ATOM      7  C   UNL     1      13.757  -0.162 -13.324  1.00  0.00     0.093 A 
ATOM      8  C   UNL     1      13.654   0.651 -14.456  1.00  0.00     0.123 A 
ATOM      9  C   UNL     1      14.680   0.661 -15.397  1.00  0.00     0.094 A 
ATOM     10  C   UNL     1      15.801  -0.156 -15.232  1.00  0.00     0.146 A 
ATOM     11  O   UNL     1      16.751  -0.127 -16.162  1.00  0.00    -0.456 OA
ENDROOT
BRANCH   1  12
ATOM     12  C   UNL     1      18.846  -0.757 -17.203  1.00  0.00     0.021 A 
ATOM     13  C   UNL     1      18.515  -1.193 -18.497  1.00  0.00     0.016 A 
ATOM     14  C   UNL     1      19.436  -1.080 -19.543  1.00  0.00     0.051 A 
ATOM     15  C   UNL     1      20.697  -0.522 -19.317  1.00  0.00     0.157 A 
ATOM     16  C   UNL     1      20.112  -0.181 -16.983  1.00  0.00     0.062 A 
ATOM     17  C   UNL     1      21.037  -0.067 -18.033  1.00  0.00     0.158 A 
BRANCH  15  18
ATOM     18  O   UNL     1      21.596  -0.424 -20.379  1.00  0.00    -0.504 OA
ATOM     19  H   UNL     1      21.290  -0.431 -21.344  1.00  0.00     0.293 HD
ENDBRANCH  15  18
BRANCH  17  20
ATOM     20  O   UNL     1      22.290   0.501 -17.804  1.00  0.00    -0.504 OA
ATOM     21  H   UNL     1      22.846   0.250 -16.995  1.00  0.00     0.293 HD
ENDBRANCH  17  20
ENDBRANCH   1  12
BRANCH   6  22
ATOM     22  O   UNL     1      14.929  -1.674 -11.908  1.00  0.00    -0.507 OA
ATOM     23  H   UNL     1      14.132  -1.864 -11.321  1.00  0.00     0.293 HD
ENDBRANCH   6  22
BRANCH   8  24
ATOM     24  O   UNL     1      12.535   1.460 -14.649  1.00  0.00    -0.508 OA
ATOM     25  H   UNL     1      12.522   2.426 -14.346  1.00  0.00     0.293 HD
ENDBRANCH   8  24
TORSDOF 5
ENDMDL
MODEL 9
REMARK VINA RESULT:    -5.553      2.386      7.046
REMARK INTER + INTRA:          -6.790
REMARK INTER:                  -6.526
REMARK INTRA:                  -0.264
REMARK UNBOUND:                -0.264
REMARK SMILES O=c1cc(-c2ccc(O)c(O)c2)oc2cc(O)cc(O)c12
REMARK SMILES IDX 4 1 3 2 2 3 1 4 21 5 19 6 18 7 16 8 15 9 14 10 13 11 5 12
REMARK SMILES IDX 6 13 7 14 8 15 12 16 10 17 9 18 11 20 20 22 17 24
REMARK H PARENT 9 19 11 21 20 23 17 25
REMARK Flexibility Score: inf
ROOT
ATOM      1  C   UNL     1      18.471  -0.676 -15.839  1.00  0.00     0.138 A 
ATOM      2  C   UNL     1      19.604  -0.060 -15.291  1.00  0.00     0.100 A 
ATOM      3  C   UNL     1      20.680   0.267 -16.117  1.00  0.00     0.197 A 
ATOM      4  O   UNL     1      21.657   0.875 -15.608  1.00  0.00    -0.289 OA
ATOM      5  C   UNL     1      20.632  -0.055 -17.495  1.00  0.00     0.107 A 
ATOM      6  C   UNL     1      21.687   0.193 -18.425  1.00  0.00     0.134 A 
ATOM      7  C   UNL     1      21.480  -0.063 -19.786  1.00  0.00     0.093 A 
ATOM      8  C   UNL     1      20.279  -0.614 -20.242  1.00  0.00     0.123 A 
ATOM      9  C   UNL     1      19.264  -0.910 -19.335  1.00  0.00     0.094 A 
ATOM     10  C   UNL     1      19.427  -0.635 -17.975  1.00  0.00     0.146 A 
ATOM     11  O   UNL     1      18.428  -0.918 -17.145  1.00  0.00    -0.456 OA
ENDROOT
BRANCH   1  12
ATOM     12  C   UNL     1      17.299  -1.045 -15.005  1.00  0.00     0.021 A 
ATOM     13  C   UNL     1      17.256  -2.310 -14.394  1.00  0.00     0.016 A 
ATOM     14  C   UNL     1      16.168  -2.678 -13.598  1.00  0.00     0.051 A 
ATOM     15  C   UNL     1      15.111  -1.789 -13.390  1.00  0.00     0.157 A 
ATOM     16  C   UNL     1      16.238  -0.146 -14.781  1.00  0.00     0.062 A 
ATOM     17  C   UNL     1      15.146  -0.515 -13.980  1.00  0.00     0.158 A 
BRANCH  15  18
ATOM     18  O   UNL     1      14.038  -2.185 -12.592  1.00  0.00    -0.504 OA
ATOM     19  H   UNL     1      13.947  -1.890 -11.628  1.00  0.00     0.293 HD
ENDBRANCH  15  18
BRANCH  17  20
ATOM     20  O   UNL     1      14.100   0.381 -13.767  1.00  0.00    -0.504 OA
ATOM     21  H   UNL     1      14.217   1.377 -13.908  1.00  0.00     0.293 HD
ENDBRANCH  17  20
ENDBRANCH   1  12
BRANCH   6  22
ATOM     22  O   UNL     1      22.952   0.661 -18.062  1.00  0.00    -0.507 OA
ATOM     23  H   UNL     1      23.308   1.581 -18.272  1.00  0.00     0.293 HD
ENDBRANCH   6  22
BRANCH   8  24
ATOM     24  O   UNL     1      20.089  -0.879 -21.597  1.00  0.00    -0.508 OA
ATOM     25  H   UNL     1      20.658  -0.437 -22.308  1.00  0.00     0.293 HD
ENDBRANCH   8  24
TORSDOF 5
ENDMDL
