MODEL 1
REMARK VINA RESULT:    -5.449      0.000      0.000
REMARK INTER + INTRA:          -6.255
REMARK INTER:                  -6.086
REMARK INTRA:                  -0.168
REMARK UNBOUND:                -0.168
REMARK SMILES O=C([O-])c1ccccc1C(=O)[O-]
REMARK SMILES IDX 4 1 9 2 5 3 8 4 6 5 7 6 2 7 1 8 3 9 10 10 11 11 12 12
REMARK H PARENT
REMARK Flexibility Score: inf
ROOT
ATOM      1  C   UNL     1      17.479  35.875  10.135  1.00  0.00     0.006 A 
ATOM      2  C   UNL     1      18.271  34.839  10.704  1.00  0.00     0.006 A 
ATOM      3  C   UNL     1      16.549  36.550  10.947  1.00  0.00     0.010 A 
ATOM      4  C   UNL     1      18.058  34.473  12.045  1.00  0.00     0.010 A 
ATOM      5  C   UNL     1      16.370  36.184  12.283  1.00  0.00     0.001 A 
ATOM      6  C   UNL     1      17.115  35.140  12.826  1.00  0.00     0.001 A 
ENDROOT
BRANCH   1   7
ATOM      7  C   UNL     1      17.538  36.231   8.698  1.00  0.00     0.072 C 
ATOM      8  O   UNL     1      16.763  35.676   7.875  1.00  0.00    -0.545 OA
ATOM      9  O   UNL     1      18.489  37.130   8.229  1.00  0.00    -0.545 OA
ENDBRANCH   1   7
BRANCH   2  10
ATOM     10  C   UNL     1      19.368  34.168   9.968  1.00  0.00     0.072 C 
ATOM     11  O   UNL     1      20.572  34.370  10.279  1.00  0.00    -0.545 OA
ATOM     12  O   UNL     1      19.076  33.251   8.965  1.00  0.00    -0.545 OA
ENDBRANCH   2  10
TORSDOF 2
ENDMDL
MODEL 2
REMARK VINA RESULT:    -4.604      1.830      3.185
REMARK INTER + INTRA:          -5.311
REMARK INTER:                  -5.497
REMARK INTRA:                   0.186
REMARK UNBOUND:                -0.168
REMARK SMILES O=C([O-])c1ccccc1C(=O)[O-]
REMARK SMILES IDX 4 1 9 2 5 3 8 4 6 5 7 6 2 7 1 8 3 9 10 10 11 11 12 12
REMARK H PARENT
REMARK Flexibility Score: inf
ROOT
ATOM      1  C   UNL     1      18.527  35.156   9.366  1.00  0.00     0.006 A 
ATOM      2  C   UNL     1      18.254  35.174  10.762  1.00  0.00     0.006 A 
ATOM      3  C   UNL     1      19.577  34.351   8.884  1.00  0.00     0.010 A 
ATOM      4  C   UNL     1      19.080  34.438  11.631  1.00  0.00     0.010 A 
ATOM      5  C   UNL     1      20.369  33.611   9.763  1.00  0.00     0.001 A 
ATOM      6  C   UNL     1      20.129  33.664  11.134  1.00  0.00     0.001 A 
ENDROOT
BRANCH   1   7
ATOM      7  C   UNL     1      17.800  36.007   8.396  1.00  0.00     0.072 C 
ATOM      8  O   UNL     1      16.728  35.600   7.875  1.00  0.00    -0.545 OA
ATOM      9  O   UNL     1      18.320  37.233   7.998  1.00  0.00    -0.545 OA
ENDBRANCH   1   7
BRANCH   2  10
ATOM     10  C   UNL     1      17.089  35.880  11.345  1.00  0.00     0.072 C 
ATOM     11  O   UNL     1      16.439  35.374  12.298  1.00  0.00    -0.545 OA
ATOM     12  O   UNL     1      16.741  37.146  10.888  1.00  0.00    -0.545 OA
ENDBRANCH   2  10
TORSDOF 2
ENDMDL
MODEL 3
REMARK VINA RESULT:    -4.533      1.835      3.696
REMARK INTER + INTRA:          -5.232
REMARK INTER:                  -5.439
REMARK INTRA:                   0.207
REMARK UNBOUND:                -0.168
REMARK SMILES O=C([O-])c1ccccc1C(=O)[O-]
REMARK SMILES IDX 4 1 9 2 5 3 8 4 6 5 7 6 2 7 1 8 3 9 10 10 11 11 12 12
REMARK H PARENT
REMARK Flexibility Score: inf
ROOT
ATOM      1  C   UNL     1      18.239  35.133  10.769  1.00  0.00     0.006 A 
ATOM      2  C   UNL     1      18.520  35.141   9.374  1.00  0.00     0.006 A 
ATOM      3  C   UNL     1      19.067  34.388  11.629  1.00  0.00     0.010 A 
ATOM      4  C   UNL     1      19.578  34.353   8.884  1.00  0.00     0.010 A 
ATOM      5  C   UNL     1      20.126  33.631  11.123  1.00  0.00     0.001 A 
ATOM      6  C   UNL     1      20.372  33.604   9.753  1.00  0.00     0.001 A 
ENDROOT
BRANCH   1   7
ATOM      7  C   UNL     1      17.065  35.820  11.353  1.00  0.00     0.072 C 
ATOM      8  O   UNL     1      16.763  36.986  10.983  1.00  0.00    -0.545 OA
ATOM      9  O   UNL     1      16.320  35.218  12.360  1.00  0.00    -0.545 OA
ENDBRANCH   1   7
BRANCH   2  10
ATOM     10  C   UNL     1      17.793  36.000   8.410  1.00  0.00     0.072 C 
ATOM     11  O   UNL     1      16.723  35.605   7.875  1.00  0.00    -0.545 OA
ATOM     12  O   UNL     1      18.251  37.283   8.136  1.00  0.00    -0.545 OA
ENDBRANCH   2  10
TORSDOF 2
ENDMDL
MODEL 4
REMARK VINA RESULT:    -4.307     14.611     16.187
REMARK INTER + INTRA:          -4.979
REMARK INTER:                  -4.958
REMARK INTRA:                  -0.021
REMARK UNBOUND:                -0.168
REMARK SMILES O=C([O-])c1ccccc1C(=O)[O-]
REMARK SMILES IDX 4 1 9 2 5 3 8 4 6 5 7 6 2 7 1 8 3 9 10 10 11 11 12 12
REMARK H PARENT
REMARK Flexibility Score: inf
ROOT
ATOM      1  C   UNL     1       5.583  43.316  18.234  1.00  0.00     0.006 A 
ATOM      2  C   UNL     1       6.411  42.159  18.239  1.00  0.00     0.006 A 
ATOM      3  C   UNL     1       5.573  44.155  19.363  1.00  0.00     0.010 A 
ATOM      4  C   UNL     1       7.149  41.850  19.396  1.00  0.00     0.010 A 
ATOM      5  C   UNL     1       6.331  43.841  20.493  1.00  0.00     0.001 A 
ATOM      6  C   UNL     1       7.107  42.685  20.513  1.00  0.00     0.001 A 
ENDROOT
BRANCH   1   7
ATOM      7  C   UNL     1       4.669  43.642  17.115  1.00  0.00     0.072 C 
ATOM      8  O   UNL     1       3.452  43.321  17.176  1.00  0.00    -0.545 OA
ATOM      9  O   UNL     1       5.150  44.245  15.959  1.00  0.00    -0.545 OA
ENDBRANCH   1   7
BRANCH   2  10
ATOM     10  C   UNL     1       6.592  41.293  17.050  1.00  0.00     0.072 C 
ATOM     11  O   UNL     1       7.742  41.052  16.597  1.00  0.00    -0.545 OA
ATOM     12  O   UNL     1       5.492  40.681  16.460  1.00  0.00    -0.545 OA
ENDBRANCH   2  10
TORSDOF 2
ENDMDL
MODEL 5
REMARK VINA RESULT:    -4.302     14.586     16.425
REMARK INTER + INTRA:          -4.973
REMARK INTER:                  -4.982
REMARK INTRA:                   0.009
REMARK UNBOUND:                -0.168
REMARK SMILES O=C([O-])c1ccccc1C(=O)[O-]
REMARK SMILES IDX 4 1 9 2 5 3 8 4 6 5 7 6 2 7 1 8 3 9 10 10 11 11 12 12
REMARK H PARENT
REMARK Flexibility Score: inf
ROOT
ATOM      1  C   UNL     1       6.430  42.126  18.232  1.00  0.00     0.006 A 
ATOM      2  C   UNL     1       5.606  43.285  18.207  1.00  0.00     0.006 A 
ATOM      3  C   UNL     1       7.184  41.846  19.387  1.00  0.00     0.010 A 
ATOM      4  C   UNL     1       5.617  44.157  19.312  1.00  0.00     0.010 A 
ATOM      5  C   UNL     1       7.161  42.713  20.481  1.00  0.00     0.001 A 
ATOM      6  C   UNL     1       6.389  43.871  20.438  1.00  0.00     0.001 A 
ENDROOT
BRANCH   1   7
ATOM      7  C   UNL     1       6.587  41.230  17.063  1.00  0.00     0.072 C 
ATOM      8  O   UNL     1       7.729  41.015  16.578  1.00  0.00    -0.545 OA
ATOM      9  O   UNL     1       5.476  40.668  16.446  1.00  0.00    -0.545 OA
ENDBRANCH   1   7
BRANCH   2  10
ATOM     10  C   UNL     1       4.675  43.589  17.095  1.00  0.00     0.072 C 
ATOM     11  O   UNL     1       3.445  43.340  17.197  1.00  0.00    -0.545 OA
ATOM     12  O   UNL     1       5.144  44.216  15.946  1.00  0.00    -0.545 OA
ENDBRANCH   2  10
TORSDOF 2
ENDMDL
MODEL 6
REMARK VINA RESULT:    -4.112      2.239      3.313
REMARK INTER + INTRA:          -4.761
REMARK INTER:                  -5.123
REMARK INTRA:                   0.363
REMARK UNBOUND:                -0.168
REMARK SMILES O=C([O-])c1ccccc1C(=O)[O-]
REMARK SMILES IDX 4 1 9 2 5 3 8 4 6 5 7 6 2 7 1 8 3 9 10 10 11 11 12 12
REMARK H PARENT
REMARK Flexibility Score: inf
ROOT
ATOM      1  C   UNL     1      17.294  35.975  10.189  1.00  0.00     0.006 A 
ATOM      2  C   UNL     1      18.214  34.970  10.600  1.00  0.00     0.006 A 
ATOM      3  C   UNL     1      17.328  36.430   8.858  1.00  0.00     0.010 A 
ATOM      4  C   UNL     1      19.174  34.505   9.683  1.00  0.00     0.010 A 
ATOM      5  C   UNL     1      18.275  35.938   7.959  1.00  0.00     0.001 A 
ATOM      6  C   UNL     1      19.203  34.987   8.374  1.00  0.00     0.001 A 
ENDROOT
BRANCH   1   7
ATOM      7  C   UNL     1      16.343  36.620  11.123  1.00  0.00     0.072 C 
ATOM      8  O   UNL     1      15.115  36.342  11.070  1.00  0.00    -0.545 OA
ATOM      9  O   UNL     1      16.778  37.585  12.024  1.00  0.00    -0.545 OA
ENDBRANCH   1   7
BRANCH   2  10
ATOM     10  C   UNL     1      18.166  34.332  11.936  1.00  0.00     0.072 C 
ATOM     11  O   UNL     1      17.115  34.365  12.630  1.00  0.00    -0.545 OA
ATOM     12  O   UNL     1      19.266  33.629  12.413  1.00  0.00    -0.545 OA
ENDBRANCH   2  10
TORSDOF 2
ENDMDL
MODEL 7
REMARK VINA RESULT:    -4.103      3.932      5.391
REMARK INTER + INTRA:          -4.751
REMARK INTER:                  -4.582
REMARK INTRA:                  -0.168
REMARK UNBOUND:                -0.168
REMARK SMILES O=C([O-])c1ccccc1C(=O)[O-]
REMARK SMILES IDX 4 1 9 2 5 3 8 4 6 5 7 6 2 7 1 8 3 9 10 10 11 11 12 12
REMARK H PARENT
REMARK Flexibility Score: inf
ROOT
ATOM      1  C   UNL     1      21.197  32.250  10.283  1.00  0.00     0.006 A 
ATOM      2  C   UNL     1      21.906  31.065   9.940  1.00  0.00     0.006 A 
ATOM      3  C   UNL     1      21.071  32.603  11.640  1.00  0.00     0.010 A 
ATOM      4  C   UNL     1      22.405  30.244  10.967  1.00  0.00     0.010 A 
ATOM      5  C   UNL     1      21.594  31.784  12.642  1.00  0.00     0.001 A 
ATOM      6  C   UNL     1      22.248  30.602  12.307  1.00  0.00     0.001 A 
ENDROOT
BRANCH   1   7
ATOM      7  C   UNL     1      20.520  33.098   9.275  1.00  0.00     0.072 C 
ATOM      8  O   UNL     1      20.974  34.241   9.001  1.00  0.00    -0.545 OA
ATOM      9  O   UNL     1      19.343  32.677   8.669  1.00  0.00    -0.545 OA
ENDBRANCH   1   7
BRANCH   2  10
ATOM     10  C   UNL     1      22.209  30.684   8.540  1.00  0.00     0.072 C 
ATOM     11  O   UNL     1      23.078  31.309   7.875  1.00  0.00    -0.545 OA
ATOM     12  O   UNL     1      21.581  29.586   7.965  1.00  0.00    -0.545 OA
ENDBRANCH   2  10
TORSDOF 2
ENDMDL
MODEL 8
REMARK VINA RESULT:    -4.085      1.890      3.439
REMARK INTER + INTRA:          -4.731
REMARK INTER:                  -5.135
REMARK INTRA:                   0.403
REMARK UNBOUND:                -0.168
REMARK SMILES O=C([O-])c1ccccc1C(=O)[O-]
REMARK SMILES IDX 4 1 9 2 5 3 8 4 6 5 7 6 2 7 1 8 3 9 10 10 11 11 12 12
REMARK H PARENT
REMARK Flexibility Score: inf
ROOT
ATOM      1  C   UNL     1      17.167  34.979  11.913  1.00  0.00     0.006 A 
ATOM      2  C   UNL     1      17.769  35.270  10.658  1.00  0.00     0.006 A 
ATOM      3  C   UNL     1      16.160  35.831  12.403  1.00  0.00     0.010 A 
ATOM      4  C   UNL     1      17.388  36.437   9.970  1.00  0.00     0.010 A 
ATOM      5  C   UNL     1      15.782  36.972  11.692  1.00  0.00     0.001 A 
ATOM      6  C   UNL     1      16.404  37.280  10.485  1.00  0.00     0.001 A 
ENDROOT
BRANCH   1   7
ATOM      7  C   UNL     1      17.604  33.851  12.769  1.00  0.00     0.072 C 
ATOM      8  O   UNL     1      18.815  33.507  12.795  1.00  0.00    -0.545 OA
ATOM      9  O   UNL     1      16.679  33.117  13.501  1.00  0.00    -0.545 OA
ENDBRANCH   1   7
BRANCH   2  10
ATOM     10  C   UNL     1      18.736  34.361   9.998  1.00  0.00     0.072 C 
ATOM     11  O   UNL     1      18.359  33.558   9.103  1.00  0.00    -0.545 OA
ATOM     12  O   UNL     1      20.087  34.432  10.315  1.00  0.00    -0.545 OA
ENDBRANCH   2  10
TORSDOF 2
ENDMDL
