MODEL 1
REMARK VINA RESULT:    -3.498      0.000      0.000
REMARK INTER + INTRA:          -5.664
REMARK INTER:                  -5.134
REMARK INTRA:                  -0.530
REMARK UNBOUND:                -0.530
REMARK SMILES O=C([O-])CCCCCCCC(=O)[O-]
REMARK SMILES IDX 7 1 6 2 5 3 4 4 2 5 1 6 3 7 8 8 9 9 10 10 11 11 12 12 13 13
REMARK H PARENT
REMARK Flexibility Score: inf
ROOT
ATOM      1  C   UNL     1      18.798 131.685  66.231  1.00  0.00     0.000 C 
ENDROOT
BRANCH   1   2
ATOM      2  C   UNL     1      18.730 130.580  65.166  1.00  0.00     0.000 C 
BRANCH   2   3
ATOM      3  C   UNL     1      18.448 131.131  63.759  1.00  0.00     0.006 C 
BRANCH   3   4
ATOM      4  C   UNL     1      19.052 132.524  63.538  1.00  0.00     0.053 C 
BRANCH   4   5
ATOM      5  C   UNL     1      19.486 132.685  62.116  1.00  0.00     0.041 C 
ATOM      6  O   UNL     1      18.641 132.956  61.222  1.00  0.00    -0.550 OA
ATOM      7  O   UNL     1      20.817 132.488  61.767  1.00  0.00    -0.550 OA
ENDBRANCH   4   5
ENDBRANCH   3   4
ENDBRANCH   2   3
ENDBRANCH   1   2
BRANCH   1   8
ATOM      8  C   UNL     1      17.933 131.328  67.446  1.00  0.00     0.000 C 
BRANCH   8   9
ATOM      9  C   UNL     1      16.443 131.519  67.140  1.00  0.00     0.006 C 
BRANCH   9  10
ATOM     10  C   UNL     1      15.650 130.246  67.446  1.00  0.00     0.053 C 
BRANCH  10  11
ATOM     11  C   UNL     1      15.220 129.579  66.178  1.00  0.00     0.041 C 
ATOM     12  O   UNL     1      15.880 128.612  65.714  1.00  0.00    -0.550 OA
ATOM     13  O   UNL     1      14.117 130.057  65.482  1.00  0.00    -0.550 OA
ENDBRANCH  10  11
ENDBRANCH   9  10
ENDBRANCH   8   9
ENDBRANCH   1   8
TORSDOF 8
ENDMDL
MODEL 2
REMARK VINA RESULT:    -3.446      8.013      9.980
REMARK INTER + INTRA:          -5.588
REMARK INTER:                  -5.021
REMARK INTRA:                  -0.566
REMARK UNBOUND:                -0.530
REMARK SMILES O=C([O-])CCCCCCCC(=O)[O-]
REMARK SMILES IDX 7 1 6 2 5 3 4 4 2 5 1 6 3 7 8 8 9 9 10 10 11 11 12 12 13 13
REMARK H PARENT
REMARK Flexibility Score: inf
ROOT
ATOM      1  C   UNL     1      16.110 130.949  56.895  1.00  0.00     0.000 C 
ENDROOT
BRANCH   1   2
ATOM      2  C   UNL     1      16.972 131.570  58.004  1.00  0.00     0.000 C 
BRANCH   2   3
ATOM      3  C   UNL     1      17.657 132.872  57.561  1.00  0.00     0.006 C 
BRANCH   3   4
ATOM      4  C   UNL     1      19.051 133.045  58.178  1.00  0.00     0.053 C 
BRANCH   4   5
ATOM      5  C   UNL     1      20.095 133.078  57.107  1.00  0.00     0.041 C 
ATOM      6  O   UNL     1      20.510 132.005  56.594  1.00  0.00    -0.550 OA
ATOM      7  O   UNL     1      20.645 134.290  56.707  1.00  0.00    -0.550 OA
ENDBRANCH   4   5
ENDBRANCH   3   4
ENDBRANCH   2   3
ENDBRANCH   1   2
BRANCH   1   8
ATOM      8  C   UNL     1      15.126 131.978  56.325  1.00  0.00     0.000 C 
BRANCH   8   9
ATOM      9  C   UNL     1      15.025 131.860  54.799  1.00  0.00     0.006 C 
BRANCH   9  10
ATOM     10  C   UNL     1      16.280 131.207  54.214  1.00  0.00     0.053 C 
BRANCH  10  11
ATOM     11  C   UNL     1      17.032 132.183  53.366  1.00  0.00     0.041 C 
ATOM     12  O   UNL     1      17.883 132.952  53.888  1.00  0.00    -0.550 OA
ATOM     13  O   UNL     1      16.759 132.279  52.008  1.00  0.00    -0.550 OA
ENDBRANCH  10  11
ENDBRANCH   9  10
ENDBRANCH   8   9
ENDBRANCH   1   8
TORSDOF 8
ENDMDL
MODEL 3
REMARK VINA RESULT:    -3.426      2.900      4.037
REMARK INTER + INTRA:          -5.558
REMARK INTER:                  -5.148
REMARK INTRA:                  -0.410
REMARK UNBOUND:                -0.530
REMARK SMILES O=C([O-])CCCCCCCC(=O)[O-]
REMARK SMILES IDX 7 1 6 2 5 3 4 4 2 5 1 6 3 7 8 8 9 9 10 10 11 11 12 12 13 13
REMARK H PARENT
REMARK Flexibility Score: inf
ROOT
ATOM      1  C   UNL     1      19.229 132.399  63.328  1.00  0.00     0.000 C 
ENDROOT
BRANCH   1   2
ATOM      2  C   UNL     1      19.741 132.817  61.942  1.00  0.00     0.000 C 
BRANCH   2   3
ATOM      3  C   UNL     1      18.601 133.157  60.968  1.00  0.00     0.006 C 
BRANCH   3   4
ATOM      4  C   UNL     1      19.083 133.950  59.748  1.00  0.00     0.053 C 
BRANCH   4   5
ATOM      5  C   UNL     1      19.071 133.086  58.526  1.00  0.00     0.041 C 
ATOM      6  O   UNL     1      18.118 132.288  58.324  1.00  0.00    -0.550 OA
ATOM      7  O   UNL     1      20.136 133.127  57.634  1.00  0.00    -0.550 OA
ENDBRANCH   4   5
ENDBRANCH   3   4
ENDBRANCH   2   3
ENDBRANCH   1   2
BRANCH   1   8
ATOM      8  C   UNL     1      17.799 131.852  63.243  1.00  0.00     0.000 C 
BRANCH   8   9
ATOM      9  C   UNL     1      17.592 130.690  64.222  1.00  0.00     0.006 C 
BRANCH   9  10
ATOM     10  C   UNL     1      18.923 130.016  64.564  1.00  0.00     0.053 C 
BRANCH  10  11
ATOM     11  C   UNL     1      18.937 128.603  64.070  1.00  0.00     0.041 C 
ATOM     12  O   UNL     1      17.860 127.958  63.962  1.00  0.00    -0.550 OA
ATOM     13  O   UNL     1      20.144 127.982  63.777  1.00  0.00    -0.550 OA
ENDBRANCH  10  11
ENDBRANCH   9  10
ENDBRANCH   8   9
ENDBRANCH   1   8
TORSDOF 8
ENDMDL
MODEL 4
REMARK VINA RESULT:    -3.413      0.504      5.672
REMARK INTER + INTRA:          -5.538
REMARK INTER:                  -5.011
REMARK INTRA:                  -0.528
REMARK UNBOUND:                -0.530
REMARK SMILES O=C([O-])CCCCCCCC(=O)[O-]
REMARK SMILES IDX 7 1 6 2 5 3 4 4 2 5 1 6 3 7 8 8 9 9 10 10 11 11 12 12 13 13
REMARK H PARENT
REMARK Flexibility Score: inf
ROOT
ATOM      1  C   UNL     1      18.867 132.023  65.901  1.00  0.00     0.000 C 
ENDROOT
BRANCH   1   2
ATOM      2  C   UNL     1      18.184 131.288  67.064  1.00  0.00     0.000 C 
BRANCH   2   3
ATOM      3  C   UNL     1      16.670 131.548  67.120  1.00  0.00     0.006 C 
BRANCH   3   4
ATOM      4  C   UNL     1      15.860 130.269  67.365  1.00  0.00     0.053 C 
BRANCH   4   5
ATOM      5  C   UNL     1      15.426 129.670  66.064  1.00  0.00     0.041 C 
ATOM      6  O   UNL     1      16.219 128.949  65.403  1.00  0.00    -0.550 OA
ATOM      7  O   UNL     1      14.162 129.946  65.558  1.00  0.00    -0.550 OA
ENDBRANCH   4   5
ENDBRANCH   3   4
ENDBRANCH   2   3
ENDBRANCH   1   2
BRANCH   1   8
ATOM      8  C   UNL     1      19.047 131.093  64.695  1.00  0.00     0.000 C 
BRANCH   8   9
ATOM      9  C   UNL     1      18.253 131.599  63.485  1.00  0.00     0.006 C 
BRANCH   9  10
ATOM     10  C   UNL     1      18.754 132.973  63.033  1.00  0.00     0.053 C 
BRANCH  10  11
ATOM     11  C   UNL     1      19.613 132.843  61.815  1.00  0.00     0.041 C 
ATOM     12  O   UNL     1      20.798 132.428  61.917  1.00  0.00    -0.550 OA
ATOM     13  O   UNL     1      19.123 133.227  60.574  1.00  0.00    -0.550 OA
ENDBRANCH  10  11
ENDBRANCH   9  10
ENDBRANCH   8   9
ENDBRANCH   1   8
TORSDOF 8
ENDMDL
MODEL 5
REMARK VINA RESULT:    -3.411      2.736      4.724
REMARK INTER + INTRA:          -5.536
REMARK INTER:                  -4.870
REMARK INTRA:                  -0.666
REMARK UNBOUND:                -0.530
REMARK SMILES O=C([O-])CCCCCCCC(=O)[O-]
REMARK SMILES IDX 7 1 6 2 5 3 4 4 2 5 1 6 3 7 8 8 9 9 10 10 11 11 12 12 13 13
REMARK H PARENT
REMARK Flexibility Score: inf
ROOT
ATOM      1  C   UNL     1      19.674 132.003  63.227  1.00  0.00     0.000 C 
ENDROOT
BRANCH   1   2
ATOM      2  C   UNL     1      18.880 132.198  64.527  1.00  0.00     0.000 C 
BRANCH   2   3
ATOM      3  C   UNL     1      18.623 130.875  65.266  1.00  0.00     0.006 C 
BRANCH   3   4
ATOM      4  C   UNL     1      18.911 129.646  64.395  1.00  0.00     0.053 C 
BRANCH   4   5
ATOM      5  C   UNL     1      17.728 128.729  64.379  1.00  0.00     0.041 C 
ATOM      6  O   UNL     1      17.728 127.708  63.642  1.00  0.00    -0.550 OA
ATOM      7  O   UNL     1      16.605 129.028  65.141  1.00  0.00    -0.550 OA
ENDBRANCH   4   5
ENDBRANCH   3   4
ENDBRANCH   2   3
ENDBRANCH   1   2
BRANCH   1   8
ATOM      8  C   UNL     1      19.129 132.903  62.111  1.00  0.00     0.000 C 
BRANCH   8   9
ATOM      9  C   UNL     1      17.650 133.236  62.343  1.00  0.00     0.006 C 
BRANCH   9  10
ATOM     10  C   UNL     1      16.758 132.508  61.334  1.00  0.00     0.053 C 
BRANCH  10  11
ATOM     11  C   UNL     1      15.554 131.938  62.014  1.00  0.00     0.041 C 
ATOM     12  O   UNL     1      14.471 131.810  61.383  1.00  0.00    -0.550 OA
ATOM     13  O   UNL     1      15.612 131.596  63.358  1.00  0.00    -0.550 OA
ENDBRANCH  10  11
ENDBRANCH   9  10
ENDBRANCH   8   9
ENDBRANCH   1   8
TORSDOF 8
ENDMDL
MODEL 6
REMARK VINA RESULT:    -3.343      7.889      9.764
REMARK INTER + INTRA:          -5.437
REMARK INTER:                  -4.737
REMARK INTRA:                  -0.700
REMARK UNBOUND:                -0.530
REMARK SMILES O=C([O-])CCCCCCCC(=O)[O-]
REMARK SMILES IDX 7 1 6 2 5 3 4 4 2 5 1 6 3 7 8 8 9 9 10 10 11 11 12 12 13 13
REMARK H PARENT
REMARK Flexibility Score: inf
ROOT
ATOM      1  C   UNL     1      15.716 132.136  56.934  1.00  0.00     0.000 C 
ENDROOT
BRANCH   1   2
ATOM      2  C   UNL     1      16.386 130.775  56.690  1.00  0.00     0.000 C 
BRANCH   2   3
ATOM      3  C   UNL     1      16.883 130.612  55.244  1.00  0.00     0.006 C 
BRANCH   3   4
ATOM      4  C   UNL     1      16.055 131.424  54.240  1.00  0.00     0.053 C 
BRANCH   4   5
ATOM      5  C   UNL     1      16.953 132.242  53.366  1.00  0.00     0.041 C 
ATOM      6  O   UNL     1      16.907 132.114  52.114  1.00  0.00    -0.550 OA
ATOM      7  O   UNL     1      17.874 133.113  53.935  1.00  0.00    -0.550 OA
ENDBRANCH   4   5
ENDBRANCH   3   4
ENDBRANCH   2   3
ENDBRANCH   1   2
BRANCH   1   8
ATOM      8  C   UNL     1      16.704 133.130  57.556  1.00  0.00     0.000 C 
BRANCH   8   9
ATOM      9  C   UNL     1      17.829 132.399  58.300  1.00  0.00     0.006 C 
BRANCH   9  10
ATOM     10  C   UNL     1      19.075 133.279  58.415  1.00  0.00     0.053 C 
BRANCH  10  11
ATOM     11  C   UNL     1      19.908 133.174  57.176  1.00  0.00     0.041 C 
ATOM     12  O   UNL     1      20.554 134.171  56.759  1.00  0.00    -0.550 OA
ATOM     13  O   UNL     1      19.930 131.988  56.453  1.00  0.00    -0.550 OA
ENDBRANCH  10  11
ENDBRANCH   9  10
ENDBRANCH   8   9
ENDBRANCH   1   8
TORSDOF 8
ENDMDL
MODEL 7
REMARK VINA RESULT:    -3.340      2.196      2.960
REMARK INTER + INTRA:          -5.432
REMARK INTER:                  -5.075
REMARK INTRA:                  -0.357
REMARK UNBOUND:                -0.530
REMARK SMILES O=C([O-])CCCCCCCC(=O)[O-]
REMARK SMILES IDX 7 1 6 2 5 3 4 4 2 5 1 6 3 7 8 8 9 9 10 10 11 11 12 12 13 13
REMARK H PARENT
REMARK Flexibility Score: inf
ROOT
ATOM      1  C   UNL     1      18.875 132.616  64.251  1.00  0.00     0.000 C 
ENDROOT
BRANCH   1   2
ATOM      2  C   UNL     1      19.856 131.995  63.245  1.00  0.00     0.000 C 
BRANCH   2   3
ATOM      3  C   UNL     1      19.870 132.736  61.898  1.00  0.00     0.006 C 
BRANCH   3   4
ATOM      4  C   UNL     1      18.480 133.237  61.486  1.00  0.00     0.053 C 
BRANCH   4   5
ATOM      5  C   UNL     1      18.291 133.093  60.009  1.00  0.00     0.041 C 
ATOM      6  O   UNL     1      19.285 133.130  59.236  1.00  0.00    -0.550 OA
ATOM      7  O   UNL     1      17.012 132.965  59.479  1.00  0.00    -0.550 OA
ENDBRANCH   4   5
ENDBRANCH   3   4
ENDBRANCH   2   3
ENDBRANCH   1   2
BRANCH   1   8
ATOM      8  C   UNL     1      18.635 131.674  65.437  1.00  0.00     0.000 C 
BRANCH   8   9
ATOM      9  C   UNL     1      18.701 130.206  64.998  1.00  0.00     0.006 C 
BRANCH   9  10
ATOM     10  C   UNL     1      17.367 129.751  64.399  1.00  0.00     0.053 C 
BRANCH  10  11
ATOM     11  C   UNL     1      17.282 128.257  64.384  1.00  0.00     0.041 C 
ATOM     12  O   UNL     1      18.060 127.585  63.657  1.00  0.00    -0.550 OA
ATOM     13  O   UNL     1      16.310 127.610  65.135  1.00  0.00    -0.550 OA
ENDBRANCH  10  11
ENDBRANCH   9  10
ENDBRANCH   8   9
ENDBRANCH   1   8
TORSDOF 8
ENDMDL
MODEL 8
REMARK VINA RESULT:    -3.322      7.271     10.682
REMARK INTER + INTRA:          -5.406
REMARK INTER:                  -4.855
REMARK INTRA:                  -0.551
REMARK UNBOUND:                -0.530
REMARK SMILES O=C([O-])CCCCCCCC(=O)[O-]
REMARK SMILES IDX 7 1 6 2 5 3 4 4 2 5 1 6 3 7 8 8 9 9 10 10 11 11 12 12 13 13
REMARK H PARENT
REMARK Flexibility Score: inf
ROOT
ATOM      1  C   UNL     1      15.281 132.007  56.145  1.00  0.00     0.000 C 
ENDROOT
BRANCH   1   2
ATOM      2  C   UNL     1      16.229 130.983  56.788  1.00  0.00     0.000 C 
BRANCH   2   3
ATOM      3  C   UNL     1      17.031 131.574  57.959  1.00  0.00     0.006 C 
BRANCH   3   4
ATOM      4  C   UNL     1      17.802 132.840  57.567  1.00  0.00     0.053 C 
BRANCH   4   5
ATOM      5  C   UNL     1      19.108 132.901  58.295  1.00  0.00     0.041 C 
ATOM      6  O   UNL     1      19.136 133.186  59.522  1.00  0.00    -0.550 OA
ATOM      7  O   UNL     1      20.298 132.691  57.610  1.00  0.00    -0.550 OA
ENDBRANCH   4   5
ENDBRANCH   3   4
ENDBRANCH   2   3
ENDBRANCH   1   2
BRANCH   1   8
ATOM      8  C   UNL     1      15.211 131.811  54.626  1.00  0.00     0.000 C 
BRANCH   8   9
ATOM      9  C   UNL     1      16.600 131.526  54.041  1.00  0.00     0.006 C 
BRANCH   9  10
ATOM     10  C   UNL     1      17.377 132.824  53.809  1.00  0.00     0.053 C 
BRANCH  10  11
ATOM     11  C   UNL     1      17.559 133.071  52.345  1.00  0.00     0.041 C 
ATOM     12  O   UNL     1      18.169 134.099  51.946  1.00  0.00    -0.550 OA
ATOM     13  O   UNL     1      17.013 132.192  51.419  1.00  0.00    -0.550 OA
ENDBRANCH  10  11
ENDBRANCH   9  10
ENDBRANCH   8   9
ENDBRANCH   1   8
TORSDOF 8
ENDMDL
MODEL 9
REMARK VINA RESULT:    -3.286      7.456     10.231
REMARK INTER + INTRA:          -5.353
REMARK INTER:                  -4.869
REMARK INTRA:                  -0.484
REMARK UNBOUND:                -0.530
REMARK SMILES O=C([O-])CCCCCCCC(=O)[O-]
REMARK SMILES IDX 7 1 6 2 5 3 4 4 2 5 1 6 3 7 8 8 9 9 10 10 11 11 12 12 13 13
REMARK H PARENT
REMARK Flexibility Score: inf
ROOT
ATOM      1  C   UNL     1      17.137 130.963  55.419  1.00  0.00     0.000 C 
ENDROOT
BRANCH   1   2
ATOM      2  C   UNL     1      16.216 131.270  54.229  1.00  0.00     0.000 C 
BRANCH   2   3
ATOM      3  C   UNL     1      16.914 132.101  53.140  1.00  0.00     0.006 C 
BRANCH   3   4
ATOM      4  C   UNL     1      17.245 133.525  53.605  1.00  0.00     0.053 C 
BRANCH   4   5
ATOM      5  C   UNL     1      17.913 134.290  52.506  1.00  0.00     0.041 C 
ATOM      6  O   UNL     1      18.656 135.269  52.777  1.00  0.00    -0.550 OA
ATOM      7  O   UNL     1      17.676 133.952  51.179  1.00  0.00    -0.550 OA
ENDBRANCH   4   5
ENDBRANCH   3   4
ENDBRANCH   2   3
ENDBRANCH   1   2
BRANCH   1   8
ATOM      8  C   UNL     1      16.334 130.855  56.721  1.00  0.00     0.000 C 
BRANCH   8   9
ATOM      9  C   UNL     1      17.005 131.644  57.852  1.00  0.00     0.006 C 
BRANCH   9  10
ATOM     10  C   UNL     1      17.888 132.763  57.293  1.00  0.00     0.053 C 
BRANCH  10  11
ATOM     11  C   UNL     1      19.194 132.813  58.020  1.00  0.00     0.041 C 
ATOM     12  O   UNL     1      19.230 133.135  59.237  1.00  0.00    -0.550 OA
ATOM     13  O   UNL     1      20.377 132.554  57.341  1.00  0.00    -0.550 OA
ENDBRANCH  10  11
ENDBRANCH   9  10
ENDBRANCH   8   9
ENDBRANCH   1   8
TORSDOF 8
ENDMDL
