MODEL 1
REMARK VINA RESULT:    -7.147      0.000      0.000
REMARK INTER + INTRA:          -7.147
REMARK INTER:                  -7.147
REMARK INTRA:                   0.000
REMARK UNBOUND:                 0.000
REMARK SMILES C=C1CCC[C@]2(C)CC(=O)C(=C(C)C)C[C@H]12
REMARK SMILES IDX 13 1 12 2 11 3 15 4 16 5 2 6 1 7 3 8 4 9 5 10 6 11 8 12 9 13
REMARK SMILES IDX 10 14 7 15 14 16
REMARK H PARENT
REMARK Flexibility Score: inf
ROOT
ATOM      1  C   UNL     1     -13.625 -14.251  27.697  1.00  0.00     0.039 C 
ATOM      2  C   UNL     1     -12.922 -15.576  27.504  1.00  0.00    -0.070 C 
ATOM      3  C   UNL     1     -12.341 -16.224  28.556  1.00  0.00    -0.006 C 
ATOM      4  C   UNL     1     -12.306 -15.625  29.953  1.00  0.00     0.047 C 
ATOM      5  C   UNL     1     -12.389 -16.722  31.044  1.00  0.00     0.025 C 
ATOM      6  C   UNL     1     -12.376 -16.052  32.413  1.00  0.00    -0.073 C 
ATOM      7  C   UNL     1     -13.524 -15.638  32.973  1.00  0.00     0.008 C 
ATOM      8  C   UNL     1     -11.074 -15.758  33.123  1.00  0.00     0.031 C 
ATOM      9  C   UNL     1      -9.875 -16.386  32.413  1.00  0.00     0.005 C 
ATOM     10  C   UNL     1     -10.206 -17.821  32.002  1.00  0.00     0.008 C 
ATOM     11  C   UNL     1     -11.304 -17.878  30.893  1.00  0.00    -0.018 C 
ATOM     12  C   UNL     1     -10.599 -17.831  29.504  1.00  0.00     0.088 C 
ATOM     13  C   UNL     1     -11.566 -17.484  28.415  1.00  0.00     0.159 C 
ATOM     14  O   UNL     1     -11.726 -18.275  27.449  1.00  0.00    -0.295 OA
ATOM     15  C   UNL     1     -12.016 -19.249  31.016  1.00  0.00     0.012 C 
ATOM     16  C   UNL     1     -12.863 -16.126  26.098  1.00  0.00     0.039 C 
ENDROOT
TORSDOF 0
ENDMDL
MODEL 2
REMARK VINA RESULT:    -6.031      2.228      4.690
REMARK INTER + INTRA:          -6.031
REMARK INTER:                  -6.031
REMARK INTRA:                   0.000
REMARK UNBOUND:                 0.000
REMARK SMILES C=C1CCC[C@]2(C)CC(=O)C(=C(C)C)C[C@H]12
REMARK SMILES IDX 13 1 12 2 11 3 15 4 16 5 2 6 1 7 3 8 4 9 5 10 6 11 8 12 9 13
REMARK SMILES IDX 10 14 7 15 14 16
REMARK H PARENT
REMARK Flexibility Score: inf
ROOT
ATOM      1  C   UNL     1     -13.646 -16.618  33.074  1.00  0.00     0.039 C 
ATOM      2  C   UNL     1     -13.783 -15.530  32.032  1.00  0.00    -0.070 C 
ATOM      3  C   UNL     1     -13.226 -15.668  30.793  1.00  0.00    -0.006 C 
ATOM      4  C   UNL     1     -12.387 -16.878  30.416  1.00  0.00     0.047 C 
ATOM      5  C   UNL     1     -12.556 -17.242  28.919  1.00  0.00     0.025 C 
ATOM      6  C   UNL     1     -11.711 -18.475  28.618  1.00  0.00    -0.073 C 
ATOM      7  C   UNL     1     -12.219 -19.704  28.806  1.00  0.00     0.008 C 
ATOM      8  C   UNL     1     -10.266 -18.344  28.193  1.00  0.00     0.031 C 
ATOM      9  C   UNL     1      -9.875 -16.892  27.919  1.00  0.00     0.005 C 
ATOM     10  C   UNL     1     -10.969 -16.203  27.104  1.00  0.00     0.008 C 
ATOM     11  C   UNL     1     -12.292 -16.033  27.917  1.00  0.00    -0.018 C 
ATOM     12  C   UNL     1     -12.235 -14.666  28.665  1.00  0.00     0.088 C 
ATOM     13  C   UNL     1     -13.254 -14.602  29.759  1.00  0.00     0.159 C 
ATOM     14  O   UNL     1     -14.120 -13.688  29.749  1.00  0.00    -0.295 OA
ATOM     15  C   UNL     1     -13.457 -15.967  26.899  1.00  0.00     0.012 C 
ATOM     16  C   UNL     1     -14.527 -14.279  32.437  1.00  0.00     0.039 C 
ENDROOT
TORSDOF 0
ENDMDL
MODEL 3
REMARK VINA RESULT:    -5.851      2.118      3.853
REMARK INTER + INTRA:          -5.851
REMARK INTER:                  -5.851
REMARK INTRA:                   0.000
REMARK UNBOUND:                 0.000
REMARK SMILES C=C1CCC[C@]2(C)CC(=O)C(=C(C)C)C[C@H]12
REMARK SMILES IDX 13 1 12 2 11 3 15 4 16 5 2 6 1 7 3 8 4 9 5 10 6 11 8 12 9 13
REMARK SMILES IDX 10 14 7 15 14 16
REMARK H PARENT
REMARK Flexibility Score: inf
ROOT
ATOM      1  C   UNL     1     -13.927 -13.730  27.864  1.00  0.00     0.039 C 
ATOM      2  C   UNL     1     -14.026 -13.887  29.365  1.00  0.00    -0.070 C 
ATOM      3  C   UNL     1     -13.446 -14.947  30.000  1.00  0.00    -0.006 C 
ATOM      4  C   UNL     1     -12.735 -16.054  29.240  1.00  0.00     0.047 C 
ATOM      5  C   UNL     1     -11.543 -16.625  30.049  1.00  0.00     0.025 C 
ATOM      6  C   UNL     1     -10.862 -17.708  29.219  1.00  0.00    -0.073 C 
ATOM      7  C   UNL     1      -9.900 -17.380  28.341  1.00  0.00     0.008 C 
ATOM      8  C   UNL     1     -11.316 -19.148  29.296  1.00  0.00     0.031 C 
ATOM      9  C   UNL     1     -12.336 -19.372  30.412  1.00  0.00     0.005 C 
ATOM     10  C   UNL     1     -11.885 -18.651  31.682  1.00  0.00     0.008 C 
ATOM     11  C   UNL     1     -11.919 -17.098  31.522  1.00  0.00    -0.018 C 
ATOM     12  C   UNL     1     -13.330 -16.593  31.949  1.00  0.00     0.088 C 
ATOM     13  C   UNL     1     -13.581 -15.201  31.458  1.00  0.00     0.159 C 
ATOM     14  O   UNL     1     -13.849 -14.289  32.284  1.00  0.00    -0.295 OA
ATOM     15  C   UNL     1     -10.885 -16.507  32.513  1.00  0.00     0.012 C 
ATOM     16  C   UNL     1     -14.822 -12.844  30.115  1.00  0.00     0.039 C 
ENDROOT
TORSDOF 0
ENDMDL
MODEL 4
REMARK VINA RESULT:    -5.241      2.293      4.160
REMARK INTER + INTRA:          -5.241
REMARK INTER:                  -5.241
REMARK INTRA:                   0.000
REMARK UNBOUND:                 0.000
REMARK SMILES C=C1CCC[C@]2(C)CC(=O)C(=C(C)C)C[C@H]12
REMARK SMILES IDX 13 1 12 2 11 3 15 4 16 5 2 6 1 7 3 8 4 9 5 10 6 11 8 12 9 13
REMARK SMILES IDX 10 14 7 15 14 16
REMARK H PARENT
REMARK Flexibility Score: inf
ROOT
ATOM      1  C   UNL     1     -14.369 -13.614  30.256  1.00  0.00     0.039 C 
ATOM      2  C   UNL     1     -14.120 -14.636  31.343  1.00  0.00    -0.070 C 
ATOM      3  C   UNL     1     -13.279 -15.691  31.136  1.00  0.00    -0.006 C 
ATOM      4  C   UNL     1     -12.604 -15.935  29.796  1.00  0.00     0.047 C 
ATOM      5  C   UNL     1     -11.199 -16.564  29.973  1.00  0.00     0.025 C 
ATOM      6  C   UNL     1     -10.572 -16.756  28.596  1.00  0.00    -0.073 C 
ATOM      7  C   UNL     1      -9.875 -15.760  28.028  1.00  0.00     0.008 C 
ATOM      8  C   UNL     1     -10.797 -18.027  27.809  1.00  0.00     0.031 C 
ATOM      9  C   UNL     1     -11.513 -19.097  28.633  1.00  0.00     0.005 C 
ATOM     10  C   UNL     1     -10.902 -19.172  30.032  1.00  0.00     0.008 C 
ATOM     11  C   UNL     1     -11.180 -17.882  30.867  1.00  0.00    -0.018 C 
ATOM     12  C   UNL     1     -12.522 -18.078  31.636  1.00  0.00     0.088 C 
ATOM     13  C   UNL     1     -13.060 -16.772  32.132  1.00  0.00     0.159 C 
ATOM     14  O   UNL     1     -13.266 -16.612  33.364  1.00  0.00    -0.295 OA
ATOM     15  C   UNL     1     -10.048 -17.756  31.917  1.00  0.00     0.012 C 
ATOM     16  C   UNL     1     -14.870 -14.457  32.642  1.00  0.00     0.039 C 
ENDROOT
TORSDOF 0
ENDMDL
MODEL 5
REMARK VINA RESULT:    -5.031      2.105      3.199
REMARK INTER + INTRA:          -5.031
REMARK INTER:                  -5.031
REMARK INTRA:                   0.000
REMARK UNBOUND:                 0.000
REMARK SMILES C=C1CCC[C@]2(C)CC(=O)C(=C(C)C)C[C@H]12
REMARK SMILES IDX 13 1 12 2 11 3 15 4 16 5 2 6 1 7 3 8 4 9 5 10 6 11 8 12 9 13
REMARK SMILES IDX 10 14 7 15 14 16
REMARK H PARENT
REMARK Flexibility Score: inf
ROOT
ATOM      1  C   UNL     1     -15.887 -13.881  31.325  1.00  0.00     0.039 C 
ATOM      2  C   UNL     1     -15.135 -13.748  30.020  1.00  0.00    -0.070 C 
ATOM      3  C   UNL     1     -13.970 -14.426  29.807  1.00  0.00    -0.006 C 
ATOM      4  C   UNL     1     -13.331 -15.291  30.881  1.00  0.00     0.047 C 
ATOM      5  C   UNL     1     -12.601 -16.512  30.268  1.00  0.00     0.025 C 
ATOM      6  C   UNL     1     -12.009 -17.346  31.399  1.00  0.00    -0.073 C 
ATOM      7  C   UNL     1     -12.749 -18.294  31.997  1.00  0.00     0.008 C 
ATOM      8  C   UNL     1     -10.622 -17.065  31.929  1.00  0.00     0.031 C 
ATOM      9  C   UNL     1      -9.875 -16.039  31.077  1.00  0.00     0.005 C 
ATOM     10  C   UNL     1     -10.068 -16.355  29.594  1.00  0.00     0.008 C 
ATOM     11  C   UNL     1     -11.546 -16.143  29.134  1.00  0.00    -0.018 C 
ATOM     12  C   UNL     1     -11.702 -14.666  28.658  1.00  0.00     0.088 C 
ATOM     13  C   UNL     1     -13.144 -14.270  28.581  1.00  0.00     0.159 C 
ATOM     14  O   UNL     1     -13.620 -13.866  27.488  1.00  0.00    -0.295 OA
ATOM     15  C   UNL     1     -11.787 -17.062  27.911  1.00  0.00     0.012 C 
ATOM     16  C   UNL     1     -15.711 -12.807  28.987  1.00  0.00     0.039 C 
ENDROOT
TORSDOF 0
ENDMDL
MODEL 6
REMARK VINA RESULT:    -4.714      1.721      4.682
REMARK INTER + INTRA:          -4.714
REMARK INTER:                  -4.714
REMARK INTRA:                   0.000
REMARK UNBOUND:                 0.000
REMARK SMILES C=C1CCC[C@]2(C)CC(=O)C(=C(C)C)C[C@H]12
REMARK SMILES IDX 13 1 12 2 11 3 15 4 16 5 2 6 1 7 3 8 4 9 5 10 6 11 8 12 9 13
REMARK SMILES IDX 10 14 7 15 14 16
REMARK H PARENT
REMARK Flexibility Score: inf
ROOT
ATOM      1  C   UNL     1     -13.213 -17.629  32.539  1.00  0.00     0.039 C 
ATOM      2  C   UNL     1     -12.177 -18.238  31.620  1.00  0.00    -0.070 C 
ATOM      3  C   UNL     1     -12.004 -17.773  30.349  1.00  0.00    -0.006 C 
ATOM      4  C   UNL     1     -12.878 -16.675  29.765  1.00  0.00     0.047 C 
ATOM      5  C   UNL     1     -12.085 -15.783  28.776  1.00  0.00     0.025 C 
ATOM      6  C   UNL     1     -13.011 -14.692  28.251  1.00  0.00    -0.073 C 
ATOM      7  C   UNL     1     -13.147 -13.540  28.927  1.00  0.00     0.008 C 
ATOM      8  C   UNL     1     -13.860 -14.916  27.020  1.00  0.00     0.031 C 
ATOM      9  C   UNL     1     -13.511 -16.223  26.310  1.00  0.00     0.005 C 
ATOM     10  C   UNL     1     -11.993 -16.378  26.220  1.00  0.00     0.008 C 
ATOM     11  C   UNL     1     -11.338 -16.589  27.623  1.00  0.00    -0.018 C 
ATOM     12  C   UNL     1     -11.299 -18.119  27.919  1.00  0.00     0.088 C 
ATOM     13  C   UNL     1     -11.064 -18.385  29.374  1.00  0.00     0.159 C 
ATOM     14  O   UNL     1     -10.068 -19.069  29.728  1.00  0.00    -0.295 OA
ATOM     15  C   UNL     1      -9.875 -16.087  27.532  1.00  0.00     0.012 C 
ATOM     16  C   UNL     1     -11.377 -19.401  32.160  1.00  0.00     0.039 C 
ENDROOT
TORSDOF 0
ENDMDL
MODEL 7
REMARK VINA RESULT:    -4.514      1.957      4.772
REMARK INTER + INTRA:          -4.514
REMARK INTER:                  -4.514
REMARK INTRA:                   0.000
REMARK UNBOUND:                 0.000
REMARK SMILES C=C1CCC[C@]2(C)CC(=O)C(=C(C)C)C[C@H]12
REMARK SMILES IDX 13 1 12 2 11 3 15 4 16 5 2 6 1 7 3 8 4 9 5 10 6 11 8 12 9 13
REMARK SMILES IDX 10 14 7 15 14 16
REMARK H PARENT
REMARK Flexibility Score: inf
ROOT
ATOM      1  C   UNL     1     -15.083 -14.999  32.375  1.00  0.00     0.039 C 
ATOM      2  C   UNL     1     -13.622 -15.358  32.521  1.00  0.00    -0.070 C 
ATOM      3  C   UNL     1     -12.859 -15.660  31.429  1.00  0.00    -0.006 C 
ATOM      4  C   UNL     1     -13.444 -15.718  30.027  1.00  0.00     0.047 C 
ATOM      5  C   UNL     1     -12.414 -15.263  28.963  1.00  0.00     0.025 C 
ATOM      6  C   UNL     1     -13.073 -15.320  27.589  1.00  0.00    -0.073 C 
ATOM      7  C   UNL     1     -13.769 -14.268  27.130  1.00  0.00     0.008 C 
ATOM      8  C   UNL     1     -13.036 -16.584  26.761  1.00  0.00     0.031 C 
ATOM      9  C   UNL     1     -12.119 -17.645  27.368  1.00  0.00     0.005 C 
ATOM     10  C   UNL     1     -10.810 -17.002  27.825  1.00  0.00     0.008 C 
ATOM     11  C   UNL     1     -11.020 -16.030  29.030  1.00  0.00    -0.018 C 
ATOM     12  C   UNL     1     -10.874 -16.847  30.349  1.00  0.00     0.088 C 
ATOM     13  C   UNL     1     -11.443 -16.102  31.516  1.00  0.00     0.159 C 
ATOM     14  O   UNL     1     -10.708 -15.836  32.503  1.00  0.00    -0.295 OA
ATOM     15  C   UNL     1      -9.875 -14.988  28.989  1.00  0.00     0.012 C 
ATOM     16  C   UNL     1     -13.060 -15.405  33.923  1.00  0.00     0.039 C 
ENDROOT
TORSDOF 0
ENDMDL
