MODEL 1
REMARK VINA RESULT:    -4.388      0.000      0.000
REMARK INTER + INTRA:          -4.773
REMARK INTER:                  -4.773
REMARK INTRA:                   0.000
REMARK UNBOUND:                 0.000
REMARK SMILES Cc1cc(O)c2c(c1)C(=O)c1cc(O)cc(O)c1C2=O
REMARK SMILES IDX 1 1 2 2 8 3 7 4 6 5 4 6 3 7 19 8 20 9 18 10 11 11 9 12 10 13
REMARK SMILES IDX 12 14 13 15 15 16 16 17 5 18 17 20 14 22
REMARK H PARENT 5 19 17 21 14 23
REMARK Flexibility Score: inf
ROOT
ATOM      1  C   UNL     1      38.161  11.815  69.037  1.00  0.00     0.044 C 
ATOM      2  C   UNL     1      39.207  12.747  69.576  1.00  0.00    -0.047 A 
ATOM      3  C   UNL     1      40.077  12.318  70.586  1.00  0.00     0.016 A 
ATOM      4  C   UNL     1      41.079  13.173  71.077  1.00  0.00     0.038 A 
ATOM      5  C   UNL     1      41.212  14.477  70.551  1.00  0.00     0.076 A 
ATOM      6  C   UNL     1      40.381  14.875  69.471  1.00  0.00     0.127 A 
ATOM      7  C   UNL     1      39.379  14.015  69.012  1.00  0.00     0.050 A 
ATOM      8  C   UNL     1      42.180  15.400  71.196  1.00  0.00     0.201 C 
ATOM      9  O   UNL     1      41.963  16.641  71.191  1.00  0.00    -0.288 OA
ATOM     10  C   UNL     1      43.299  14.849  72.005  1.00  0.00     0.076 A 
ATOM     11  C   UNL     1      43.164  13.543  72.527  1.00  0.00     0.041 A 
ATOM     12  C   UNL     1      42.000  12.709  72.141  1.00  0.00     0.194 C 
ATOM     13  O   UNL     1      41.810  11.594  72.700  1.00  0.00    -0.289 OA
ATOM     14  C   UNL     1      44.137  13.038  73.407  1.00  0.00     0.059 A 
ATOM     15  C   UNL     1      45.244  13.810  73.759  1.00  0.00     0.120 A 
ATOM     16  C   UNL     1      45.402  15.086  73.213  1.00  0.00     0.093 A 
ATOM     17  C   UNL     1      44.459  15.604  72.319  1.00  0.00     0.131 A 
ENDROOT
BRANCH   6  18
ATOM     18  O   UNL     1      40.541  16.092  68.805  1.00  0.00    -0.507 OA
ATOM     19  H   UNL     1      40.602  16.174  67.799  1.00  0.00     0.293 HD
ENDBRANCH   6  18
BRANCH  17  20
ATOM     20  O   UNL     1      44.730  16.848  71.744  1.00  0.00    -0.507 OA
ATOM     21  H   UNL     1      44.550  17.066  70.774  1.00  0.00     0.293 HD
ENDBRANCH  17  20
BRANCH  15  22
ATOM     22  O   UNL     1      46.188  13.294  74.643  1.00  0.00    -0.508 OA
ATOM     23  H   UNL     1      46.244  13.611  75.603  1.00  0.00     0.293 HD
ENDBRANCH  15  22
TORSDOF 3
ENDMDL
MODEL 2
REMARK VINA RESULT:    -4.346     13.279     14.434
REMARK INTER + INTRA:          -4.727
REMARK INTER:                  -4.727
REMARK INTRA:                   0.000
REMARK UNBOUND:                 0.000
REMARK SMILES Cc1cc(O)c2c(c1)C(=O)c1cc(O)cc(O)c1C2=O
REMARK SMILES IDX 1 1 2 2 8 3 7 4 6 5 4 6 3 7 19 8 20 9 18 10 11 11 9 12 10 13
REMARK SMILES IDX 12 14 13 15 15 16 16 17 5 18 17 20 14 22
REMARK H PARENT 5 19 17 21 14 23
REMARK Flexibility Score: inf
ROOT
ATOM      1  C   UNL     1      44.001   8.278  84.955  1.00  0.00     0.044 C 
ATOM      2  C   UNL     1      44.534   9.662  85.189  1.00  0.00    -0.047 A 
ATOM      3  C   UNL     1      45.565  10.163  84.386  1.00  0.00     0.016 A 
ATOM      4  C   UNL     1      46.051  11.467  84.578  1.00  0.00     0.038 A 
ATOM      5  C   UNL     1      45.496  12.283  85.589  1.00  0.00     0.076 A 
ATOM      6  C   UNL     1      44.396  11.798  86.343  1.00  0.00     0.127 A 
ATOM      7  C   UNL     1      43.943  10.490  86.148  1.00  0.00     0.050 A 
ATOM      8  C   UNL     1      46.134  13.597  85.860  1.00  0.00     0.201 C 
ATOM      9  O   UNL     1      46.097  14.084  87.022  1.00  0.00    -0.288 OA
ATOM     10  C   UNL     1      46.970  14.242  84.815  1.00  0.00     0.076 A 
ATOM     11  C   UNL     1      47.521  13.423  83.803  1.00  0.00     0.041 A 
ATOM     12  C   UNL     1      47.138  11.993  83.718  1.00  0.00     0.194 C 
ATOM     13  O   UNL     1      47.719  11.231  82.898  1.00  0.00    -0.289 OA
ATOM     14  C   UNL     1      48.425  13.970  82.876  1.00  0.00     0.059 A 
ATOM     15  C   UNL     1      48.775  15.319  82.938  1.00  0.00     0.120 A 
ATOM     16  C   UNL     1      48.202  16.141  83.912  1.00  0.00     0.093 A 
ATOM     17  C   UNL     1      47.283  15.626  84.832  1.00  0.00     0.131 A 
ENDROOT
BRANCH   6  18
ATOM     18  O   UNL     1      43.704  12.590  87.263  1.00  0.00    -0.507 OA
ATOM     19  H   UNL     1      43.267  13.470  87.025  1.00  0.00     0.293 HD
ENDBRANCH   6  18
BRANCH  17  20
ATOM     20  O   UNL     1      46.683  16.526  85.717  1.00  0.00    -0.507 OA
ATOM     21  H   UNL     1      46.982  16.650  86.674  1.00  0.00     0.293 HD
ENDBRANCH  17  20
BRANCH  15  22
ATOM     22  O   UNL     1      49.684  15.836  82.018  1.00  0.00    -0.508 OA
ATOM     23  H   UNL     1      49.425  16.003  81.054  1.00  0.00     0.293 HD
ENDBRANCH  15  22
TORSDOF 3
ENDMDL
MODEL 3
REMARK VINA RESULT:    -4.208     14.057     15.456
REMARK INTER + INTRA:          -4.577
REMARK INTER:                  -4.577
REMARK INTRA:                   0.000
REMARK UNBOUND:                 0.000
REMARK SMILES Cc1cc(O)c2c(c1)C(=O)c1cc(O)cc(O)c1C2=O
REMARK SMILES IDX 1 1 2 2 8 3 7 4 6 5 4 6 3 7 19 8 20 9 18 10 11 11 9 12 10 13
REMARK SMILES IDX 12 14 13 15 15 16 16 17 5 18 17 20 14 22
REMARK H PARENT 5 19 17 21 14 23
REMARK Flexibility Score: inf
ROOT
ATOM      1  C   UNL     1      42.450  11.855  86.597  1.00  0.00     0.044 C 
ATOM      2  C   UNL     1      43.845  11.913  86.047  1.00  0.00    -0.047 A 
ATOM      3  C   UNL     1      44.765  12.834  86.559  1.00  0.00     0.016 A 
ATOM      4  C   UNL     1      46.082  12.877  86.070  1.00  0.00     0.038 A 
ATOM      5  C   UNL     1      46.484  11.984  85.051  1.00  0.00     0.076 A 
ATOM      6  C   UNL     1      45.571  10.998  84.596  1.00  0.00     0.127 A 
ATOM      7  C   UNL     1      44.260  10.987  85.084  1.00  0.00     0.050 A 
ATOM      8  C   UNL     1      47.834  12.157  84.457  1.00  0.00     0.201 C 
ATOM      9  O   UNL     1      48.037  11.834  83.255  1.00  0.00    -0.288 OA
ATOM     10  C   UNL     1      48.887  12.881  85.215  1.00  0.00     0.076 A 
ATOM     11  C   UNL     1      48.482  13.771  86.235  1.00  0.00     0.041 A 
ATOM     12  C   UNL     1      47.053  13.851  86.622  1.00  0.00     0.194 C 
ATOM     13  O   UNL     1      46.669  14.730  87.441  1.00  0.00    -0.289 OA
ATOM     14  C   UNL     1      49.437  14.575  86.882  1.00  0.00     0.059 A 
ATOM     15  C   UNL     1      50.785  14.491  86.536  1.00  0.00     0.120 A 
ATOM     16  C   UNL     1      51.196  13.583  85.557  1.00  0.00     0.093 A 
ATOM     17  C   UNL     1      50.269  12.757  84.913  1.00  0.00     0.131 A 
ENDROOT
BRANCH   6  18
ATOM     18  O   UNL     1      45.932   9.993  83.696  1.00  0.00    -0.507 OA
ATOM     19  H   UNL     1      45.941  10.119  82.693  1.00  0.00     0.293 HD
ENDBRANCH   6  18
BRANCH  17  20
ATOM     20  O   UNL     1      50.763  11.812  84.012  1.00  0.00    -0.507 OA
ATOM     21  H   UNL     1      50.712  11.916  83.009  1.00  0.00     0.293 HD
ENDBRANCH  17  20
BRANCH  15  22
ATOM     22  O   UNL     1      51.712  15.307  87.181  1.00  0.00    -0.508 OA
ATOM     23  H   UNL     1      52.349  14.938  87.876  1.00  0.00     0.293 HD
ENDBRANCH  15  22
TORSDOF 3
ENDMDL
MODEL 4
REMARK VINA RESULT:    -4.207     12.811     14.785
REMARK INTER + INTRA:          -4.576
REMARK INTER:                  -4.576
REMARK INTRA:                   0.000
REMARK UNBOUND:                 0.000
REMARK SMILES Cc1cc(O)c2c(c1)C(=O)c1cc(O)cc(O)c1C2=O
REMARK SMILES IDX 1 1 2 2 8 3 7 4 6 5 4 6 3 7 19 8 20 9 18 10 11 11 9 12 10 13
REMARK SMILES IDX 12 14 13 15 15 16 16 17 5 18 17 20 14 22
REMARK H PARENT 5 19 17 21 14 23
REMARK Flexibility Score: inf
ROOT
ATOM      1  C   UNL     1      49.377  17.466  84.580  1.00  0.00     0.044 C 
ATOM      2  C   UNL     1      48.091  16.705  84.441  1.00  0.00    -0.047 A 
ATOM      3  C   UNL     1      47.865  15.560  85.213  1.00  0.00     0.016 A 
ATOM      4  C   UNL     1      46.652  14.857  85.112  1.00  0.00     0.038 A 
ATOM      5  C   UNL     1      45.650  15.305  84.222  1.00  0.00     0.076 A 
ATOM      6  C   UNL     1      45.854  16.512  83.504  1.00  0.00     0.127 A 
ATOM      7  C   UNL     1      47.076  17.185  83.607  1.00  0.00     0.050 A 
ATOM      8  C   UNL     1      44.447  14.456  84.032  1.00  0.00     0.201 C 
ATOM      9  O   UNL     1      43.842  14.464  82.926  1.00  0.00    -0.288 OA
ATOM     10  C   UNL     1      44.072  13.464  85.073  1.00  0.00     0.076 A 
ATOM     11  C   UNL     1      45.075  13.019  85.963  1.00  0.00     0.041 A 
ATOM     12  C   UNL     1      46.417  13.649  85.939  1.00  0.00     0.194 C 
ATOM     13  O   UNL     1      47.351  13.174  86.642  1.00  0.00    -0.289 OA
ATOM     14  C   UNL     1      44.795  11.984  86.872  1.00  0.00     0.059 A 
ATOM     15  C   UNL     1      43.529  11.400  86.913  1.00  0.00     0.120 A 
ATOM     16  C   UNL     1      42.522  11.864  86.062  1.00  0.00     0.093 A 
ATOM     17  C   UNL     1      42.770  12.907  85.164  1.00  0.00     0.131 A 
ENDROOT
BRANCH   6  18
ATOM     18  O   UNL     1      44.862  17.096  82.713  1.00  0.00    -0.507 OA
ATOM     19  H   UNL     1      44.430  17.985  82.925  1.00  0.00     0.293 HD
ENDBRANCH   6  18
BRANCH  17  20
ATOM     20  O   UNL     1      41.692  13.379  84.411  1.00  0.00    -0.507 OA
ATOM     21  H   UNL     1      41.774  13.697  83.456  1.00  0.00     0.293 HD
ENDBRANCH  17  20
BRANCH  15  22
ATOM     22  O   UNL     1      43.278  10.366  87.812  1.00  0.00    -0.508 OA
ATOM     23  H   UNL     1      43.708  10.345  88.729  1.00  0.00     0.293 HD
ENDBRANCH  15  22
TORSDOF 3
ENDMDL
MODEL 5
REMARK VINA RESULT:    -4.179     12.247     13.744
REMARK INTER + INTRA:          -4.545
REMARK INTER:                  -4.545
REMARK INTRA:                   0.000
REMARK UNBOUND:                 0.000
REMARK SMILES Cc1cc(O)c2c(c1)C(=O)c1cc(O)cc(O)c1C2=O
REMARK SMILES IDX 1 1 2 2 8 3 7 4 6 5 4 6 3 7 19 8 20 9 18 10 11 11 9 12 10 13
REMARK SMILES IDX 12 14 13 15 15 16 16 17 5 18 17 20 14 22
REMARK H PARENT 5 19 17 21 14 23
REMARK Flexibility Score: inf
ROOT
ATOM      1  C   UNL     1      39.317  11.931  84.354  1.00  0.00     0.044 C 
ATOM      2  C   UNL     1      40.603  12.704  84.381  1.00  0.00    -0.047 A 
ATOM      3  C   UNL     1      41.679  12.253  85.155  1.00  0.00     0.016 A 
ATOM      4  C   UNL     1      42.897  12.954  85.164  1.00  0.00     0.038 A 
ATOM      5  C   UNL     1      43.041  14.125  84.387  1.00  0.00     0.076 A 
ATOM      6  C   UNL     1      41.975  14.529  83.541  1.00  0.00     0.127 A 
ATOM      7  C   UNL     1      40.766  13.827  83.564  1.00  0.00     0.050 A 
ATOM      8  C   UNL     1      44.287  14.919  84.537  1.00  0.00     0.201 C 
ATOM      9  O   UNL     1      44.261  16.167  84.363  1.00  0.00    -0.288 OA
ATOM     10  C   UNL     1      45.514  14.274  85.073  1.00  0.00     0.076 A 
ATOM     11  C   UNL     1      45.367  13.101  85.847  1.00  0.00     0.041 A 
ATOM     12  C   UNL     1      44.033  12.465  85.980  1.00  0.00     0.194 C 
ATOM     13  O   UNL     1      43.873  11.494  86.769  1.00  0.00    -0.289 OA
ATOM     14  C   UNL     1      46.486  12.538  86.483  1.00  0.00     0.059 A 
ATOM     15  C   UNL     1      47.747  13.119  86.346  1.00  0.00     0.120 A 
ATOM     16  C   UNL     1      47.904  14.256  85.548  1.00  0.00     0.093 A 
ATOM     17  C   UNL     1      46.810  14.823  84.888  1.00  0.00     0.131 A 
ENDROOT
BRANCH   6  18
ATOM     18  O   UNL     1      42.088  15.592  82.641  1.00  0.00    -0.507 OA
ATOM     19  H   UNL     1      42.566  16.456  82.855  1.00  0.00     0.293 HD
ENDBRANCH   6  18
BRANCH  17  20
ATOM     20  O   UNL     1      47.059  15.902  84.036  1.00  0.00    -0.507 OA
ATOM     21  H   UNL     1      47.944  16.057  83.575  1.00  0.00     0.293 HD
ENDBRANCH  17  20
BRANCH  15  22
ATOM     22  O   UNL     1      48.840  12.552  86.997  1.00  0.00    -0.508 OA
ATOM     23  H   UNL     1      49.755  12.984  86.969  1.00  0.00     0.293 HD
ENDBRANCH  15  22
TORSDOF 3
ENDMDL
MODEL 6
REMARK VINA RESULT:    -4.148     12.598     14.828
REMARK INTER + INTRA:          -4.512
REMARK INTER:                  -4.512
REMARK INTRA:                   0.000
REMARK UNBOUND:                 0.000
REMARK SMILES Cc1cc(O)c2c(c1)C(=O)c1cc(O)cc(O)c1C2=O
REMARK SMILES IDX 1 1 2 2 8 3 7 4 6 5 4 6 3 7 19 8 20 9 18 10 11 11 9 12 10 13
REMARK SMILES IDX 12 14 13 15 15 16 16 17 5 18 17 20 14 22
REMARK H PARENT 5 19 17 21 14 23
REMARK Flexibility Score: inf
ROOT
ATOM      1  C   UNL     1      49.274  12.658  87.370  1.00  0.00     0.044 C 
ATOM      2  C   UNL     1      48.128  13.263  86.613  1.00  0.00    -0.047 A 
ATOM      3  C   UNL     1      47.007  12.487  86.296  1.00  0.00     0.016 A 
ATOM      4  C   UNL     1      45.916  13.052  85.613  1.00  0.00     0.038 A 
ATOM      5  C   UNL     1      45.948  14.415  85.240  1.00  0.00     0.076 A 
ATOM      6  C   UNL     1      47.051  15.214  85.638  1.00  0.00     0.127 A 
ATOM      7  C   UNL     1      48.133  14.626  86.300  1.00  0.00     0.050 A 
ATOM      8  C   UNL     1      44.847  14.937  84.392  1.00  0.00     0.201 C 
ATOM      9  O   UNL     1      45.070  15.881  83.587  1.00  0.00    -0.288 OA
ATOM     10  C   UNL     1      43.542  14.228  84.356  1.00  0.00     0.076 A 
ATOM     11  C   UNL     1      43.513  12.866  84.733  1.00  0.00     0.041 A 
ATOM     12  C   UNL     1      44.729  12.226  85.288  1.00  0.00     0.194 C 
ATOM     13  O   UNL     1      44.745  10.984  85.507  1.00  0.00    -0.289 OA
ATOM     14  C   UNL     1      42.328  12.125  84.584  1.00  0.00     0.059 A 
ATOM     15  C   UNL     1      41.174  12.725  84.080  1.00  0.00     0.120 A 
ATOM     16  C   UNL     1      41.187  14.082  83.745  1.00  0.00     0.093 A 
ATOM     17  C   UNL     1      42.347  14.847  83.904  1.00  0.00     0.131 A 
ENDROOT
BRANCH   6  18
ATOM     18  O   UNL     1      47.095  16.595  85.431  1.00  0.00    -0.507 OA
ATOM     19  H   UNL     1      46.576  17.260  85.988  1.00  0.00     0.293 HD
ENDBRANCH   6  18
BRANCH  17  20
ATOM     20  O   UNL     1      42.260  16.215  83.635  1.00  0.00    -0.507 OA
ATOM     21  H   UNL     1      42.745  16.666  82.872  1.00  0.00     0.293 HD
ENDBRANCH  17  20
BRANCH  15  22
ATOM     22  O   UNL     1      40.015  11.968  83.928  1.00  0.00    -0.508 OA
ATOM     23  H   UNL     1      39.769  11.238  84.585  1.00  0.00     0.293 HD
ENDBRANCH  15  22
TORSDOF 3
ENDMDL
MODEL 7
REMARK VINA RESULT:    -4.148     13.565     15.779
REMARK INTER + INTRA:          -4.511
REMARK INTER:                  -4.511
REMARK INTRA:                   0.000
REMARK UNBOUND:                 0.000
REMARK SMILES Cc1cc(O)c2c(c1)C(=O)c1cc(O)cc(O)c1C2=O
REMARK SMILES IDX 1 1 2 2 8 3 7 4 6 5 4 6 3 7 19 8 20 9 18 10 11 11 9 12 10 13
REMARK SMILES IDX 12 14 13 15 15 16 16 17 5 18 17 20 14 22
REMARK H PARENT 5 19 17 21 14 23
REMARK Flexibility Score: inf
ROOT
ATOM      1  C   UNL     1      52.148  13.680  84.780  1.00  0.00     0.044 C 
ATOM      2  C   UNL     1      50.692  13.604  85.133  1.00  0.00    -0.047 A 
ATOM      3  C   UNL     1      49.839  12.756  84.417  1.00  0.00     0.016 A 
ATOM      4  C   UNL     1      48.479  12.655  84.759  1.00  0.00     0.038 A 
ATOM      5  C   UNL     1      47.965  13.416  85.833  1.00  0.00     0.076 A 
ATOM      6  C   UNL     1      48.852  14.209  86.606  1.00  0.00     0.127 A 
ATOM      7  C   UNL     1      50.197  14.308  86.235  1.00  0.00     0.050 A 
ATOM      8  C   UNL     1      46.499  13.398  86.069  1.00  0.00     0.201 C 
ATOM      9  O   UNL     1      45.930  14.407  86.565  1.00  0.00    -0.288 OA
ATOM     10  C   UNL     1      45.681  12.271  85.548  1.00  0.00     0.076 A 
ATOM     11  C   UNL     1      46.200  11.510  84.476  1.00  0.00     0.041 A 
ATOM     12  C   UNL     1      47.583  11.750  84.001  1.00  0.00     0.194 C 
ATOM     13  O   UNL     1      48.006  11.164  82.967  1.00  0.00    -0.289 OA
ATOM     14  C   UNL     1      45.402  10.525  83.868  1.00  0.00     0.059 A 
ATOM     15  C   UNL     1      44.106  10.282  84.323  1.00  0.00     0.120 A 
ATOM     16  C   UNL     1      43.604  11.003  85.409  1.00  0.00     0.093 A 
ATOM     17  C   UNL     1      44.385  11.974  86.045  1.00  0.00     0.131 A 
ENDROOT
BRANCH   6  18
ATOM     18  O   UNL     1      48.452  14.879  87.764  1.00  0.00    -0.507 OA
ATOM     19  H   UNL     1      48.216  14.410  88.627  1.00  0.00     0.293 HD
ENDBRANCH   6  18
BRANCH  17  20
ATOM     20  O   UNL     1      43.851  12.589  87.180  1.00  0.00    -0.507 OA
ATOM     21  H   UNL     1      44.412  12.919  87.953  1.00  0.00     0.293 HD
ENDBRANCH  17  20
BRANCH  15  22
ATOM     22  O   UNL     1      43.329   9.311  83.696  1.00  0.00    -0.508 OA
ATOM     23  H   UNL     1      42.378   9.123  83.988  1.00  0.00     0.293 HD
ENDBRANCH  15  22
TORSDOF 3
ENDMDL
MODEL 8
REMARK VINA RESULT:    -4.146     13.245     15.958
REMARK INTER + INTRA:          -4.509
REMARK INTER:                  -4.509
REMARK INTRA:                   0.000
REMARK UNBOUND:                 0.000
REMARK SMILES Cc1cc(O)c2c(c1)C(=O)c1cc(O)cc(O)c1C2=O
REMARK SMILES IDX 1 1 2 2 8 3 7 4 6 5 4 6 3 7 19 8 20 9 18 10 11 11 9 12 10 13
REMARK SMILES IDX 12 14 13 15 15 16 16 17 5 18 17 20 14 22
REMARK H PARENT 5 19 17 21 14 23
REMARK Flexibility Score: inf
ROOT
ATOM      1  C   UNL     1      50.767  11.902  88.125  1.00  0.00     0.044 C 
ATOM      2  C   UNL     1      49.918  12.914  87.412  1.00  0.00    -0.047 A 
ATOM      3  C   UNL     1      48.679  12.542  86.879  1.00  0.00     0.016 A 
ATOM      4  C   UNL     1      47.864  13.489  86.235  1.00  0.00     0.038 A 
ATOM      5  C   UNL     1      48.296  14.829  86.122  1.00  0.00     0.076 A 
ATOM      6  C   UNL     1      49.514  15.217  86.738  1.00  0.00     0.127 A 
ATOM      7  C   UNL     1      50.318  14.253  87.357  1.00  0.00     0.050 A 
ATOM      8  C   UNL     1      47.479  15.765  85.308  1.00  0.00     0.201 C 
ATOM      9  O   UNL     1      48.036  16.724  84.708  1.00  0.00    -0.288 OA
ATOM     10  C   UNL     1      46.048  15.462  85.049  1.00  0.00     0.076 A 
ATOM     11  C   UNL     1      45.618  14.121  85.165  1.00  0.00     0.041 A 
ATOM     12  C   UNL     1      46.550  13.088  85.679  1.00  0.00     0.194 C 
ATOM     13  O   UNL     1      46.214  11.872  85.666  1.00  0.00    -0.289 OA
ATOM     14  C   UNL     1      44.307  13.772  84.797  1.00  0.00     0.059 A 
ATOM     15  C   UNL     1      43.420  14.742  84.331  1.00  0.00     0.120 A 
ATOM     16  C   UNL     1      43.828  16.077  84.253  1.00  0.00     0.093 A 
ATOM     17  C   UNL     1      45.120  16.453  84.633  1.00  0.00     0.131 A 
ENDROOT
BRANCH   6  18
ATOM     18  O   UNL     1      49.943  16.545  86.793  1.00  0.00    -0.507 OA
ATOM     19  H   UNL     1      49.415  17.318  86.413  1.00  0.00     0.293 HD
ENDBRANCH   6  18
BRANCH  17  20
ATOM     20  O   UNL     1      45.427  17.815  84.615  1.00  0.00    -0.507 OA
ATOM     21  H   UNL     1      46.139  18.219  84.024  1.00  0.00     0.293 HD
ENDBRANCH  17  20
BRANCH  15  22
ATOM     22  O   UNL     1      42.130  14.372  83.960  1.00  0.00    -0.508 OA
ATOM     23  H   UNL     1      41.772  13.442  84.141  1.00  0.00     0.293 HD
ENDBRANCH  15  22
TORSDOF 3
ENDMDL
MODEL 9
REMARK VINA RESULT:    -4.069     13.315     15.222
REMARK INTER + INTRA:          -4.426
REMARK INTER:                  -4.426
REMARK INTRA:                   0.000
REMARK UNBOUND:                 0.000
REMARK SMILES Cc1cc(O)c2c(c1)C(=O)c1cc(O)cc(O)c1C2=O
REMARK SMILES IDX 1 1 2 2 8 3 7 4 6 5 4 6 3 7 19 8 20 9 18 10 11 11 9 12 10 13
REMARK SMILES IDX 12 14 13 15 15 16 16 17 5 18 17 20 14 22
REMARK H PARENT 5 19 17 21 14 23
REMARK Flexibility Score: inf
ROOT
ATOM      1  C   UNL     1      49.459  15.894  83.960  1.00  0.00     0.044 C 
ATOM      2  C   UNL     1      48.361  15.024  84.498  1.00  0.00    -0.047 A 
ATOM      3  C   UNL     1      48.008  13.845  83.830  1.00  0.00     0.016 A 
ATOM      4  C   UNL     1      47.001  13.008  84.341  1.00  0.00     0.038 A 
ATOM      5  C   UNL     1      46.336  13.357  85.538  1.00  0.00     0.076 A 
ATOM      6  C   UNL     1      46.757  14.508  86.252  1.00  0.00     0.127 A 
ATOM      7  C   UNL     1      47.747  15.336  85.715  1.00  0.00     0.050 A 
ATOM      8  C   UNL     1      45.180  12.529  85.966  1.00  0.00     0.201 C 
ATOM      9  O   UNL     1      44.241  13.055  86.623  1.00  0.00    -0.288 OA
ATOM     10  C   UNL     1      45.040  11.138  85.462  1.00  0.00     0.076 A 
ATOM     11  C   UNL     1      45.708  10.792  84.266  1.00  0.00     0.041 A 
ATOM     12  C   UNL     1      46.638  11.758  83.632  1.00  0.00     0.194 C 
ATOM     13  O   UNL     1      47.139  11.505  82.503  1.00  0.00    -0.289 OA
ATOM     14  C   UNL     1      45.493   9.531  83.684  1.00  0.00     0.059 A 
ATOM     15  C   UNL     1      44.636   8.610  84.285  1.00  0.00     0.120 A 
ATOM     16  C   UNL     1      44.004   8.932  85.489  1.00  0.00     0.093 A 
ATOM     17  C   UNL     1      44.218  10.173  86.099  1.00  0.00     0.131 A 
ENDROOT
BRANCH   6  18
ATOM     18  O   UNL     1      46.248  14.844  87.509  1.00  0.00    -0.507 OA
ATOM     19  H   UNL     1      46.788  14.796  88.362  1.00  0.00     0.293 HD
ENDBRANCH   6  18
BRANCH  17  20
ATOM     20  O   UNL     1      43.626  10.389  87.346  1.00  0.00    -0.507 OA
ATOM     21  H   UNL     1      43.929  11.103  87.992  1.00  0.00     0.293 HD
ENDBRANCH  17  20
BRANCH  15  22
ATOM     22  O   UNL     1      44.427   7.371  83.684  1.00  0.00    -0.508 OA
ATOM     23  H   UNL     1      43.495   7.025  83.494  1.00  0.00     0.293 HD
ENDBRANCH  15  22
TORSDOF 3
ENDMDL
