MODEL 1
REMARK VINA RESULT:    -4.931      0.000      0.000
REMARK INTER + INTRA:         -12.463
REMARK INTER:                 -10.696
REMARK INTRA:                  -1.768
REMARK UNBOUND:                -1.768
REMARK SMILES CCCCCCCCCCCCCCCCCCCCCC(=O)[O-]
REMARK SMILES IDX 12 1 11 2 10 3 9 4 8 5 7 6 6 7 5 8 4 9 3 10 2 11 1 12 13 13
REMARK SMILES IDX 14 14 15 15 16 16 17 17 18 18 19 19 20 20 21 21 22 22 23 23
REMARK SMILES IDX 24 24
REMARK H PARENT
REMARK Flexibility Score: inf
ROOT
ATOM      1  C   UNL     1      -1.139   0.376   5.441  1.00  0.00     0.000 C 
ENDROOT
BRANCH   1   2
ATOM      2  C   UNL     1      -2.542  -0.159   5.112  1.00  0.00     0.000 C 
BRANCH   2   3
ATOM      3  C   UNL     1      -3.178  -0.919   6.287  1.00  0.00     0.000 C 
BRANCH   3   4
ATOM      4  C   UNL     1      -4.096  -2.064   5.824  1.00  0.00    -0.000 C 
BRANCH   4   5
ATOM      5  C   UNL     1      -4.709  -1.800   4.439  1.00  0.00    -0.000 C 
BRANCH   5   6
ATOM      6  C   UNL     1      -5.731  -2.875   4.026  1.00  0.00    -0.000 C 
BRANCH   6   7
ATOM      7  C   UNL     1      -5.336  -4.287   4.492  1.00  0.00    -0.000 C 
BRANCH   7   8
ATOM      8  C   UNL     1      -5.639  -5.423   3.490  1.00  0.00    -0.000 C 
BRANCH   8   9
ATOM      9  C   UNL     1      -6.736  -5.105   2.455  1.00  0.00    -0.000 C 
BRANCH   9  10
ATOM     10  C   UNL     1      -6.291  -5.328   0.991  1.00  0.00    -0.000 C 
BRANCH  10  11
ATOM     11  C   UNL     1      -4.840  -4.901   0.722  1.00  0.00    -0.003 C 
ATOM     12  C   UNL     1      -4.701  -3.401   0.472  1.00  0.00     0.004 C 
ENDBRANCH  10  11
ENDBRANCH   9  10
ENDBRANCH   8   9
ENDBRANCH   7   8
ENDBRANCH   6   7
ENDBRANCH   5   6
ENDBRANCH   4   5
ENDBRANCH   3   4
ENDBRANCH   2   3
ENDBRANCH   1   2
BRANCH   1  13
ATOM     13  C   UNL     1      -0.806   0.167   6.925  1.00  0.00     0.000 C 
BRANCH  13  14
ATOM     14  C   UNL     1       0.438  -0.714   7.147  1.00  0.00     0.000 C 
BRANCH  14  15
ATOM     15  C   UNL     1       1.149  -1.171   5.858  1.00  0.00     0.000 C 
BRANCH  15  16
ATOM     16  C   UNL     1       2.186  -2.293   6.051  1.00  0.00     0.000 C 
BRANCH  16  17
ATOM     17  C   UNL     1       2.857  -2.751   4.738  1.00  0.00     0.000 C 
BRANCH  17  18
ATOM     18  C   UNL     1       2.329  -1.985   3.512  1.00  0.00     0.000 C 
BRANCH  18  19
ATOM     19  C   UNL     1       3.393  -1.076   2.875  1.00  0.00     0.000 C 
BRANCH  19  20
ATOM     20  C   UNL     1       4.823  -1.590   3.100  1.00  0.00     0.006 C 
BRANCH  20  21
ATOM     21  C   UNL     1       5.502  -1.921   1.767  1.00  0.00     0.053 C 
BRANCH  21  22
ATOM     22  C   UNL     1       5.439  -3.391   1.496  1.00  0.00     0.041 C 
ATOM     23  O   UNL     1       5.624  -4.215   2.429  1.00  0.00    -0.550 OA
ATOM     24  O   UNL     1       5.124  -3.851   0.224  1.00  0.00    -0.550 OA
ENDBRANCH  21  22
ENDBRANCH  20  21
ENDBRANCH  19  20
ENDBRANCH  18  19
ENDBRANCH  17  18
ENDBRANCH  16  17
ENDBRANCH  15  16
ENDBRANCH  14  15
ENDBRANCH  13  14
ENDBRANCH   1  13
TORSDOF 20
ENDMDL
MODEL 2
REMARK VINA RESULT:    -4.837      3.787      8.585
REMARK INTER + INTRA:         -12.259
REMARK INTER:                 -10.373
REMARK INTRA:                  -1.886
REMARK UNBOUND:                -1.768
REMARK SMILES CCCCCCCCCCCCCCCCCCCCCC(=O)[O-]
REMARK SMILES IDX 12 1 11 2 10 3 9 4 8 5 7 6 6 7 5 8 4 9 3 10 2 11 1 12 13 13
REMARK SMILES IDX 14 14 15 15 16 16 17 17 18 18 19 19 20 20 21 21 22 22 23 23
REMARK SMILES IDX 24 24
REMARK H PARENT
REMARK Flexibility Score: inf
ROOT
ATOM      1  C   UNL     1      -3.969  -2.545   6.654  1.00  0.00     0.000 C 
ENDROOT
BRANCH   1   2
ATOM      2  C   UNL     1      -4.484  -1.197   7.182  1.00  0.00     0.000 C 
BRANCH   2   3
ATOM      3  C   UNL     1      -3.970  -0.002   6.364  1.00  0.00     0.000 C 
BRANCH   3   4
ATOM      4  C   UNL     1      -2.787  -0.373   5.452  1.00  0.00    -0.000 C 
BRANCH   4   5
ATOM      5  C   UNL     1      -1.708   0.720   5.418  1.00  0.00    -0.000 C 
BRANCH   5   6
ATOM      6  C   UNL     1      -0.578   0.472   6.434  1.00  0.00    -0.000 C 
BRANCH   6   7
ATOM      7  C   UNL     1      -0.527  -0.984   6.930  1.00  0.00    -0.000 C 
BRANCH   7   8
ATOM      8  C   UNL     1       0.856  -1.468   7.418  1.00  0.00    -0.000 C 
BRANCH   8   9
ATOM      9  C   UNL     1       2.043  -1.065   6.523  1.00  0.00    -0.000 C 
BRANCH   9  10
ATOM     10  C   UNL     1       2.365  -2.097   5.417  1.00  0.00    -0.000 C 
BRANCH  10  11
ATOM     11  C   UNL     1       1.914  -1.653   4.017  1.00  0.00    -0.003 C 
ATOM     12  C   UNL     1       3.084  -1.290   3.105  1.00  0.00     0.004 C 
ENDBRANCH  10  11
ENDBRANCH   9  10
ENDBRANCH   8   9
ENDBRANCH   7   8
ENDBRANCH   6   7
ENDBRANCH   5   6
ENDBRANCH   4   5
ENDBRANCH   3   4
ENDBRANCH   2   3
ENDBRANCH   1   2
BRANCH   1  13
ATOM     13  C   UNL     1      -5.077  -3.301   5.905  1.00  0.00     0.000 C 
BRANCH  13  14
ATOM     14  C   UNL     1      -4.861  -3.332   4.380  1.00  0.00     0.000 C 
BRANCH  14  15
ATOM     15  C   UNL     1      -5.275  -2.047   3.638  1.00  0.00     0.000 C 
BRANCH  15  16
ATOM     16  C   UNL     1      -4.797  -1.957   2.177  1.00  0.00     0.000 C 
BRANCH  16  17
ATOM     17  C   UNL     1      -5.947  -1.880   1.151  1.00  0.00     0.000 C 
BRANCH  17  18
ATOM     18  C   UNL     1      -6.280  -3.251   0.538  1.00  0.00     0.000 C 
BRANCH  18  19
ATOM     19  C   UNL     1      -5.116  -4.249   0.647  1.00  0.00     0.000 C 
BRANCH  19  20
ATOM     20  C   UNL     1      -5.177  -5.351  -0.423  1.00  0.00     0.006 C 
BRANCH  20  21
ATOM     21  C   UNL     1      -6.047  -4.917  -1.606  1.00  0.00     0.053 C 
BRANCH  21  22
ATOM     22  C   UNL     1      -6.114  -6.003  -2.634  1.00  0.00     0.041 C 
ATOM     23  O   UNL     1      -5.057  -6.466  -3.136  1.00  0.00    -0.550 OA
ATOM     24  O   UNL     1      -7.342  -6.541  -2.998  1.00  0.00    -0.550 OA
ENDBRANCH  21  22
ENDBRANCH  20  21
ENDBRANCH  19  20
ENDBRANCH  18  19
ENDBRANCH  17  18
ENDBRANCH  16  17
ENDBRANCH  15  16
ENDBRANCH  14  15
ENDBRANCH  13  14
ENDBRANCH   1  13
TORSDOF 20
ENDMDL
MODEL 3
REMARK VINA RESULT:    -4.813      4.808      9.025
REMARK INTER + INTRA:         -12.208
REMARK INTER:                 -10.064
REMARK INTRA:                  -2.144
REMARK UNBOUND:                -1.768
REMARK SMILES CCCCCCCCCCCCCCCCCCCCCC(=O)[O-]
REMARK SMILES IDX 12 1 11 2 10 3 9 4 8 5 7 6 6 7 5 8 4 9 3 10 2 11 1 12 13 13
REMARK SMILES IDX 14 14 15 15 16 16 17 17 18 18 19 19 20 20 21 21 22 22 23 23
REMARK SMILES IDX 24 24
REMARK H PARENT
REMARK Flexibility Score: inf
ROOT
ATOM      1  C   UNL     1      -5.289  -2.017   2.849  1.00  0.00     0.000 C 
ENDROOT
BRANCH   1   2
ATOM      2  C   UNL     1      -6.222  -1.970   4.069  1.00  0.00     0.000 C 
BRANCH   2   3
ATOM      3  C   UNL     1      -6.221  -3.282   4.870  1.00  0.00     0.000 C 
BRANCH   3   4
ATOM      4  C   UNL     1      -4.804  -3.734   5.264  1.00  0.00    -0.000 C 
BRANCH   4   5
ATOM      5  C   UNL     1      -4.507  -3.500   6.754  1.00  0.00    -0.000 C 
BRANCH   5   6
ATOM      6  C   UNL     1      -3.515  -2.347   6.989  1.00  0.00    -0.000 C 
BRANCH   6   7
ATOM      7  C   UNL     1      -4.211  -0.987   7.178  1.00  0.00    -0.000 C 
BRANCH   7   8
ATOM      8  C   UNL     1      -3.892   0.075   6.103  1.00  0.00    -0.000 C 
BRANCH   8   9
ATOM      9  C   UNL     1      -2.771  -0.309   5.118  1.00  0.00    -0.000 C 
BRANCH   9  10
ATOM     10  C   UNL     1      -1.452   0.465   5.346  1.00  0.00    -0.000 C 
BRANCH  10  11
ATOM     11  C   UNL     1      -0.448  -0.288   6.233  1.00  0.00    -0.003 C 
ATOM     12  C   UNL     1      -0.242   0.380   7.591  1.00  0.00     0.004 C 
ENDBRANCH  10  11
ENDBRANCH   9  10
ENDBRANCH   8   9
ENDBRANCH   7   8
ENDBRANCH   6   7
ENDBRANCH   5   6
ENDBRANCH   4   5
ENDBRANCH   3   4
ENDBRANCH   2   3
ENDBRANCH   1   2
BRANCH   1  13
ATOM     13  C   UNL     1      -5.985  -1.449   1.603  1.00  0.00     0.000 C 
BRANCH  13  14
ATOM     14  C   UNL     1      -5.814  -2.339   0.358  1.00  0.00     0.000 C 
BRANCH  14  15
ATOM     15  C   UNL     1      -4.799  -3.488   0.514  1.00  0.00     0.000 C 
BRANCH  15  16
ATOM     16  C   UNL     1      -5.410  -4.902   0.488  1.00  0.00     0.000 C 
BRANCH  16  17
ATOM     17  C   UNL     1      -5.456  -5.534  -0.920  1.00  0.00     0.000 C 
BRANCH  17  18
ATOM     18  C   UNL     1      -6.883  -5.586  -1.492  1.00  0.00     0.000 C 
BRANCH  18  19
ATOM     19  C   UNL     1      -6.955  -6.311  -2.846  1.00  0.00     0.000 C 
BRANCH  19  20
ATOM     20  C   UNL     1      -5.573  -6.499  -3.491  1.00  0.00     0.006 C 
BRANCH  20  21
ATOM     21  C   UNL     1      -5.476  -7.860  -4.188  1.00  0.00     0.053 C 
BRANCH  21  22
ATOM     22  C   UNL     1      -4.257  -7.920  -5.053  1.00  0.00     0.041 C 
ATOM     23  O   UNL     1      -3.867  -6.894  -5.671  1.00  0.00    -0.550 OA
ATOM     24  O   UNL     1      -3.520  -9.094  -5.137  1.00  0.00    -0.550 OA
ENDBRANCH  21  22
ENDBRANCH  20  21
ENDBRANCH  19  20
ENDBRANCH  18  19
ENDBRANCH  17  18
ENDBRANCH  16  17
ENDBRANCH  15  16
ENDBRANCH  14  15
ENDBRANCH  13  14
ENDBRANCH   1  13
TORSDOF 20
ENDMDL
MODEL 4
REMARK VINA RESULT:    -4.770      2.734      5.458
REMARK INTER + INTRA:         -12.115
REMARK INTER:                  -9.530
REMARK INTRA:                  -2.585
REMARK UNBOUND:                -1.768
REMARK SMILES CCCCCCCCCCCCCCCCCCCCCC(=O)[O-]
REMARK SMILES IDX 12 1 11 2 10 3 9 4 8 5 7 6 6 7 5 8 4 9 3 10 2 11 1 12 13 13
REMARK SMILES IDX 14 14 15 15 16 16 17 17 18 18 19 19 20 20 21 21 22 22 23 23
REMARK SMILES IDX 24 24
REMARK H PARENT
REMARK Flexibility Score: inf
ROOT
ATOM      1  C   UNL     1      -5.357  -3.959   3.339  1.00  0.00     0.000 C 
ENDROOT
BRANCH   1   2
ATOM      2  C   UNL     1      -4.973  -2.878   2.316  1.00  0.00     0.000 C 
BRANCH   2   3
ATOM      3  C   UNL     1      -4.554  -3.466   0.959  1.00  0.00     0.000 C 
BRANCH   3   4
ATOM      4  C   UNL     1      -4.944  -4.946   0.809  1.00  0.00    -0.000 C 
BRANCH   4   5
ATOM      5  C   UNL     1      -5.436  -5.282  -0.609  1.00  0.00    -0.000 C 
BRANCH   5   6
ATOM      6  C   UNL     1      -6.919  -5.694  -0.642  1.00  0.00    -0.000 C 
BRANCH   6   7
ATOM      7  C   UNL     1      -7.681  -5.291   0.633  1.00  0.00    -0.000 C 
BRANCH   7   8
ATOM      8  C   UNL     1      -8.672  -4.117   0.467  1.00  0.00    -0.000 C 
BRANCH   8   9
ATOM      9  C   UNL     1      -8.616  -3.054   1.580  1.00  0.00    -0.000 C 
BRANCH   9  10
ATOM     10  C   UNL     1      -8.404  -1.615   1.054  1.00  0.00    -0.000 C 
BRANCH  10  11
ATOM     11  C   UNL     1      -7.499  -1.546  -0.186  1.00  0.00    -0.003 C 
ATOM     12  C   UNL     1      -6.448  -0.442  -0.090  1.00  0.00     0.004 C 
ENDBRANCH  10  11
ENDBRANCH   9  10
ENDBRANCH   8   9
ENDBRANCH   7   8
ENDBRANCH   6   7
ENDBRANCH   5   6
ENDBRANCH   4   5
ENDBRANCH   3   4
ENDBRANCH   2   3
ENDBRANCH   1   2
BRANCH   1  13
ATOM     13  C   UNL     1      -5.065  -3.487   4.771  1.00  0.00     0.000 C 
BRANCH  13  14
ATOM     14  C   UNL     1      -4.200  -2.213   4.822  1.00  0.00     0.000 C 
BRANCH  14  15
ATOM     15  C   UNL     1      -4.379  -1.355   6.089  1.00  0.00     0.000 C 
BRANCH  15  16
ATOM     16  C   UNL     1      -3.485  -0.103   6.158  1.00  0.00     0.000 C 
BRANCH  16  17
ATOM     17  C   UNL     1      -2.395  -0.057   5.065  1.00  0.00     0.000 C 
BRANCH  17  18
ATOM     18  C   UNL     1      -1.181   0.789   5.484  1.00  0.00     0.000 C 
BRANCH  18  19
ATOM     19  C   UNL     1      -0.672   0.443   6.892  1.00  0.00     0.000 C 
BRANCH  19  20
ATOM     20  C   UNL     1      -0.018  -0.946   6.962  1.00  0.00     0.006 C 
BRANCH  20  21
ATOM     21  C   UNL     1       1.123  -1.066   5.947  1.00  0.00     0.053 C 
BRANCH  21  22
ATOM     22  C   UNL     1       2.020  -2.211   6.299  1.00  0.00     0.041 C 
ATOM     23  O   UNL     1       1.735  -2.964   7.267  1.00  0.00    -0.550 OA
ATOM     24  O   UNL     1       3.143  -2.478   5.527  1.00  0.00    -0.550 OA
ENDBRANCH  21  22
ENDBRANCH  20  21
ENDBRANCH  19  20
ENDBRANCH  18  19
ENDBRANCH  17  18
ENDBRANCH  16  17
ENDBRANCH  15  16
ENDBRANCH  14  15
ENDBRANCH  13  14
ENDBRANCH   1  13
TORSDOF 20
ENDMDL
MODEL 5
REMARK VINA RESULT:    -4.740      3.769      8.732
REMARK INTER + INTRA:         -12.050
REMARK INTER:                  -9.905
REMARK INTRA:                  -2.145
REMARK UNBOUND:                -1.768
REMARK SMILES CCCCCCCCCCCCCCCCCCCCCC(=O)[O-]
REMARK SMILES IDX 12 1 11 2 10 3 9 4 8 5 7 6 6 7 5 8 4 9 3 10 2 11 1 12 13 13
REMARK SMILES IDX 14 14 15 15 16 16 17 17 18 18 19 19 20 20 21 21 22 22 23 23
REMARK SMILES IDX 24 24
REMARK H PARENT
REMARK Flexibility Score: inf
ROOT
ATOM      1  C   UNL     1      -4.189  -1.609   5.551  1.00  0.00     0.000 C 
ENDROOT
BRANCH   1   2
ATOM      2  C   UNL     1      -3.242  -0.454   5.914  1.00  0.00     0.000 C 
BRANCH   2   3
ATOM      3  C   UNL     1      -2.122  -0.257   4.881  1.00  0.00     0.000 C 
BRANCH   3   4
ATOM      4  C   UNL     1      -0.867   0.399   5.484  1.00  0.00    -0.000 C 
BRANCH   4   5
ATOM      5  C   UNL     1      -0.839   0.307   7.018  1.00  0.00    -0.000 C 
BRANCH   5   6
ATOM      6  C   UNL     1       0.480  -0.281   7.554  1.00  0.00    -0.000 C 
BRANCH   6   7
ATOM      7  C   UNL     1       0.355  -1.761   7.958  1.00  0.00    -0.000 C 
BRANCH   7   8
ATOM      8  C   UNL     1       1.497  -2.679   7.468  1.00  0.00    -0.000 C 
BRANCH   8   9
ATOM      9  C   UNL     1       2.464  -2.034   6.457  1.00  0.00    -0.000 C 
BRANCH   9  10
ATOM     10  C   UNL     1       2.360  -2.629   5.033  1.00  0.00    -0.000 C 
BRANCH  10  11
ATOM     11  C   UNL     1       2.111  -1.571   3.946  1.00  0.00    -0.003 C 
ATOM     12  C   UNL     1       3.153  -1.613   2.830  1.00  0.00     0.004 C 
ENDBRANCH  10  11
ENDBRANCH   9  10
ENDBRANCH   8   9
ENDBRANCH   7   8
ENDBRANCH   6   7
ENDBRANCH   5   6
ENDBRANCH   4   5
ENDBRANCH   3   4
ENDBRANCH   2   3
ENDBRANCH   1   2
BRANCH   1  13
ATOM     13  C   UNL     1      -4.224  -1.833   4.033  1.00  0.00     0.000 C 
BRANCH  13  14
ATOM     14  C   UNL     1      -5.431  -2.674   3.575  1.00  0.00     0.000 C 
BRANCH  14  15
ATOM     15  C   UNL     1      -5.168  -4.189   3.475  1.00  0.00     0.000 C 
BRANCH  15  16
ATOM     16  C   UNL     1      -5.668  -4.851   2.177  1.00  0.00     0.000 C 
BRANCH  16  17
ATOM     17  C   UNL     1      -4.696  -4.697   0.987  1.00  0.00     0.000 C 
BRANCH  17  18
ATOM     18  C   UNL     1      -5.179  -3.649  -0.031  1.00  0.00     0.000 C 
BRANCH  18  19
ATOM     19  C   UNL     1      -6.711  -3.531  -0.082  1.00  0.00     0.000 C 
BRANCH  19  20
ATOM     20  C   UNL     1      -7.202  -2.092   0.139  1.00  0.00     0.006 C 
BRANCH  20  21
ATOM     21  C   UNL     1      -6.024  -1.136   0.344  1.00  0.00     0.053 C 
BRANCH  21  22
ATOM     22  C   UNL     1      -6.054  -0.040  -0.673  1.00  0.00     0.041 C 
ATOM     23  O   UNL     1      -5.560  -0.222  -1.817  1.00  0.00    -0.550 OA
ATOM     24  O   UNL     1      -6.675   1.167  -0.377  1.00  0.00    -0.550 OA
ENDBRANCH  21  22
ENDBRANCH  20  21
ENDBRANCH  19  20
ENDBRANCH  18  19
ENDBRANCH  17  18
ENDBRANCH  16  17
ENDBRANCH  15  16
ENDBRANCH  14  15
ENDBRANCH  13  14
ENDBRANCH   1  13
TORSDOF 20
ENDMDL
MODEL 6
REMARK VINA RESULT:    -4.712      4.344      9.424
REMARK INTER + INTRA:         -11.989
REMARK INTER:                  -9.473
REMARK INTRA:                  -2.516
REMARK UNBOUND:                -1.768
REMARK SMILES CCCCCCCCCCCCCCCCCCCCCC(=O)[O-]
REMARK SMILES IDX 12 1 11 2 10 3 9 4 8 5 7 6 6 7 5 8 4 9 3 10 2 11 1 12 13 13
REMARK SMILES IDX 14 14 15 15 16 16 17 17 18 18 19 19 20 20 21 21 22 22 23 23
REMARK SMILES IDX 24 24
REMARK H PARENT
REMARK Flexibility Score: inf
ROOT
ATOM      1  C   UNL     1      -4.622  -4.747   0.626  1.00  0.00     0.000 C 
ENDROOT
BRANCH   1   2
ATOM      2  C   UNL     1      -4.864  -3.234   0.752  1.00  0.00     0.000 C 
BRANCH   2   3
ATOM      3  C   UNL     1      -4.843  -2.748   2.210  1.00  0.00     0.000 C 
BRANCH   3   4
ATOM      4  C   UNL     1      -5.212  -3.858   3.210  1.00  0.00    -0.000 C 
BRANCH   4   5
ATOM      5  C   UNL     1      -4.812  -3.504   4.651  1.00  0.00    -0.000 C 
BRANCH   5   6
ATOM      6  C   UNL     1      -4.755  -1.986   4.897  1.00  0.00    -0.000 C 
BRANCH   6   7
ATOM      7  C   UNL     1      -3.707  -1.588   5.952  1.00  0.00    -0.000 C 
BRANCH   7   8
ATOM      8  C   UNL     1      -3.274  -0.106   5.928  1.00  0.00    -0.000 C 
BRANCH   8   9
ATOM      9  C   UNL     1      -2.010   0.192   5.099  1.00  0.00    -0.000 C 
BRANCH   9  10
ATOM     10  C   UNL     1      -0.756   0.475   5.958  1.00  0.00    -0.000 C 
BRANCH  10  11
ATOM     11  C   UNL     1      -0.323  -0.721   6.820  1.00  0.00    -0.003 C 
ATOM     12  C   UNL     1       1.164  -1.041   6.684  1.00  0.00     0.004 C 
ENDBRANCH  10  11
ENDBRANCH   9  10
ENDBRANCH   8   9
ENDBRANCH   7   8
ENDBRANCH   6   7
ENDBRANCH   5   6
ENDBRANCH   4   5
ENDBRANCH   3   4
ENDBRANCH   2   3
ENDBRANCH   1   2
BRANCH   1  13
ATOM     13  C   UNL     1      -5.562  -5.368  -0.418  1.00  0.00     0.000 C 
BRANCH  13  14
ATOM     14  C   UNL     1      -6.989  -4.790  -0.364  1.00  0.00     0.000 C 
BRANCH  14  15
ATOM     15  C   UNL     1      -7.878  -5.359   0.759  1.00  0.00     0.000 C 
BRANCH  15  16
ATOM     16  C   UNL     1      -9.002  -4.419   1.237  1.00  0.00     0.000 C 
BRANCH  16  17
ATOM     17  C   UNL     1      -8.492  -3.069   1.784  1.00  0.00     0.000 C 
BRANCH  17  18
ATOM     18  C   UNL     1      -8.776  -1.902   0.821  1.00  0.00     0.000 C 
BRANCH  18  19
ATOM     19  C   UNL     1      -7.671  -0.834   0.839  1.00  0.00     0.000 C 
BRANCH  19  20
ATOM     20  C   UNL     1      -7.450  -0.187  -0.537  1.00  0.00     0.006 C 
BRANCH  20  21
ATOM     21  C   UNL     1      -5.957  -0.002  -0.822  1.00  0.00     0.053 C 
BRANCH  21  22
ATOM     22  C   UNL     1      -5.572  -0.706  -2.085  1.00  0.00     0.041 C 
ATOM     23  O   UNL     1      -4.715  -0.201  -2.856  1.00  0.00    -0.550 OA
ATOM     24  O   UNL     1      -6.121  -1.947  -2.384  1.00  0.00    -0.550 OA
ENDBRANCH  21  22
ENDBRANCH  20  21
ENDBRANCH  19  20
ENDBRANCH  18  19
ENDBRANCH  17  18
ENDBRANCH  16  17
ENDBRANCH  15  16
ENDBRANCH  14  15
ENDBRANCH  13  14
ENDBRANCH   1  13
TORSDOF 20
ENDMDL
MODEL 7
REMARK VINA RESULT:    -4.694      5.082      8.742
REMARK INTER + INTRA:         -11.951
REMARK INTER:                  -8.637
REMARK INTRA:                  -3.314
REMARK UNBOUND:                -1.768
REMARK SMILES CCCCCCCCCCCCCCCCCCCCCC(=O)[O-]
REMARK SMILES IDX 12 1 11 2 10 3 9 4 8 5 7 6 6 7 5 8 4 9 3 10 2 11 1 12 13 13
REMARK SMILES IDX 14 14 15 15 16 16 17 17 18 18 19 19 20 20 21 21 22 22 23 23
REMARK SMILES IDX 24 24
REMARK H PARENT
REMARK Flexibility Score: inf
ROOT
ATOM      1  C   UNL     1      -6.336  -1.778   1.980  1.00  0.00     0.000 C 
ENDROOT
BRANCH   1   2
ATOM      2  C   UNL     1      -7.310  -2.348   3.022  1.00  0.00     0.000 C 
BRANCH   2   3
ATOM      3  C   UNL     1      -7.945  -3.676   2.578  1.00  0.00     0.000 C 
BRANCH   3   4
ATOM      4  C   UNL     1      -7.929  -4.741   3.688  1.00  0.00    -0.000 C 
BRANCH   4   5
ATOM      5  C   UNL     1      -6.534  -5.352   3.895  1.00  0.00    -0.000 C 
BRANCH   5   6
ATOM      6  C   UNL     1      -5.947  -5.037   5.283  1.00  0.00    -0.000 C 
BRANCH   6   7
ATOM      7  C   UNL     1      -4.793  -4.020   5.229  1.00  0.00    -0.000 C 
BRANCH   7   8
ATOM      8  C   UNL     1      -5.075  -2.664   5.915  1.00  0.00    -0.000 C 
BRANCH   8   9
ATOM      9  C   UNL     1      -3.822  -1.889   6.367  1.00  0.00    -0.000 C 
BRANCH   9  10
ATOM     10  C   UNL     1      -3.419  -0.747   5.407  1.00  0.00    -0.000 C 
BRANCH  10  11
ATOM     11  C   UNL     1      -1.950  -0.318   5.551  1.00  0.00    -0.003 C 
ATOM     12  C   UNL     1      -1.733   1.162   5.241  1.00  0.00     0.004 C 
ENDBRANCH  10  11
ENDBRANCH   9  10
ENDBRANCH   8   9
ENDBRANCH   7   8
ENDBRANCH   6   7
ENDBRANCH   5   6
ENDBRANCH   4   5
ENDBRANCH   3   4
ENDBRANCH   2   3
ENDBRANCH   1   2
BRANCH   1  13
ATOM     13  C   UNL     1      -4.956  -2.442   2.096  1.00  0.00     0.000 C 
BRANCH  13  14
ATOM     14  C   UNL     1      -4.555  -3.226   0.833  1.00  0.00     0.000 C 
BRANCH  14  15
ATOM     15  C   UNL     1      -4.865  -4.735   0.878  1.00  0.00     0.000 C 
BRANCH  15  16
ATOM     16  C   UNL     1      -5.396  -5.330  -0.440  1.00  0.00     0.000 C 
BRANCH  16  17
ATOM     17  C   UNL     1      -6.923  -5.561  -0.446  1.00  0.00     0.000 C 
BRANCH  17  18
ATOM     18  C   UNL     1      -7.643  -4.691  -1.492  1.00  0.00     0.000 C 
BRANCH  18  19
ATOM     19  C   UNL     1      -7.685  -3.205  -1.102  1.00  0.00     0.000 C 
BRANCH  19  20
ATOM     20  C   UNL     1      -6.787  -2.332  -1.993  1.00  0.00     0.006 C 
BRANCH  20  21
ATOM     21  C   UNL     1      -6.873  -0.859  -1.581  1.00  0.00     0.053 C 
BRANCH  21  22
ATOM     22  C   UNL     1      -5.613  -0.139  -1.943  1.00  0.00     0.041 C 
ATOM     23  O   UNL     1      -4.758  -0.692  -2.683  1.00  0.00    -0.550 OA
ATOM     24  O   UNL     1      -5.405   1.163  -1.505  1.00  0.00    -0.550 OA
ENDBRANCH  21  22
ENDBRANCH  20  21
ENDBRANCH  19  20
ENDBRANCH  18  19
ENDBRANCH  17  18
ENDBRANCH  16  17
ENDBRANCH  15  16
ENDBRANCH  14  15
ENDBRANCH  13  14
ENDBRANCH   1  13
TORSDOF 20
ENDMDL
MODEL 8
REMARK VINA RESULT:    -4.633      3.616      8.889
REMARK INTER + INTRA:         -11.818
REMARK INTER:                 -10.347
REMARK INTRA:                  -1.471
REMARK UNBOUND:                -1.768
REMARK SMILES CCCCCCCCCCCCCCCCCCCCCC(=O)[O-]
REMARK SMILES IDX 12 1 11 2 10 3 9 4 8 5 7 6 6 7 5 8 4 9 3 10 2 11 1 12 13 13
REMARK SMILES IDX 14 14 15 15 16 16 17 17 18 18 19 19 20 20 21 21 22 22 23 23
REMARK SMILES IDX 24 24
REMARK H PARENT
REMARK Flexibility Score: inf
ROOT
ATOM      1  C   UNL     1      -4.128  -1.510   4.275  1.00  0.00     0.000 C 
ENDROOT
BRANCH   1   2
ATOM      2  C   UNL     1      -4.089  -1.302   5.798  1.00  0.00     0.000 C 
BRANCH   2   3
ATOM      3  C   UNL     1      -3.371  -0.004   6.202  1.00  0.00     0.000 C 
BRANCH   3   4
ATOM      4  C   UNL     1      -2.289   0.414   5.191  1.00  0.00    -0.000 C 
BRANCH   4   5
ATOM      5  C   UNL     1      -0.969   0.807   5.874  1.00  0.00    -0.000 C 
BRANCH   5   6
ATOM      6  C   UNL     1      -0.652  -0.065   7.102  1.00  0.00    -0.000 C 
BRANCH   6   7
ATOM      7  C   UNL     1       0.650  -0.870   6.946  1.00  0.00    -0.000 C 
BRANCH   7   8
ATOM      8  C   UNL     1       1.099  -1.125   5.490  1.00  0.00    -0.000 C 
BRANCH   8   9
ATOM      9  C   UNL     1       2.584  -1.501   5.321  1.00  0.00    -0.000 C 
BRANCH   9  10
ATOM     10  C   UNL     1       2.866  -2.373   4.076  1.00  0.00    -0.000 C 
BRANCH  10  11
ATOM     11  C   UNL     1       3.454  -1.581   2.897  1.00  0.00    -0.003 C 
ATOM     12  C   UNL     1       4.595  -2.318   2.200  1.00  0.00     0.004 C 
ENDBRANCH  10  11
ENDBRANCH   9  10
ENDBRANCH   8   9
ENDBRANCH   7   8
ENDBRANCH   6   7
ENDBRANCH   5   6
ENDBRANCH   4   5
ENDBRANCH   3   4
ENDBRANCH   2   3
ENDBRANCH   1   2
BRANCH   1  13
ATOM     13  C   UNL     1      -4.817  -2.836   3.921  1.00  0.00     0.000 C 
BRANCH  13  14
ATOM     14  C   UNL     1      -4.817  -3.845   5.084  1.00  0.00     0.000 C 
BRANCH  14  15
ATOM     15  C   UNL     1      -5.853  -4.980   4.960  1.00  0.00     0.000 C 
BRANCH  15  16
ATOM     16  C   UNL     1      -5.914  -5.656   3.578  1.00  0.00     0.000 C 
BRANCH  16  17
ATOM     17  C   UNL     1      -7.182  -5.304   2.770  1.00  0.00     0.000 C 
BRANCH  17  18
ATOM     18  C   UNL     1      -6.910  -5.223   1.258  1.00  0.00     0.000 C 
BRANCH  18  19
ATOM     19  C   UNL     1      -5.411  -5.161   0.926  1.00  0.00     0.000 C 
BRANCH  19  20
ATOM     20  C   UNL     1      -5.136  -5.194  -0.585  1.00  0.00     0.006 C 
BRANCH  20  21
ATOM     21  C   UNL     1      -6.437  -5.054  -1.382  1.00  0.00     0.053 C 
BRANCH  21  22
ATOM     22  C   UNL     1      -6.448  -3.768  -2.147  1.00  0.00     0.041 C 
ATOM     23  O   UNL     1      -6.873  -3.740  -3.331  1.00  0.00    -0.550 OA
ATOM     24  O   UNL     1      -6.038  -2.590  -1.534  1.00  0.00    -0.550 OA
ENDBRANCH  21  22
ENDBRANCH  20  21
ENDBRANCH  19  20
ENDBRANCH  18  19
ENDBRANCH  17  18
ENDBRANCH  16  17
ENDBRANCH  15  16
ENDBRANCH  14  15
ENDBRANCH  13  14
ENDBRANCH   1  13
TORSDOF 20
ENDMDL
MODEL 9
REMARK VINA RESULT:    -4.621      2.085      5.149
REMARK INTER + INTRA:         -11.791
REMARK INTER:                  -9.218
REMARK INTRA:                  -2.573
REMARK UNBOUND:                -1.768
REMARK SMILES CCCCCCCCCCCCCCCCCCCCCC(=O)[O-]
REMARK SMILES IDX 12 1 11 2 10 3 9 4 8 5 7 6 6 7 5 8 4 9 3 10 2 11 1 12 13 13
REMARK SMILES IDX 14 14 15 15 16 16 17 17 18 18 19 19 20 20 21 21 22 22 23 23
REMARK SMILES IDX 24 24
REMARK H PARENT
REMARK Flexibility Score: inf
ROOT
ATOM      1  C   UNL     1      -5.474  -2.449   2.448  1.00  0.00     0.000 C 
ENDROOT
BRANCH   1   2
ATOM      2  C   UNL     1      -4.870  -3.088   1.187  1.00  0.00     0.000 C 
BRANCH   2   3
ATOM      3  C   UNL     1      -4.847  -4.623   1.252  1.00  0.00     0.000 C 
BRANCH   3   4
ATOM      4  C   UNL     1      -5.074  -5.278  -0.121  1.00  0.00    -0.000 C 
BRANCH   4   5
ATOM      5  C   UNL     1      -6.465  -4.965  -0.697  1.00  0.00    -0.000 C 
BRANCH   5   6
ATOM      6  C   UNL     1      -7.608  -5.486   0.194  1.00  0.00    -0.000 C 
BRANCH   6   7
ATOM      7  C   UNL     1      -8.370  -4.358   0.911  1.00  0.00    -0.000 C 
BRANCH   7   8
ATOM      8  C   UNL     1      -8.774  -4.656   2.372  1.00  0.00    -0.000 C 
BRANCH   8   9
ATOM      9  C   UNL     1      -7.897  -5.699   3.091  1.00  0.00    -0.000 C 
BRANCH   9  10
ATOM     10  C   UNL     1      -7.163  -5.142   4.333  1.00  0.00    -0.000 C 
BRANCH  10  11
ATOM     11  C   UNL     1      -5.822  -5.838   4.613  1.00  0.00    -0.003 C 
ATOM     12  C   UNL     1      -5.182  -5.385   5.924  1.00  0.00     0.004 C 
ENDBRANCH  10  11
ENDBRANCH   9  10
ENDBRANCH   8   9
ENDBRANCH   7   8
ENDBRANCH   6   7
ENDBRANCH   5   6
ENDBRANCH   4   5
ENDBRANCH   3   4
ENDBRANCH   2   3
ENDBRANCH   1   2
BRANCH   1  13
ATOM     13  C   UNL     1      -4.511  -2.567   3.638  1.00  0.00     0.000 C 
BRANCH  13  14
ATOM     14  C   UNL     1      -4.738  -1.483   4.708  1.00  0.00     0.000 C 
BRANCH  14  15
ATOM     15  C   UNL     1      -3.891  -1.641   5.985  1.00  0.00     0.000 C 
BRANCH  15  16
ATOM     16  C   UNL     1      -3.032  -0.416   6.352  1.00  0.00     0.000 C 
BRANCH  16  17
ATOM     17  C   UNL     1      -2.304   0.216   5.146  1.00  0.00     0.000 C 
BRANCH  17  18
ATOM     18  C   UNL     1      -0.779   0.024   5.216  1.00  0.00     0.000 C 
BRANCH  18  19
ATOM     19  C   UNL     1      -0.319  -0.607   6.540  1.00  0.00     0.000 C 
BRANCH  19  20
ATOM     20  C   UNL     1       1.136  -1.098   6.488  1.00  0.00     0.006 C 
BRANCH  20  21
ATOM     21  C   UNL     1       1.614  -1.244   5.041  1.00  0.00     0.053 C 
BRANCH  21  22
ATOM     22  C   UNL     1       3.052  -1.656   5.002  1.00  0.00     0.041 C 
ATOM     23  O   UNL     1       3.946  -0.871   5.415  1.00  0.00    -0.550 OA
ATOM     24  O   UNL     1       3.401  -2.925   4.559  1.00  0.00    -0.550 OA
ENDBRANCH  21  22
ENDBRANCH  20  21
ENDBRANCH  19  20
ENDBRANCH  18  19
ENDBRANCH  17  18
ENDBRANCH  16  17
ENDBRANCH  15  16
ENDBRANCH  14  15
ENDBRANCH  13  14
ENDBRANCH   1  13
TORSDOF 20
ENDMDL
