MODEL 1
REMARK VINA RESULT:    -4.118      0.000      0.000
REMARK INTER + INTRA:          -6.276
REMARK INTER:                  -5.803
REMARK INTRA:                  -0.473
REMARK UNBOUND:                -0.473
REMARK SMILES C=CCCCCCCC(=O)[O-]
REMARK SMILES IDX 6 1 7 2 8 3 9 4 10 5 11 6 5 7 4 8 3 9 2 10 1 11
REMARK H PARENT
REMARK Flexibility Score: inf
ROOT
ATOM      1  C   UNL     1      22.334  27.195  32.606  1.00  0.00     0.000 C 
ENDROOT
BRANCH   1   2
ATOM      2  C   UNL     1      21.762  27.604  33.968  1.00  0.00     0.006 C 
BRANCH   2   3
ATOM      3  C   UNL     1      22.655  28.645  34.648  1.00  0.00     0.053 C 
BRANCH   3   4
ATOM      4  C   UNL     1      23.262  28.081  35.895  1.00  0.00     0.041 C 
ATOM      5  O   UNL     1      23.190  26.846  36.131  1.00  0.00    -0.550 OA
ATOM      6  O   UNL     1      23.864  28.924  36.819  1.00  0.00    -0.550 OA
ENDBRANCH   3   4
ENDBRANCH   2   3
ENDBRANCH   1   2
BRANCH   1   7
ATOM      7  C   UNL     1      22.152  25.689  32.362  1.00  0.00     0.000 C 
BRANCH   7   8
ATOM      8  C   UNL     1      23.030  24.825  33.285  1.00  0.00     0.004 C 
BRANCH   8   9
ATOM      9  C   UNL     1      22.238  23.965  34.286  1.00  0.00     0.027 C 
BRANCH   9  10
ATOM     10  C   UNL     1      21.245  23.056  33.612  1.00  0.00    -0.035 C 
ATOM     11  C   UNL     1      21.632  22.073  32.794  1.00  0.00     0.004 C 
ENDBRANCH   9  10
ENDBRANCH   8   9
ENDBRANCH   7   8
ENDBRANCH   1   7
TORSDOF 7
ENDMDL
MODEL 2
REMARK VINA RESULT:    -3.960     11.093     12.307
REMARK INTER + INTRA:          -6.053
REMARK INTER:                  -5.538
REMARK INTRA:                  -0.515
REMARK UNBOUND:                -0.473
REMARK SMILES C=CCCCCCCC(=O)[O-]
REMARK SMILES IDX 6 1 7 2 8 3 9 4 10 5 11 6 5 7 4 8 3 9 2 10 1 11
REMARK H PARENT
REMARK Flexibility Score: inf
ROOT
ATOM      1  C   UNL     1      34.157  24.659  31.051  1.00  0.00     0.000 C 
ENDROOT
BRANCH   1   2
ATOM      2  C   UNL     1      33.855  23.794  32.280  1.00  0.00     0.006 C 
BRANCH   2   3
ATOM      3  C   UNL     1      32.496  23.101  32.144  1.00  0.00     0.053 C 
BRANCH   3   4
ATOM      4  C   UNL     1      31.723  23.210  33.421  1.00  0.00     0.041 C 
ATOM      5  O   UNL     1      31.934  24.168  34.210  1.00  0.00    -0.550 OA
ATOM      6  O   UNL     1      30.801  22.229  33.761  1.00  0.00    -0.550 OA
ENDBRANCH   3   4
ENDBRANCH   2   3
ENDBRANCH   1   2
BRANCH   1   7
ATOM      7  C   UNL     1      34.669  26.047  31.467  1.00  0.00     0.000 C 
BRANCH   7   8
ATOM      8  C   UNL     1      34.133  26.495  32.838  1.00  0.00     0.004 C 
BRANCH   8   9
ATOM      9  C   UNL     1      35.057  27.469  33.590  1.00  0.00     0.027 C 
BRANCH   9  10
ATOM     10  C   UNL     1      36.268  26.788  34.171  1.00  0.00    -0.035 C 
ATOM     11  C   UNL     1      36.219  25.535  34.629  1.00  0.00     0.004 C 
ENDBRANCH   9  10
ENDBRANCH   8   9
ENDBRANCH   7   8
ENDBRANCH   1   7
TORSDOF 7
ENDMDL
MODEL 3
REMARK VINA RESULT:    -3.945      2.040      4.747
REMARK INTER + INTRA:          -6.033
REMARK INTER:                  -5.525
REMARK INTRA:                  -0.508
REMARK UNBOUND:                -0.473
REMARK SMILES C=CCCCCCCC(=O)[O-]
REMARK SMILES IDX 6 1 7 2 8 3 9 4 10 5 11 6 5 7 4 8 3 9 2 10 1 11
REMARK H PARENT
REMARK Flexibility Score: inf
ROOT
ATOM      1  C   UNL     1      21.850  26.948  32.127  1.00  0.00     0.000 C 
ENDROOT
BRANCH   1   2
ATOM      2  C   UNL     1      21.224  26.212  33.318  1.00  0.00     0.006 C 
BRANCH   2   3
ATOM      3  C   UNL     1      21.311  24.694  33.133  1.00  0.00     0.053 C 
BRANCH   3   4
ATOM      4  C   UNL     1      22.395  24.124  33.994  1.00  0.00     0.041 C 
ATOM      5  O   UNL     1      23.383  24.832  34.321  1.00  0.00    -0.550 OA
ATOM      6  O   UNL     1      22.338  22.795  34.394  1.00  0.00    -0.550 OA
ENDBRANCH   3   4
ENDBRANCH   2   3
ENDBRANCH   1   2
BRANCH   1   7
ATOM      7  C   UNL     1      22.342  28.343  32.539  1.00  0.00     0.000 C 
BRANCH   7   8
ATOM      8  C   UNL     1      21.875  28.748  33.949  1.00  0.00     0.004 C 
BRANCH   8   9
ATOM      9  C   UNL     1      22.825  29.717  34.675  1.00  0.00     0.027 C 
BRANCH   9  10
ATOM     10  C   UNL     1      23.492  29.090  35.870  1.00  0.00    -0.035 C 
ATOM     11  C   UNL     1      23.260  27.822  36.221  1.00  0.00     0.004 C 
ENDBRANCH   9  10
ENDBRANCH   8   9
ENDBRANCH   7   8
ENDBRANCH   1   7
TORSDOF 7
ENDMDL
MODEL 4
REMARK VINA RESULT:    -3.930      2.263      5.012
REMARK INTER + INTRA:          -6.011
REMARK INTER:                  -5.614
REMARK INTRA:                  -0.398
REMARK UNBOUND:                -0.473
REMARK SMILES C=CCCCCCCC(=O)[O-]
REMARK SMILES IDX 6 1 7 2 8 3 9 4 10 5 11 6 5 7 4 8 3 9 2 10 1 11
REMARK H PARENT
REMARK Flexibility Score: inf
ROOT
ATOM      1  C   UNL     1      22.136  26.190  32.063  1.00  0.00     0.000 C 
ENDROOT
BRANCH   1   2
ATOM      2  C   UNL     1      22.845  24.851  32.300  1.00  0.00     0.006 C 
BRANCH   2   3
ATOM      3  C   UNL     1      21.831  23.723  32.510  1.00  0.00     0.053 C 
BRANCH   3   4
ATOM      4  C   UNL     1      22.116  22.995  33.787  1.00  0.00     0.041 C 
ATOM      5  O   UNL     1      22.298  23.637  34.855  1.00  0.00    -0.550 OA
ATOM      6  O   UNL     1      22.227  21.611  33.788  1.00  0.00    -0.550 OA
ENDBRANCH   3   4
ENDBRANCH   2   3
ENDBRANCH   1   2
BRANCH   1   7
ATOM      7  C   UNL     1      21.181  26.520  33.220  1.00  0.00     0.000 C 
BRANCH   7   8
ATOM      8  C   UNL     1      21.747  27.586  34.176  1.00  0.00     0.004 C 
BRANCH   8   9
ATOM      9  C   UNL     1      22.798  27.052  35.166  1.00  0.00     0.027 C 
BRANCH   9  10
ATOM     10  C   UNL     1      23.203  28.077  36.191  1.00  0.00    -0.035 C 
ATOM     11  C   UNL     1      23.473  29.341  35.855  1.00  0.00     0.004 C 
ENDBRANCH   9  10
ENDBRANCH   8   9
ENDBRANCH   7   8
ENDBRANCH   1   7
TORSDOF 7
ENDMDL
MODEL 5
REMARK VINA RESULT:    -3.724     11.506     12.439
REMARK INTER + INTRA:          -5.722
REMARK INTER:                  -5.027
REMARK INTRA:                  -0.694
REMARK UNBOUND:                -0.473
REMARK SMILES C=CCCCCCCC(=O)[O-]
REMARK SMILES IDX 6 1 7 2 8 3 9 4 10 5 11 6 5 7 4 8 3 9 2 10 1 11
REMARK H PARENT
REMARK Flexibility Score: inf
ROOT
ATOM      1  C   UNL     1      34.740  26.593  32.326  1.00  0.00     0.000 C 
ENDROOT
BRANCH   1   2
ATOM      2  C   UNL     1      33.333  26.135  32.727  1.00  0.00     0.006 C 
BRANCH   2   3
ATOM      3  C   UNL     1      33.065  24.705  32.251  1.00  0.00     0.053 C 
BRANCH   3   4
ATOM      4  C   UNL     1      32.019  24.057  33.104  1.00  0.00     0.041 C 
ATOM      5  O   UNL     1      32.126  24.072  34.359  1.00  0.00    -0.550 OA
ATOM      6  O   UNL     1      30.952  23.394  32.512  1.00  0.00    -0.550 OA
ENDBRANCH   3   4
ENDBRANCH   2   3
ENDBRANCH   1   2
BRANCH   1   7
ATOM      7  C   UNL     1      35.358  27.489  33.411  1.00  0.00     0.000 C 
BRANCH   7   8
ATOM      8  C   UNL     1      36.201  26.699  34.429  1.00  0.00     0.004 C 
BRANCH   8   9
ATOM      9  C   UNL     1      36.621  25.299  33.948  1.00  0.00     0.027 C 
BRANCH   9  10
ATOM     10  C   UNL     1      36.045  24.196  34.795  1.00  0.00    -0.035 C 
ATOM     11  C   UNL     1      35.746  22.999  34.285  1.00  0.00     0.004 C 
ENDBRANCH   9  10
ENDBRANCH   8   9
ENDBRANCH   7   8
ENDBRANCH   1   7
TORSDOF 7
ENDMDL
MODEL 6
REMARK VINA RESULT:    -3.708      1.331      2.277
REMARK INTER + INTRA:          -5.699
REMARK INTER:                  -5.046
REMARK INTRA:                  -0.653
REMARK UNBOUND:                -0.473
REMARK SMILES C=CCCCCCCC(=O)[O-]
REMARK SMILES IDX 6 1 7 2 8 3 9 4 10 5 11 6 5 7 4 8 3 9 2 10 1 11
REMARK H PARENT
REMARK Flexibility Score: inf
ROOT
ATOM      1  C   UNL     1      23.092  24.724  33.384  1.00  0.00     0.000 C 
ENDROOT
BRANCH   1   2
ATOM      2  C   UNL     1      22.541  26.085  32.941  1.00  0.00     0.006 C 
BRANCH   2   3
ATOM      3  C   UNL     1      21.716  26.733  34.057  1.00  0.00     0.053 C 
BRANCH   3   4
ATOM      4  C   UNL     1      22.588  27.584  34.926  1.00  0.00     0.041 C 
ATOM      5  O   UNL     1      23.106  27.103  35.968  1.00  0.00    -0.550 OA
ATOM      6  O   UNL     1      22.790  28.921  34.611  1.00  0.00    -0.550 OA
ENDBRANCH   3   4
ENDBRANCH   2   3
ENDBRANCH   1   2
BRANCH   1   7
ATOM      7  C   UNL     1      22.142  24.044  34.381  1.00  0.00     0.000 C 
BRANCH   7   8
ATOM      8  C   UNL     1      21.209  23.018  33.712  1.00  0.00     0.004 C 
BRANCH   8   9
ATOM      9  C   UNL     1      21.819  22.317  32.486  1.00  0.00     0.027 C 
BRANCH   9  10
ATOM     10  C   UNL     1      21.010  22.530  31.234  1.00  0.00    -0.035 C 
ATOM     11  C   UNL     1      20.450  23.709  30.950  1.00  0.00     0.004 C 
ENDBRANCH   9  10
ENDBRANCH   8   9
ENDBRANCH   7   8
ENDBRANCH   1   7
TORSDOF 7
ENDMDL
MODEL 7
REMARK VINA RESULT:    -3.676     12.119     13.141
REMARK INTER + INTRA:          -5.654
REMARK INTER:                  -4.941
REMARK INTRA:                  -0.713
REMARK UNBOUND:                -0.473
REMARK SMILES C=CCCCCCCC(=O)[O-]
REMARK SMILES IDX 6 1 7 2 8 3 9 4 10 5 11 6 5 7 4 8 3 9 2 10 1 11
REMARK H PARENT
REMARK Flexibility Score: inf
ROOT
ATOM      1  C   UNL     1      34.002  25.655  31.384  1.00  0.00     0.000 C 
ENDROOT
BRANCH   1   2
ATOM      2  C   UNL     1      33.627  25.803  32.863  1.00  0.00     0.006 C 
BRANCH   2   3
ATOM      3  C   UNL     1      34.142  24.616  33.682  1.00  0.00     0.053 C 
BRANCH   3   4
ATOM      4  C   UNL     1      33.007  23.733  34.096  1.00  0.00     0.041 C 
ATOM      5  O   UNL     1      33.228  22.552  34.472  1.00  0.00    -0.550 OA
ATOM      6  O   UNL     1      31.701  24.199  34.021  1.00  0.00    -0.550 OA
ENDBRANCH   3   4
ENDBRANCH   2   3
ENDBRANCH   1   2
BRANCH   1   7
ATOM      7  C   UNL     1      35.524  25.533  31.211  1.00  0.00     0.000 C 
BRANCH   7   8
ATOM      8  C   UNL     1      36.243  26.892  31.278  1.00  0.00     0.004 C 
BRANCH   8   9
ATOM      9  C   UNL     1      37.538  26.881  32.109  1.00  0.00     0.027 C 
BRANCH   9  10
ATOM     10  C   UNL     1      37.303  26.500  33.546  1.00  0.00    -0.035 C 
ATOM     11  C   UNL     1      36.624  27.291  34.382  1.00  0.00     0.004 C 
ENDBRANCH   9  10
ENDBRANCH   8   9
ENDBRANCH   7   8
ENDBRANCH   1   7
TORSDOF 7
ENDMDL
MODEL 8
REMARK VINA RESULT:    -3.671     16.300     17.839
REMARK INTER + INTRA:          -5.646
REMARK INTER:                  -4.919
REMARK INTRA:                  -0.727
REMARK UNBOUND:                -0.473
REMARK SMILES C=CCCCCCCC(=O)[O-]
REMARK SMILES IDX 6 1 7 2 8 3 9 4 10 5 11 6 5 7 4 8 3 9 2 10 1 11
REMARK H PARENT
REMARK Flexibility Score: inf
ROOT
ATOM      1  C   UNL     1      37.937  26.314  43.583  1.00  0.00     0.000 C 
ENDROOT
BRANCH   1   2
ATOM      2  C   UNL     1      38.099  24.792  43.672  1.00  0.00     0.006 C 
BRANCH   2   3
ATOM      3  C   UNL     1      37.256  24.087  42.607  1.00  0.00     0.053 C 
BRANCH   3   4
ATOM      4  C   UNL     1      35.953  23.631  43.186  1.00  0.00     0.041 C 
ATOM      5  O   UNL     1      35.919  23.102  44.329  1.00  0.00    -0.550 OA
ATOM      6  O   UNL     1      34.784  23.747  42.446  1.00  0.00    -0.550 OA
ENDBRANCH   3   4
ENDBRANCH   2   3
ENDBRANCH   1   2
BRANCH   1   7
ATOM      7  C   UNL     1      37.527  26.905  44.941  1.00  0.00     0.000 C 
BRANCH   7   8
ATOM      8  C   UNL     1      37.380  25.834  46.037  1.00  0.00     0.004 C 
BRANCH   8   9
ATOM      9  C   UNL     1      36.003  25.820  46.725  1.00  0.00     0.027 C 
BRANCH   9  10
ATOM     10  C   UNL     1      34.887  26.216  45.796  1.00  0.00    -0.035 C 
ATOM     11  C   UNL     1      34.014  27.177  46.114  1.00  0.00     0.004 C 
ENDBRANCH   9  10
ENDBRANCH   8   9
ENDBRANCH   7   8
ENDBRANCH   1   7
TORSDOF 7
ENDMDL
MODEL 9
REMARK VINA RESULT:    -3.635     10.519     11.842
REMARK INTER + INTRA:          -5.596
REMARK INTER:                  -5.133
REMARK INTRA:                  -0.463
REMARK UNBOUND:                -0.473
REMARK SMILES C=CCCCCCCC(=O)[O-]
REMARK SMILES IDX 6 1 7 2 8 3 9 4 10 5 11 6 5 7 4 8 3 9 2 10 1 11
REMARK H PARENT
REMARK Flexibility Score: inf
ROOT
ATOM      1  C   UNL     1      33.636  22.978  30.785  1.00  0.00     0.000 C 
ENDROOT
BRANCH   1   2
ATOM      2  C   UNL     1      32.654  22.087  31.554  1.00  0.00     0.006 C 
BRANCH   2   3
ATOM      3  C   UNL     1      31.374  22.852  31.904  1.00  0.00     0.053 C 
BRANCH   3   4
ATOM      4  C   UNL     1      31.195  22.922  33.388  1.00  0.00     0.041 C 
ATOM      5  O   UNL     1      31.619  23.919  34.031  1.00  0.00    -0.550 OA
ATOM      6  O   UNL     1      30.603  21.866  34.067  1.00  0.00    -0.550 OA
ENDBRANCH   3   4
ENDBRANCH   2   3
ENDBRANCH   1   2
BRANCH   1   7
ATOM      7  C   UNL     1      34.337  23.967  31.729  1.00  0.00     0.000 C 
BRANCH   7   8
ATOM      8  C   UNL     1      34.053  25.437  31.371  1.00  0.00     0.004 C 
BRANCH   8   9
ATOM      9  C   UNL     1      33.568  26.292  32.555  1.00  0.00     0.027 C 
BRANCH   9  10
ATOM     10  C   UNL     1      34.703  26.901  33.335  1.00  0.00    -0.035 C 
ATOM     11  C   UNL     1      35.847  27.260  32.748  1.00  0.00     0.004 C 
ENDBRANCH   9  10
ENDBRANCH   8   9
ENDBRANCH   7   8
ENDBRANCH   1   7
TORSDOF 7
ENDMDL
