MODEL 1
REMARK VINA RESULT:    -6.904      0.000      0.000
REMARK INTER + INTRA:          -8.451
REMARK INTER:                  -8.316
REMARK INTRA:                  -0.134
REMARK UNBOUND:                -0.134
REMARK SMILES Oc1cc(O)c2cc(O)c(-c3ccc(O)c(O)c3)[o+]c2c1.[Cl-]
REMARK SMILES IDX 10 1 19 2 20 3 21 4 2 5 3 6 4 7 6 8 7 9 8 10 11 11 12 12
REMARK SMILES IDX 13 13 14 14 18 15 16 16 15 17 17 19 9 21 1 23 5 25
REMARK H PARENT 15 18 17 20 9 22 1 24 5 26
REMARK Flexibility Score: inf
ROOT
ATOM      1  C   UNL     1      82.005   1.770  -0.084  1.00  0.00     0.402 A 
ATOM      2  O   UNL     1      82.559   2.701  -0.857  1.00  0.00    -0.202 OA
ATOM      3  C   UNL     1      83.873   2.859  -0.980  1.00  0.00     0.368 A 
ATOM      4  C   UNL     1      84.361   3.864  -1.820  1.00  0.00     0.162 A 
ATOM      5  C   UNL     1      85.734   4.052  -1.971  1.00  0.00     0.128 A 
ATOM      6  C   UNL     1      86.630   3.230  -1.278  1.00  0.00     0.093 A 
ATOM      7  C   UNL     1      86.167   2.215  -0.430  1.00  0.00     0.136 A 
ATOM      8  C   UNL     1      84.770   2.023  -0.273  1.00  0.00     0.125 A 
ATOM      9  C   UNL     1      84.215   1.041   0.565  1.00  0.00     0.078 A 
ATOM     10  C   UNL     1      82.827   0.915   0.673  1.00  0.00     0.223 A 
ENDROOT
BRANCH   1  11
ATOM     11  C   UNL     1      80.527   1.687  -0.038  1.00  0.00     0.087 A 
ATOM     12  C   UNL     1      79.780   2.838   0.258  1.00  0.00     0.022 A 
ATOM     13  C   UNL     1      78.384   2.787   0.286  1.00  0.00     0.051 A 
ATOM     14  C   UNL     1      77.714   1.594   0.005  1.00  0.00     0.157 A 
ATOM     15  C   UNL     1      79.851   0.492  -0.341  1.00  0.00     0.068 A 
ATOM     16  C   UNL     1      78.449   0.440  -0.314  1.00  0.00     0.158 A 
BRANCH  14  17
ATOM     17  O   UNL     1      76.320   1.573   0.044  1.00  0.00    -0.504 OA
ATOM     18  H   UNL     1      75.802   0.772   0.386  1.00  0.00     0.293 HD
ENDBRANCH  14  17
BRANCH  16  19
ATOM     19  O   UNL     1      77.787  -0.751  -0.610  1.00  0.00    -0.504 OA
ATOM     20  H   UNL     1      78.267  -1.643  -0.599  1.00  0.00     0.293 HD
ENDBRANCH  16  19
ENDBRANCH   1  11
BRANCH  10  21
ATOM     21  O   UNL     1      82.276  -0.026   1.542  1.00  0.00    -0.500 OA
ATOM     22  H   UNL     1      81.429   0.163   2.066  1.00  0.00     0.294 HD
ENDBRANCH  10  21
BRANCH   5  23
ATOM     23  O   UNL     1      86.202   5.059  -2.812  1.00  0.00    -0.507 OA
ATOM     24  H   UNL     1      86.521   4.858  -3.753  1.00  0.00     0.293 HD
ENDBRANCH   5  23
BRANCH   7  25
ATOM     25  O   UNL     1      87.125   1.434   0.223  1.00  0.00    -0.507 OA
ATOM     26  H   UNL     1      87.282   1.440   1.220  1.00  0.00     0.293 HD
ENDBRANCH   7  25
TORSDOF 6
ENDMDL
MODEL 2
REMARK VINA RESULT:    -6.805      1.230      2.914
REMARK INTER + INTRA:          -8.332
REMARK INTER:                  -8.213
REMARK INTRA:                  -0.119
REMARK UNBOUND:                -0.134
REMARK SMILES Oc1cc(O)c2cc(O)c(-c3ccc(O)c(O)c3)[o+]c2c1.[Cl-]
REMARK SMILES IDX 10 1 19 2 20 3 21 4 2 5 3 6 4 7 6 8 7 9 8 10 11 11 12 12
REMARK SMILES IDX 13 13 14 14 18 15 16 16 15 17 17 19 9 21 1 23 5 25
REMARK H PARENT 15 18 17 20 9 22 1 24 5 26
REMARK Flexibility Score: inf
ROOT
ATOM      1  C   UNL     1      82.118   1.906  -0.009  1.00  0.00     0.402 A 
ATOM      2  O   UNL     1      82.824   1.088   0.767  1.00  0.00    -0.202 OA
ATOM      3  C   UNL     1      84.151   1.120   0.844  1.00  0.00     0.368 A 
ATOM      4  C   UNL     1      84.805   0.222   1.692  1.00  0.00     0.162 A 
ATOM      5  C   UNL     1      86.196   0.234   1.795  1.00  0.00     0.128 A 
ATOM      6  C   UNL     1      86.942   1.151   1.045  1.00  0.00     0.093 A 
ATOM      7  C   UNL     1      86.311   2.062   0.188  1.00  0.00     0.136 A 
ATOM      8  C   UNL     1      84.896   2.050   0.080  1.00  0.00     0.125 A 
ATOM      9  C   UNL     1      84.179   2.916  -0.763  1.00  0.00     0.078 A 
ATOM     10  C   UNL     1      82.784   2.843  -0.820  1.00  0.00     0.223 A 
ENDROOT
BRANCH   1  11
ATOM     11  C   UNL     1      80.643   1.779  -0.000  1.00  0.00     0.087 A 
ATOM     12  C   UNL     1      79.856   2.899   0.309  1.00  0.00     0.022 A 
ATOM     13  C   UNL     1      78.461   2.808   0.304  1.00  0.00     0.051 A 
ATOM     14  C   UNL     1      77.833   1.605  -0.025  1.00  0.00     0.157 A 
ATOM     15  C   UNL     1      80.009   0.574  -0.351  1.00  0.00     0.068 A 
ATOM     16  C   UNL     1      78.609   0.481  -0.359  1.00  0.00     0.158 A 
BRANCH  14  17
ATOM     17  O   UNL     1      76.440   1.543  -0.020  1.00  0.00    -0.504 OA
ATOM     18  H   UNL     1      75.936   0.765   0.390  1.00  0.00     0.293 HD
ENDBRANCH  14  17
BRANCH  16  19
ATOM     19  O   UNL     1      77.988  -0.719  -0.702  1.00  0.00    -0.504 OA
ATOM     20  H   UNL     1      76.994  -0.768  -0.888  1.00  0.00     0.293 HD
ENDBRANCH  16  19
ENDBRANCH   1  11
BRANCH  10  21
ATOM     21  O   UNL     1      82.076   3.668  -1.693  1.00  0.00    -0.500 OA
ATOM     22  H   UNL     1      81.320   3.313  -2.268  1.00  0.00     0.294 HD
ENDBRANCH  10  21
BRANCH   5  23
ATOM     23  O   UNL     1      86.829  -0.669   2.645  1.00  0.00    -0.507 OA
ATOM     24  H   UNL     1      86.926  -1.649   2.402  1.00  0.00     0.293 HD
ENDBRANCH   5  23
BRANCH   7  25
ATOM     25  O   UNL     1      87.125   2.948  -0.523  1.00  0.00    -0.507 OA
ATOM     26  H   UNL     1      87.023   3.153  -1.505  1.00  0.00     0.293 HD
ENDBRANCH   7  25
TORSDOF 6
ENDMDL
MODEL 3
REMARK VINA RESULT:    -6.240      7.482      8.837
REMARK INTER + INTRA:          -7.651
REMARK INTER:                  -7.349
REMARK INTRA:                  -0.303
REMARK UNBOUND:                -0.134
REMARK SMILES Oc1cc(O)c2cc(O)c(-c3ccc(O)c(O)c3)[o+]c2c1.[Cl-]
REMARK SMILES IDX 10 1 19 2 20 3 21 4 2 5 3 6 4 7 6 8 7 9 8 10 11 11 12 12
REMARK SMILES IDX 13 13 14 14 18 15 16 16 15 17 17 19 9 21 1 23 5 25
REMARK H PARENT 15 18 17 20 9 22 1 24 5 26
REMARK Flexibility Score: inf
ROOT
ATOM      1  C   UNL     1      84.672   2.440   7.586  1.00  0.00     0.402 A 
ATOM      2  O   UNL     1      85.067   2.220   6.335  1.00  0.00    -0.202 OA
ATOM      3  C   UNL     1      85.712   1.121   5.957  1.00  0.00     0.368 A 
ATOM      4  C   UNL     1      86.082   0.976   4.617  1.00  0.00     0.162 A 
ATOM      5  C   UNL     1      86.758  -0.167   4.191  1.00  0.00     0.128 A 
ATOM      6  C   UNL     1      87.067  -1.176   5.110  1.00  0.00     0.093 A 
ATOM      7  C   UNL     1      86.707  -1.056   6.459  1.00  0.00     0.136 A 
ATOM      8  C   UNL     1      86.021   0.107   6.895  1.00  0.00     0.125 A 
ATOM      9  C   UNL     1      85.634   0.319   8.229  1.00  0.00     0.078 A 
ATOM     10  C   UNL     1      84.964   1.494   8.586  1.00  0.00     0.223 A 
ENDROOT
BRANCH   1  11
ATOM     11  C   UNL     1      83.951   3.700   7.881  1.00  0.00     0.087 A 
ATOM     12  C   UNL     1      84.651   4.917   7.860  1.00  0.00     0.022 A 
ATOM     13  C   UNL     1      83.987   6.120   8.115  1.00  0.00     0.051 A 
ATOM     14  C   UNL     1      82.615   6.128   8.379  1.00  0.00     0.157 A 
ATOM     15  C   UNL     1      82.567   3.712   8.126  1.00  0.00     0.068 A 
ATOM     16  C   UNL     1      81.898   4.919   8.381  1.00  0.00     0.158 A 
BRANCH  14  17
ATOM     17  O   UNL     1      81.980   7.343   8.632  1.00  0.00    -0.504 OA
ATOM     18  H   UNL     1      81.691   7.966   7.886  1.00  0.00     0.293 HD
ENDBRANCH  14  17
BRANCH  16  19
ATOM     19  O   UNL     1      80.526   4.921   8.629  1.00  0.00    -0.504 OA
ATOM     20  H   UNL     1      80.076   4.161   9.125  1.00  0.00     0.293 HD
ENDBRANCH  16  19
ENDBRANCH   1  11
BRANCH  10  21
ATOM     21  O   UNL     1      84.623   1.727   9.917  1.00  0.00    -0.500 OA
ATOM     22  H   UNL     1      84.164   1.022  10.482  1.00  0.00     0.294 HD
ENDBRANCH  10  21
BRANCH   5  23
ATOM     23  O   UNL     1      87.119  -0.292   2.852  1.00  0.00    -0.507 OA
ATOM     24  H   UNL     1      86.458  -0.609   2.152  1.00  0.00     0.293 HD
ENDBRANCH   5  23
BRANCH   7  25
ATOM     25  O   UNL     1      87.048  -2.109   7.313  1.00  0.00    -0.507 OA
ATOM     26  H   UNL     1      87.317  -1.996   8.278  1.00  0.00     0.293 HD
ENDBRANCH   7  25
TORSDOF 6
ENDMDL
MODEL 4
REMARK VINA RESULT:    -5.904      4.526      7.154
REMARK INTER + INTRA:          -7.247
REMARK INTER:                  -6.899
REMARK INTRA:                  -0.348
REMARK UNBOUND:                -0.134
REMARK SMILES Oc1cc(O)c2cc(O)c(-c3ccc(O)c(O)c3)[o+]c2c1.[Cl-]
REMARK SMILES IDX 10 1 19 2 20 3 21 4 2 5 3 6 4 7 6 8 7 9 8 10 11 11 12 12
REMARK SMILES IDX 13 13 14 14 18 15 16 16 15 17 17 19 9 21 1 23 5 25
REMARK H PARENT 15 18 17 20 9 22 1 24 5 26
REMARK Flexibility Score: inf
ROOT
ATOM      1  C   UNL     1      85.988   1.118   2.696  1.00  0.00     0.402 A 
ATOM      2  O   UNL     1      85.678   1.894   3.732  1.00  0.00    -0.202 OA
ATOM      3  C   UNL     1      85.849   1.524   4.997  1.00  0.00     0.368 A 
ATOM      4  C   UNL     1      85.497   2.411   6.018  1.00  0.00     0.162 A 
ATOM      5  C   UNL     1      85.667   2.051   7.355  1.00  0.00     0.128 A 
ATOM      6  C   UNL     1      86.195   0.795   7.676  1.00  0.00     0.093 A 
ATOM      7  C   UNL     1      86.556  -0.112   6.672  1.00  0.00     0.136 A 
ATOM      8  C   UNL     1      86.382   0.251   5.311  1.00  0.00     0.125 A 
ATOM      9  C   UNL     1      86.703  -0.599   4.239  1.00  0.00     0.078 A 
ATOM     10  C   UNL     1      86.499  -0.174   2.923  1.00  0.00     0.223 A 
ENDROOT
BRANCH   1  11
ATOM     11  C   UNL     1      85.761   1.647   1.332  1.00  0.00     0.087 A 
ATOM     12  C   UNL     1      86.813   2.282   0.654  1.00  0.00     0.022 A 
ATOM     13  C   UNL     1      86.627   2.771  -0.642  1.00  0.00     0.051 A 
ATOM     14  C   UNL     1      85.395   2.620  -1.285  1.00  0.00     0.157 A 
ATOM     15  C   UNL     1      84.528   1.478   0.676  1.00  0.00     0.068 A 
ATOM     16  C   UNL     1      84.340   1.967  -0.625  1.00  0.00     0.158 A 
BRANCH  14  17
ATOM     17  O   UNL     1      85.238   3.120  -2.577  1.00  0.00    -0.504 OA
ATOM     18  H   UNL     1      85.356   2.538  -3.398  1.00  0.00     0.293 HD
ENDBRANCH  14  17
BRANCH  16  19
ATOM     19  O   UNL     1      83.113   1.800  -1.266  1.00  0.00    -0.504 OA
ATOM     20  H   UNL     1      83.051   1.666  -2.268  1.00  0.00     0.293 HD
ENDBRANCH  16  19
ENDBRANCH   1  11
BRANCH  10  21
ATOM     21  O   UNL     1      86.770  -1.034   1.860  1.00  0.00    -0.500 OA
ATOM     22  H   UNL     1      86.038  -1.374   1.248  1.00  0.00     0.294 HD
ENDBRANCH  10  21
BRANCH   5  23
ATOM     23  O   UNL     1      85.310   2.948   8.358  1.00  0.00    -0.507 OA
ATOM     24  H   UNL     1      84.405   3.406   8.364  1.00  0.00     0.293 HD
ENDBRANCH   5  23
BRANCH   7  25
ATOM     25  O   UNL     1      87.080  -1.344   7.074  1.00  0.00    -0.507 OA
ATOM     26  H   UNL     1      86.836  -1.814   7.933  1.00  0.00     0.293 HD
ENDBRANCH   7  25
TORSDOF 6
ENDMDL
MODEL 5
REMARK VINA RESULT:    -5.806      8.406      9.618
REMARK INTER + INTRA:          -7.129
REMARK INTER:                  -7.162
REMARK INTRA:                   0.033
REMARK UNBOUND:                -0.134
REMARK SMILES Oc1cc(O)c2cc(O)c(-c3ccc(O)c(O)c3)[o+]c2c1.[Cl-]
REMARK SMILES IDX 10 1 19 2 20 3 21 4 2 5 3 6 4 7 6 8 7 9 8 10 11 11 12 12
REMARK SMILES IDX 13 13 14 14 18 15 16 16 15 17 17 19 9 21 1 23 5 25
REMARK H PARENT 15 18 17 20 9 22 1 24 5 26
REMARK Flexibility Score: inf
ROOT
ATOM      1  C   UNL     1      84.340  -2.739  -7.276  1.00  0.00     0.402 A 
ATOM      2  O   UNL     1      84.771  -1.602  -6.737  1.00  0.00    -0.202 OA
ATOM      3  C   UNL     1      84.514  -0.405  -7.255  1.00  0.00     0.368 A 
ATOM      4  C   UNL     1      85.006   0.734  -6.613  1.00  0.00     0.162 A 
ATOM      5  C   UNL     1      84.750   2.003  -7.132  1.00  0.00     0.128 A 
ATOM      6  C   UNL     1      83.995   2.137  -8.302  1.00  0.00     0.093 A 
ATOM      7  C   UNL     1      83.488   1.011  -8.965  1.00  0.00     0.136 A 
ATOM      8  C   UNL     1      83.750  -0.282  -8.440  1.00  0.00     0.125 A 
ATOM      9  C   UNL     1      83.295  -1.466  -9.043  1.00  0.00     0.078 A 
ATOM     10  C   UNL     1      83.596  -2.705  -8.470  1.00  0.00     0.223 A 
ENDROOT
BRANCH   1  11
ATOM     11  C   UNL     1      84.684  -4.010  -6.598  1.00  0.00     0.087 A 
ATOM     12  C   UNL     1      85.963  -4.171  -6.042  1.00  0.00     0.022 A 
ATOM     13  C   UNL     1      86.303  -5.354  -5.380  1.00  0.00     0.051 A 
ATOM     14  C   UNL     1      85.369  -6.385  -5.250  1.00  0.00     0.157 A 
ATOM     15  C   UNL     1      83.739  -5.040  -6.449  1.00  0.00     0.068 A 
ATOM     16  C   UNL     1      84.078  -6.228  -5.783  1.00  0.00     0.158 A 
BRANCH  14  17
ATOM     17  O   UNL     1      85.737  -7.555  -4.586  1.00  0.00    -0.504 OA
ATOM     18  H   UNL     1      85.451  -7.747  -3.633  1.00  0.00     0.293 HD
ENDBRANCH  14  17
BRANCH  16  19
ATOM     19  O   UNL     1      83.137  -7.247  -5.645  1.00  0.00    -0.504 OA
ATOM     20  H   UNL     1      82.314  -7.135  -5.064  1.00  0.00     0.293 HD
ENDBRANCH  16  19
ENDBRANCH   1  11
BRANCH  10  21
ATOM     21  O   UNL     1      83.188  -3.883  -9.095  1.00  0.00    -0.500 OA
ATOM     22  H   UNL     1      83.745  -4.325  -9.816  1.00  0.00     0.294 HD
ENDBRANCH  10  21
BRANCH   5  23
ATOM     23  O   UNL     1      85.251   3.126  -6.479  1.00  0.00    -0.507 OA
ATOM     24  H   UNL     1      85.004   4.065  -6.772  1.00  0.00     0.293 HD
ENDBRANCH   5  23
BRANCH   7  25
ATOM     25  O   UNL     1      82.740   1.228 -10.125  1.00  0.00    -0.507 OA
ATOM     26  H   UNL     1      81.732   1.207 -10.166  1.00  0.00     0.293 HD
ENDBRANCH   7  25
TORSDOF 6
ENDMDL
MODEL 6
REMARK VINA RESULT:    -5.725      8.311     10.217
REMARK INTER + INTRA:          -7.030
REMARK INTER:                  -7.363
REMARK INTRA:                   0.333
REMARK UNBOUND:                -0.134
REMARK SMILES Oc1cc(O)c2cc(O)c(-c3ccc(O)c(O)c3)[o+]c2c1.[Cl-]
REMARK SMILES IDX 10 1 19 2 20 3 21 4 2 5 3 6 4 7 6 8 7 9 8 10 11 11 12 12
REMARK SMILES IDX 13 13 14 14 18 15 16 16 15 17 17 19 9 21 1 23 5 25
REMARK H PARENT 15 18 17 20 9 22 1 24 5 26
REMARK Flexibility Score: inf
ROOT
ATOM      1  C   UNL     1      84.729   0.173  -7.933  1.00  0.00     0.402 A 
ATOM      2  O   UNL     1      85.149  -0.799  -7.128  1.00  0.00    -0.202 OA
ATOM      3  C   UNL     1      84.773  -2.068  -7.258  1.00  0.00     0.368 A 
ATOM      4  C   UNL     1      85.272  -3.020  -6.365  1.00  0.00     0.162 A 
ATOM      5  C   UNL     1      84.897  -4.358  -6.478  1.00  0.00     0.128 A 
ATOM      6  C   UNL     1      84.017  -4.751  -7.492  1.00  0.00     0.093 A 
ATOM      7  C   UNL     1      83.503  -3.817  -8.401  1.00  0.00     0.136 A 
ATOM      8  C   UNL     1      83.881  -2.454  -8.286  1.00  0.00     0.125 A 
ATOM      9  C   UNL     1      83.405  -1.447  -9.143  1.00  0.00     0.078 A 
ATOM     10  C   UNL     1      83.819  -0.123  -8.965  1.00  0.00     0.223 A 
ENDROOT
BRANCH   1  11
ATOM     11  C   UNL     1      85.228   1.546  -7.693  1.00  0.00     0.087 A 
ATOM     12  C   UNL     1      86.450   1.730  -7.027  1.00  0.00     0.022 A 
ATOM     13  C   UNL     1      86.950   3.016  -6.807  1.00  0.00     0.051 A 
ATOM     14  C   UNL     1      86.247   4.135  -7.261  1.00  0.00     0.157 A 
ATOM     15  C   UNL     1      84.532   2.672  -8.168  1.00  0.00     0.068 A 
ATOM     16  C   UNL     1      85.034   3.964  -7.949  1.00  0.00     0.158 A 
BRANCH  14  17
ATOM     17  O   UNL     1      86.770   5.406  -7.026  1.00  0.00    -0.504 OA
ATOM     18  H   UNL     1      86.970   5.742  -6.090  1.00  0.00     0.293 HD
ENDBRANCH  14  17
BRANCH  16  19
ATOM     19  O   UNL     1      84.334   5.076  -8.417  1.00  0.00    -0.504 OA
ATOM     20  H   UNL     1      84.006   5.132  -9.374  1.00  0.00     0.293 HD
ENDBRANCH  16  19
ENDBRANCH   1  11
BRANCH  10  21
ATOM     21  O   UNL     1      83.309   0.885  -9.784  1.00  0.00    -0.500 OA
ATOM     22  H   UNL     1      82.596   0.698 -10.478  1.00  0.00     0.294 HD
ENDBRANCH  10  21
BRANCH   5  23
ATOM     23  O   UNL     1      85.404  -5.292  -5.578  1.00  0.00    -0.507 OA
ATOM     24  H   UNL     1      86.217  -5.091  -5.006  1.00  0.00     0.293 HD
ENDBRANCH   5  23
BRANCH   7  25
ATOM     25  O   UNL     1      82.633  -4.289  -9.388  1.00  0.00    -0.507 OA
ATOM     26  H   UNL     1      81.910  -4.974  -9.230  1.00  0.00     0.293 HD
ENDBRANCH   7  25
TORSDOF 6
ENDMDL
MODEL 7
REMARK VINA RESULT:    -5.489      6.679      8.276
REMARK INTER + INTRA:          -6.747
REMARK INTER:                  -6.695
REMARK INTRA:                  -0.052
REMARK UNBOUND:                -0.134
REMARK SMILES Oc1cc(O)c2cc(O)c(-c3ccc(O)c(O)c3)[o+]c2c1.[Cl-]
REMARK SMILES IDX 10 1 19 2 20 3 21 4 2 5 3 6 4 7 6 8 7 9 8 10 11 11 12 12
REMARK SMILES IDX 13 13 14 14 18 15 16 16 15 17 17 19 9 21 1 23 5 25
REMARK H PARENT 15 18 17 20 9 22 1 24 5 26
REMARK Flexibility Score: inf
ROOT
ATOM      1  C   UNL     1      85.474   2.150   6.447  1.00  0.00     0.402 A 
ATOM      2  O   UNL     1      85.497   2.355   5.132  1.00  0.00    -0.202 OA
ATOM      3  C   UNL     1      85.882   1.432   4.257  1.00  0.00     0.368 A 
ATOM      4  C   UNL     1      85.868   1.740   2.894  1.00  0.00     0.162 A 
ATOM      5  C   UNL     1      86.265   0.791   1.952  1.00  0.00     0.128 A 
ATOM      6  C   UNL     1      86.679  -0.478   2.374  1.00  0.00     0.093 A 
ATOM      7  C   UNL     1      86.702  -0.812   3.734  1.00  0.00     0.136 A 
ATOM      8  C   UNL     1      86.301   0.153   4.695  1.00  0.00     0.125 A 
ATOM      9  C   UNL     1      86.304  -0.089   6.079  1.00  0.00     0.078 A 
ATOM     10  C   UNL     1      85.900   0.913   6.966  1.00  0.00     0.223 A 
ENDROOT
BRANCH   1  11
ATOM     11  C   UNL     1      85.013   3.254   7.320  1.00  0.00     0.087 A 
ATOM     12  C   UNL     1      85.503   4.552   7.107  1.00  0.00     0.022 A 
ATOM     13  C   UNL     1      85.068   5.613   7.905  1.00  0.00     0.051 A 
ATOM     14  C   UNL     1      84.127   5.398   8.915  1.00  0.00     0.157 A 
ATOM     15  C   UNL     1      84.051   3.043   8.323  1.00  0.00     0.068 A 
ATOM     16  C   UNL     1      83.612   4.107   9.125  1.00  0.00     0.158 A 
BRANCH  14  17
ATOM     17  O   UNL     1      83.713   6.475   9.698  1.00  0.00    -0.504 OA
ATOM     18  H   UNL     1      84.136   6.685  10.594  1.00  0.00     0.293 HD
ENDBRANCH  14  17
BRANCH  16  19
ATOM     19  O   UNL     1      82.662   3.888  10.121  1.00  0.00    -0.504 OA
ATOM     20  H   UNL     1      82.924   3.816  11.098  1.00  0.00     0.293 HD
ENDBRANCH  16  19
ENDBRANCH   1  11
BRANCH  10  21
ATOM     21  O   UNL     1      85.950   0.691   8.341  1.00  0.00    -0.500 OA
ATOM     22  H   UNL     1      85.142   0.369   8.860  1.00  0.00     0.294 HD
ENDBRANCH  10  21
BRANCH   5  23
ATOM     23  O   UNL     1      86.244   1.117   0.598  1.00  0.00    -0.507 OA
ATOM     24  H   UNL     1      86.047   2.060   0.282  1.00  0.00     0.293 HD
ENDBRANCH   5  23
BRANCH   7  25
ATOM     25  O   UNL     1      87.124  -2.100   4.074  1.00  0.00    -0.507 OA
ATOM     26  H   UNL     1      88.083  -2.357   4.255  1.00  0.00     0.293 HD
ENDBRANCH   7  25
TORSDOF 6
ENDMDL
MODEL 8
REMARK VINA RESULT:    -5.447      8.730     10.042
REMARK INTER + INTRA:          -6.696
REMARK INTER:                  -6.382
REMARK INTRA:                  -0.314
REMARK UNBOUND:                -0.134
REMARK SMILES Oc1cc(O)c2cc(O)c(-c3ccc(O)c(O)c3)[o+]c2c1.[Cl-]
REMARK SMILES IDX 10 1 19 2 20 3 21 4 2 5 3 6 4 7 6 8 7 9 8 10 11 11 12 12
REMARK SMILES IDX 13 13 14 14 18 15 16 16 15 17 17 19 9 21 1 23 5 25
REMARK H PARENT 15 18 17 20 9 22 1 24 5 26
REMARK Flexibility Score: inf
ROOT
ATOM      1  C   UNL     1      83.587  -3.151  -7.296  1.00  0.00     0.402 A 
ATOM      2  O   UNL     1      83.711  -3.315  -5.981  1.00  0.00    -0.202 OA
ATOM      3  C   UNL     1      83.992  -4.484  -5.416  1.00  0.00     0.368 A 
ATOM      4  C   UNL     1      84.107  -4.557  -4.025  1.00  0.00     0.162 A 
ATOM      5  C   UNL     1      84.403  -5.770  -3.404  1.00  0.00     0.128 A 
ATOM      6  C   UNL     1      84.587  -6.922  -4.177  1.00  0.00     0.093 A 
ATOM      7  C   UNL     1      84.478  -6.876  -5.573  1.00  0.00     0.136 A 
ATOM      8  C   UNL     1      84.174  -5.643  -6.208  1.00  0.00     0.125 A 
ATOM      9  C   UNL     1      84.032  -5.506  -7.599  1.00  0.00     0.078 A 
ATOM     10  C   UNL     1      83.727  -4.259  -8.152  1.00  0.00     0.223 A 
ENDROOT
BRANCH   1  11
ATOM     11  C   UNL     1      83.282  -1.794  -7.807  1.00  0.00     0.087 A 
ATOM     12  C   UNL     1      81.960  -1.465  -8.144  1.00  0.00     0.022 A 
ATOM     13  C   UNL     1      81.646  -0.185  -8.609  1.00  0.00     0.051 A 
ATOM     14  C   UNL     1      82.642   0.788  -8.728  1.00  0.00     0.157 A 
ATOM     15  C   UNL     1      84.280  -0.808  -7.907  1.00  0.00     0.068 A 
ATOM     16  C   UNL     1      83.966   0.478  -8.372  1.00  0.00     0.158 A 
BRANCH  14  17
ATOM     17  O   UNL     1      82.300   2.056  -9.196  1.00  0.00    -0.504 OA
ATOM     18  H   UNL     1      81.396   2.474  -9.008  1.00  0.00     0.293 HD
ENDBRANCH  14  17
BRANCH  16  19
ATOM     19  O   UNL     1      84.962   1.448  -8.475  1.00  0.00    -0.504 OA
ATOM     20  H   UNL     1      85.582   1.656  -7.701  1.00  0.00     0.293 HD
ENDBRANCH  16  19
ENDBRANCH   1  11
BRANCH  10  21
ATOM     21  O   UNL     1      83.536  -4.132  -9.527  1.00  0.00    -0.500 OA
ATOM     22  H   UNL     1      82.838  -3.508  -9.914  1.00  0.00     0.294 HD
ENDBRANCH  10  21
BRANCH   5  23
ATOM     23  O   UNL     1      84.513  -5.822  -2.017  1.00  0.00    -0.507 OA
ATOM     24  H   UNL     1      84.120  -5.099  -1.425  1.00  0.00     0.293 HD
ENDBRANCH   5  23
BRANCH   7  25
ATOM     25  O   UNL     1      84.679  -8.068  -6.274  1.00  0.00    -0.507 OA
ATOM     26  H   UNL     1      84.001  -8.812  -6.341  1.00  0.00     0.293 HD
ENDBRANCH   7  25
TORSDOF 6
ENDMDL
MODEL 9
REMARK VINA RESULT:    -4.993      8.495     10.456
REMARK INTER + INTRA:          -6.150
REMARK INTER:                  -5.885
REMARK INTRA:                  -0.264
REMARK UNBOUND:                -0.134
REMARK SMILES Oc1cc(O)c2cc(O)c(-c3ccc(O)c(O)c3)[o+]c2c1.[Cl-]
REMARK SMILES IDX 10 1 19 2 20 3 21 4 2 5 3 6 4 7 6 8 7 9 8 10 11 11 12 12
REMARK SMILES IDX 13 13 14 14 18 15 16 16 15 17 17 19 9 21 1 23 5 25
REMARK H PARENT 15 18 17 20 9 22 1 24 5 26
REMARK Flexibility Score: inf
ROOT
ATOM      1  C   UNL     1      84.691   7.472   5.971  1.00  0.00     0.402 A 
ATOM      2  O   UNL     1      83.478   7.103   6.374  1.00  0.00    -0.202 OA
ATOM      3  C   UNL     1      83.257   6.047   7.150  1.00  0.00     0.368 A 
ATOM      4  C   UNL     1      81.946   5.741   7.525  1.00  0.00     0.162 A 
ATOM      5  C   UNL     1      81.685   4.640   8.340  1.00  0.00     0.128 A 
ATOM      6  C   UNL     1      82.740   3.837   8.786  1.00  0.00     0.093 A 
ATOM      7  C   UNL     1      84.063   4.122   8.426  1.00  0.00     0.136 A 
ATOM      8  C   UNL     1      84.333   5.240   7.594  1.00  0.00     0.125 A 
ATOM      9  C   UNL     1      85.625   5.594   7.171  1.00  0.00     0.078 A 
ATOM     10  C   UNL     1      85.812   6.708   6.347  1.00  0.00     0.223 A 
ENDROOT
BRANCH   1  11
ATOM     11  C   UNL     1      84.809   8.676   5.116  1.00  0.00     0.087 A 
ATOM     12  C   UNL     1      85.394   9.839   5.639  1.00  0.00     0.022 A 
ATOM     13  C   UNL     1      85.535  10.980   4.844  1.00  0.00     0.051 A 
ATOM     14  C   UNL     1      85.108  10.971   3.514  1.00  0.00     0.157 A 
ATOM     15  C   UNL     1      84.400   8.662   3.771  1.00  0.00     0.068 A 
ATOM     16  C   UNL     1      84.541   9.806   2.971  1.00  0.00     0.158 A 
BRANCH  14  17
ATOM     17  O   UNL     1      85.259  12.125   2.746  1.00  0.00    -0.504 OA
ATOM     18  H   UNL     1      85.277  13.050   3.159  1.00  0.00     0.293 HD
ENDBRANCH  14  17
BRANCH  16  19
ATOM     19  O   UNL     1      84.126   9.785   1.640  1.00  0.00    -0.504 OA
ATOM     20  H   UNL     1      84.710   9.399   0.908  1.00  0.00     0.293 HD
ENDBRANCH  16  19
ENDBRANCH   1  11
BRANCH  10  21
ATOM     21  O   UNL     1      87.088   7.031   5.886  1.00  0.00    -0.500 OA
ATOM     22  H   UNL     1      87.795   6.321   5.735  1.00  0.00     0.294 HD
ENDBRANCH  10  21
BRANCH   5  23
ATOM     23  O   UNL     1      80.371   4.351   8.703  1.00  0.00    -0.507 OA
ATOM     24  H   UNL     1      80.041   4.485   9.652  1.00  0.00     0.293 HD
ENDBRANCH   5  23
BRANCH   7  25
ATOM     25  O   UNL     1      85.062   3.275   8.915  1.00  0.00    -0.507 OA
ATOM     26  H   UNL     1      85.323   2.397   8.492  1.00  0.00     0.293 HD
ENDBRANCH   7  25
TORSDOF 6
ENDMDL
