MODEL 1
REMARK VINA RESULT:    -6.378      0.000      0.000
REMARK INTER + INTRA:          -6.985
REMARK INTER:                  -6.751
REMARK INTRA:                  -0.234
REMARK UNBOUND:                -0.234
REMARK SMILES CC1=CC[C@]23[C@H]([C@@H](C(C)C)CC[C@H]2C)[C@@H]13
REMARK SMILES IDX 14 1 13 2 12 3 11 4 7 5 6 6 5 7 15 8 2 9 3 10 4 11 1 12 8 13
REMARK SMILES IDX 9 14 10 15
REMARK H PARENT
REMARK Flexibility Score: inf
ROOT
ATOM      1  C   UNL     1      10.743  32.521  25.393  1.00  0.00     0.008 C 
ATOM      2  C   UNL     1      10.519  33.652  24.375  1.00  0.00    -0.007 C 
ATOM      3  C   UNL     1       9.113  34.264  24.481  1.00  0.00     0.004 C 
ATOM      4  C   UNL     1       8.066  33.448  23.728  1.00  0.00     0.004 C 
ATOM      5  C   UNL     1       8.326  33.457  22.202  1.00  0.00    -0.004 C 
ATOM      6  C   UNL     1       9.814  33.207  21.834  1.00  0.00     0.007 C 
ATOM      7  C   UNL     1      10.893  33.243  22.927  1.00  0.00    -0.013 C 
ATOM      8  C   UNL     1      10.388  31.902  22.381  1.00  0.00     0.025 C 
ATOM      9  C   UNL     1      11.555  31.346  21.641  1.00  0.00    -0.073 C 
ATOM     10  C   UNL     1      12.621  32.133  21.696  1.00  0.00    -0.027 C 
ATOM     11  C   UNL     1      12.356  33.377  22.472  1.00  0.00     0.035 C 
ATOM     12  C   UNL     1      11.522  30.046  20.899  1.00  0.00     0.039 C 
ENDROOT
BRANCH   5  13
ATOM     13  C   UNL     1       7.383  32.463  21.449  1.00  0.00    -0.014 C 
ATOM     14  C   UNL     1       6.126  33.165  20.904  1.00  0.00     0.007 C 
ATOM     15  C   UNL     1       6.950  31.289  22.345  1.00  0.00     0.007 C 
ENDBRANCH   5  13
TORSDOF 1
ENDMDL
MODEL 2
REMARK VINA RESULT:    -6.370      1.193      4.449
REMARK INTER + INTRA:          -6.977
REMARK INTER:                  -6.724
REMARK INTRA:                  -0.253
REMARK UNBOUND:                -0.234
REMARK SMILES CC1=CC[C@]23[C@H]([C@@H](C(C)C)CC[C@H]2C)[C@@H]13
REMARK SMILES IDX 14 1 13 2 12 3 11 4 7 5 6 6 5 7 15 8 2 9 3 10 4 11 1 12 8 13
REMARK SMILES IDX 9 14 10 15
REMARK H PARENT
REMARK Flexibility Score: inf
ROOT
ATOM      1  C   UNL     1       7.382  33.021  22.040  1.00  0.00     0.008 C 
ATOM      2  C   UNL     1       8.594  33.891  21.667  1.00  0.00    -0.007 C 
ATOM      3  C   UNL     1       9.267  33.430  20.365  1.00  0.00     0.004 C 
ATOM      4  C   UNL     1      10.233  32.269  20.589  1.00  0.00     0.004 C 
ATOM      5  C   UNL     1      11.439  32.692  21.462  1.00  0.00    -0.004 C 
ATOM      6  C   UNL     1      11.029  33.520  22.710  1.00  0.00     0.007 C 
ATOM      7  C   UNL     1       9.596  34.062  22.838  1.00  0.00    -0.013 C 
ATOM      8  C   UNL     1      10.030  32.821  23.630  1.00  0.00     0.025 C 
ATOM      9  C   UNL     1      10.027  33.274  25.049  1.00  0.00    -0.073 C 
ATOM     10  C   UNL     1       9.652  34.540  25.184  1.00  0.00    -0.027 C 
ATOM     11  C   UNL     1       9.351  35.175  23.870  1.00  0.00     0.035 C 
ATOM     12  C   UNL     1      10.423  32.401  26.198  1.00  0.00     0.039 C 
ENDROOT
BRANCH   5  13
ATOM     13  C   UNL     1      12.321  31.466  21.863  1.00  0.00    -0.014 C 
ATOM     14  C   UNL     1      13.810  31.841  21.971  1.00  0.00     0.007 C 
ATOM     15  C   UNL     1      12.172  30.300  20.870  1.00  0.00     0.007 C 
ENDBRANCH   5  13
TORSDOF 1
ENDMDL
MODEL 3
REMARK VINA RESULT:    -6.365      1.249      4.295
REMARK INTER + INTRA:          -6.971
REMARK INTER:                  -6.687
REMARK INTRA:                  -0.284
REMARK UNBOUND:                -0.234
REMARK SMILES CC1=CC[C@]23[C@H]([C@@H](C(C)C)CC[C@H]2C)[C@@H]13
REMARK SMILES IDX 14 1 13 2 12 3 11 4 7 5 6 6 5 7 15 8 2 9 3 10 4 11 1 12 8 13
REMARK SMILES IDX 9 14 10 15
REMARK H PARENT
REMARK Flexibility Score: inf
ROOT
ATOM      1  C   UNL     1       9.281  34.985  24.626  1.00  0.00     0.008 C 
ATOM      2  C   UNL     1       9.196  33.464  24.414  1.00  0.00    -0.007 C 
ATOM      3  C   UNL     1      10.453  32.734  24.912  1.00  0.00     0.004 C 
ATOM      4  C   UNL     1      11.586  32.762  23.889  1.00  0.00     0.004 C 
ATOM      5  C   UNL     1      11.218  31.971  22.610  1.00  0.00    -0.004 C 
ATOM      6  C   UNL     1       9.788  32.282  22.089  1.00  0.00     0.007 C 
ATOM      7  C   UNL     1       8.807  33.079  22.964  1.00  0.00    -0.013 C 
ATOM      8  C   UNL     1       9.532  33.759  21.796  1.00  0.00     0.025 C 
ATOM      9  C   UNL     1       8.451  34.046  20.812  1.00  0.00    -0.073 C 
ATOM     10  C   UNL     1       7.253  33.663  21.237  1.00  0.00    -0.027 C 
ATOM     11  C   UNL     1       7.318  33.026  22.583  1.00  0.00     0.035 C 
ATOM     12  C   UNL     1       8.690  34.684  19.480  1.00  0.00     0.039 C 
ENDROOT
BRANCH   5  13
ATOM     13  C   UNL     1      12.284  32.165  21.483  1.00  0.00    -0.014 C 
ATOM     14  C   UNL     1      13.124  30.894  21.264  1.00  0.00     0.007 C 
ATOM     15  C   UNL     1      13.229  33.343  21.781  1.00  0.00     0.007 C 
ENDBRANCH   5  13
TORSDOF 1
ENDMDL
MODEL 4
REMARK VINA RESULT:    -6.363      2.792      5.205
REMARK INTER + INTRA:          -6.969
REMARK INTER:                  -6.685
REMARK INTRA:                  -0.284
REMARK UNBOUND:                -0.234
REMARK SMILES CC1=CC[C@]23[C@H]([C@@H](C(C)C)CC[C@H]2C)[C@@H]13
REMARK SMILES IDX 14 1 13 2 12 3 11 4 7 5 6 6 5 7 15 8 2 9 3 10 4 11 1 12 8 13
REMARK SMILES IDX 9 14 10 15
REMARK H PARENT
REMARK Flexibility Score: inf
ROOT
ATOM      1  C   UNL     1      14.823  30.635  19.254  1.00  0.00     0.008 C 
ATOM      2  C   UNL     1      15.093  31.410  20.555  1.00  0.00    -0.007 C 
ATOM      3  C   UNL     1      14.470  30.726  21.782  1.00  0.00     0.004 C 
ATOM      4  C   UNL     1      12.991  31.063  21.948  1.00  0.00     0.004 C 
ATOM      5  C   UNL     1      12.779  32.566  22.253  1.00  0.00    -0.004 C 
ATOM      6  C   UNL     1      13.618  33.499  21.338  1.00  0.00     0.007 C 
ATOM      7  C   UNL     1      14.726  32.912  20.449  1.00  0.00    -0.013 C 
ATOM      8  C   UNL     1      13.372  33.304  19.844  1.00  0.00     0.025 C 
ATOM      9  C   UNL     1      13.683  34.475  18.977  1.00  0.00    -0.073 C 
ATOM     10  C   UNL     1      14.973  34.788  18.981  1.00  0.00    -0.027 C 
ATOM     11  C   UNL     1      15.762  33.892  19.872  1.00  0.00     0.035 C 
ATOM     12  C   UNL     1      12.651  35.227  18.198  1.00  0.00     0.039 C 
ENDROOT
BRANCH   5  13
ATOM     13  C   UNL     1      11.266  32.955  22.222  1.00  0.00    -0.014 C 
ATOM     14  C   UNL     1      10.738  33.315  23.623  1.00  0.00     0.007 C 
ATOM     15  C   UNL     1      10.395  31.832  21.633  1.00  0.00     0.007 C 
ENDBRANCH   5  13
TORSDOF 1
ENDMDL
MODEL 5
REMARK VINA RESULT:    -6.341      1.388      4.107
REMARK INTER + INTRA:          -6.945
REMARK INTER:                  -6.705
REMARK INTRA:                  -0.241
REMARK UNBOUND:                -0.234
REMARK SMILES CC1=CC[C@]23[C@H]([C@@H](C(C)C)CC[C@H]2C)[C@@H]13
REMARK SMILES IDX 14 1 13 2 12 3 11 4 7 5 6 6 5 7 15 8 2 9 3 10 4 11 1 12 8 13
REMARK SMILES IDX 9 14 10 15
REMARK H PARENT
REMARK Flexibility Score: inf
ROOT
ATOM      1  C   UNL     1      11.393  31.838  19.908  1.00  0.00     0.008 C 
ATOM      2  C   UNL     1      11.388  33.204  20.613  1.00  0.00    -0.007 C 
ATOM      3  C   UNL     1      12.270  33.216  21.872  1.00  0.00     0.004 C 
ATOM      4  C   UNL     1      11.552  32.642  23.091  1.00  0.00     0.004 C 
ATOM      5  C   UNL     1      10.350  33.522  23.511  1.00  0.00    -0.004 C 
ATOM      6  C   UNL     1       9.466  33.960  22.312  1.00  0.00     0.007 C 
ATOM      7  C   UNL     1       9.958  33.744  20.872  1.00  0.00    -0.013 C 
ATOM      8  C   UNL     1       8.910  32.804  21.482  1.00  0.00     0.025 C 
ATOM      9  C   UNL     1       7.667  33.096  20.715  1.00  0.00    -0.073 C 
ATOM     10  C   UNL     1       7.847  34.016  19.776  1.00  0.00    -0.027 C 
ATOM     11  C   UNL     1       9.246  34.527  19.757  1.00  0.00     0.035 C 
ATOM     12  C   UNL     1       6.353  32.434  20.985  1.00  0.00     0.039 C 
ENDROOT
BRANCH   5  13
ATOM     13  C   UNL     1       9.493  32.836  24.624  1.00  0.00    -0.014 C 
ATOM     14  C   UNL     1       8.119  33.512  24.787  1.00  0.00     0.007 C 
ATOM     15  C   UNL     1      10.212  32.834  25.985  1.00  0.00     0.007 C 
ENDBRANCH   5  13
TORSDOF 1
ENDMDL
MODEL 6
REMARK VINA RESULT:    -6.043      1.312      3.635
REMARK INTER + INTRA:          -6.630
REMARK INTER:                  -6.346
REMARK INTRA:                  -0.284
REMARK UNBOUND:                -0.234
REMARK SMILES CC1=CC[C@]23[C@H]([C@@H](C(C)C)CC[C@H]2C)[C@@H]13
REMARK SMILES IDX 14 1 13 2 12 3 11 4 7 5 6 6 5 7 15 8 2 9 3 10 4 11 1 12 8 13
REMARK SMILES IDX 9 14 10 15
REMARK H PARENT
REMARK Flexibility Score: inf
ROOT
ATOM      1  C   UNL     1       8.657  34.325  20.003  1.00  0.00     0.008 C 
ATOM      2  C   UNL     1       8.505  32.941  20.656  1.00  0.00    -0.007 C 
ATOM      3  C   UNL     1       7.480  32.945  21.801  1.00  0.00     0.004 C 
ATOM      4  C   UNL     1       8.077  33.444  23.115  1.00  0.00     0.004 C 
ATOM      5  C   UNL     1       9.172  32.486  23.643  1.00  0.00    -0.004 C 
ATOM      6  C   UNL     1      10.168  32.031  22.543  1.00  0.00     0.007 C 
ATOM      7  C   UNL     1       9.864  32.315  21.063  1.00  0.00    -0.013 C 
ATOM      8  C   UNL     1      10.880  33.176  21.824  1.00  0.00     0.025 C 
ATOM      9  C   UNL     1      12.188  32.836  21.199  1.00  0.00    -0.073 C 
ATOM     10  C   UNL     1      12.074  31.953  20.215  1.00  0.00    -0.027 C 
ATOM     11  C   UNL     1      10.661  31.523  20.013  1.00  0.00     0.035 C 
ATOM     12  C   UNL     1      13.494  33.415  21.644  1.00  0.00     0.039 C 
ENDROOT
BRANCH   5  13
ATOM     13  C   UNL     1       9.925  33.090  24.872  1.00  0.00    -0.014 C 
ATOM     14  C   UNL     1       9.594  32.338  26.174  1.00  0.00     0.007 C 
ATOM     15  C   UNL     1       9.607  34.584  25.065  1.00  0.00     0.007 C 
ENDBRANCH   5  13
TORSDOF 1
ENDMDL
MODEL 7
REMARK VINA RESULT:    -5.907      2.344      5.812
REMARK INTER + INTRA:          -6.486
REMARK INTER:                  -6.233
REMARK INTRA:                  -0.253
REMARK UNBOUND:                -0.234
REMARK SMILES CC1=CC[C@]23[C@H]([C@@H](C(C)C)CC[C@H]2C)[C@@H]13
REMARK SMILES IDX 14 1 13 2 12 3 11 4 7 5 6 6 5 7 15 8 2 9 3 10 4 11 1 12 8 13
REMARK SMILES IDX 9 14 10 15
REMARK H PARENT
REMARK Flexibility Score: inf
ROOT
ATOM      1  C   UNL     1      13.067  34.141  19.580  1.00  0.00     0.008 C 
ATOM      2  C   UNL     1      13.828  33.505  20.755  1.00  0.00    -0.007 C 
ATOM      3  C   UNL     1      15.156  32.869  20.315  1.00  0.00     0.004 C 
ATOM      4  C   UNL     1      14.968  31.466  19.743  1.00  0.00     0.004 C 
ATOM      5  C   UNL     1      14.458  30.476  20.817  1.00  0.00    -0.004 C 
ATOM      6  C   UNL     1      13.297  31.050  21.675  1.00  0.00     0.007 C 
ATOM      7  C   UNL     1      12.947  32.544  21.594  1.00  0.00    -0.013 C 
ATOM      8  C   UNL     1      12.083  31.505  20.868  1.00  0.00     0.025 C 
ATOM      9  C   UNL     1      10.787  31.528  21.603  1.00  0.00    -0.073 C 
ATOM     10  C   UNL     1      10.776  32.410  22.596  1.00  0.00    -0.027 C 
ATOM     11  C   UNL     1      12.075  33.127  22.720  1.00  0.00     0.035 C 
ATOM     12  C   UNL     1       9.629  30.641  21.270  1.00  0.00     0.039 C 
ENDROOT
BRANCH   5  13
ATOM     13  C   UNL     1      14.070  29.096  20.194  1.00  0.00    -0.014 C 
ATOM     14  C   UNL     1      14.165  27.955  21.224  1.00  0.00     0.007 C 
ATOM     15  C   UNL     1      14.948  28.745  18.980  1.00  0.00     0.007 C 
ENDBRANCH   5  13
TORSDOF 1
ENDMDL
MODEL 8
REMARK VINA RESULT:    -5.891      1.697      3.327
REMARK INTER + INTRA:          -6.470
REMARK INTER:                  -6.319
REMARK INTRA:                  -0.151
REMARK UNBOUND:                -0.234
REMARK SMILES CC1=CC[C@]23[C@H]([C@@H](C(C)C)CC[C@H]2C)[C@@H]13
REMARK SMILES IDX 14 1 13 2 12 3 11 4 7 5 6 6 5 7 15 8 2 9 3 10 4 11 1 12 8 13
REMARK SMILES IDX 9 14 10 15
REMARK H PARENT
REMARK Flexibility Score: inf
ROOT
ATOM      1  C   UNL     1       7.414  31.442  23.053  1.00  0.00     0.008 C 
ATOM      2  C   UNL     1       7.409  32.961  22.816  1.00  0.00    -0.007 C 
ATOM      3  C   UNL     1       6.548  33.361  21.607  1.00  0.00     0.004 C 
ATOM      4  C   UNL     1       7.295  33.207  20.285  1.00  0.00     0.004 C 
ATOM      5  C   UNL     1       8.490  34.186  20.188  1.00  0.00    -0.004 C 
ATOM      6  C   UNL     1       9.347  34.233  21.482  1.00  0.00     0.007 C 
ATOM      7  C   UNL     1       8.835  33.569  22.769  1.00  0.00    -0.013 C 
ATOM      8  C   UNL     1       9.907  32.880  21.916  1.00  0.00     0.025 C 
ATOM      9  C   UNL     1      11.133  32.926  22.762  1.00  0.00    -0.073 C 
ATOM     10  C   UNL     1      10.923  33.502  23.939  1.00  0.00    -0.027 C 
ATOM     11  C   UNL     1       9.516  33.967  24.090  1.00  0.00     0.035 C 
ATOM     12  C   UNL     1      12.462  32.395  22.324  1.00  0.00     0.039 C 
ENDROOT
BRANCH   5  13
ATOM     13  C   UNL     1       9.376  33.896  18.933  1.00  0.00    -0.014 C 
ATOM     14  C   UNL     1       9.274  32.425  18.488  1.00  0.00     0.007 C 
ATOM     15  C   UNL     1      10.855  34.240  19.180  1.00  0.00     0.007 C 
ENDBRANCH   5  13
TORSDOF 1
ENDMDL
MODEL 9
REMARK VINA RESULT:    -5.825      3.420      6.144
REMARK INTER + INTRA:          -6.399
REMARK INTER:                  -6.167
REMARK INTRA:                  -0.233
REMARK UNBOUND:                -0.234
REMARK SMILES CC1=CC[C@]23[C@H]([C@@H](C(C)C)CC[C@H]2C)[C@@H]13
REMARK SMILES IDX 14 1 13 2 12 3 11 4 7 5 6 6 5 7 15 8 2 9 3 10 4 11 1 12 8 13
REMARK SMILES IDX 9 14 10 15
REMARK H PARENT
REMARK Flexibility Score: inf
ROOT
ATOM      1  C   UNL     1      11.422  31.230  21.576  1.00  0.00     0.008 C 
ATOM      2  C   UNL     1      12.823  31.611  22.082  1.00  0.00    -0.007 C 
ATOM      3  C   UNL     1      13.078  33.125  22.015  1.00  0.00     0.004 C 
ATOM      4  C   UNL     1      13.512  33.581  20.624  1.00  0.00     0.004 C 
ATOM      5  C   UNL     1      14.888  32.988  20.234  1.00  0.00    -0.004 C 
ATOM      6  C   UNL     1      15.012  31.473  20.552  1.00  0.00     0.007 C 
ATOM      7  C   UNL     1      13.951  30.779  21.419  1.00  0.00    -0.013 C 
ATOM      8  C   UNL     1      13.944  30.602  19.896  1.00  0.00     0.025 C 
ATOM      9  C   UNL     1      14.308  29.172  19.692  1.00  0.00    -0.073 C 
ATOM     10  C   UNL     1      14.497  28.522  20.833  1.00  0.00    -0.027 C 
ATOM     11  C   UNL     1      14.313  29.408  22.017  1.00  0.00     0.035 C 
ATOM     12  C   UNL     1      14.461  28.540  18.344  1.00  0.00     0.039 C 
ENDROOT
BRANCH   5  13
ATOM     13  C   UNL     1      15.242  33.283  18.741  1.00  0.00    -0.014 C 
ATOM     14  C   UNL     1      16.382  32.382  18.233  1.00  0.00     0.007 C 
ATOM     15  C   UNL     1      15.635  34.755  18.522  1.00  0.00     0.007 C 
ENDBRANCH   5  13
TORSDOF 1
ENDMDL
