MODEL 1
REMARK VINA RESULT:    -4.071      0.000      0.000
REMARK INTER + INTRA:         -10.404
REMARK INTER:                  -7.640
REMARK INTRA:                  -2.764
REMARK UNBOUND:                -2.764
REMARK SMILES CCCCCC=CCC=CCCCCCCCC(=O)OC
REMARK SMILES IDX 11 1 10 2 9 3 8 4 7 5 6 6 5 7 4 8 3 9 2 10 1 11 12 12 13 13
REMARK SMILES IDX 14 14 15 15 16 16 17 17 18 18 19 19 20 20 21 21
REMARK H PARENT
REMARK Flexibility Score: inf
ROOT
ATOM      1  C   UNL     1      65.662  54.189  20.759  1.00  0.00     0.027 C 
ENDROOT
BRANCH   1   2
ATOM      2  C   UNL     1      66.538  53.344  19.874  1.00  0.00    -0.031 C 
ATOM      3  C   UNL     1      66.097  52.198  19.336  1.00  0.00    -0.027 C 
BRANCH   3   4
ATOM      4  C   UNL     1      66.996  51.368  18.462  1.00  0.00     0.054 C 
BRANCH   4   5
ATOM      5  C   UNL     1      68.009  52.228  17.751  1.00  0.00    -0.027 C 
ATOM      6  C   UNL     1      69.313  52.298  18.078  1.00  0.00    -0.031 C 
BRANCH   6   7
ATOM      7  C   UNL     1      69.942  51.574  19.243  1.00  0.00     0.027 C 
BRANCH   7   8
ATOM      8  C   UNL     1      69.888  52.391  20.549  1.00  0.00     0.004 C 
BRANCH   8   9
ATOM      9  C   UNL     1      69.337  51.607  21.753  1.00  0.00     0.000 C 
BRANCH   9  10
ATOM     10  C   UNL     1      69.196  50.105  21.474  1.00  0.00    -0.003 C 
ATOM     11  C   UNL     1      68.766  49.349  22.728  1.00  0.00     0.004 C 
ENDBRANCH   9  10
ENDBRANCH   8   9
ENDBRANCH   7   8
ENDBRANCH   6   7
ENDBRANCH   4   5
ENDBRANCH   3   4
ENDBRANCH   1   2
BRANCH   1  12
ATOM     12  C   UNL     1      66.338  55.504  21.180  1.00  0.00     0.004 C 
BRANCH  12  13
ATOM     13  C   UNL     1      67.876  55.461  21.160  1.00  0.00     0.000 C 
BRANCH  13  14
ATOM     14  C   UNL     1      68.489  56.464  20.167  1.00  0.00     0.000 C 
BRANCH  14  15
ATOM     15  C   UNL     1      69.457  55.786  19.176  1.00  0.00     0.001 C 
BRANCH  15  16
ATOM     16  C   UNL     1      70.939  56.082  19.463  1.00  0.00     0.012 C 
BRANCH  16  17
ATOM     17  C   UNL     1      71.801  56.096  18.195  1.00  0.00     0.123 C 
BRANCH  17  18
ATOM     18  C   UNL     1      72.110  54.699  17.760  1.00  0.00     0.305 C 
ATOM     19  O   UNL     1      72.578  53.872  18.590  1.00  0.00    -0.252 OA
BRANCH  18  20
ATOM     20  O   UNL     1      71.828  54.310  16.447  1.00  0.00    -0.469 OA
ATOM     21  C   UNL     1      70.889  54.997  15.631  1.00  0.00     0.282 C 
ENDBRANCH  18  20
ENDBRANCH  17  18
ENDBRANCH  16  17
ENDBRANCH  15  16
ENDBRANCH  14  15
ENDBRANCH  13  14
ENDBRANCH  12  13
ENDBRANCH   1  12
TORSDOF 15
ENDMDL
MODEL 2
REMARK VINA RESULT:    -4.003      3.756      5.135
REMARK INTER + INTRA:         -10.276
REMARK INTER:                  -7.808
REMARK INTRA:                  -2.469
REMARK UNBOUND:                -2.764
REMARK SMILES CCCCCC=CCC=CCCCCCCCC(=O)OC
REMARK SMILES IDX 11 1 10 2 9 3 8 4 7 5 6 6 5 7 4 8 3 9 2 10 1 11 12 12 13 13
REMARK SMILES IDX 14 14 15 15 16 16 17 17 18 18 19 19 20 20 21 21
REMARK H PARENT
REMARK Flexibility Score: inf
ROOT
ATOM      1  C   UNL     1      65.629  54.234  20.749  1.00  0.00     0.027 C 
ENDROOT
BRANCH   1   2
ATOM      2  C   UNL     1      66.556  53.353  19.957  1.00  0.00    -0.031 C 
ATOM      3  C   UNL     1      66.094  52.359  19.185  1.00  0.00    -0.027 C 
BRANCH   3   4
ATOM      4  C   UNL     1      67.043  51.487  18.410  1.00  0.00     0.054 C 
BRANCH   4   5
ATOM      5  C   UNL     1      67.971  52.316  17.560  1.00  0.00    -0.027 C 
ATOM      6  C   UNL     1      69.297  52.431  17.769  1.00  0.00    -0.031 C 
BRANCH   6   7
ATOM      7  C   UNL     1      70.039  51.797  18.920  1.00  0.00     0.027 C 
BRANCH   7   8
ATOM      8  C   UNL     1      70.248  52.769  20.098  1.00  0.00     0.004 C 
BRANCH   8   9
ATOM      9  C   UNL     1      69.993  52.139  21.479  1.00  0.00     0.000 C 
BRANCH   9  10
ATOM     10  C   UNL     1      68.900  51.063  21.451  1.00  0.00    -0.003 C 
ATOM     11  C   UNL     1      69.422  49.733  21.986  1.00  0.00     0.004 C 
ENDBRANCH   9  10
ENDBRANCH   8   9
ENDBRANCH   7   8
ENDBRANCH   6   7
ENDBRANCH   4   5
ENDBRANCH   3   4
ENDBRANCH   1   2
BRANCH   1  12
ATOM     12  C   UNL     1      66.367  55.374  21.471  1.00  0.00     0.004 C 
BRANCH  12  13
ATOM     13  C   UNL     1      67.764  55.683  20.905  1.00  0.00     0.000 C 
BRANCH  13  14
ATOM     14  C   UNL     1      68.865  55.649  21.979  1.00  0.00     0.000 C 
BRANCH  14  15
ATOM     15  C   UNL     1      68.284  55.631  23.408  1.00  0.00     0.001 C 
BRANCH  15  16
ATOM     16  C   UNL     1      68.579  54.332  24.177  1.00  0.00     0.012 C 
BRANCH  16  17
ATOM     17  C   UNL     1      69.787  54.455  25.114  1.00  0.00     0.123 C 
BRANCH  17  18
ATOM     18  C   UNL     1      69.333  54.618  26.530  1.00  0.00     0.305 C 
ATOM     19  O   UNL     1      68.120  54.858  26.777  1.00  0.00    -0.252 OA
BRANCH  18  20
ATOM     20  O   UNL     1      70.253  54.451  27.569  1.00  0.00    -0.469 OA
ATOM     21  C   UNL     1      71.558  55.014  27.533  1.00  0.00     0.282 C 
ENDBRANCH  18  20
ENDBRANCH  17  18
ENDBRANCH  16  17
ENDBRANCH  15  16
ENDBRANCH  14  15
ENDBRANCH  13  14
ENDBRANCH  12  13
ENDBRANCH   1  12
TORSDOF 15
ENDMDL
MODEL 3
REMARK VINA RESULT:    -3.935      1.783      3.553
REMARK INTER + INTRA:         -10.149
REMARK INTER:                  -8.159
REMARK INTRA:                  -1.990
REMARK UNBOUND:                -2.764
REMARK SMILES CCCCCC=CCC=CCCCCCCCC(=O)OC
REMARK SMILES IDX 11 1 10 2 9 3 8 4 7 5 6 6 5 7 4 8 3 9 2 10 1 11 12 12 13 13
REMARK SMILES IDX 14 14 15 15 16 16 17 17 18 18 19 19 20 20 21 21
REMARK H PARENT
REMARK Flexibility Score: inf
ROOT
ATOM      1  C   UNL     1      67.067  51.692  18.402  1.00  0.00     0.027 C 
ENDROOT
BRANCH   1   2
ATOM      2  C   UNL     1      66.606  52.513  19.577  1.00  0.00    -0.031 C 
ATOM      3  C   UNL     1      67.233  53.643  19.934  1.00  0.00    -0.027 C 
BRANCH   3   4
ATOM      4  C   UNL     1      66.758  54.439  21.117  1.00  0.00     0.054 C 
BRANCH   4   5
ATOM      5  C   UNL     1      67.889  55.214  21.741  1.00  0.00    -0.027 C 
ATOM      6  C   UNL     1      68.807  54.686  22.573  1.00  0.00    -0.031 C 
BRANCH   6   7
ATOM      7  C   UNL     1      68.804  53.255  23.052  1.00  0.00     0.027 C 
BRANCH   7   8
ATOM      8  C   UNL     1      70.133  52.529  22.764  1.00  0.00     0.004 C 
BRANCH   8   9
ATOM      9  C   UNL     1      70.182  51.842  21.387  1.00  0.00     0.000 C 
BRANCH   9  10
ATOM     10  C   UNL     1      69.233  50.641  21.285  1.00  0.00    -0.003 C 
ATOM     11  C   UNL     1      69.506  49.627  22.391  1.00  0.00     0.004 C 
ENDBRANCH   9  10
ENDBRANCH   8   9
ENDBRANCH   7   8
ENDBRANCH   6   7
ENDBRANCH   4   5
ENDBRANCH   3   4
ENDBRANCH   1   2
BRANCH   1  12
ATOM     12  C   UNL     1      67.998  52.475  17.461  1.00  0.00     0.004 C 
BRANCH  12  13
ATOM     13  C   UNL     1      69.498  52.256  17.727  1.00  0.00     0.000 C 
BRANCH  13  14
ATOM     14  C   UNL     1      70.272  53.574  17.900  1.00  0.00     0.000 C 
BRANCH  14  15
ATOM     15  C   UNL     1      71.787  53.395  17.672  1.00  0.00     0.001 C 
BRANCH  15  16
ATOM     16  C   UNL     1      72.350  54.279  16.547  1.00  0.00     0.012 C 
BRANCH  16  17
ATOM     17  C   UNL     1      71.592  55.603  16.393  1.00  0.00     0.123 C 
BRANCH  17  18
ATOM     18  C   UNL     1      71.333  55.890  14.948  1.00  0.00     0.305 C 
ATOM     19  O   UNL     1      71.550  54.999  14.082  1.00  0.00    -0.252 OA
BRANCH  18  20
ATOM     20  O   UNL     1      70.804  57.130  14.579  1.00  0.00    -0.469 OA
ATOM     21  C   UNL     1      70.881  58.275  15.417  1.00  0.00     0.282 C 
ENDBRANCH  18  20
ENDBRANCH  17  18
ENDBRANCH  16  17
ENDBRANCH  15  16
ENDBRANCH  14  15
ENDBRANCH  13  14
ENDBRANCH  12  13
ENDBRANCH   1  12
TORSDOF 15
ENDMDL
MODEL 4
REMARK VINA RESULT:    -3.933      3.788      5.443
REMARK INTER + INTRA:         -10.145
REMARK INTER:                  -8.155
REMARK INTRA:                  -1.991
REMARK UNBOUND:                -2.764
REMARK SMILES CCCCCC=CCC=CCCCCCCCC(=O)OC
REMARK SMILES IDX 11 1 10 2 9 3 8 4 7 5 6 6 5 7 4 8 3 9 2 10 1 11 12 12 13 13
REMARK SMILES IDX 14 14 15 15 16 16 17 17 18 18 19 19 20 20 21 21
REMARK H PARENT
REMARK Flexibility Score: inf
ROOT
ATOM      1  C   UNL     1      66.182  54.848  21.072  1.00  0.00     0.027 C 
ENDROOT
BRANCH   1   2
ATOM      2  C   UNL     1      66.933  53.831  20.255  1.00  0.00    -0.031 C 
ATOM      3  C   UNL     1      66.303  52.823  19.636  1.00  0.00    -0.027 C 
BRANCH   3   4
ATOM      4  C   UNL     1      67.078  51.815  18.833  1.00  0.00     0.054 C 
BRANCH   4   5
ATOM      5  C   UNL     1      67.799  52.473  17.685  1.00  0.00    -0.027 C 
ATOM      6  C   UNL     1      69.139  52.544  17.566  1.00  0.00    -0.031 C 
BRANCH   6   7
ATOM      7  C   UNL     1      70.116  52.030  18.594  1.00  0.00     0.027 C 
BRANCH   7   8
ATOM      8  C   UNL     1      70.502  53.101  19.634  1.00  0.00     0.004 C 
BRANCH   8   9
ATOM      9  C   UNL     1      70.360  52.633  21.093  1.00  0.00     0.000 C 
BRANCH   9  10
ATOM     10  C   UNL     1      69.782  51.217  21.213  1.00  0.00    -0.003 C 
ATOM     11  C   UNL     1      69.126  51.002  22.574  1.00  0.00     0.004 C 
ENDBRANCH   9  10
ENDBRANCH   8   9
ENDBRANCH   7   8
ENDBRANCH   6   7
ENDBRANCH   4   5
ENDBRANCH   3   4
ENDBRANCH   1   2
BRANCH   1  12
ATOM     12  C   UNL     1      67.086  55.592  22.069  1.00  0.00     0.004 C 
BRANCH  12  13
ATOM     13  C   UNL     1      66.591  57.001  22.442  1.00  0.00     0.000 C 
BRANCH  13  14
ATOM     14  C   UNL     1      65.403  56.977  23.419  1.00  0.00     0.000 C 
BRANCH  14  15
ATOM     15  C   UNL     1      65.718  57.711  24.739  1.00  0.00     0.001 C 
BRANCH  15  16
ATOM     16  C   UNL     1      65.876  56.769  25.945  1.00  0.00     0.012 C 
BRANCH  16  17
ATOM     17  C   UNL     1      67.125  57.073  26.780  1.00  0.00     0.123 C 
BRANCH  17  18
ATOM     18  C   UNL     1      68.212  56.095  26.466  1.00  0.00     0.305 C 
ATOM     19  O   UNL     1      69.329  56.192  27.044  1.00  0.00    -0.252 OA
BRANCH  18  20
ATOM     20  O   UNL     1      67.960  55.052  25.571  1.00  0.00    -0.469 OA
ATOM     21  C   UNL     1      69.000  54.331  24.923  1.00  0.00     0.282 C 
ENDBRANCH  18  20
ENDBRANCH  17  18
ENDBRANCH  16  17
ENDBRANCH  15  16
ENDBRANCH  14  15
ENDBRANCH  13  14
ENDBRANCH  12  13
ENDBRANCH   1  12
TORSDOF 15
ENDMDL
MODEL 5
REMARK VINA RESULT:    -3.897      2.312      5.601
REMARK INTER + INTRA:         -10.079
REMARK INTER:                  -7.486
REMARK INTRA:                  -2.593
REMARK UNBOUND:                -2.764
REMARK SMILES CCCCCC=CCC=CCCCCCCCC(=O)OC
REMARK SMILES IDX 11 1 10 2 9 3 8 4 7 5 6 6 5 7 4 8 3 9 2 10 1 11 12 12 13 13
REMARK SMILES IDX 14 14 15 15 16 16 17 17 18 18 19 19 20 20 21 21
REMARK H PARENT
REMARK Flexibility Score: inf
ROOT
ATOM      1  C   UNL     1      65.979  52.453  19.525  1.00  0.00     0.027 C 
ENDROOT
BRANCH   1   2
ATOM      2  C   UNL     1      66.695  53.607  20.175  1.00  0.00    -0.031 C 
ATOM      3  C   UNL     1      66.030  54.562  20.840  1.00  0.00    -0.027 C 
BRANCH   3   4
ATOM      4  C   UNL     1      66.769  55.708  21.473  1.00  0.00     0.054 C 
BRANCH   4   5
ATOM      5  C   UNL     1      68.095  55.260  22.030  1.00  0.00    -0.027 C 
ATOM      6  C   UNL     1      69.293  55.640  21.545  1.00  0.00    -0.031 C 
BRANCH   6   7
ATOM      7  C   UNL     1      69.485  56.522  20.335  1.00  0.00     0.027 C 
BRANCH   7   8
ATOM      8  C   UNL     1      69.671  55.713  19.036  1.00  0.00     0.004 C 
BRANCH   8   9
ATOM      9  C   UNL     1      70.758  56.275  18.102  1.00  0.00     0.000 C 
BRANCH   9  10
ATOM     10  C   UNL     1      71.390  55.201  17.207  1.00  0.00    -0.003 C 
ATOM     11  C   UNL     1      70.580  55.001  15.930  1.00  0.00     0.004 C 
ENDBRANCH   9  10
ENDBRANCH   8   9
ENDBRANCH   7   8
ENDBRANCH   6   7
ENDBRANCH   4   5
ENDBRANCH   3   4
ENDBRANCH   1   2
BRANCH   1  12
ATOM     12  C   UNL     1      66.739  51.892  18.311  1.00  0.00     0.004 C 
BRANCH  12  13
ATOM     13  C   UNL     1      67.903  52.775  17.829  1.00  0.00     0.000 C 
BRANCH  13  14
ATOM     14  C   UNL     1      69.218  51.993  17.666  1.00  0.00     0.000 C 
BRANCH  14  15
ATOM     15  C   UNL     1      70.168  52.193  18.865  1.00  0.00     0.001 C 
BRANCH  15  16
ATOM     16  C   UNL     1      69.661  51.549  20.167  1.00  0.00     0.012 C 
BRANCH  16  17
ATOM     17  C   UNL     1      70.361  52.099  21.415  1.00  0.00     0.123 C 
BRANCH  17  18
ATOM     18  C   UNL     1      69.764  51.505  22.651  1.00  0.00     0.305 C 
ATOM     19  O   UNL     1      69.099  52.232  23.439  1.00  0.00    -0.252 OA
BRANCH  18  20
ATOM     20  O   UNL     1      69.908  50.136  22.894  1.00  0.00    -0.469 OA
ATOM     21  C   UNL     1      68.825  49.222  22.789  1.00  0.00     0.282 C 
ENDBRANCH  18  20
ENDBRANCH  17  18
ENDBRANCH  16  17
ENDBRANCH  15  16
ENDBRANCH  14  15
ENDBRANCH  13  14
ENDBRANCH  12  13
ENDBRANCH   1  12
TORSDOF 15
ENDMDL
MODEL 6
REMARK VINA RESULT:    -3.846      1.822      3.773
REMARK INTER + INTRA:          -9.982
REMARK INTER:                  -7.574
REMARK INTRA:                  -2.408
REMARK UNBOUND:                -2.764
REMARK SMILES CCCCCC=CCC=CCCCCCCCC(=O)OC
REMARK SMILES IDX 11 1 10 2 9 3 8 4 7 5 6 6 5 7 4 8 3 9 2 10 1 11 12 12 13 13
REMARK SMILES IDX 14 14 15 15 16 16 17 17 18 18 19 19 20 20 21 21
REMARK H PARENT
REMARK Flexibility Score: inf
ROOT
ATOM      1  C   UNL     1      67.084  53.752  19.500  1.00  0.00     0.027 C 
ENDROOT
BRANCH   1   2
ATOM      2  C   UNL     1      67.874  53.942  20.767  1.00  0.00    -0.031 C 
ATOM      3  C   UNL     1      68.764  54.936  20.897  1.00  0.00    -0.027 C 
BRANCH   3   4
ATOM      4  C   UNL     1      69.547  55.099  22.170  1.00  0.00     0.054 C 
BRANCH   4   5
ATOM      5  C   UNL     1      68.832  54.462  23.334  1.00  0.00    -0.027 C 
ATOM      6  C   UNL     1      69.333  53.458  24.079  1.00  0.00    -0.031 C 
BRANCH   6   7
ATOM      7  C   UNL     1      70.656  52.780  23.822  1.00  0.00     0.027 C 
BRANCH   7   8
ATOM      8  C   UNL     1      70.492  51.364  23.235  1.00  0.00     0.004 C 
BRANCH   8   9
ATOM      9  C   UNL     1      70.073  51.347  21.754  1.00  0.00     0.000 C 
BRANCH   9  10
ATOM     10  C   UNL     1      68.912  50.385  21.472  1.00  0.00    -0.003 C 
ATOM     11  C   UNL     1      69.018  49.126  22.328  1.00  0.00     0.004 C 
ENDBRANCH   9  10
ENDBRANCH   8   9
ENDBRANCH   7   8
ENDBRANCH   6   7
ENDBRANCH   4   5
ENDBRANCH   3   4
ENDBRANCH   1   2
BRANCH   1  12
ATOM     12  C   UNL     1      67.303  52.367  18.867  1.00  0.00     0.004 C 
BRANCH  12  13
ATOM     13  C   UNL     1      68.294  52.358  17.690  1.00  0.00     0.000 C 
BRANCH  13  14
ATOM     14  C   UNL     1      69.735  52.038  18.125  1.00  0.00     0.000 C 
BRANCH  14  15
ATOM     15  C   UNL     1      70.689  53.229  17.904  1.00  0.00     0.001 C 
BRANCH  15  16
ATOM     16  C   UNL     1      70.123  54.307  16.963  1.00  0.00     0.012 C 
BRANCH  16  17
ATOM     17  C   UNL     1      71.048  54.609  15.779  1.00  0.00     0.123 C 
BRANCH  17  18
ATOM     18  C   UNL     1      71.037  56.073  15.470  1.00  0.00     0.305 C 
ATOM     19  O   UNL     1      71.090  56.913  16.409  1.00  0.00    -0.252 OA
BRANCH  18  20
ATOM     20  O   UNL     1      71.018  56.492  14.137  1.00  0.00    -0.469 OA
ATOM     21  C   UNL     1      71.468  55.669  13.069  1.00  0.00     0.282 C 
ENDBRANCH  18  20
ENDBRANCH  17  18
ENDBRANCH  16  17
ENDBRANCH  15  16
ENDBRANCH  14  15
ENDBRANCH  13  14
ENDBRANCH  12  13
ENDBRANCH   1  12
TORSDOF 15
ENDMDL
MODEL 7
REMARK VINA RESULT:    -3.800      1.549      3.483
REMARK INTER + INTRA:          -9.896
REMARK INTER:                  -7.373
REMARK INTRA:                  -2.523
REMARK UNBOUND:                -2.764
REMARK SMILES CCCCCC=CCC=CCCCCCCCC(=O)OC
REMARK SMILES IDX 11 1 10 2 9 3 8 4 7 5 6 6 5 7 4 8 3 9 2 10 1 11 12 12 13 13
REMARK SMILES IDX 14 14 15 15 16 16 17 17 18 18 19 19 20 20 21 21
REMARK H PARENT
REMARK Flexibility Score: inf
ROOT
ATOM      1  C   UNL     1      66.088  52.005  19.185  1.00  0.00     0.027 C 
ENDROOT
BRANCH   1   2
ATOM      2  C   UNL     1      66.762  52.941  20.152  1.00  0.00    -0.031 C 
ATOM      3  C   UNL     1      66.293  54.176  20.377  1.00  0.00    -0.027 C 
BRANCH   3   4
ATOM      4  C   UNL     1      66.990  55.095  21.342  1.00  0.00     0.054 C 
BRANCH   4   5
ATOM      5  C   UNL     1      68.474  55.131  21.083  1.00  0.00    -0.027 C 
ATOM      6  C   UNL     1      69.399  54.547  21.867  1.00  0.00    -0.031 C 
BRANCH   6   7
ATOM      7  C   UNL     1      69.094  53.820  23.154  1.00  0.00     0.027 C 
BRANCH   7   8
ATOM      8  C   UNL     1      69.283  52.295  23.033  1.00  0.00     0.004 C 
BRANCH   8   9
ATOM      9  C   UNL     1      69.965  51.853  21.726  1.00  0.00     0.000 C 
BRANCH   9  10
ATOM     10  C   UNL     1      69.339  50.588  21.124  1.00  0.00    -0.003 C 
ATOM     11  C   UNL     1      69.199  49.489  22.172  1.00  0.00     0.004 C 
ENDBRANCH   9  10
ENDBRANCH   8   9
ENDBRANCH   7   8
ENDBRANCH   6   7
ENDBRANCH   4   5
ENDBRANCH   3   4
ENDBRANCH   1   2
BRANCH   1  12
ATOM     12  C   UNL     1      67.052  51.459  18.118  1.00  0.00     0.004 C 
BRANCH  12  13
ATOM     13  C   UNL     1      67.860  52.542  17.381  1.00  0.00     0.000 C 
BRANCH  13  14
ATOM     14  C   UNL     1      69.359  52.506  17.723  1.00  0.00     0.000 C 
BRANCH  14  15
ATOM     15  C   UNL     1      70.130  53.684  17.093  1.00  0.00     0.001 C 
BRANCH  15  16
ATOM     16  C   UNL     1      70.841  54.578  18.123  1.00  0.00     0.012 C 
BRANCH  16  17
ATOM     17  C   UNL     1      71.781  53.794  19.045  1.00  0.00     0.123 C 
BRANCH  17  18
ATOM     18  C   UNL     1      72.983  54.616  19.385  1.00  0.00     0.305 C 
ATOM     19  O   UNL     1      72.986  55.853  19.141  1.00  0.00    -0.252 OA
BRANCH  18  20
ATOM     20  O   UNL     1      74.073  54.011  20.018  1.00  0.00    -0.469 OA
ATOM     21  C   UNL     1      75.346  53.888  19.398  1.00  0.00     0.282 C 
ENDBRANCH  18  20
ENDBRANCH  17  18
ENDBRANCH  16  17
ENDBRANCH  15  16
ENDBRANCH  14  15
ENDBRANCH  13  14
ENDBRANCH  12  13
ENDBRANCH   1  12
TORSDOF 15
ENDMDL
MODEL 8
REMARK VINA RESULT:    -3.747      3.859      5.984
REMARK INTER + INTRA:          -9.796
REMARK INTER:                  -7.345
REMARK INTRA:                  -2.451
REMARK UNBOUND:                -2.764
REMARK SMILES CCCCCC=CCC=CCCCCCCCC(=O)OC
REMARK SMILES IDX 11 1 10 2 9 3 8 4 7 5 6 6 5 7 4 8 3 9 2 10 1 11 12 12 13 13
REMARK SMILES IDX 14 14 15 15 16 16 17 17 18 18 19 19 20 20 21 21
REMARK H PARENT
REMARK Flexibility Score: inf
ROOT
ATOM      1  C   UNL     1      66.423  55.467  20.753  1.00  0.00     0.027 C 
ENDROOT
BRANCH   1   2
ATOM      2  C   UNL     1      67.804  54.891  20.914  1.00  0.00    -0.031 C 
ATOM      3  C   UNL     1      68.019  53.760  21.600  1.00  0.00    -0.027 C 
BRANCH   3   4
ATOM      4  C   UNL     1      69.409  53.210  21.753  1.00  0.00     0.054 C 
BRANCH   4   5
ATOM      5  C   UNL     1      69.544  51.873  21.071  1.00  0.00    -0.027 C 
ATOM      6  C   UNL     1      69.998  51.701  19.815  1.00  0.00    -0.031 C 
BRANCH   6   7
ATOM      7  C   UNL     1      70.380  52.824  18.882  1.00  0.00     0.027 C 
BRANCH   7   8
ATOM      8  C   UNL     1      69.260  53.171  17.881  1.00  0.00     0.004 C 
BRANCH   8   9
ATOM      9  C   UNL     1      68.240  52.039  17.670  1.00  0.00     0.000 C 
BRANCH   9  10
ATOM     10  C   UNL     1      66.859  52.361  18.257  1.00  0.00    -0.003 C 
ATOM     11  C   UNL     1      66.355  51.222  19.137  1.00  0.00     0.004 C 
ENDBRANCH   9  10
ENDBRANCH   8   9
ENDBRANCH   7   8
ENDBRANCH   6   7
ENDBRANCH   4   5
ENDBRANCH   3   4
ENDBRANCH   1   2
BRANCH   1  12
ATOM     12  C   UNL     1      66.439  56.893  20.176  1.00  0.00     0.004 C 
BRANCH  12  13
ATOM     13  C   UNL     1      65.614  57.912  20.983  1.00  0.00     0.000 C 
BRANCH  13  14
ATOM     14  C   UNL     1      66.304  58.339  22.289  1.00  0.00     0.000 C 
BRANCH  14  15
ATOM     15  C   UNL     1      65.383  58.177  23.516  1.00  0.00     0.001 C 
BRANCH  15  16
ATOM     16  C   UNL     1      65.638  56.886  24.313  1.00  0.00     0.012 C 
BRANCH  16  17
ATOM     17  C   UNL     1      67.125  56.526  24.403  1.00  0.00     0.123 C 
BRANCH  17  18
ATOM     18  C   UNL     1      67.500  56.208  25.815  1.00  0.00     0.305 C 
ATOM     19  O   UNL     1      66.990  56.866  26.763  1.00  0.00    -0.252 OA
BRANCH  18  20
ATOM     20  O   UNL     1      68.375  55.149  26.072  1.00  0.00    -0.469 OA
ATOM     21  C   UNL     1      68.653  54.687  27.388  1.00  0.00     0.282 C 
ENDBRANCH  18  20
ENDBRANCH  17  18
ENDBRANCH  16  17
ENDBRANCH  15  16
ENDBRANCH  14  15
ENDBRANCH  13  14
ENDBRANCH  12  13
ENDBRANCH   1  12
TORSDOF 15
ENDMDL
MODEL 9
REMARK VINA RESULT:    -3.738      2.890      6.586
REMARK INTER + INTRA:          -9.779
REMARK INTER:                  -6.961
REMARK INTRA:                  -2.818
REMARK UNBOUND:                -2.764
REMARK SMILES CCCCCC=CCC=CCCCCCCCC(=O)OC
REMARK SMILES IDX 11 1 10 2 9 3 8 4 7 5 6 6 5 7 4 8 3 9 2 10 1 11 12 12 13 13
REMARK SMILES IDX 14 14 15 15 16 16 17 17 18 18 19 19 20 20 21 21
REMARK H PARENT
REMARK Flexibility Score: inf
ROOT
ATOM      1  C   UNL     1      69.363  54.289  17.966  1.00  0.00     0.027 C 
ENDROOT
BRANCH   1   2
ATOM      2  C   UNL     1      70.740  54.561  18.512  1.00  0.00    -0.031 C 
ATOM      3  C   UNL     1      71.781  53.769  18.219  1.00  0.00    -0.027 C 
BRANCH   3   4
ATOM      4  C   UNL     1      73.144  54.058  18.784  1.00  0.00     0.054 C 
BRANCH   4   5
ATOM      5  C   UNL     1      74.140  54.337  17.687  1.00  0.00    -0.027 C 
ATOM      6  C   UNL     1      74.550  55.567  17.325  1.00  0.00    -0.031 C 
BRANCH   6   7
ATOM      7  C   UNL     1      74.029  56.852  17.921  1.00  0.00     0.027 C 
BRANCH   7   8
ATOM      8  C   UNL     1      72.758  57.362  17.212  1.00  0.00     0.004 C 
BRANCH   8   9
ATOM      9  C   UNL     1      72.685  56.992  15.720  1.00  0.00     0.000 C 
BRANCH   9  10
ATOM     10  C   UNL     1      71.338  56.373  15.323  1.00  0.00    -0.003 C 
ATOM     11  C   UNL     1      71.528  55.002  14.682  1.00  0.00     0.004 C 
ENDBRANCH   9  10
ENDBRANCH   8   9
ENDBRANCH   7   8
ENDBRANCH   6   7
ENDBRANCH   4   5
ENDBRANCH   3   4
ENDBRANCH   1   2
BRANCH   1  12
ATOM     12  C   UNL     1      69.208  52.853  17.438  1.00  0.00     0.004 C 
BRANCH  12  13
ATOM     13  C   UNL     1      68.015  52.084  18.034  1.00  0.00     0.000 C 
BRANCH  13  14
ATOM     14  C   UNL     1      67.781  52.405  19.521  1.00  0.00     0.000 C 
BRANCH  14  15
ATOM     15  C   UNL     1      68.236  51.256  20.444  1.00  0.00     0.001 C 
BRANCH  15  16
ATOM     16  C   UNL     1      69.734  51.301  20.790  1.00  0.00     0.012 C 
BRANCH  16  17
ATOM     17  C   UNL     1      70.128  52.559  21.571  1.00  0.00     0.123 C 
BRANCH  17  18
ATOM     18  C   UNL     1      70.263  52.248  23.028  1.00  0.00     0.305 C 
ATOM     19  O   UNL     1      70.712  51.126  23.391  1.00  0.00    -0.252 OA
BRANCH  18  20
ATOM     20  O   UNL     1      69.937  53.225  23.972  1.00  0.00    -0.469 OA
ATOM     21  C   UNL     1      68.660  53.849  24.018  1.00  0.00     0.282 C 
ENDBRANCH  18  20
ENDBRANCH  17  18
ENDBRANCH  16  17
ENDBRANCH  15  16
ENDBRANCH  14  15
ENDBRANCH  13  14
ENDBRANCH  12  13
ENDBRANCH   1  12
TORSDOF 15
ENDMDL
