MODEL 1
REMARK VINA RESULT:    -3.737      0.000      0.000
REMARK INTER + INTRA:          -4.376
REMARK INTER:                  -4.174
REMARK INTRA:                  -0.202
REMARK UNBOUND:                -0.202
REMARK SMILES O=C([O-])c1ccccc1C(=O)[O-]
REMARK SMILES IDX 4 1 9 2 5 3 8 4 6 5 7 6 2 7 1 8 3 9 10 10 11 11 12 12
REMARK H PARENT
REMARK Flexibility Score: inf
ROOT
ATOM      1  C   UNL     1      63.844  34.232  60.037  1.00  0.00     0.006 A 
ATOM      2  C   UNL     1      62.669  34.991  59.773  1.00  0.00     0.006 A 
ATOM      3  C   UNL     1      64.513  34.410  61.261  1.00  0.00     0.010 A 
ATOM      4  C   UNL     1      62.247  35.947  60.716  1.00  0.00     0.010 A 
ATOM      5  C   UNL     1      64.063  35.348  62.192  1.00  0.00     0.001 A 
ATOM      6  C   UNL     1      62.940  36.122  61.913  1.00  0.00     0.001 A 
ENDROOT
BRANCH   1   7
ATOM      7  C   UNL     1      64.444  33.302  59.051  1.00  0.00     0.072 C 
ATOM      8  O   UNL     1      64.213  32.065  59.108  1.00  0.00    -0.545 OA
ATOM      9  O   UNL     1      65.218  33.797  58.007  1.00  0.00    -0.545 OA
ENDBRANCH   1   7
BRANCH   2  10
ATOM     10  C   UNL     1      61.822  34.780  58.576  1.00  0.00     0.072 C 
ATOM     11  O   UNL     1      61.812  35.619  57.637  1.00  0.00    -0.545 OA
ATOM     12  O   UNL     1      61.077  33.614  58.448  1.00  0.00    -0.545 OA
ENDBRANCH   2  10
TORSDOF 2
ENDMDL
MODEL 2
REMARK VINA RESULT:    -3.698      0.116      3.137
REMARK INTER + INTRA:          -4.332
REMARK INTER:                  -4.119
REMARK INTRA:                  -0.213
REMARK UNBOUND:                -0.202
REMARK SMILES O=C([O-])c1ccccc1C(=O)[O-]
REMARK SMILES IDX 4 1 9 2 5 3 8 4 6 5 7 6 2 7 1 8 3 9 10 10 11 11 12 12
REMARK H PARENT
REMARK Flexibility Score: inf
ROOT
ATOM      1  C   UNL     1      62.635  35.029  59.734  1.00  0.00     0.006 A 
ATOM      2  C   UNL     1      63.795  34.235  59.961  1.00  0.00     0.006 A 
ATOM      3  C   UNL     1      62.260  35.983  60.697  1.00  0.00     0.010 A 
ATOM      4  C   UNL     1      64.495  34.379  61.173  1.00  0.00     0.010 A 
ATOM      5  C   UNL     1      62.985  36.125  61.882  1.00  0.00     0.001 A 
ATOM      6  C   UNL     1      64.092  35.316  62.124  1.00  0.00     0.001 A 
ENDROOT
BRANCH   1   7
ATOM      7  C   UNL     1      61.754  34.856  58.555  1.00  0.00     0.072 C 
ATOM      8  O   UNL     1      61.780  35.682  57.604  1.00  0.00    -0.545 OA
ATOM      9  O   UNL     1      60.935  33.738  58.455  1.00  0.00    -0.545 OA
ENDBRANCH   1   7
BRANCH   2  10
ATOM     10  C   UNL     1      64.345  33.302  58.950  1.00  0.00     0.072 C 
ATOM     11  O   UNL     1      64.100  32.068  59.011  1.00  0.00    -0.545 OA
ATOM     12  O   UNL     1      65.085  33.792  57.881  1.00  0.00    -0.545 OA
ENDBRANCH   2  10
TORSDOF 2
ENDMDL
MODEL 3
REMARK VINA RESULT:    -3.613      8.700     10.189
REMARK INTER + INTRA:          -4.238
REMARK INTER:                  -4.065
REMARK INTRA:                  -0.173
REMARK UNBOUND:                -0.202
REMARK SMILES O=C([O-])c1ccccc1C(=O)[O-]
REMARK SMILES IDX 4 1 9 2 5 3 8 4 6 5 7 6 2 7 1 8 3 9 10 10 11 11 12 12
REMARK H PARENT
REMARK Flexibility Score: inf
ROOT
ATOM      1  C   UNL     1      70.432  29.142  59.911  1.00  0.00     0.006 A 
ATOM      2  C   UNL     1      71.695  29.628  60.354  1.00  0.00     0.006 A 
ATOM      3  C   UNL     1      69.785  29.791  58.845  1.00  0.00     0.010 A 
ATOM      4  C   UNL     1      72.230  30.784  59.756  1.00  0.00     0.010 A 
ATOM      5  C   UNL     1      70.346  30.924  58.251  1.00  0.00     0.001 A 
ATOM      6  C   UNL     1      71.559  31.425  58.715  1.00  0.00     0.001 A 
ENDROOT
BRANCH   1   7
ATOM      7  C   UNL     1      69.724  28.017  60.567  1.00  0.00     0.072 C 
ATOM      8  O   UNL     1      69.879  26.835  60.162  1.00  0.00    -0.545 OA
ATOM      9  O   UNL     1      68.930  28.250  61.683  1.00  0.00    -0.545 OA
ENDBRANCH   1   7
BRANCH   2  10
ATOM     10  C   UNL     1      72.515  28.936  61.375  1.00  0.00     0.072 C 
ATOM     11  O   UNL     1      73.072  27.835  61.117  1.00  0.00    -0.545 OA
ATOM     12  O   UNL     1      72.734  29.529  62.612  1.00  0.00    -0.545 OA
ENDBRANCH   2  10
TORSDOF 2
ENDMDL
MODEL 4
REMARK VINA RESULT:    -3.600      8.686      9.885
REMARK INTER + INTRA:          -4.222
REMARK INTER:                  -4.054
REMARK INTRA:                  -0.168
REMARK UNBOUND:                -0.202
REMARK SMILES O=C([O-])c1ccccc1C(=O)[O-]
REMARK SMILES IDX 4 1 9 2 5 3 8 4 6 5 7 6 2 7 1 8 3 9 10 10 11 11 12 12
REMARK H PARENT
REMARK Flexibility Score: inf
ROOT
ATOM      1  C   UNL     1      71.683  29.653  60.349  1.00  0.00     0.006 A 
ATOM      2  C   UNL     1      70.417  29.163  59.920  1.00  0.00     0.006 A 
ATOM      3  C   UNL     1      72.210  30.808  59.745  1.00  0.00     0.010 A 
ATOM      4  C   UNL     1      69.759  29.809  58.857  1.00  0.00     0.010 A 
ATOM      5  C   UNL     1      71.528  31.447  58.708  1.00  0.00     0.001 A 
ATOM      6  C   UNL     1      70.311  30.941  58.258  1.00  0.00     0.001 A 
ENDROOT
BRANCH   1   7
ATOM      7  C   UNL     1      72.515  28.963  61.363  1.00  0.00     0.072 C 
ATOM      8  O   UNL     1      73.059  27.856  61.107  1.00  0.00    -0.545 OA
ATOM      9  O   UNL     1      72.759  29.566  62.592  1.00  0.00    -0.545 OA
ENDBRANCH   1   7
BRANCH   2  10
ATOM     10  C   UNL     1      69.719  28.037  60.583  1.00  0.00     0.072 C 
ATOM     11  O   UNL     1      69.851  26.858  60.159  1.00  0.00    -0.545 OA
ATOM     12  O   UNL     1      68.963  28.263  61.727  1.00  0.00    -0.545 OA
ENDBRANCH   2  10
TORSDOF 2
ENDMDL
MODEL 5
REMARK VINA RESULT:    -3.522      8.641      9.755
REMARK INTER + INTRA:          -4.136
REMARK INTER:                  -3.994
REMARK INTRA:                  -0.142
REMARK UNBOUND:                -0.202
REMARK SMILES O=C([O-])c1ccccc1C(=O)[O-]
REMARK SMILES IDX 4 1 9 2 5 3 8 4 6 5 7 6 2 7 1 8 3 9 10 10 11 11 12 12
REMARK H PARENT
REMARK Flexibility Score: inf
ROOT
ATOM      1  C   UNL     1      71.586  30.635  58.535  1.00  0.00     0.006 A 
ATOM      2  C   UNL     1      71.615  31.027  59.904  1.00  0.00     0.006 A 
ATOM      3  C   UNL     1      71.271  31.593  57.555  1.00  0.00     0.010 A 
ATOM      4  C   UNL     1      71.262  32.346  60.244  1.00  0.00     0.010 A 
ATOM      5  C   UNL     1      70.947  32.903  57.915  1.00  0.00     0.001 A 
ATOM      6  C   UNL     1      70.930  33.273  59.257  1.00  0.00     0.001 A 
ENDROOT
BRANCH   1   7
ATOM      7  C   UNL     1      71.808  29.239  58.090  1.00  0.00     0.072 C 
ATOM      8  O   UNL     1      72.948  28.855  57.716  1.00  0.00    -0.545 OA
ATOM      9  O   UNL     1      70.770  28.317  58.144  1.00  0.00    -0.545 OA
ENDBRANCH   1   7
BRANCH   2  10
ATOM     10  C   UNL     1      72.065  30.129  60.992  1.00  0.00     0.072 C 
ATOM     11  O   UNL     1      73.125  30.370  61.629  1.00  0.00    -0.545 OA
ATOM     12  O   UNL     1      71.283  29.043  61.368  1.00  0.00    -0.545 OA
ENDBRANCH   2  10
TORSDOF 2
ENDMDL
MODEL 6
REMARK VINA RESULT:    -3.343      8.997     10.713
REMARK INTER + INTRA:          -3.936
REMARK INTER:                  -3.722
REMARK INTRA:                  -0.214
REMARK UNBOUND:                -0.202
REMARK SMILES O=C([O-])c1ccccc1C(=O)[O-]
REMARK SMILES IDX 4 1 9 2 5 3 8 4 6 5 7 6 2 7 1 8 3 9 10 10 11 11 12 12
REMARK H PARENT
REMARK Flexibility Score: inf
ROOT
ATOM      1  C   UNL     1      71.989  29.844  59.562  1.00  0.00     0.006 A 
ATOM      2  C   UNL     1      72.214  28.439  59.631  1.00  0.00     0.006 A 
ATOM      3  C   UNL     1      72.382  30.653  60.643  1.00  0.00     0.010 A 
ATOM      4  C   UNL     1      72.764  27.892  60.805  1.00  0.00     0.010 A 
ATOM      5  C   UNL     1      72.947  30.090  61.789  1.00  0.00     0.001 A 
ATOM      6  C   UNL     1      73.125  28.712  61.874  1.00  0.00     0.001 A 
ENDROOT
BRANCH   1   7
ATOM      7  C   UNL     1      71.293  30.496  58.429  1.00  0.00     0.072 C 
ATOM      8  O   UNL     1      70.076  30.813  58.515  1.00  0.00    -0.545 OA
ATOM      9  O   UNL     1      71.996  30.827  57.276  1.00  0.00    -0.545 OA
ENDBRANCH   1   7
BRANCH   2  10
ATOM     10  C   UNL     1      71.960  27.524  58.494  1.00  0.00     0.072 C 
ATOM     11  O   UNL     1      70.837  26.972  58.350  1.00  0.00    -0.545 OA
ATOM     12  O   UNL     1      72.942  27.318  57.532  1.00  0.00    -0.545 OA
ENDBRANCH   2  10
TORSDOF 2
ENDMDL
MODEL 7
REMARK VINA RESULT:    -3.307     18.321     19.649
REMARK INTER + INTRA:          -3.895
REMARK INTER:                  -3.666
REMARK INTRA:                  -0.229
REMARK UNBOUND:                -0.202
REMARK SMILES O=C([O-])c1ccccc1C(=O)[O-]
REMARK SMILES IDX 4 1 9 2 5 3 8 4 6 5 7 6 2 7 1 8 3 9 10 10 11 11 12 12
REMARK H PARENT
REMARK Flexibility Score: inf
ROOT
ATOM      1  C   UNL     1      56.598  18.236  51.751  1.00  0.00     0.006 A 
ATOM      2  C   UNL     1      57.565  17.507  52.500  1.00  0.00     0.006 A 
ATOM      3  C   UNL     1      56.560  18.086  50.353  1.00  0.00     0.010 A 
ATOM      4  C   UNL     1      58.499  16.709  51.815  1.00  0.00     0.010 A 
ATOM      5  C   UNL     1      57.483  17.270  49.697  1.00  0.00     0.001 A 
ATOM      6  C   UNL     1      58.457  16.593  50.426  1.00  0.00     0.001 A 
ENDROOT
BRANCH   1   7
ATOM      7  C   UNL     1      55.662  19.206  52.367  1.00  0.00     0.072 C 
ATOM      8  O   UNL     1      54.475  18.878  52.631  1.00  0.00    -0.545 OA
ATOM      9  O   UNL     1      56.107  20.474  52.723  1.00  0.00    -0.545 OA
ENDBRANCH   1   7
BRANCH   2  10
ATOM     10  C   UNL     1      57.597  17.493  53.981  1.00  0.00     0.072 C 
ATOM     11  O   UNL     1      58.352  18.277  54.616  1.00  0.00    -0.545 OA
ATOM     12  O   UNL     1      56.741  16.659  54.689  1.00  0.00    -0.545 OA
ENDBRANCH   2  10
TORSDOF 2
ENDMDL
MODEL 8
REMARK VINA RESULT:    -3.306     18.299     19.501
REMARK INTER + INTRA:          -3.894
REMARK INTER:                  -3.665
REMARK INTRA:                  -0.229
REMARK UNBOUND:                -0.202
REMARK SMILES O=C([O-])c1ccccc1C(=O)[O-]
REMARK SMILES IDX 4 1 9 2 5 3 8 4 6 5 7 6 2 7 1 8 3 9 10 10 11 11 12 12
REMARK H PARENT
REMARK Flexibility Score: inf
ROOT
ATOM      1  C   UNL     1      57.595  17.521  52.423  1.00  0.00     0.006 A 
ATOM      2  C   UNL     1      56.591  18.256  51.730  1.00  0.00     0.006 A 
ATOM      3  C   UNL     1      58.501  16.738  51.685  1.00  0.00     0.010 A 
ATOM      4  C   UNL     1      56.491  18.126  50.333  1.00  0.00     0.010 A 
ATOM      5  C   UNL     1      58.397  16.642  50.296  1.00  0.00     0.001 A 
ATOM      6  C   UNL     1      57.386  17.325  49.624  1.00  0.00     0.001 A 
ENDROOT
BRANCH   1   7
ATOM      7  C   UNL     1      57.695  17.485  53.901  1.00  0.00     0.072 C 
ATOM      8  O   UNL     1      58.457  18.279  54.515  1.00  0.00    -0.545 OA
ATOM      9  O   UNL     1      56.895  16.615  54.633  1.00  0.00    -0.545 OA
ENDBRANCH   1   7
BRANCH   2  10
ATOM     10  C   UNL     1      55.679  19.210  52.403  1.00  0.00     0.072 C 
ATOM     11  O   UNL     1      54.507  18.871  52.715  1.00  0.00    -0.545 OA
ATOM     12  O   UNL     1      56.134  20.474  52.760  1.00  0.00    -0.545 OA
ENDBRANCH   2  10
TORSDOF 2
ENDMDL
