MODEL 1
REMARK VINA RESULT:    -3.678      0.000      0.000
REMARK INTER + INTRA:          -8.195
REMARK INTER:                  -6.259
REMARK INTRA:                  -1.937
REMARK UNBOUND:                -1.937
REMARK SMILES CCCCCCCCCCCCCC(=O)[O-]
REMARK SMILES IDX 8 1 9 2 10 3 11 4 12 5 13 6 14 7 15 8 16 9 7 10 6 11 5 12
REMARK SMILES IDX 4 13 3 14 2 15 1 16
REMARK H PARENT
REMARK Flexibility Score: inf
ROOT
ATOM      1  C   UNL     1      -2.950   7.863  40.993  1.00  0.00     0.000 C 
ENDROOT
BRANCH   1   2
ATOM      2  C   UNL     1      -2.766   6.945  39.774  1.00  0.00     0.000 C 
BRANCH   2   3
ATOM      3  C   UNL     1      -2.232   7.692  38.544  1.00  0.00     0.000 C 
BRANCH   3   4
ATOM      4  C   UNL     1      -2.511   9.196  38.651  1.00  0.00     0.000 C 
BRANCH   4   5
ATOM      5  C   UNL     1      -1.854   9.963  37.498  1.00  0.00     0.006 C 
BRANCH   5   6
ATOM      6  C   UNL     1      -1.316   9.001  36.434  1.00  0.00     0.053 C 
BRANCH   6   7
ATOM      7  C   UNL     1      -0.028   9.511  35.870  1.00  0.00     0.041 C 
ATOM      8  O   UNL     1       0.237   9.347  34.650  1.00  0.00    -0.550 OA
ATOM      9  O   UNL     1       0.902  10.125  36.700  1.00  0.00    -0.550 OA
ENDBRANCH   6   7
ENDBRANCH   5   6
ENDBRANCH   4   5
ENDBRANCH   3   4
ENDBRANCH   2   3
ENDBRANCH   1   2
BRANCH   1  10
ATOM     10  C   UNL     1      -2.860   7.103  42.326  1.00  0.00     0.000 C 
BRANCH  10  11
ATOM     11  C   UNL     1      -1.468   7.262  42.954  1.00  0.00    -0.000 C 
BRANCH  11  12
ATOM     12  C   UNL     1      -0.982   8.722  42.969  1.00  0.00    -0.000 C 
BRANCH  12  13
ATOM     13  C   UNL     1       0.386   8.959  42.298  1.00  0.00    -0.000 C 
BRANCH  13  14
ATOM     14  C   UNL     1       0.324   9.546  40.874  1.00  0.00    -0.000 C 
BRANCH  14  15
ATOM     15  C   UNL     1       1.096   8.745  39.810  1.00  0.00    -0.003 C 
ATOM     16  C   UNL     1       1.039   7.236  40.045  1.00  0.00     0.004 C 
ENDBRANCH  14  15
ENDBRANCH  13  14
ENDBRANCH  12  13
ENDBRANCH  11  12
ENDBRANCH  10  11
ENDBRANCH   1  10
TORSDOF 12
ENDMDL
MODEL 2
REMARK VINA RESULT:    -3.626      2.363      4.290
REMARK INTER + INTRA:          -8.106
REMARK INTER:                  -6.074
REMARK INTRA:                  -2.031
REMARK UNBOUND:                -1.937
REMARK SMILES CCCCCCCCCCCCCC(=O)[O-]
REMARK SMILES IDX 8 1 9 2 10 3 11 4 12 5 13 6 14 7 15 8 16 9 7 10 6 11 5 12
REMARK SMILES IDX 4 13 3 14 2 15 1 16
REMARK H PARENT
REMARK Flexibility Score: inf
ROOT
ATOM      1  C   UNL     1       1.205  10.014  39.519  1.00  0.00     0.000 C 
ENDROOT
BRANCH   1   2
ATOM      2  C   UNL     1       1.693   9.337  38.228  1.00  0.00     0.000 C 
BRANCH   2   3
ATOM      3  C   UNL     1       1.785   7.810  38.358  1.00  0.00     0.000 C 
BRANCH   3   4
ATOM      4  C   UNL     1       1.230   7.118  37.107  1.00  0.00     0.000 C 
BRANCH   4   5
ATOM      5  C   UNL     1       0.753   8.145  36.073  1.00  0.00     0.006 C 
BRANCH   5   6
ATOM      6  C   UNL     1      -0.526   7.671  35.377  1.00  0.00     0.053 C 
BRANCH   6   7
ATOM      7  C   UNL     1      -0.207   6.638  34.342  1.00  0.00     0.041 C 
ATOM      8  O   UNL     1      -0.701   5.482  34.429  1.00  0.00    -0.550 OA
ATOM      9  O   UNL     1       0.674   6.935  33.311  1.00  0.00    -0.550 OA
ENDBRANCH   6   7
ENDBRANCH   5   6
ENDBRANCH   4   5
ENDBRANCH   3   4
ENDBRANCH   2   3
ENDBRANCH   1   2
BRANCH   1  10
ATOM     10  C   UNL     1      -0.287   9.770  39.788  1.00  0.00     0.000 C 
BRANCH  10  11
ATOM     11  C   UNL     1      -1.125  10.068  38.536  1.00  0.00    -0.000 C 
BRANCH  11  12
ATOM     12  C   UNL     1      -2.303   9.094  38.359  1.00  0.00    -0.000 C 
BRANCH  12  13
ATOM     13  C   UNL     1      -2.765   8.389  39.651  1.00  0.00    -0.000 C 
BRANCH  13  14
ATOM     14  C   UNL     1      -2.945   6.862  39.535  1.00  0.00    -0.000 C 
BRANCH  14  15
ATOM     15  C   UNL     1      -1.713   6.103  39.011  1.00  0.00    -0.003 C 
ATOM     16  C   UNL     1      -2.009   5.285  37.755  1.00  0.00     0.004 C 
ENDBRANCH  14  15
ENDBRANCH  13  14
ENDBRANCH  12  13
ENDBRANCH  11  12
ENDBRANCH  10  11
ENDBRANCH   1  10
TORSDOF 12
ENDMDL
MODEL 3
REMARK VINA RESULT:    -3.612      1.721      2.799
REMARK INTER + INTRA:          -8.083
REMARK INTER:                  -5.937
REMARK INTRA:                  -2.146
REMARK UNBOUND:                -1.937
REMARK SMILES CCCCCCCCCCCCCC(=O)[O-]
REMARK SMILES IDX 8 1 9 2 10 3 11 4 12 5 13 6 14 7 15 8 16 9 7 10 6 11 5 12
REMARK SMILES IDX 4 13 3 14 2 15 1 16
REMARK H PARENT
REMARK Flexibility Score: inf
ROOT
ATOM      1  C   UNL     1      -3.172   6.795  39.718  1.00  0.00     0.000 C 
ENDROOT
BRANCH   1   2
ATOM      2  C   UNL     1      -2.775   8.269  39.905  1.00  0.00     0.000 C 
BRANCH   2   3
ATOM      3  C   UNL     1      -2.599   9.008  38.571  1.00  0.00     0.000 C 
BRANCH   3   4
ATOM      4  C   UNL     1      -1.129   9.379  38.339  1.00  0.00     0.000 C 
BRANCH   4   5
ATOM      5  C   UNL     1      -0.506   8.508  37.242  1.00  0.00     0.006 C 
BRANCH   5   6
ATOM      6  C   UNL     1      -1.474   8.327  36.069  1.00  0.00     0.053 C 
BRANCH   6   7
ATOM      7  C   UNL     1      -1.255   7.002  35.408  1.00  0.00     0.041 C 
ATOM      8  O   UNL     1      -1.796   5.965  35.874  1.00  0.00    -0.550 OA
ATOM      9  O   UNL     1      -0.414   6.905  34.307  1.00  0.00    -0.550 OA
ENDBRANCH   6   7
ENDBRANCH   5   6
ENDBRANCH   4   5
ENDBRANCH   3   4
ENDBRANCH   2   3
ENDBRANCH   1   2
BRANCH   1  10
ATOM     10  C   UNL     1      -2.179   5.827  40.378  1.00  0.00     0.000 C 
BRANCH  10  11
ATOM     11  C   UNL     1      -1.105   5.378  39.377  1.00  0.00    -0.000 C 
BRANCH  11  12
ATOM     12  C   UNL     1       0.269   6.017  39.647  1.00  0.00    -0.000 C 
BRANCH  12  13
ATOM     13  C   UNL     1       0.414   6.689  41.027  1.00  0.00    -0.000 C 
BRANCH  13  14
ATOM     14  C   UNL     1       1.007   8.112  41.003  1.00  0.00    -0.000 C 
BRANCH  14  15
ATOM     15  C   UNL     1       0.214   9.157  41.808  1.00  0.00    -0.003 C 
ATOM     16  C   UNL     1      -0.616   8.536  42.931  1.00  0.00     0.004 C 
ENDBRANCH  14  15
ENDBRANCH  13  14
ENDBRANCH  12  13
ENDBRANCH  11  12
ENDBRANCH  10  11
ENDBRANCH   1  10
TORSDOF 12
ENDMDL
MODEL 4
REMARK VINA RESULT:    -3.543      1.781      3.729
REMARK INTER + INTRA:          -7.965
REMARK INTER:                  -5.838
REMARK INTRA:                  -2.127
REMARK UNBOUND:                -1.937
REMARK SMILES CCCCCCCCCCCCCC(=O)[O-]
REMARK SMILES IDX 8 1 9 2 10 3 11 4 12 5 13 6 14 7 15 8 16 9 7 10 6 11 5 12
REMARK SMILES IDX 4 13 3 14 2 15 1 16
REMARK H PARENT
REMARK Flexibility Score: inf
ROOT
ATOM      1  C   UNL     1       0.209   9.410  40.525  1.00  0.00     0.000 C 
ENDROOT
BRANCH   1   2
ATOM      2  C   UNL     1       0.026   9.493  39.001  1.00  0.00     0.000 C 
BRANCH   2   3
ATOM      3  C   UNL     1      -1.316  10.122  38.599  1.00  0.00     0.000 C 
BRANCH   3   4
ATOM      4  C   UNL     1      -1.779   9.602  37.233  1.00  0.00     0.000 C 
BRANCH   4   5
ATOM      5  C   UNL     1      -0.969   8.372  36.806  1.00  0.00     0.006 C 
BRANCH   5   6
ATOM      6  C   UNL     1      -1.733   7.542  35.772  1.00  0.00     0.053 C 
BRANCH   6   7
ATOM      7  C   UNL     1      -0.790   6.688  34.984  1.00  0.00     0.041 C 
ATOM      8  O   UNL     1       0.044   7.220  34.204  1.00  0.00    -0.550 OA
ATOM      9  O   UNL     1      -0.863   5.304  35.074  1.00  0.00    -0.550 OA
ENDBRANCH   6   7
ENDBRANCH   5   6
ENDBRANCH   4   5
ENDBRANCH   3   4
ENDBRANCH   2   3
ENDBRANCH   1   2
BRANCH   1  10
ATOM     10  C   UNL     1       0.691   8.027  40.989  1.00  0.00     0.000 C 
BRANCH  10  11
ATOM     11  C   UNL     1       1.182   7.191  39.799  1.00  0.00    -0.000 C 
BRANCH  11  12
ATOM     12  C   UNL     1       0.533   5.797  39.739  1.00  0.00    -0.000 C 
BRANCH  12  13
ATOM     13  C   UNL     1      -0.834   5.745  39.026  1.00  0.00    -0.000 C 
BRANCH  13  14
ATOM     14  C   UNL     1      -2.061   5.741  39.960  1.00  0.00    -0.000 C 
BRANCH  14  15
ATOM     15  C   UNL     1      -3.043   6.906  39.743  1.00  0.00    -0.003 C 
ATOM     16  C   UNL     1      -3.101   7.863  40.933  1.00  0.00     0.004 C 
ENDBRANCH  14  15
ENDBRANCH  13  14
ENDBRANCH  12  13
ENDBRANCH  11  12
ENDBRANCH  10  11
ENDBRANCH   1  10
TORSDOF 12
ENDMDL
MODEL 5
REMARK VINA RESULT:    -3.538      2.019      4.776
REMARK INTER + INTRA:          -7.957
REMARK INTER:                  -5.679
REMARK INTRA:                  -2.278
REMARK UNBOUND:                -1.937
REMARK SMILES CCCCCCCCCCCCCC(=O)[O-]
REMARK SMILES IDX 8 1 9 2 10 3 11 4 12 5 13 6 14 7 15 8 16 9 7 10 6 11 5 12
REMARK SMILES IDX 4 13 3 14 2 15 1 16
REMARK H PARENT
REMARK Flexibility Score: inf
ROOT
ATOM      1  C   UNL     1       0.354  10.125  37.490  1.00  0.00     0.000 C 
ENDROOT
BRANCH   1   2
ATOM      2  C   UNL     1       1.488   9.586  38.376  1.00  0.00     0.000 C 
BRANCH   2   3
ATOM      3  C   UNL     1       1.044   9.345  39.826  1.00  0.00     0.000 C 
BRANCH   3   4
ATOM      4  C   UNL     1       1.073   7.851  40.169  1.00  0.00     0.000 C 
BRANCH   4   5
ATOM      5  C   UNL     1       1.816   7.052  39.093  1.00  0.00     0.006 C 
BRANCH   5   6
ATOM      6  C   UNL     1       0.924   5.951  38.511  1.00  0.00     0.053 C 
BRANCH   6   7
ATOM      7  C   UNL     1       1.191   5.778  37.049  1.00  0.00     0.041 C 
ATOM      8  O   UNL     1       2.284   6.161  36.556  1.00  0.00    -0.550 OA
ATOM      9  O   UNL     1       0.213   5.240  36.222  1.00  0.00    -0.550 OA
ENDBRANCH   6   7
ENDBRANCH   5   6
ENDBRANCH   4   5
ENDBRANCH   3   4
ENDBRANCH   2   3
ENDBRANCH   1   2
BRANCH   1  10
ATOM     10  C   UNL     1      -0.185   9.070  36.512  1.00  0.00     0.000 C 
BRANCH  10  11
ATOM     11  C   UNL     1      -1.512   8.484  37.016  1.00  0.00    -0.000 C 
BRANCH  11  12
ATOM     12  C   UNL     1      -2.203   9.378  38.061  1.00  0.00    -0.000 C 
BRANCH  12  13
ATOM     13  C   UNL     1      -2.649   8.652  39.346  1.00  0.00    -0.000 C 
BRANCH  13  14
ATOM     14  C   UNL     1      -2.521   7.116  39.309  1.00  0.00    -0.000 C 
BRANCH  14  15
ATOM     15  C   UNL     1      -2.423   6.441  40.688  1.00  0.00    -0.003 C 
ATOM     16  C   UNL     1      -2.319   7.446  41.835  1.00  0.00     0.004 C 
ENDBRANCH  14  15
ENDBRANCH  13  14
ENDBRANCH  12  13
ENDBRANCH  11  12
ENDBRANCH  10  11
ENDBRANCH   1  10
TORSDOF 12
ENDMDL
MODEL 6
REMARK VINA RESULT:    -3.525      2.114      3.161
REMARK INTER + INTRA:          -7.934
REMARK INTER:                  -6.118
REMARK INTRA:                  -1.816
REMARK UNBOUND:                -1.937
REMARK SMILES CCCCCCCCCCCCCC(=O)[O-]
REMARK SMILES IDX 8 1 9 2 10 3 11 4 12 5 13 6 14 7 15 8 16 9 7 10 6 11 5 12
REMARK SMILES IDX 4 13 3 14 2 15 1 16
REMARK H PARENT
REMARK Flexibility Score: inf
ROOT
ATOM      1  C   UNL     1      -2.713   6.794  40.340  1.00  0.00     0.000 C 
ENDROOT
BRANCH   1   2
ATOM      2  C   UNL     1      -2.864   5.836  39.147  1.00  0.00     0.000 C 
BRANCH   2   3
ATOM      3  C   UNL     1      -1.625   4.954  38.935  1.00  0.00     0.000 C 
BRANCH   3   4
ATOM      4  C   UNL     1      -0.859   5.376  37.675  1.00  0.00     0.000 C 
BRANCH   4   5
ATOM      5  C   UNL     1      -1.782   5.402  36.451  1.00  0.00     0.006 C 
BRANCH   5   6
ATOM      6  C   UNL     1      -1.512   6.635  35.584  1.00  0.00     0.053 C 
BRANCH   6   7
ATOM      7  C   UNL     1      -0.330   6.403  34.696  1.00  0.00     0.041 C 
ATOM      8  O   UNL     1      -0.323   5.431  33.894  1.00  0.00    -0.550 OA
ATOM      9  O   UNL     1       0.783   7.228  34.788  1.00  0.00    -0.550 OA
ENDBRANCH   6   7
ENDBRANCH   5   6
ENDBRANCH   4   5
ENDBRANCH   3   4
ENDBRANCH   2   3
ENDBRANCH   1   2
BRANCH   1  10
ATOM     10  C   UNL     1      -2.960   8.261  39.956  1.00  0.00     0.000 C 
BRANCH  10  11
ATOM     11  C   UNL     1      -2.304   8.591  38.607  1.00  0.00    -0.000 C 
BRANCH  11  12
ATOM     12  C   UNL     1      -1.467   9.881  38.649  1.00  0.00    -0.000 C 
BRANCH  12  13
ATOM     13  C   UNL     1       0.031   9.676  38.954  1.00  0.00    -0.000 C 
BRANCH  13  14
ATOM     14  C   UNL     1       0.413   9.758  40.445  1.00  0.00    -0.000 C 
BRANCH  14  15
ATOM     15  C   UNL     1       0.661   8.400  41.126  1.00  0.00    -0.003 C 
ATOM     16  C   UNL     1       1.068   7.307  40.139  1.00  0.00     0.004 C 
ENDBRANCH  14  15
ENDBRANCH  13  14
ENDBRANCH  12  13
ENDBRANCH  11  12
ENDBRANCH  10  11
ENDBRANCH   1  10
TORSDOF 12
ENDMDL
MODEL 7
REMARK VINA RESULT:    -3.520      2.253      4.183
REMARK INTER + INTRA:          -7.926
REMARK INTER:                  -5.596
REMARK INTRA:                  -2.330
REMARK UNBOUND:                -1.937
REMARK SMILES CCCCCCCCCCCCCC(=O)[O-]
REMARK SMILES IDX 8 1 9 2 10 3 11 4 12 5 13 6 14 7 15 8 16 9 7 10 6 11 5 12
REMARK SMILES IDX 4 13 3 14 2 15 1 16
REMARK H PARENT
REMARK Flexibility Score: inf
ROOT
ATOM      1  C   UNL     1       0.835   8.341  40.783  1.00  0.00     0.000 C 
ENDROOT
BRANCH   1   2
ATOM      2  C   UNL     1       1.124   7.558  39.492  1.00  0.00     0.000 C 
BRANCH   2   3
ATOM      3  C   UNL     1       0.890   6.049  39.649  1.00  0.00     0.000 C 
BRANCH   3   4
ATOM      4  C   UNL     1       0.129   5.482  38.444  1.00  0.00     0.000 C 
BRANCH   4   5
ATOM      5  C   UNL     1      -0.000   6.528  37.331  1.00  0.00     0.006 C 
BRANCH   5   6
ATOM      6  C   UNL     1      -1.219   6.244  36.448  1.00  0.00     0.053 C 
BRANCH   6   7
ATOM      7  C   UNL     1      -0.787   5.763  35.098  1.00  0.00     0.041 C 
ATOM      8  O   UNL     1      -0.773   4.531  34.840  1.00  0.00    -0.550 OA
ATOM      9  O   UNL     1      -0.353   6.672  34.142  1.00  0.00    -0.550 OA
ENDBRANCH   6   7
ENDBRANCH   5   6
ENDBRANCH   4   5
ENDBRANCH   3   4
ENDBRANCH   2   3
ENDBRANCH   1   2
BRANCH   1  10
ATOM     10  C   UNL     1      -0.558   8.987  40.785  1.00  0.00     0.000 C 
BRANCH  10  11
ATOM     11  C   UNL     1      -1.002   9.335  39.356  1.00  0.00    -0.000 C 
BRANCH  11  12
ATOM     12  C   UNL     1      -2.394   8.778  39.011  1.00  0.00    -0.000 C 
BRANCH  12  13
ATOM     13  C   UNL     1      -2.997   7.831  40.068  1.00  0.00    -0.000 C 
BRANCH  13  14
ATOM     14  C   UNL     1      -3.262   6.391  39.582  1.00  0.00    -0.000 C 
BRANCH  14  15
ATOM     15  C   UNL     1      -2.974   5.295  40.622  1.00  0.00    -0.003 C 
ATOM     16  C   UNL     1      -2.142   5.797  41.801  1.00  0.00     0.004 C 
ENDBRANCH  14  15
ENDBRANCH  13  14
ENDBRANCH  12  13
ENDBRANCH  11  12
ENDBRANCH  10  11
ENDBRANCH   1  10
TORSDOF 12
ENDMDL
MODEL 8
REMARK VINA RESULT:    -3.519      1.669      2.793
REMARK INTER + INTRA:          -7.924
REMARK INTER:                  -6.061
REMARK INTRA:                  -1.863
REMARK UNBOUND:                -1.937
REMARK SMILES CCCCCCCCCCCCCC(=O)[O-]
REMARK SMILES IDX 8 1 9 2 10 3 11 4 12 5 13 6 14 7 15 8 16 9 7 10 6 11 5 12
REMARK SMILES IDX 4 13 3 14 2 15 1 16
REMARK H PARENT
REMARK Flexibility Score: inf
ROOT
ATOM      1  C   UNL     1      -2.252   5.544  39.933  1.00  0.00     0.000 C 
ENDROOT
BRANCH   1   2
ATOM      2  C   UNL     1      -1.636   4.774  38.753  1.00  0.00     0.000 C 
BRANCH   2   3
ATOM      3  C   UNL     1      -0.956   5.699  37.733  1.00  0.00     0.000 C 
BRANCH   3   4
ATOM      4  C   UNL     1      -1.665   5.633  36.374  1.00  0.00     0.000 C 
BRANCH   4   5
ATOM      5  C   UNL     1      -1.488   6.943  35.596  1.00  0.00     0.006 C 
BRANCH   5   6
ATOM      6  C   UNL     1      -0.132   7.585  35.902  1.00  0.00     0.053 C 
BRANCH   6   7
ATOM      7  C   UNL     1      -0.016   8.913  35.223  1.00  0.00     0.041 C 
ATOM      8  O   UNL     1       0.811   9.074  34.286  1.00  0.00    -0.550 OA
ATOM      9  O   UNL     1      -0.784   9.986  35.655  1.00  0.00    -0.550 OA
ENDBRANCH   6   7
ENDBRANCH   5   6
ENDBRANCH   4   5
ENDBRANCH   3   4
ENDBRANCH   2   3
ENDBRANCH   1   2
BRANCH   1  10
ATOM     10  C   UNL     1      -3.310   6.565  39.486  1.00  0.00     0.000 C 
BRANCH  10  11
ATOM     11  C   UNL     1      -2.938   7.979  39.956  1.00  0.00    -0.000 C 
BRANCH  11  12
ATOM     12  C   UNL     1      -2.370   8.855  38.825  1.00  0.00    -0.000 C 
BRANCH  12  13
ATOM     13  C   UNL     1      -1.076   9.616  39.179  1.00  0.00    -0.000 C 
BRANCH  13  14
ATOM     14  C   UNL     1       0.184   8.738  39.316  1.00  0.00    -0.000 C 
BRANCH  14  15
ATOM     15  C   UNL     1       0.436   8.183  40.729  1.00  0.00    -0.003 C 
ATOM     16  C   UNL     1       0.193   9.219  41.826  1.00  0.00     0.004 C 
ENDBRANCH  14  15
ENDBRANCH  13  14
ENDBRANCH  12  13
ENDBRANCH  11  12
ENDBRANCH  10  11
ENDBRANCH   1  10
TORSDOF 12
ENDMDL
MODEL 9
REMARK VINA RESULT:    -3.500      1.334      3.105
REMARK INTER + INTRA:          -7.892
REMARK INTER:                  -6.020
REMARK INTRA:                  -1.872
REMARK UNBOUND:                -1.937
REMARK SMILES CCCCCCCCCCCCCC(=O)[O-]
REMARK SMILES IDX 8 1 9 2 10 3 11 4 12 5 13 6 14 7 15 8 16 9 7 10 6 11 5 12
REMARK SMILES IDX 4 13 3 14 2 15 1 16
REMARK H PARENT
REMARK Flexibility Score: inf
ROOT
ATOM      1  C   UNL     1       0.596   8.239  40.415  1.00  0.00     0.000 C 
ENDROOT
BRANCH   1   2
ATOM      2  C   UNL     1       0.476   8.917  39.040  1.00  0.00     0.000 C 
BRANCH   2   3
ATOM      3  C   UNL     1      -0.581  10.030  39.018  1.00  0.00     0.000 C 
BRANCH   3   4
ATOM      4  C   UNL     1      -1.798   9.615  38.181  1.00  0.00     0.000 C 
BRANCH   4   5
ATOM      5  C   UNL     1      -1.496   9.714  36.682  1.00  0.00     0.006 C 
BRANCH   5   6
ATOM      6  C   UNL     1      -1.551   8.335  36.018  1.00  0.00     0.053 C 
BRANCH   6   7
ATOM      7  C   UNL     1      -0.275   8.054  35.288  1.00  0.00     0.041 C 
ATOM      8  O   UNL     1       0.740   8.773  35.487  1.00  0.00    -0.550 OA
ATOM      9  O   UNL     1      -0.219   7.029  34.353  1.00  0.00    -0.550 OA
ENDBRANCH   6   7
ENDBRANCH   5   6
ENDBRANCH   4   5
ENDBRANCH   3   4
ENDBRANCH   2   3
ENDBRANCH   1   2
BRANCH   1  10
ATOM     10  C   UNL     1       0.199   9.171  41.570  1.00  0.00     0.000 C 
BRANCH  10  11
ATOM     11  C   UNL     1      -1.008   8.609  42.336  1.00  0.00    -0.000 C 
BRANCH  11  12
ATOM     12  C   UNL     1      -1.593   7.344  41.685  1.00  0.00    -0.000 C 
BRANCH  12  13
ATOM     13  C   UNL     1      -2.936   7.550  40.955  1.00  0.00    -0.000 C 
BRANCH  13  14
ATOM     14  C   UNL     1      -3.221   6.552  39.815  1.00  0.00    -0.000 C 
BRANCH  14  15
ATOM     15  C   UNL     1      -1.974   5.876  39.219  1.00  0.00    -0.003 C 
ATOM     16  C   UNL     1      -2.210   5.325  37.813  1.00  0.00     0.004 C 
ENDBRANCH  14  15
ENDBRANCH  13  14
ENDBRANCH  12  13
ENDBRANCH  11  12
ENDBRANCH  10  11
ENDBRANCH   1  10
TORSDOF 12
ENDMDL
