MODEL 1
REMARK VINA RESULT:    -5.887      0.000      0.000
REMARK INTER + INTRA:          -8.830
REMARK INTER:                  -8.296
REMARK INTRA:                  -0.534
REMARK UNBOUND:                -0.534
REMARK SMILES OC[C@H]1O[C@@H](O[C@@H]2OC=C[C@@H]3[C@@H](O)[C@@H]4O[C@]4(CO)[C@H]23)[C@@H](O)[C@@H](O)[C@@H]1O
REMARK SMILES IDX 6 1 7 2 10 3 9 4 11 5 8 6 19 7 12 8 16 9 14 10 15 11 13 12
REMARK SMILES IDX 17 14 18 15 5 17 20 18 4 19 22 20 3 21 24 22 21 23 23 25
REMARK SMILES IDX 2 27 1 28 25 30
REMARK H PARENT 13 13 18 16 21 24 23 26 1 29 25 31
REMARK Flexibility Score: inf
ROOT
ATOM      1  O   UNL     1     -24.380 -21.449 -13.254  1.00  0.00    -0.310 OA
ENDROOT
BRANCH   1   2
ATOM      2  C   UNL     1     -24.506 -22.301 -12.126  1.00  0.00     0.315 C 
ATOM      3  C   UNL     1     -23.574 -24.616 -13.493  1.00  0.00     0.018 C 
ATOM      4  C   UNL     1     -22.750 -23.919 -12.706  1.00  0.00     0.186 C 
ATOM      5  C   UNL     1     -25.074 -24.464 -13.398  1.00  0.00     0.059 C 
ATOM      6  O   UNL     1     -23.245 -22.914 -11.868  1.00  0.00    -0.472 OA
ATOM      7  C   UNL     1     -25.557 -23.405 -12.385  1.00  0.00     0.105 C 
ATOM      8  C   UNL     1     -25.724 -24.078 -14.729  1.00  0.00     0.154 C 
ATOM      9  C   UNL     1     -26.880 -22.865 -12.953  1.00  0.00     0.130 C 
ATOM     10  C   UNL     1     -27.011 -23.355 -14.345  1.00  0.00     0.183 C 
ATOM     11  O   UNL     1     -26.809 -21.990 -14.058  1.00  0.00    -0.360 OA
BRANCH   8  12
ATOM     12  O   UNL     1     -25.986 -25.206 -15.527  1.00  0.00    -0.390 OA
ATOM     13  H   UNL     1     -26.832 -25.042 -16.019  1.00  0.00     0.211 HD
ENDBRANCH   8  12
BRANCH   9  14
ATOM     14  C   UNL     1     -28.180 -22.827 -12.154  1.00  0.00     0.195 C 
BRANCH  14  15
ATOM     15  O   UNL     1     -28.020 -23.541 -10.963  1.00  0.00    -0.393 OA
ATOM     16  H   UNL     1     -28.931 -23.806 -10.677  1.00  0.00     0.210 HD
ENDBRANCH  14  15
ENDBRANCH   9  14
ENDBRANCH   1   2
BRANCH   1  17
ATOM     17  C   UNL     1     -23.619 -20.280 -12.964  1.00  0.00     0.286 C 
ATOM     18  C   UNL     1     -23.939 -19.146 -13.948  1.00  0.00     0.202 C 
ATOM     19  O   UNL     1     -23.859 -19.867 -11.630  1.00  0.00    -0.341 OA
ATOM     20  C   UNL     1     -25.436 -18.761 -13.887  1.00  0.00     0.179 C 
ATOM     21  C   UNL     1     -25.143 -19.286 -11.382  1.00  0.00     0.178 C 
ATOM     22  C   UNL     1     -26.130 -19.252 -12.593  1.00  0.00     0.177 C 
BRANCH  18  23
ATOM     23  O   UNL     1     -23.556 -19.515 -15.248  1.00  0.00    -0.385 OA
ATOM     24  H   UNL     1     -24.130 -20.280 -15.509  1.00  0.00     0.211 HD
ENDBRANCH  18  23
BRANCH  20  25
ATOM     25  O   UNL     1     -26.138 -19.226 -15.015  1.00  0.00    -0.387 OA
ATOM     26  H   UNL     1     -26.348 -18.438 -15.582  1.00  0.00     0.211 HD
ENDBRANCH  20  25
BRANCH  21  27
ATOM     27  C   UNL     1     -25.732 -19.997 -10.145  1.00  0.00     0.191 C 
BRANCH  27  28
ATOM     28  O   UNL     1     -26.292 -19.092  -9.232  1.00  0.00    -0.394 OA
ATOM     29  H   UNL     1     -25.987 -18.188  -9.514  1.00  0.00     0.210 HD
ENDBRANCH  27  28
ENDBRANCH  21  27
BRANCH  22  30
ATOM     30  O   UNL     1     -27.213 -18.407 -12.295  1.00  0.00    -0.387 OA
ATOM     31  H   UNL     1     -27.993 -18.990 -12.090  1.00  0.00     0.211 HD
ENDBRANCH  22  30
ENDBRANCH   1  17
TORSDOF 10
ENDMDL
MODEL 2
REMARK VINA RESULT:    -4.923      1.704      4.166
REMARK INTER + INTRA:          -7.472
REMARK INTER:                  -6.225
REMARK INTRA:                  -1.247
REMARK UNBOUND:                -0.534
REMARK SMILES OC[C@H]1O[C@@H](O[C@@H]2OC=C[C@@H]3[C@@H](O)[C@@H]4O[C@]4(CO)[C@H]23)[C@@H](O)[C@@H](O)[C@@H]1O
REMARK SMILES IDX 6 1 7 2 10 3 9 4 11 5 8 6 19 7 12 8 16 9 14 10 15 11 13 12
REMARK SMILES IDX 17 14 18 15 5 17 20 18 4 19 22 20 3 21 24 22 21 23 23 25
REMARK SMILES IDX 2 27 1 28 25 30
REMARK H PARENT 13 13 18 16 21 24 23 26 1 29 25 31
REMARK Flexibility Score: inf
ROOT
ATOM      1  O   UNL     1     -25.480 -21.309 -13.364  1.00  0.00    -0.310 OA
ENDROOT
BRANCH   1   2
ATOM      2  C   UNL     1     -24.891 -21.800 -14.557  1.00  0.00     0.315 C 
ATOM      3  C   UNL     1     -25.712 -24.489 -14.116  1.00  0.00     0.018 C 
ATOM      4  C   UNL     1     -26.402 -23.699 -14.941  1.00  0.00     0.186 C 
ATOM      5  C   UNL     1     -24.299 -24.152 -13.697  1.00  0.00     0.059 C 
ATOM      6  O   UNL     1     -25.893 -22.455 -15.330  1.00  0.00    -0.472 OA
ATOM      7  C   UNL     1     -23.763 -22.810 -14.238  1.00  0.00     0.105 C 
ATOM      8  C   UNL     1     -24.125 -24.075 -12.178  1.00  0.00     0.154 C 
ATOM      9  C   UNL     1     -22.774 -22.304 -13.176  1.00  0.00     0.130 C 
ATOM     10  C   UNL     1     -22.942 -23.137 -11.963  1.00  0.00     0.183 C 
ATOM     11  O   UNL     1     -23.310 -21.777 -11.982  1.00  0.00    -0.360 OA
BRANCH   8  12
ATOM     12  O   UNL     1     -23.887 -25.343 -11.617  1.00  0.00    -0.390 OA
ATOM     13  H   UNL     1     -22.951 -25.358 -11.286  1.00  0.00     0.211 HD
ENDBRANCH   8  12
BRANCH   9  14
ATOM     14  C   UNL     1     -21.335 -21.905 -13.496  1.00  0.00     0.195 C 
BRANCH  14  15
ATOM     15  O   UNL     1     -21.232 -20.512 -13.540  1.00  0.00    -0.393 OA
ATOM     16  H   UNL     1     -20.867 -20.236 -12.661  1.00  0.00     0.210 HD
ENDBRANCH  14  15
ENDBRANCH   9  14
ENDBRANCH   1   2
BRANCH   1  17
ATOM     17  C   UNL     1     -26.575 -20.434 -13.623  1.00  0.00     0.286 C 
ATOM     18  C   UNL     1     -27.164 -19.874 -12.321  1.00  0.00     0.202 C 
ATOM     19  O   UNL     1     -26.159 -19.383 -14.479  1.00  0.00    -0.341 OA
ATOM     20  C   UNL     1     -26.103 -19.076 -11.527  1.00  0.00     0.179 C 
ATOM     21  C   UNL     1     -25.309 -18.398 -13.882  1.00  0.00     0.178 C 
ATOM     22  C   UNL     1     -24.894 -18.653 -12.397  1.00  0.00     0.177 C 
BRANCH  18  23
ATOM     23  O   UNL     1     -27.707 -20.916 -11.552  1.00  0.00    -0.385 OA
ATOM     24  H   UNL     1     -28.265 -21.462 -12.163  1.00  0.00     0.211 HD
ENDBRANCH  18  23
BRANCH  20  25
ATOM     25  O   UNL     1     -25.657 -19.789 -10.398  1.00  0.00    -0.387 OA
ATOM     26  H   UNL     1     -26.083 -20.687 -10.425  1.00  0.00     0.211 HD
ENDBRANCH  20  25
BRANCH  21  27
ATOM     27  C   UNL     1     -24.098 -18.216 -14.822  1.00  0.00     0.191 C 
BRANCH  27  28
ATOM     28  O   UNL     1     -22.878 -18.382 -14.150  1.00  0.00    -0.394 OA
ATOM     29  H   UNL     1     -23.055 -18.168 -13.194  1.00  0.00     0.210 HD
ENDBRANCH  27  28
ENDBRANCH  21  27
BRANCH  22  30
ATOM     30  O   UNL     1     -24.319 -17.488 -11.861  1.00  0.00    -0.387 OA
ATOM     31  H   UNL     1     -23.532 -17.262 -12.427  1.00  0.00     0.211 HD
ENDBRANCH  22  30
ENDBRANCH   1  17
TORSDOF 10
ENDMDL
MODEL 3
REMARK VINA RESULT:    -4.514      1.540      5.193
REMARK INTER + INTRA:          -6.896
REMARK INTER:                  -5.838
REMARK INTRA:                  -1.057
REMARK UNBOUND:                -0.534
REMARK SMILES OC[C@H]1O[C@@H](O[C@@H]2OC=C[C@@H]3[C@@H](O)[C@@H]4O[C@]4(CO)[C@H]23)[C@@H](O)[C@@H](O)[C@@H]1O
REMARK SMILES IDX 6 1 7 2 10 3 9 4 11 5 8 6 19 7 12 8 16 9 14 10 15 11 13 12
REMARK SMILES IDX 17 14 18 15 5 17 20 18 4 19 22 20 3 21 24 22 21 23 23 25
REMARK SMILES IDX 2 27 1 28 25 30
REMARK H PARENT 13 13 18 16 21 24 23 26 1 29 25 31
REMARK Flexibility Score: inf
ROOT
ATOM      1  O   UNL     1     -24.842 -21.523 -13.563  1.00  0.00    -0.310 OA
ENDROOT
BRANCH   1   2
ATOM      2  C   UNL     1     -26.022 -20.922 -14.070  1.00  0.00     0.315 C 
ATOM      3  C   UNL     1     -25.419 -18.342 -13.031  1.00  0.00     0.018 C 
ATOM      4  C   UNL     1     -25.175 -18.628 -14.312  1.00  0.00     0.186 C 
ATOM      5  C   UNL     1     -26.351 -19.190 -12.196  1.00  0.00     0.059 C 
ATOM      6  O   UNL     1     -25.660 -19.809 -14.884  1.00  0.00    -0.472 OA
ATOM      7  C   UNL     1     -26.927 -20.426 -12.917  1.00  0.00     0.105 C 
ATOM      8  C   UNL     1     -25.693 -19.732 -10.924  1.00  0.00     0.154 C 
ATOM      9  C   UNL     1     -27.145 -21.479 -11.819  1.00  0.00     0.130 C 
ATOM     10  C   UNL     1     -26.467 -21.003 -10.590  1.00  0.00     0.183 C 
ATOM     11  O   UNL     1     -26.005 -22.129 -11.300  1.00  0.00    -0.360 OA
BRANCH   8  12
ATOM     12  O   UNL     1     -25.751 -18.801  -9.871  1.00  0.00    -0.390 OA
ATOM     13  H   UNL     1     -26.534 -19.030  -9.305  1.00  0.00     0.211 HD
ENDBRANCH   8  12
BRANCH   9  14
ATOM     14  C   UNL     1     -28.478 -22.186 -11.591  1.00  0.00     0.195 C 
BRANCH  14  15
ATOM     15  O   UNL     1     -28.520 -23.364 -12.342  1.00  0.00    -0.393 OA
ATOM     16  H   UNL     1     -27.580 -23.657 -12.447  1.00  0.00     0.210 HD
ENDBRANCH  14  15
ENDBRANCH   9  14
ENDBRANCH   1   2
BRANCH   1  17
ATOM     17  C   UNL     1     -23.992 -22.003 -14.601  1.00  0.00     0.286 C 
ATOM     18  C   UNL     1     -22.706 -22.617 -14.032  1.00  0.00     0.202 C 
ATOM     19  O   UNL     1     -24.689 -22.947 -15.396  1.00  0.00    -0.341 OA
ATOM     20  C   UNL     1     -23.022 -23.807 -13.095  1.00  0.00     0.179 C 
ATOM     21  C   UNL     1     -24.924 -24.219 -14.784  1.00  0.00     0.178 C 
ATOM     22  C   UNL     1     -24.450 -24.371 -13.303  1.00  0.00     0.177 C 
BRANCH  18  23
ATOM     23  O   UNL     1     -21.953 -21.631 -13.374  1.00  0.00    -0.385 OA
ATOM     24  H   UNL     1     -22.540 -21.239 -12.678  1.00  0.00     0.211 HD
ENDBRANCH  18  23
BRANCH  20  25
ATOM     25  O   UNL     1     -22.832 -23.467 -11.743  1.00  0.00    -0.387 OA
ATOM     26  H   UNL     1     -22.259 -24.171 -11.336  1.00  0.00     0.211 HD
ENDBRANCH  20  25
BRANCH  21  27
ATOM     27  C   UNL     1     -26.422 -24.544 -14.972  1.00  0.00     0.191 C 
BRANCH  27  28
ATOM     28  O   UNL     1     -26.647 -25.917 -15.148  1.00  0.00    -0.394 OA
ATOM     29  H   UNL     1     -27.354 -25.995 -15.845  1.00  0.00     0.210 HD
ENDBRANCH  27  28
ENDBRANCH  21  27
BRANCH  22  30
ATOM     30  O   UNL     1     -24.473 -25.727 -12.936  1.00  0.00    -0.387 OA
ATOM     31  H   UNL     1     -24.584 -26.256 -13.771  1.00  0.00     0.211 HD
ENDBRANCH  22  30
ENDBRANCH   1  17
TORSDOF 10
ENDMDL
MODEL 4
REMARK VINA RESULT:    -4.338      1.349      5.461
REMARK INTER + INTRA:          -6.647
REMARK INTER:                  -5.639
REMARK INTRA:                  -1.008
REMARK UNBOUND:                -0.534
REMARK SMILES OC[C@H]1O[C@@H](O[C@@H]2OC=C[C@@H]3[C@@H](O)[C@@H]4O[C@]4(CO)[C@H]23)[C@@H](O)[C@@H](O)[C@@H]1O
REMARK SMILES IDX 6 1 7 2 10 3 9 4 11 5 8 6 19 7 12 8 16 9 14 10 15 11 13 12
REMARK SMILES IDX 17 14 18 15 5 17 20 18 4 19 22 20 3 21 24 22 21 23 23 25
REMARK SMILES IDX 2 27 1 28 25 30
REMARK H PARENT 13 13 18 16 21 24 23 26 1 29 25 31
REMARK Flexibility Score: inf
ROOT
ATOM      1  O   UNL     1     -25.276 -21.506 -12.482  1.00  0.00    -0.310 OA
ENDROOT
BRANCH   1   2
ATOM      2  C   UNL     1     -24.447 -20.633 -11.732  1.00  0.00     0.315 C 
ATOM      3  C   UNL     1     -26.586 -18.939 -10.923  1.00  0.00     0.018 C 
ATOM      4  C   UNL     1     -26.119 -19.877 -10.096  1.00  0.00     0.186 C 
ATOM      5  C   UNL     1     -25.791 -18.473 -12.121  1.00  0.00     0.059 C 
ATOM      6  O   UNL     1     -24.938 -20.567 -10.395  1.00  0.00    -0.472 OA
ATOM      7  C   UNL     1     -24.453 -19.211 -12.339  1.00  0.00     0.105 C 
ATOM      8  C   UNL     1     -26.552 -18.617 -13.441  1.00  0.00     0.154 C 
ATOM      9  C   UNL     1     -24.218 -19.197 -13.858  1.00  0.00     0.130 C 
ATOM     10  C   UNL     1     -25.471 -18.748 -14.509  1.00  0.00     0.183 C 
ATOM     11  O   UNL     1     -24.997 -20.068 -14.649  1.00  0.00    -0.360 OA
BRANCH   8  12
ATOM     12  O   UNL     1     -27.385 -17.509 -13.684  1.00  0.00    -0.390 OA
ATOM     13  H   UNL     1     -26.901 -16.694 -13.390  1.00  0.00     0.211 HD
ENDBRANCH   8  12
BRANCH   9  14
ATOM     14  C   UNL     1     -22.933 -18.680 -14.501  1.00  0.00     0.195 C 
BRANCH  14  15
ATOM     15  O   UNL     1     -22.413 -17.632 -13.736  1.00  0.00    -0.393 OA
ATOM     16  H   UNL     1     -23.195 -17.135 -13.384  1.00  0.00     0.210 HD
ENDBRANCH  14  15
ENDBRANCH   9  14
ENDBRANCH   1   2
BRANCH   1  17
ATOM     17  C   UNL     1     -25.421 -22.780 -11.861  1.00  0.00     0.286 C 
ATOM     18  C   UNL     1     -26.534 -23.603 -12.525  1.00  0.00     0.202 C 
ATOM     19  O   UNL     1     -24.189 -23.479 -11.902  1.00  0.00    -0.341 OA
ATOM     20  C   UNL     1     -26.233 -23.842 -14.023  1.00  0.00     0.179 C 
ATOM     21  C   UNL     1     -23.800 -23.974 -13.187  1.00  0.00     0.178 C 
ATOM     22  C   UNL     1     -24.743 -23.614 -14.379  1.00  0.00     0.177 C 
BRANCH  18  23
ATOM     23  O   UNL     1     -27.774 -22.968 -12.344  1.00  0.00    -0.385 OA
ATOM     24  H   UNL     1     -27.667 -22.036 -12.665  1.00  0.00     0.211 HD
ENDBRANCH  18  23
BRANCH  20  25
ATOM     25  O   UNL     1     -27.051 -23.049 -14.849  1.00  0.00    -0.387 OA
ATOM     26  H   UNL     1     -26.489 -22.309 -15.204  1.00  0.00     0.211 HD
ENDBRANCH  20  25
BRANCH  21  27
ATOM     27  C   UNL     1     -22.339 -23.530 -13.421  1.00  0.00     0.191 C 
BRANCH  27  28
ATOM     28  O   UNL     1     -22.238 -22.152 -13.660  1.00  0.00    -0.394 OA
ATOM     29  H   UNL     1     -21.315 -21.891 -13.394  1.00  0.00     0.210 HD
ENDBRANCH  27  28
ENDBRANCH  21  27
BRANCH  22  30
ATOM     30  O   UNL     1     -24.407 -24.395 -15.499  1.00  0.00    -0.387 OA
ATOM     31  H   UNL     1     -24.421 -23.793 -16.291  1.00  0.00     0.211 HD
ENDBRANCH  22  30
ENDBRANCH   1  17
TORSDOF 10
ENDMDL
MODEL 5
REMARK VINA RESULT:    -3.855      1.519      2.947
REMARK INTER + INTRA:          -5.967
REMARK INTER:                  -7.396
REMARK INTRA:                   1.429
REMARK UNBOUND:                -0.534
REMARK SMILES OC[C@H]1O[C@@H](O[C@@H]2OC=C[C@@H]3[C@@H](O)[C@@H]4O[C@]4(CO)[C@H]23)[C@@H](O)[C@@H](O)[C@@H]1O
REMARK SMILES IDX 6 1 7 2 10 3 9 4 11 5 8 6 19 7 12 8 16 9 14 10 15 11 13 12
REMARK SMILES IDX 17 14 18 15 5 17 20 18 4 19 22 20 3 21 24 22 21 23 23 25
REMARK SMILES IDX 2 27 1 28 25 30
REMARK H PARENT 13 13 18 16 21 24 23 26 1 29 25 31
REMARK Flexibility Score: inf
ROOT
ATOM      1  O   UNL     1     -24.945 -20.623 -13.495  1.00  0.00    -0.310 OA
ENDROOT
BRANCH   1   2
ATOM      2  C   UNL     1     -24.896 -21.440 -12.337  1.00  0.00     0.315 C 
ATOM      3  C   UNL     1     -22.873 -23.158 -13.364  1.00  0.00     0.018 C 
ATOM      4  C   UNL     1     -22.557 -22.174 -12.519  1.00  0.00     0.186 C 
ATOM      5  C   UNL     1     -24.295 -23.651 -13.508  1.00  0.00     0.059 C 
ATOM      6  O   UNL     1     -23.557 -21.464 -11.845  1.00  0.00    -0.472 OA
ATOM      7  C   UNL     1     -25.336 -22.887 -12.664  1.00  0.00     0.105 C 
ATOM      8  C   UNL     1     -24.811 -23.585 -14.947  1.00  0.00     0.154 C 
ATOM      9  C   UNL     1     -26.646 -22.958 -13.464  1.00  0.00     0.130 C 
ATOM     10  C   UNL     1     -26.326 -23.468 -14.818  1.00  0.00     0.183 C 
ATOM     11  O   UNL     1     -26.759 -22.142 -14.610  1.00  0.00    -0.360 OA
BRANCH   8  12
ATOM     12  O   UNL     1     -24.443 -24.724 -15.685  1.00  0.00    -0.390 OA
ATOM     13  H   UNL     1     -24.980 -25.489 -15.352  1.00  0.00     0.211 HD
ENDBRANCH   8  12
BRANCH   9  14
ATOM     14  C   UNL     1     -27.960 -23.465 -12.875  1.00  0.00     0.195 C 
BRANCH  14  15
ATOM     15  O   UNL     1     -27.958 -23.274 -11.490  1.00  0.00    -0.393 OA
ATOM     16  H   UNL     1     -27.325 -22.532 -11.316  1.00  0.00     0.210 HD
ENDBRANCH  14  15
ENDBRANCH   9  14
ENDBRANCH   1   2
BRANCH   1  17
ATOM     17  C   UNL     1     -26.140 -19.850 -13.559  1.00  0.00     0.286 C 
ATOM     18  C   UNL     1     -26.532 -19.309 -12.177  1.00  0.00     0.202 C 
ATOM     19  O   UNL     1     -25.977 -18.789 -14.485  1.00  0.00    -0.341 OA
ATOM     20  C   UNL     1     -25.418 -18.407 -11.595  1.00  0.00     0.179 C 
ATOM     21  C   UNL     1     -25.122 -17.722 -14.061  1.00  0.00     0.178 C 
ATOM     22  C   UNL     1     -24.426 -17.906 -12.674  1.00  0.00     0.177 C 
BRANCH  18  23
ATOM     23  O   UNL     1     -26.836 -20.374 -11.313  1.00  0.00    -0.385 OA
ATOM     24  H   UNL     1     -25.971 -20.775 -11.039  1.00  0.00     0.211 HD
ENDBRANCH  18  23
BRANCH  20  25
ATOM     25  O   UNL     1     -24.716 -19.053 -10.560  1.00  0.00    -0.387 OA
ATOM     26  H   UNL     1     -25.384 -19.350  -9.886  1.00  0.00     0.211 HD
ENDBRANCH  20  25
BRANCH  21  27
ATOM     27  C   UNL     1     -24.119 -17.462 -15.206  1.00  0.00     0.191 C 
BRANCH  27  28
ATOM     28  O   UNL     1     -23.600 -16.160 -15.168  1.00  0.00    -0.394 OA
ATOM     29  H   UNL     1     -24.002 -15.723 -14.369  1.00  0.00     0.210 HD
ENDBRANCH  27  28
ENDBRANCH  21  27
BRANCH  22  30
ATOM     30  O   UNL     1     -23.867 -16.684 -12.261  1.00  0.00    -0.387 OA
ATOM     31  H   UNL     1     -24.616 -16.039 -12.154  1.00  0.00     0.211 HD
ENDBRANCH  22  30
ENDBRANCH   1  17
TORSDOF 10
ENDMDL
MODEL 6
REMARK VINA RESULT:    -3.669      1.724      5.603
REMARK INTER + INTRA:          -5.705
REMARK INTER:                  -6.037
REMARK INTRA:                   0.333
REMARK UNBOUND:                -0.534
REMARK SMILES OC[C@H]1O[C@@H](O[C@@H]2OC=C[C@@H]3[C@@H](O)[C@@H]4O[C@]4(CO)[C@H]23)[C@@H](O)[C@@H](O)[C@@H]1O
REMARK SMILES IDX 6 1 7 2 10 3 9 4 11 5 8 6 19 7 12 8 16 9 14 10 15 11 13 12
REMARK SMILES IDX 17 14 18 15 5 17 20 18 4 19 22 20 3 21 24 22 21 23 23 25
REMARK SMILES IDX 2 27 1 28 25 30
REMARK H PARENT 13 13 18 16 21 24 23 26 1 29 25 31
REMARK Flexibility Score: inf
ROOT
ATOM      1  O   UNL     1     -24.799 -21.239 -13.350  1.00  0.00    -0.310 OA
ENDROOT
BRANCH   1   2
ATOM      2  C   UNL     1     -24.132 -20.429 -12.395  1.00  0.00     0.315 C 
ATOM      3  C   UNL     1     -26.531 -19.523 -11.161  1.00  0.00     0.018 C 
ATOM      4  C   UNL     1     -25.824 -20.515 -10.615  1.00  0.00     0.186 C 
ATOM      5  C   UNL     1     -25.929 -18.598 -12.193  1.00  0.00     0.059 C 
ATOM      6  O   UNL     1     -24.544 -20.823 -11.088  1.00  0.00    -0.472 OA
ATOM      7  C   UNL     1     -24.480 -18.936 -12.602  1.00  0.00     0.105 C 
ATOM      8  C   UNL     1     -26.721 -18.560 -13.502  1.00  0.00     0.154 C 
ATOM      9  C   UNL     1     -24.347 -18.477 -14.063  1.00  0.00     0.130 C 
ATOM     10  C   UNL     1     -25.704 -18.166 -14.568  1.00  0.00     0.183 C 
ATOM     11  O   UNL     1     -24.967 -19.264 -15.056  1.00  0.00    -0.360 OA
BRANCH   8  12
ATOM     12  O   UNL     1     -27.785 -17.642 -13.440  1.00  0.00    -0.390 OA
ATOM     13  H   UNL     1     -28.164 -17.553 -14.353  1.00  0.00     0.211 HD
ENDBRANCH   8  12
BRANCH   9  14
ATOM     14  C   UNL     1     -23.244 -17.538 -14.547  1.00  0.00     0.195 C 
BRANCH  14  15
ATOM     15  O   UNL     1     -22.092 -17.731 -13.779  1.00  0.00    -0.393 OA
ATOM     16  H   UNL     1     -21.389 -17.169 -14.194  1.00  0.00     0.210 HD
ENDBRANCH  14  15
ENDBRANCH   9  14
ENDBRANCH   1   2
BRANCH   1  17
ATOM     17  C   UNL     1     -23.912 -21.737 -14.348  1.00  0.00     0.286 C 
ATOM     18  C   UNL     1     -22.739 -22.504 -13.722  1.00  0.00     0.202 C 
ATOM     19  O   UNL     1     -24.623 -22.561 -15.256  1.00  0.00    -0.341 OA
ATOM     20  C   UNL     1     -23.241 -23.711 -12.894  1.00  0.00     0.179 C 
ATOM     21  C   UNL     1     -25.023 -23.838 -14.750  1.00  0.00     0.178 C 
ATOM     22  C   UNL     1     -24.691 -24.121 -13.249  1.00  0.00     0.177 C 
BRANCH  18  23
ATOM     23  O   UNL     1     -21.957 -21.636 -12.943  1.00  0.00    -0.385 OA
ATOM     24  H   UNL     1     -22.586 -21.073 -12.423  1.00  0.00     0.211 HD
ENDBRANCH  18  23
BRANCH  20  25
ATOM     25  O   UNL     1     -23.134 -23.471 -11.511  1.00  0.00    -0.387 OA
ATOM     26  H   UNL     1     -23.726 -22.702 -11.295  1.00  0.00     0.211 HD
ENDBRANCH  20  25
BRANCH  21  27
ATOM     27  C   UNL     1     -26.524 -24.005 -15.075  1.00  0.00     0.191 C 
BRANCH  27  28
ATOM     28  O   UNL     1     -26.885 -25.352 -15.226  1.00  0.00    -0.394 OA
ATOM     29  H   UNL     1     -27.495 -25.389 -16.013  1.00  0.00     0.210 HD
ENDBRANCH  27  28
ENDBRANCH  21  27
BRANCH  22  30
ATOM     30  O   UNL     1     -24.869 -25.488 -12.976  1.00  0.00    -0.387 OA
ATOM     31  H   UNL     1     -24.258 -25.720 -12.226  1.00  0.00     0.211 HD
ENDBRANCH  22  30
ENDBRANCH   1  17
TORSDOF 10
ENDMDL
MODEL 7
REMARK VINA RESULT:    -3.663      1.628      5.351
REMARK INTER + INTRA:          -5.697
REMARK INTER:                  -5.337
REMARK INTRA:                  -0.359
REMARK UNBOUND:                -0.534
REMARK SMILES OC[C@H]1O[C@@H](O[C@@H]2OC=C[C@@H]3[C@@H](O)[C@@H]4O[C@]4(CO)[C@H]23)[C@@H](O)[C@@H](O)[C@@H]1O
REMARK SMILES IDX 6 1 7 2 10 3 9 4 11 5 8 6 19 7 12 8 16 9 14 10 15 11 13 12
REMARK SMILES IDX 17 14 18 15 5 17 20 18 4 19 22 20 3 21 24 22 21 23 23 25
REMARK SMILES IDX 2 27 1 28 25 30
REMARK H PARENT 13 13 18 16 21 24 23 26 1 29 25 31
REMARK Flexibility Score: inf
ROOT
ATOM      1  O   UNL     1     -25.813 -21.981 -13.328  1.00  0.00    -0.310 OA
ENDROOT
BRANCH   1   2
ATOM      2  C   UNL     1     -25.197 -21.657 -12.092  1.00  0.00     0.315 C 
ATOM      3  C   UNL     1     -26.556 -19.173 -11.812  1.00  0.00     0.018 C 
ATOM      4  C   UNL     1     -26.988 -20.255 -11.160  1.00  0.00     0.186 C 
ATOM      5  C   UNL     1     -25.161 -19.102 -12.390  1.00  0.00     0.059 C 
ATOM      6  O   UNL     1     -26.213 -21.419 -11.119  1.00  0.00    -0.472 OA
ATOM      7  C   UNL     1     -24.325 -20.388 -12.227  1.00  0.00     0.105 C 
ATOM      8  C   UNL     1     -25.148 -18.797 -13.890  1.00  0.00     0.154 C 
ATOM      9  C   UNL     1     -23.383 -20.423 -13.441  1.00  0.00     0.130 C 
ATOM     10  C   UNL     1     -23.840 -19.392 -14.402  1.00  0.00     0.183 C 
ATOM     11  O   UNL     1     -23.940 -20.768 -14.691  1.00  0.00    -0.360 OA
BRANCH   8  12
ATOM     12  O   UNL     1     -25.218 -17.415 -14.140  1.00  0.00    -0.390 OA
ATOM     13  H   UNL     1     -24.292 -17.058 -14.144  1.00  0.00     0.211 HD
ENDBRANCH   8  12
BRANCH   9  14
ATOM     14  C   UNL     1     -21.868 -20.571 -13.322  1.00  0.00     0.195 C 
BRANCH  14  15
ATOM     15  O   UNL     1     -21.488 -21.855 -13.724  1.00  0.00    -0.393 OA
ATOM     16  H   UNL     1     -22.300 -22.275 -14.105  1.00  0.00     0.210 HD
ENDBRANCH  14  15
ENDBRANCH   9  14
ENDBRANCH   1   2
BRANCH   1  17
ATOM     17  C   UNL     1     -26.553 -23.197 -13.260  1.00  0.00     0.286 C 
ATOM     18  C   UNL     1     -26.558 -23.925 -14.612  1.00  0.00     0.202 C 
ATOM     19  O   UNL     1     -26.019 -24.029 -12.245  1.00  0.00    -0.341 OA
ATOM     20  C   UNL     1     -25.119 -24.273 -15.063  1.00  0.00     0.179 C 
ATOM     21  C   UNL     1     -24.754 -24.630 -12.538  1.00  0.00     0.178 C 
ATOM     22  C   UNL     1     -24.099 -24.231 -13.899  1.00  0.00     0.177 C 
BRANCH  18  23
ATOM     23  O   UNL     1     -27.224 -23.148 -15.574  1.00  0.00    -0.385 OA
ATOM     24  H   UNL     1     -27.837 -23.758 -16.059  1.00  0.00     0.211 HD
ENDBRANCH  18  23
BRANCH  20  25
ATOM     25  O   UNL     1     -24.688 -23.438 -16.111  1.00  0.00    -0.387 OA
ATOM     26  H   UNL     1     -24.504 -24.017 -16.898  1.00  0.00     0.211 HD
ENDBRANCH  20  25
BRANCH  21  27
ATOM     27  C   UNL     1     -23.833 -24.364 -11.327  1.00  0.00     0.191 C 
BRANCH  27  28
ATOM     28  O   UNL     1     -22.694 -23.627 -11.681  1.00  0.00    -0.394 OA
ATOM     29  H   UNL     1     -22.775 -22.750 -11.217  1.00  0.00     0.210 HD
ENDBRANCH  27  28
ENDBRANCH  21  27
BRANCH  22  30
ATOM     30  O   UNL     1     -23.032 -25.101 -14.183  1.00  0.00    -0.387 OA
ATOM     31  H   UNL     1     -22.512 -25.213 -13.342  1.00  0.00     0.211 HD
ENDBRANCH  22  30
ENDBRANCH   1  17
TORSDOF 10
ENDMDL
MODEL 8
REMARK VINA RESULT:    -3.311      2.137      3.848
REMARK INTER + INTRA:          -5.200
REMARK INTER:                  -4.936
REMARK INTRA:                  -0.264
REMARK UNBOUND:                -0.534
REMARK SMILES OC[C@H]1O[C@@H](O[C@@H]2OC=C[C@@H]3[C@@H](O)[C@@H]4O[C@]4(CO)[C@H]23)[C@@H](O)[C@@H](O)[C@@H]1O
REMARK SMILES IDX 6 1 7 2 10 3 9 4 11 5 8 6 19 7 12 8 16 9 14 10 15 11 13 12
REMARK SMILES IDX 17 14 18 15 5 17 20 18 4 19 22 20 3 21 24 22 21 23 23 25
REMARK SMILES IDX 2 27 1 28 25 30
REMARK H PARENT 13 13 18 16 21 24 23 26 1 29 25 31
REMARK Flexibility Score: inf
ROOT
ATOM      1  O   UNL     1     -24.196 -19.003 -12.833  1.00  0.00    -0.310 OA
ENDROOT
BRANCH   1   2
ATOM      2  C   UNL     1     -23.516 -19.859 -11.930  1.00  0.00     0.315 C 
ATOM      3  C   UNL     1     -24.421 -22.255 -13.170  1.00  0.00     0.018 C 
ATOM      4  C   UNL     1     -23.200 -21.780 -13.429  1.00  0.00     0.186 C 
ATOM      5  C   UNL     1     -25.207 -21.798 -11.962  1.00  0.00     0.059 C 
ATOM      6  O   UNL     1     -22.666 -20.732 -12.671  1.00  0.00    -0.472 OA
ATOM      7  C   UNL     1     -24.519 -20.708 -11.114  1.00  0.00     0.105 C 
ATOM      8  C   UNL     1     -26.581 -21.227 -12.320  1.00  0.00     0.154 C 
ATOM      9  C   UNL     1     -25.661 -19.880 -10.504  1.00  0.00     0.130 C 
ATOM     10  C   UNL     1     -26.919 -20.270 -11.182  1.00  0.00     0.183 C 
ATOM     11  O   UNL     1     -26.352 -18.991 -11.354  1.00  0.00    -0.360 OA
BRANCH   8  12
ATOM     12  O   UNL     1     -27.548 -22.240 -12.447  1.00  0.00    -0.390 OA
ATOM     13  H   UNL     1     -28.291 -21.884 -13.000  1.00  0.00     0.211 HD
ENDBRANCH   8  12
BRANCH   9  14
ATOM     14  C   UNL     1     -25.790 -19.608  -9.007  1.00  0.00     0.195 C 
BRANCH  14  15
ATOM     15  O   UNL     1     -25.958 -18.237  -8.791  1.00  0.00    -0.393 OA
ATOM     16  H   UNL     1     -25.506 -18.037  -7.932  1.00  0.00     0.210 HD
ENDBRANCH  14  15
ENDBRANCH   9  14
ENDBRANCH   1   2
BRANCH   1  17
ATOM     17  C   UNL     1     -23.558 -18.946 -14.106  1.00  0.00     0.286 C 
ATOM     18  C   UNL     1     -24.568 -18.658 -15.226  1.00  0.00     0.202 C 
ATOM     19  O   UNL     1     -22.536 -17.965 -14.089  1.00  0.00    -0.341 OA
ATOM     20  C   UNL     1     -25.284 -17.306 -14.997  1.00  0.00     0.179 C 
ATOM     21  C   UNL     1     -22.982 -16.605 -14.075  1.00  0.00     0.178 C 
ATOM     22  C   UNL     1     -24.528 -16.387 -14.005  1.00  0.00     0.177 C 
BRANCH  18  23
ATOM     23  O   UNL     1     -25.487 -19.715 -15.328  1.00  0.00    -0.385 OA
ATOM     24  H   UNL     1     -26.371 -19.308 -15.519  1.00  0.00     0.211 HD
ENDBRANCH  18  23
BRANCH  20  25
ATOM     25  O   UNL     1     -26.611 -17.488 -14.567  1.00  0.00    -0.387 OA
ATOM     26  H   UNL     1     -26.983 -16.590 -14.356  1.00  0.00     0.211 HD
ENDBRANCH  20  25
BRANCH  21  27
ATOM     27  C   UNL     1     -22.222 -15.889 -12.937  1.00  0.00     0.191 C 
BRANCH  27  28
ATOM     28  O   UNL     1     -20.846 -16.158 -12.970  1.00  0.00    -0.394 OA
ATOM     29  H   UNL     1     -20.682 -16.669 -13.808  1.00  0.00     0.210 HD
ENDBRANCH  27  28
ENDBRANCH  21  27
BRANCH  22  30
ATOM     30  O   UNL     1     -24.829 -15.044 -14.292  1.00  0.00    -0.387 OA
ATOM     31  H   UNL     1     -25.301 -14.673 -13.499  1.00  0.00     0.211 HD
ENDBRANCH  22  30
ENDBRANCH   1  17
TORSDOF 10
ENDMDL
MODEL 9
REMARK VINA RESULT:    -3.175      1.650      3.798
REMARK INTER + INTRA:          -5.008
REMARK INTER:                  -6.828
REMARK INTRA:                   1.820
REMARK UNBOUND:                -0.534
REMARK SMILES OC[C@H]1O[C@@H](O[C@@H]2OC=C[C@@H]3[C@@H](O)[C@@H]4O[C@]4(CO)[C@H]23)[C@@H](O)[C@@H](O)[C@@H]1O
REMARK SMILES IDX 6 1 7 2 10 3 9 4 11 5 8 6 19 7 12 8 16 9 14 10 15 11 13 12
REMARK SMILES IDX 17 14 18 15 5 17 20 18 4 19 22 20 3 21 24 22 21 23 23 25
REMARK SMILES IDX 2 27 1 28 25 30
REMARK H PARENT 13 13 18 16 21 24 23 26 1 29 25 31
REMARK Flexibility Score: inf
ROOT
ATOM      1  O   UNL     1     -25.261 -21.534 -13.935  1.00  0.00    -0.310 OA
ENDROOT
BRANCH   1   2
ATOM      2  C   UNL     1     -26.390 -22.364 -14.152  1.00  0.00     0.315 C 
ATOM      3  C   UNL     1     -26.504 -23.292 -11.464  1.00  0.00     0.018 C 
ATOM      4  C   UNL     1     -27.313 -22.312 -11.875  1.00  0.00     0.186 C 
ATOM      5  C   UNL     1     -25.796 -24.197 -12.447  1.00  0.00     0.059 C 
ATOM      6  O   UNL     1     -27.417 -21.996 -13.234  1.00  0.00    -0.472 OA
ATOM      7  C   UNL     1     -26.030 -23.852 -13.932  1.00  0.00     0.105 C 
ATOM      8  C   UNL     1     -24.276 -24.207 -12.267  1.00  0.00     0.154 C 
ATOM      9  C   UNL     1     -24.747 -24.282 -14.661  1.00  0.00     0.130 C 
ATOM     10  C   UNL     1     -23.719 -24.581 -13.637  1.00  0.00     0.183 C 
ATOM     11  O   UNL     1     -23.601 -23.474 -14.502  1.00  0.00    -0.360 OA
BRANCH   8  12
ATOM     12  O   UNL     1     -23.875 -25.125 -11.280  1.00  0.00    -0.390 OA
ATOM     13  H   UNL     1     -22.913 -24.970 -11.093  1.00  0.00     0.211 HD
ENDBRANCH   8  12
BRANCH   9  14
ATOM     14  C   UNL     1     -24.745 -25.212 -15.872  1.00  0.00     0.195 C 
BRANCH  14  15
ATOM     15  O   UNL     1     -25.852 -26.063 -15.814  1.00  0.00    -0.393 OA
ATOM     16  H   UNL     1     -26.616 -25.500 -15.530  1.00  0.00     0.210 HD
ENDBRANCH  14  15
ENDBRANCH   9  14
ENDBRANCH   1   2
BRANCH   1  17
ATOM     17  C   UNL     1     -25.326 -20.851 -12.685  1.00  0.00     0.286 C 
ATOM     18  C   UNL     1     -23.927 -20.646 -12.087  1.00  0.00     0.202 C 
ATOM     19  O   UNL     1     -25.988 -19.609 -12.850  1.00  0.00    -0.341 OA
ATOM     20  C   UNL     1     -23.032 -19.812 -13.033  1.00  0.00     0.179 C 
ATOM     21  C   UNL     1     -25.248 -18.599 -13.543  1.00  0.00     0.178 C 
ATOM     22  C   UNL     1     -23.847 -19.023 -14.089  1.00  0.00     0.177 C 
BRANCH  18  23
ATOM     23  O   UNL     1     -23.344 -21.889 -11.790  1.00  0.00    -0.385 OA
ATOM     24  H   UNL     1     -22.386 -21.717 -11.603  1.00  0.00     0.211 HD
ENDBRANCH  18  23
BRANCH  20  25
ATOM     25  O   UNL     1     -22.065 -20.611 -13.671  1.00  0.00    -0.387 OA
ATOM     26  H   UNL     1     -22.465 -21.511 -13.808  1.00  0.00     0.211 HD
ENDBRANCH  20  25
BRANCH  21  27
ATOM     27  C   UNL     1     -26.173 -18.031 -14.641  1.00  0.00     0.191 C 
BRANCH  27  28
ATOM     28  O   UNL     1     -25.941 -16.668 -14.875  1.00  0.00    -0.394 OA
ATOM     29  H   UNL     1     -25.625 -16.597 -15.816  1.00  0.00     0.210 HD
ENDBRANCH  27  28
ENDBRANCH  21  27
BRANCH  22  30
ATOM     30  O   UNL     1     -23.125 -17.881 -14.476  1.00  0.00    -0.387 OA
ATOM     31  H   UNL     1     -22.682 -17.523 -13.661  1.00  0.00     0.211 HD
ENDBRANCH  22  30
ENDBRANCH   1  17
TORSDOF 10
ENDMDL
