MODEL 1
REMARK VINA RESULT:    -4.081      0.000      0.000
REMARK INTER + INTRA:          -9.968
REMARK INTER:                  -7.899
REMARK INTRA:                  -2.069
REMARK UNBOUND:                -2.069
REMARK SMILES CCCCCCCCCCCCCCCCCC(=O)[O-]
REMARK SMILES IDX 10 1 11 2 12 3 13 4 14 5 15 6 16 7 17 8 18 9 19 10 20 11
REMARK SMILES IDX 9 12 8 13 7 14 6 15 5 16 4 17 3 18 2 19 1 20
REMARK H PARENT
REMARK Flexibility Score: inf
ROOT
ATOM      1  C   UNL     1     141.799 127.643 115.989  1.00  0.00     0.000 C 
ENDROOT
BRANCH   1   2
ATOM      2  C   UNL     1     142.812 127.320 114.879  1.00  0.00     0.000 C 
BRANCH   2   3
ATOM      3  C   UNL     1     144.218 127.116 115.463  1.00  0.00     0.000 C 
BRANCH   3   4
ATOM      4  C   UNL     1     145.334 127.629 114.533  1.00  0.00     0.000 C 
BRANCH   4   5
ATOM      5  C   UNL     1     145.545 129.154 114.548  1.00  0.00     0.000 C 
BRANCH   5   6
ATOM      6  C   UNL     1     145.445 129.812 115.938  1.00  0.00     0.000 C 
BRANCH   6   7
ATOM      7  C   UNL     1     145.150 131.328 115.890  1.00  0.00     0.006 C 
BRANCH   7   8
ATOM      8  C   UNL     1     146.390 132.208 116.120  1.00  0.00     0.053 C 
BRANCH   8   9
ATOM      9  C   UNL     1     146.024 133.647 116.320  1.00  0.00     0.041 C 
ATOM     10  O   UNL     1     144.857 134.046 116.063  1.00  0.00    -0.550 OA
ATOM     11  O   UNL     1     146.976 134.553 116.769  1.00  0.00    -0.550 OA
ENDBRANCH   8   9
ENDBRANCH   7   8
ENDBRANCH   6   7
ENDBRANCH   5   6
ENDBRANCH   4   5
ENDBRANCH   3   4
ENDBRANCH   2   3
ENDBRANCH   1   2
BRANCH   1  12
ATOM     12  C   UNL     1     141.375 129.119 115.985  1.00  0.00     0.000 C 
BRANCH  12  13
ATOM     13  C   UNL     1     141.935 129.893 114.778  1.00  0.00    -0.000 C 
BRANCH  13  14
ATOM     14  C   UNL     1     140.837 130.219 113.742  1.00  0.00    -0.000 C 
BRANCH  14  15
ATOM     15  C   UNL     1     139.422 129.828 114.200  1.00  0.00    -0.000 C 
BRANCH  15  16
ATOM     16  C   UNL     1     138.697 128.918 113.195  1.00  0.00    -0.000 C 
BRANCH  16  17
ATOM     17  C   UNL     1     138.562 127.467 113.689  1.00  0.00    -0.000 C 
BRANCH  17  18
ATOM     18  C   UNL     1     138.142 127.307 115.165  1.00  0.00    -0.000 C 
BRANCH  18  19
ATOM     19  C   UNL     1     136.624 127.326 115.414  1.00  0.00    -0.003 C 
ATOM     20  C   UNL     1     136.146 128.612 116.084  1.00  0.00     0.004 C 
ENDBRANCH  18  19
ENDBRANCH  17  18
ENDBRANCH  16  17
ENDBRANCH  15  16
ENDBRANCH  14  15
ENDBRANCH  13  14
ENDBRANCH  12  13
ENDBRANCH   1  12
TORSDOF 16
ENDMDL
MODEL 2
REMARK VINA RESULT:    -3.992      2.029      3.518
REMARK INTER + INTRA:          -9.795
REMARK INTER:                  -6.839
REMARK INTRA:                  -2.956
REMARK UNBOUND:                -2.069
REMARK SMILES CCCCCCCCCCCCCCCCCC(=O)[O-]
REMARK SMILES IDX 10 1 11 2 12 3 13 4 14 5 15 6 16 7 17 8 18 9 19 10 20 11
REMARK SMILES IDX 9 12 8 13 7 14 6 15 5 16 4 17 3 18 2 19 1 20
REMARK H PARENT
REMARK Flexibility Score: inf
ROOT
ATOM      1  C   UNL     1     143.012 127.332 116.392  1.00  0.00     0.000 C 
ENDROOT
BRANCH   1   2
ATOM      2  C   UNL     1     144.542 127.429 116.270  1.00  0.00     0.000 C 
BRANCH   2   3
ATOM      3  C   UNL     1     144.961 127.677 114.814  1.00  0.00     0.000 C 
BRANCH   3   4
ATOM      4  C   UNL     1     145.591 129.066 114.599  1.00  0.00     0.000 C 
BRANCH   4   5
ATOM      5  C   UNL     1     146.042 129.783 115.886  1.00  0.00     0.000 C 
BRANCH   5   6
ATOM      6  C   UNL     1     146.783 131.115 115.663  1.00  0.00     0.000 C 
BRANCH   6   7
ATOM      7  C   UNL     1     146.134 132.318 116.384  1.00  0.00     0.006 C 
BRANCH   7   8
ATOM      8  C   UNL     1     146.136 133.613 115.556  1.00  0.00     0.053 C 
BRANCH   8   9
ATOM      9  C   UNL     1     146.375 134.822 116.408  1.00  0.00     0.041 C 
ATOM     10  O   UNL     1     147.034 135.795 115.956  1.00  0.00    -0.550 OA
ATOM     11  O   UNL     1     145.889 134.866 117.709  1.00  0.00    -0.550 OA
ENDBRANCH   8   9
ENDBRANCH   7   8
ENDBRANCH   6   7
ENDBRANCH   5   6
ENDBRANCH   4   5
ENDBRANCH   3   4
ENDBRANCH   2   3
ENDBRANCH   1   2
BRANCH   1  12
ATOM     12  C   UNL     1     142.316 127.292 115.023  1.00  0.00     0.000 C 
BRANCH  12  13
ATOM     13  C   UNL     1     140.855 127.773 115.087  1.00  0.00    -0.000 C 
BRANCH  13  14
ATOM     14  C   UNL     1     140.755 129.313 115.096  1.00  0.00    -0.000 C 
BRANCH  14  15
ATOM     15  C   UNL     1     141.946 130.012 114.419  1.00  0.00    -0.000 C 
BRANCH  15  16
ATOM     16  C   UNL     1     142.599 131.080 115.310  1.00  0.00    -0.000 C 
BRANCH  16  17
ATOM     17  C   UNL     1     142.076 131.057 116.757  1.00  0.00    -0.000 C 
BRANCH  17  18
ATOM     18  C   UNL     1     143.149 130.834 117.844  1.00  0.00    -0.000 C 
BRANCH  18  19
ATOM     19  C   UNL     1     142.763 129.827 118.942  1.00  0.00    -0.003 C 
ATOM     20  C   UNL     1     141.272 129.492 118.946  1.00  0.00     0.004 C 
ENDBRANCH  18  19
ENDBRANCH  17  18
ENDBRANCH  16  17
ENDBRANCH  15  16
ENDBRANCH  14  15
ENDBRANCH  13  14
ENDBRANCH  12  13
ENDBRANCH   1  12
TORSDOF 16
ENDMDL
MODEL 3
REMARK VINA RESULT:    -3.991      1.488      2.585
REMARK INTER + INTRA:          -9.794
REMARK INTER:                  -7.720
REMARK INTRA:                  -2.074
REMARK UNBOUND:                -2.069
REMARK SMILES CCCCCCCCCCCCCCCCCC(=O)[O-]
REMARK SMILES IDX 10 1 11 2 12 3 13 4 14 5 15 6 16 7 17 8 18 9 19 10 20 11
REMARK SMILES IDX 9 12 8 13 7 14 6 15 5 16 4 17 3 18 2 19 1 20
REMARK H PARENT
REMARK Flexibility Score: inf
ROOT
ATOM      1  C   UNL     1     141.366 129.639 114.728  1.00  0.00     0.000 C 
ENDROOT
BRANCH   1   2
ATOM      2  C   UNL     1     141.929 128.620 115.732  1.00  0.00     0.000 C 
BRANCH   2   3
ATOM      3  C   UNL     1     142.641 127.470 115.006  1.00  0.00     0.000 C 
BRANCH   3   4
ATOM      4  C   UNL     1     144.061 127.209 115.542  1.00  0.00     0.000 C 
BRANCH   4   5
ATOM      5  C   UNL     1     145.200 127.534 114.557  1.00  0.00     0.000 C 
BRANCH   5   6
ATOM      6  C   UNL     1     145.349 129.026 114.205  1.00  0.00     0.000 C 
BRANCH   6   7
ATOM      7  C   UNL     1     145.911 129.887 115.359  1.00  0.00     0.006 C 
BRANCH   7   8
ATOM      8  C   UNL     1     144.956 130.997 115.826  1.00  0.00     0.053 C 
BRANCH   8   9
ATOM      9  C   UNL     1     145.658 132.020 116.666  1.00  0.00     0.041 C 
ATOM     10  O   UNL     1     145.230 132.294 117.819  1.00  0.00    -0.550 OA
ATOM     11  O   UNL     1     146.770 132.688 116.169  1.00  0.00    -0.550 OA
ENDBRANCH   8   9
ENDBRANCH   7   8
ENDBRANCH   6   7
ENDBRANCH   5   6
ENDBRANCH   4   5
ENDBRANCH   3   4
ENDBRANCH   2   3
ENDBRANCH   1   2
BRANCH   1  12
ATOM     12  C   UNL     1     139.832 129.717 114.769  1.00  0.00     0.000 C 
BRANCH  12  13
ATOM     13  C   UNL     1     139.186 129.408 113.406  1.00  0.00    -0.000 C 
BRANCH  13  14
ATOM     14  C   UNL     1     138.738 127.934 113.301  1.00  0.00    -0.000 C 
BRANCH  14  15
ATOM     15  C   UNL     1     138.579 127.240 114.664  1.00  0.00    -0.000 C 
BRANCH  15  16
ATOM     16  C   UNL     1     137.154 127.348 115.230  1.00  0.00    -0.000 C 
BRANCH  16  17
ATOM     17  C   UNL     1     137.109 127.259 116.765  1.00  0.00    -0.000 C 
BRANCH  17  18
ATOM     18  C   UNL     1     137.631 128.502 117.515  1.00  0.00    -0.000 C 
BRANCH  18  19
ATOM     19  C   UNL     1     138.756 128.226 118.528  1.00  0.00    -0.003 C 
ATOM     20  C   UNL     1     139.576 126.984 118.183  1.00  0.00     0.004 C 
ENDBRANCH  18  19
ENDBRANCH  17  18
ENDBRANCH  16  17
ENDBRANCH  15  16
ENDBRANCH  14  15
ENDBRANCH  13  14
ENDBRANCH  12  13
ENDBRANCH   1  12
TORSDOF 16
ENDMDL
MODEL 4
REMARK VINA RESULT:    -3.976      3.531      6.828
REMARK INTER + INTRA:          -9.764
REMARK INTER:                  -7.274
REMARK INTRA:                  -2.491
REMARK UNBOUND:                -2.069
REMARK SMILES CCCCCCCCCCCCCCCCCC(=O)[O-]
REMARK SMILES IDX 10 1 11 2 12 3 13 4 14 5 15 6 16 7 17 8 18 9 19 10 20 11
REMARK SMILES IDX 9 12 8 13 7 14 6 15 5 16 4 17 3 18 2 19 1 20
REMARK H PARENT
REMARK Flexibility Score: inf
ROOT
ATOM      1  C   UNL     1     145.078 130.780 116.925  1.00  0.00     0.000 C 
ENDROOT
BRANCH   1   2
ATOM      2  C   UNL     1     144.075 131.425 115.955  1.00  0.00     0.000 C 
BRANCH   2   3
ATOM      3  C   UNL     1     142.685 130.788 116.100  1.00  0.00     0.000 C 
BRANCH   3   4
ATOM      4  C   UNL     1     141.849 130.870 114.809  1.00  0.00     0.000 C 
BRANCH   4   5
ATOM      5  C   UNL     1     140.964 129.641 114.527  1.00  0.00     0.000 C 
BRANCH   5   6
ATOM      6  C   UNL     1     139.712 129.923 113.675  1.00  0.00     0.000 C 
BRANCH   6   7
ATOM      7  C   UNL     1     138.885 128.660 113.343  1.00  0.00     0.006 C 
BRANCH   7   8
ATOM      8  C   UNL     1     139.276 127.428 114.176  1.00  0.00     0.053 C 
BRANCH   8   9
ATOM      9  C   UNL     1     138.333 127.204 115.319  1.00  0.00     0.041 C 
ATOM     10  O   UNL     1     138.778 126.875 116.450  1.00  0.00    -0.550 OA
ATOM     11  O   UNL     1     136.963 127.338 115.131  1.00  0.00    -0.550 OA
ENDBRANCH   8   9
ENDBRANCH   7   8
ENDBRANCH   6   7
ENDBRANCH   5   6
ENDBRANCH   4   5
ENDBRANCH   3   4
ENDBRANCH   2   3
ENDBRANCH   1   2
BRANCH   1  12
ATOM     12  C   UNL     1     145.932 129.696 116.250  1.00  0.00     0.000 C 
BRANCH  12  13
ATOM     13  C   UNL     1     145.641 129.563 114.745  1.00  0.00    -0.000 C 
BRANCH  13  14
ATOM     14  C   UNL     1     145.624 128.088 114.288  1.00  0.00    -0.000 C 
BRANCH  14  15
ATOM     15  C   UNL     1     144.973 127.135 115.305  1.00  0.00    -0.000 C 
BRANCH  15  16
ATOM     16  C   UNL     1     143.441 127.253 115.340  1.00  0.00    -0.000 C 
BRANCH  16  17
ATOM     17  C   UNL     1     142.877 127.335 116.769  1.00  0.00    -0.000 C 
BRANCH  17  18
ATOM     18  C   UNL     1     143.857 126.931 117.890  1.00  0.00    -0.000 C 
BRANCH  18  19
ATOM     19  C   UNL     1     143.835 127.840 119.132  1.00  0.00    -0.003 C 
ATOM     20  C   UNL     1     142.627 128.774 119.165  1.00  0.00     0.004 C 
ENDBRANCH  18  19
ENDBRANCH  17  18
ENDBRANCH  16  17
ENDBRANCH  15  16
ENDBRANCH  14  15
ENDBRANCH  13  14
ENDBRANCH  12  13
ENDBRANCH   1  12
TORSDOF 16
ENDMDL
MODEL 5
REMARK VINA RESULT:    -3.969      3.094      5.415
REMARK INTER + INTRA:          -9.751
REMARK INTER:                  -6.975
REMARK INTRA:                  -2.776
REMARK UNBOUND:                -2.069
REMARK SMILES CCCCCCCCCCCCCCCCCC(=O)[O-]
REMARK SMILES IDX 10 1 11 2 12 3 13 4 14 5 15 6 16 7 17 8 18 9 19 10 20 11
REMARK SMILES IDX 9 12 8 13 7 14 6 15 5 16 4 17 3 18 2 19 1 20
REMARK H PARENT
REMARK Flexibility Score: inf
ROOT
ATOM      1  C   UNL     1     144.037 131.310 116.245  1.00  0.00     0.000 C 
ENDROOT
BRANCH   1   2
ATOM      2  C   UNL     1     143.275 130.818 117.487  1.00  0.00     0.000 C 
BRANCH   2   3
ATOM      3  C   UNL     1     141.765 131.050 117.331  1.00  0.00     0.000 C 
BRANCH   3   4
ATOM      4  C   UNL     1     140.918 129.922 117.948  1.00  0.00     0.000 C 
BRANCH   4   5
ATOM      5  C   UNL     1     141.562 129.204 119.148  1.00  0.00     0.000 C 
BRANCH   5   6
ATOM      6  C   UNL     1     141.782 127.691 118.960  1.00  0.00     0.000 C 
BRANCH   6   7
ATOM      7  C   UNL     1     143.268 127.267 118.999  1.00  0.00     0.006 C 
BRANCH   7   8
ATOM      8  C   UNL     1     144.139 128.143 119.914  1.00  0.00     0.053 C 
BRANCH   8   9
ATOM      9  C   UNL     1     145.590 128.058 119.553  1.00  0.00     0.041 C 
ATOM     10  O   UNL     1     146.465 127.995 120.457  1.00  0.00    -0.550 OA
ATOM     11  O   UNL     1     145.980 128.068 118.219  1.00  0.00    -0.550 OA
ENDBRANCH   8   9
ENDBRANCH   7   8
ENDBRANCH   6   7
ENDBRANCH   5   6
ENDBRANCH   4   5
ENDBRANCH   3   4
ENDBRANCH   2   3
ENDBRANCH   1   2
BRANCH   1  12
ATOM     12  C   UNL     1     145.560 131.288 116.445  1.00  0.00     0.000 C 
BRANCH  12  13
ATOM     13  C   UNL     1     146.266 130.288 115.511  1.00  0.00    -0.000 C 
BRANCH  13  14
ATOM     14  C   UNL     1     145.265 129.539 114.605  1.00  0.00    -0.000 C 
BRANCH  14  15
ATOM     15  C   UNL     1     145.488 128.018 114.565  1.00  0.00    -0.000 C 
BRANCH  15  16
ATOM     16  C   UNL     1     144.297 127.223 115.122  1.00  0.00    -0.000 C 
BRANCH  16  17
ATOM     17  C   UNL     1     142.979 128.017 115.096  1.00  0.00    -0.000 C 
BRANCH  17  18
ATOM     18  C   UNL     1     141.711 127.203 115.426  1.00  0.00    -0.000 C 
BRANCH  18  19
ATOM     19  C   UNL     1     140.431 127.677 114.715  1.00  0.00    -0.003 C 
ATOM     20  C   UNL     1     140.434 129.176 114.418  1.00  0.00     0.004 C 
ENDBRANCH  18  19
ENDBRANCH  17  18
ENDBRANCH  16  17
ENDBRANCH  15  16
ENDBRANCH  14  15
ENDBRANCH  13  14
ENDBRANCH  12  13
ENDBRANCH   1  12
TORSDOF 16
ENDMDL
MODEL 6
REMARK VINA RESULT:    -3.903      2.521      6.986
REMARK INTER + INTRA:          -9.622
REMARK INTER:                  -7.188
REMARK INTRA:                  -2.435
REMARK UNBOUND:                -2.069
REMARK SMILES CCCCCCCCCCCCCCCCCC(=O)[O-]
REMARK SMILES IDX 10 1 11 2 12 3 13 4 14 5 15 6 16 7 17 8 18 9 19 10 20 11
REMARK SMILES IDX 9 12 8 13 7 14 6 15 5 16 4 17 3 18 2 19 1 20
REMARK H PARENT
REMARK Flexibility Score: inf
ROOT
ATOM      1  C   UNL     1     141.619 129.009 116.552  1.00  0.00     0.000 C 
ENDROOT
BRANCH   1   2
ATOM      2  C   UNL     1     141.438 127.665 117.276  1.00  0.00     0.000 C 
BRANCH   2   3
ATOM      3  C   UNL     1     139.949 127.326 117.437  1.00  0.00     0.000 C 
BRANCH   3   4
ATOM      4  C   UNL     1     139.037 128.186 116.543  1.00  0.00     0.000 C 
BRANCH   4   5
ATOM      5  C   UNL     1     137.872 127.428 115.879  1.00  0.00     0.000 C 
BRANCH   5   6
ATOM      6  C   UNL     1     137.999 127.245 114.355  1.00  0.00     0.000 C 
BRANCH   6   7
ATOM      7  C   UNL     1     139.193 128.004 113.733  1.00  0.00     0.006 C 
BRANCH   7   8
ATOM      8  C   UNL     1     138.782 129.213 112.878  1.00  0.00     0.053 C 
BRANCH   8   9
ATOM      9  C   UNL     1     138.825 130.490 113.660  1.00  0.00     0.041 C 
ATOM     10  O   UNL     1     137.773 130.950 114.180  1.00  0.00    -0.550 OA
ATOM     11  O   UNL     1     140.020 131.185 113.799  1.00  0.00    -0.550 OA
ENDBRANCH   8   9
ENDBRANCH   7   8
ENDBRANCH   6   7
ENDBRANCH   5   6
ENDBRANCH   4   5
ENDBRANCH   3   4
ENDBRANCH   2   3
ENDBRANCH   1   2
BRANCH   1  12
ATOM     12  C   UNL     1     142.370 128.861 115.219  1.00  0.00     0.000 C 
BRANCH  12  13
ATOM     13  C   UNL     1     142.965 127.454 115.028  1.00  0.00    -0.000 C 
BRANCH  13  14
ATOM     14  C   UNL     1     144.497 127.446 115.216  1.00  0.00    -0.000 C 
BRANCH  14  15
ATOM     15  C   UNL     1     145.239 128.419 114.284  1.00  0.00    -0.000 C 
BRANCH  15  16
ATOM     16  C   UNL     1     146.033 129.491 115.047  1.00  0.00    -0.000 C 
BRANCH  16  17
ATOM     17  C   UNL     1     145.787 129.454 116.566  1.00  0.00    -0.000 C 
BRANCH  17  18
ATOM     18  C   UNL     1     145.132 130.718 117.160  1.00  0.00    -0.000 C 
BRANCH  18  19
ATOM     19  C   UNL     1     144.599 131.722 116.122  1.00  0.00    -0.003 C 
ATOM     20  C   UNL     1     145.376 133.037 116.113  1.00  0.00     0.004 C 
ENDBRANCH  18  19
ENDBRANCH  17  18
ENDBRANCH  16  17
ENDBRANCH  15  16
ENDBRANCH  14  15
ENDBRANCH  13  14
ENDBRANCH  12  13
ENDBRANCH   1  12
TORSDOF 16
ENDMDL
MODEL 7
REMARK VINA RESULT:    -3.870      2.891      3.862
REMARK INTER + INTRA:          -9.558
REMARK INTER:                  -7.259
REMARK INTRA:                  -2.299
REMARK UNBOUND:                -2.069
REMARK SMILES CCCCCCCCCCCCCCCCCC(=O)[O-]
REMARK SMILES IDX 10 1 11 2 12 3 13 4 14 5 15 6 16 7 17 8 18 9 19 10 20 11
REMARK SMILES IDX 9 12 8 13 7 14 6 15 5 16 4 17 3 18 2 19 1 20
REMARK H PARENT
REMARK Flexibility Score: inf
ROOT
ATOM      1  C   UNL     1     141.940 127.263 116.007  1.00  0.00     0.000 C 
ENDROOT
BRANCH   1   2
ATOM      2  C   UNL     1     142.804 127.976 114.955  1.00  0.00     0.000 C 
BRANCH   2   3
ATOM      3  C   UNL     1     144.269 127.524 115.051  1.00  0.00     0.000 C 
BRANCH   3   4
ATOM      4  C   UNL     1     145.262 128.599 114.573  1.00  0.00     0.000 C 
BRANCH   4   5
ATOM      5  C   UNL     1     145.983 129.366 115.698  1.00  0.00     0.000 C 
BRANCH   5   6
ATOM      6  C   UNL     1     145.074 130.259 116.563  1.00  0.00     0.000 C 
BRANCH   6   7
ATOM      7  C   UNL     1     145.396 130.200 118.074  1.00  0.00     0.006 C 
BRANCH   7   8
ATOM      8  C   UNL     1     144.506 129.224 118.859  1.00  0.00     0.053 C 
BRANCH   8   9
ATOM      9  C   UNL     1     145.048 127.827 118.832  1.00  0.00     0.041 C 
ATOM     10  O   UNL     1     144.325 126.876 118.435  1.00  0.00    -0.550 OA
ATOM     11  O   UNL     1     146.344 127.572 119.262  1.00  0.00    -0.550 OA
ENDBRANCH   8   9
ENDBRANCH   7   8
ENDBRANCH   6   7
ENDBRANCH   5   6
ENDBRANCH   4   5
ENDBRANCH   3   4
ENDBRANCH   2   3
ENDBRANCH   1   2
BRANCH   1  12
ATOM     12  C   UNL     1     141.425 128.222 117.092  1.00  0.00     0.000 C 
BRANCH  12  13
ATOM     13  C   UNL     1     140.817 127.482 118.297  1.00  0.00    -0.000 C 
BRANCH  13  14
ATOM     14  C   UNL     1     139.403 126.945 117.990  1.00  0.00    -0.000 C 
BRANCH  14  15
ATOM     15  C   UNL     1     138.514 127.946 117.232  1.00  0.00    -0.000 C 
BRANCH  15  16
ATOM     16  C   UNL     1     137.242 127.302 116.657  1.00  0.00    -0.000 C 
BRANCH  16  17
ATOM     17  C   UNL     1     137.215 127.293 115.119  1.00  0.00    -0.000 C 
BRANCH  17  18
ATOM     18  C   UNL     1     138.598 127.262 114.435  1.00  0.00    -0.000 C 
BRANCH  18  19
ATOM     19  C   UNL     1     138.844 128.388 113.415  1.00  0.00    -0.003 C 
ATOM     20  C   UNL     1     139.576 129.587 114.016  1.00  0.00     0.004 C 
ENDBRANCH  18  19
ENDBRANCH  17  18
ENDBRANCH  16  17
ENDBRANCH  15  16
ENDBRANCH  14  15
ENDBRANCH  13  14
ENDBRANCH  12  13
ENDBRANCH   1  12
TORSDOF 16
ENDMDL
MODEL 8
REMARK VINA RESULT:    -3.807     10.123     12.720
REMARK INTER + INTRA:          -9.438
REMARK INTER:                  -6.587
REMARK INTRA:                  -2.851
REMARK UNBOUND:                -2.069
REMARK SMILES CCCCCCCCCCCCCCCCCC(=O)[O-]
REMARK SMILES IDX 10 1 11 2 12 3 13 4 14 5 15 6 16 7 17 8 18 9 19 10 20 11
REMARK SMILES IDX 9 12 8 13 7 14 6 15 5 16 4 17 3 18 2 19 1 20
REMARK H PARENT
REMARK Flexibility Score: inf
ROOT
ATOM      1  C   UNL     1     133.059 130.432 116.733  1.00  0.00     0.000 C 
ENDROOT
BRANCH   1   2
ATOM      2  C   UNL     1     131.917 131.352 116.272  1.00  0.00     0.000 C 
BRANCH   2   3
ATOM      3  C   UNL     1     132.467 132.677 115.724  1.00  0.00     0.000 C 
BRANCH   3   4
ATOM      4  C   UNL     1     131.929 133.016 114.321  1.00  0.00     0.000 C 
BRANCH   4   5
ATOM      5  C   UNL     1     130.937 131.992 113.739  1.00  0.00     0.000 C 
BRANCH   5   6
ATOM      6  C   UNL     1     129.628 132.592 113.191  1.00  0.00     0.000 C 
BRANCH   6   7
ATOM      7  C   UNL     1     128.381 132.240 114.033  1.00  0.00     0.006 C 
BRANCH   7   8
ATOM      8  C   UNL     1     128.008 133.313 115.068  1.00  0.00     0.053 C 
BRANCH   8   9
ATOM      9  C   UNL     1     128.239 132.841 116.471  1.00  0.00     0.041 C 
ATOM     10  O   UNL     1     127.505 131.944 116.966  1.00  0.00    -0.550 OA
ATOM     11  O   UNL     1     129.249 133.403 117.240  1.00  0.00    -0.550 OA
ENDBRANCH   8   9
ENDBRANCH   7   8
ENDBRANCH   6   7
ENDBRANCH   5   6
ENDBRANCH   4   5
ENDBRANCH   3   4
ENDBRANCH   2   3
ENDBRANCH   1   2
BRANCH   1  12
ATOM     12  C   UNL     1     133.464 129.414 115.656  1.00  0.00     0.000 C 
BRANCH  12  13
ATOM     13  C   UNL     1     133.815 128.036 116.245  1.00  0.00    -0.000 C 
BRANCH  13  14
ATOM     14  C   UNL     1     133.076 126.892 115.517  1.00  0.00    -0.000 C 
BRANCH  14  15
ATOM     15  C   UNL     1     132.092 127.381 114.441  1.00  0.00    -0.000 C 
BRANCH  15  16
ATOM     16  C   UNL     1     130.622 127.162 114.830  1.00  0.00    -0.000 C 
BRANCH  16  17
ATOM     17  C   UNL     1     129.855 128.478 115.050  1.00  0.00    -0.000 C 
BRANCH  17  18
ATOM     18  C   UNL     1     129.455 128.773 116.511  1.00  0.00    -0.000 C 
BRANCH  18  19
ATOM     19  C   UNL     1     130.119 127.866 117.562  1.00  0.00    -0.003 C 
ATOM     20  C   UNL     1     130.512 128.617 118.833  1.00  0.00     0.004 C 
ENDBRANCH  18  19
ENDBRANCH  17  18
ENDBRANCH  16  17
ENDBRANCH  15  16
ENDBRANCH  14  15
ENDBRANCH  13  14
ENDBRANCH  12  13
ENDBRANCH   1  12
TORSDOF 16
ENDMDL
MODEL 9
REMARK VINA RESULT:    -3.726      3.656      6.389
REMARK INTER + INTRA:          -9.281
REMARK INTER:                  -6.436
REMARK INTRA:                  -2.845
REMARK UNBOUND:                -2.069
REMARK SMILES CCCCCCCCCCCCCCCCCC(=O)[O-]
REMARK SMILES IDX 10 1 11 2 12 3 13 4 14 5 15 6 16 7 17 8 18 9 19 10 20 11
REMARK SMILES IDX 9 12 8 13 7 14 6 15 5 16 4 17 3 18 2 19 1 20
REMARK H PARENT
REMARK Flexibility Score: inf
ROOT
ATOM      1  C   UNL     1     144.982 131.152 116.226  1.00  0.00     0.000 C 
ENDROOT
BRANCH   1   2
ATOM      2  C   UNL     1     144.919 131.295 117.755  1.00  0.00     0.000 C 
BRANCH   2   3
ATOM      3  C   UNL     1     145.003 129.922 118.438  1.00  0.00     0.000 C 
BRANCH   3   4
ATOM      4  C   UNL     1     143.620 129.330 118.768  1.00  0.00     0.000 C 
BRANCH   4   5
ATOM      5  C   UNL     1     143.647 128.050 119.624  1.00  0.00     0.000 C 
BRANCH   5   6
ATOM      6  C   UNL     1     142.262 127.499 120.014  1.00  0.00     0.000 C 
BRANCH   6   7
ATOM      7  C   UNL     1     141.110 128.026 119.129  1.00  0.00     0.006 C 
BRANCH   7   8
ATOM      8  C   UNL     1     140.000 126.993 118.876  1.00  0.00     0.053 C 
BRANCH   8   9
ATOM      9  C   UNL     1     138.962 127.508 117.926  1.00  0.00     0.041 C 
ATOM     10  O   UNL     1     138.702 126.875 116.869  1.00  0.00    -0.550 OA
ATOM     11  O   UNL     1     138.297 128.697 118.196  1.00  0.00    -0.550 OA
ENDBRANCH   8   9
ENDBRANCH   7   8
ENDBRANCH   6   7
ENDBRANCH   5   6
ENDBRANCH   4   5
ENDBRANCH   3   4
ENDBRANCH   2   3
ENDBRANCH   1   2
BRANCH   1  12
ATOM     12  C   UNL     1     145.957 130.051 115.779  1.00  0.00     0.000 C 
BRANCH  12  13
ATOM     13  C   UNL     1     145.614 129.483 114.391  1.00  0.00    -0.000 C 
BRANCH  13  14
ATOM     14  C   UNL     1     145.613 127.940 114.383  1.00  0.00    -0.000 C 
BRANCH  14  15
ATOM     15  C   UNL     1     145.498 127.316 115.784  1.00  0.00    -0.000 C 
BRANCH  15  16
ATOM     16  C   UNL     1     144.045 127.026 116.193  1.00  0.00    -0.000 C 
BRANCH  16  17
ATOM     17  C   UNL     1     143.043 127.241 115.044  1.00  0.00    -0.000 C 
BRANCH  17  18
ATOM     18  C   UNL     1     141.731 127.951 115.436  1.00  0.00    -0.000 C 
BRANCH  18  19
ATOM     19  C   UNL     1     141.849 129.473 115.635  1.00  0.00    -0.003 C 
ATOM     20  C   UNL     1     141.836 130.249 114.319  1.00  0.00     0.004 C 
ENDBRANCH  18  19
ENDBRANCH  17  18
ENDBRANCH  16  17
ENDBRANCH  15  16
ENDBRANCH  14  15
ENDBRANCH  13  14
ENDBRANCH  12  13
ENDBRANCH   1  12
TORSDOF 16
ENDMDL
