MODEL 1
REMARK VINA RESULT:    -5.423      0.000      0.000
REMARK INTER + INTRA:          -5.842
REMARK INTER:                  -5.740
REMARK INTRA:                  -0.102
REMARK UNBOUND:                -0.102
REMARK SMILES C=C(C)[C@H]1CC=C(C)C(=O)C1
REMARK SMILES IDX 8 1 7 2 6 3 5 4 4 5 11 6 9 7 10 8 2 9 1 10 3 11
REMARK H PARENT
REMARK Flexibility Score: inf
ROOT
ATOM      1  C   UNL     1       2.003 -18.104  -2.668  1.00  0.00     0.048 C 
ATOM      2  C   UNL     1       1.604 -18.930  -3.861  1.00  0.00    -0.012 C 
ATOM      3  C   UNL     1       2.028 -18.581  -5.087  1.00  0.00    -0.019 C 
ATOM      4  C   UNL     1       1.645 -19.362  -6.317  1.00  0.00     0.036 C 
ATOM      5  C   UNL     1       1.481 -20.859  -5.994  1.00  0.00     0.025 C 
ATOM      6  C   UNL     1       0.476 -21.052  -4.842  1.00  0.00     0.089 C 
ATOM      7  C   UNL     1       0.850 -20.193  -3.666  1.00  0.00     0.158 C 
ATOM      8  O   UNL     1       0.482 -20.541  -2.511  1.00  0.00    -0.295 OA
ENDROOT
BRANCH   5   9
ATOM      9  C   UNL     1       1.088 -21.662  -7.224  1.00  0.00    -0.077 C 
ATOM     10  C   UNL     1       0.507 -22.871  -7.117  1.00  0.00     0.008 C 
ATOM     11  C   UNL     1       1.360 -21.075  -8.584  1.00  0.00     0.039 C 
ENDBRANCH   5   9
TORSDOF 1
ENDMDL
MODEL 2
REMARK VINA RESULT:    -5.398      1.617      2.047
REMARK INTER + INTRA:          -5.815
REMARK INTER:                  -5.721
REMARK INTRA:                  -0.095
REMARK UNBOUND:                -0.102
REMARK SMILES C=C(C)[C@H]1CC=C(C)C(=O)C1
REMARK SMILES IDX 8 1 7 2 6 3 5 4 4 5 11 6 9 7 10 8 2 9 1 10 3 11
REMARK H PARENT
REMARK Flexibility Score: inf
ROOT
ATOM      1  C   UNL     1       2.532 -19.010  -2.222  1.00  0.00     0.048 C 
ATOM      2  C   UNL     1       2.200 -19.828  -3.440  1.00  0.00    -0.012 C 
ATOM      3  C   UNL     1       0.919 -20.120  -3.721  1.00  0.00    -0.019 C 
ATOM      4  C   UNL     1       0.532 -20.950  -4.917  1.00  0.00     0.036 C 
ATOM      5  C   UNL     1       1.508 -20.724  -6.087  1.00  0.00     0.025 C 
ATOM      6  C   UNL     1       2.956 -20.990  -5.636  1.00  0.00     0.089 C 
ATOM      7  C   UNL     1       3.274 -20.206  -4.393  1.00  0.00     0.158 C 
ATOM      8  O   UNL     1       4.473 -19.902  -4.148  1.00  0.00    -0.295 OA
ENDROOT
BRANCH   5   9
ATOM      9  C   UNL     1       1.135 -21.559  -7.302  1.00  0.00    -0.077 C 
ATOM     10  C   UNL     1       0.565 -22.771  -7.174  1.00  0.00     0.008 C 
ATOM     11  C   UNL     1       1.414 -21.001  -8.673  1.00  0.00     0.039 C 
ENDBRANCH   5   9
TORSDOF 1
ENDMDL
MODEL 3
REMARK VINA RESULT:    -5.386      0.123      1.060
REMARK INTER + INTRA:          -5.802
REMARK INTER:                  -5.704
REMARK INTRA:                  -0.098
REMARK UNBOUND:                -0.102
REMARK SMILES C=C(C)[C@H]1CC=C(C)C(=O)C1
REMARK SMILES IDX 8 1 7 2 6 3 5 4 4 5 11 6 9 7 10 8 2 9 1 10 3 11
REMARK H PARENT
REMARK Flexibility Score: inf
ROOT
ATOM      1  C   UNL     1       2.019 -18.098  -2.644  1.00  0.00     0.048 C 
ATOM      2  C   UNL     1       1.643 -18.885  -3.870  1.00  0.00    -0.012 C 
ATOM      3  C   UNL     1       2.085 -18.493  -5.077  1.00  0.00    -0.019 C 
ATOM      4  C   UNL     1       1.724 -19.233  -6.339  1.00  0.00     0.036 C 
ATOM      5  C   UNL     1       1.562 -20.740  -6.069  1.00  0.00     0.025 C 
ATOM      6  C   UNL     1       0.540 -20.976  -4.941  1.00  0.00     0.089 C 
ATOM      7  C   UNL     1       0.892 -20.157  -3.730  1.00  0.00     0.158 C 
ATOM      8  O   UNL     1       0.507 -20.544  -2.594  1.00  0.00    -0.295 OA
ENDROOT
BRANCH   5   9
ATOM      9  C   UNL     1       1.192 -21.503  -7.332  1.00  0.00    -0.077 C 
ATOM     10  C   UNL     1       1.427 -20.994  -8.554  1.00  0.00     0.008 C 
ATOM     11  C   UNL     1       0.552 -22.860  -7.192  1.00  0.00     0.039 C 
ENDBRANCH   5   9
TORSDOF 1
ENDMDL
MODEL 4
REMARK VINA RESULT:    -5.050      1.777      4.235
REMARK INTER + INTRA:          -5.447
REMARK INTER:                  -5.346
REMARK INTRA:                  -0.101
REMARK UNBOUND:                -0.102
REMARK SMILES C=C(C)[C@H]1CC=C(C)C(=O)C1
REMARK SMILES IDX 8 1 7 2 6 3 5 4 4 5 11 6 9 7 10 8 2 9 1 10 3 11
REMARK H PARENT
REMARK Flexibility Score: inf
ROOT
ATOM      1  C   UNL     1       1.542 -20.992  -8.899  1.00  0.00     0.048 C 
ATOM      2  C   UNL     1       1.587 -20.846  -7.402  1.00  0.00    -0.012 C 
ATOM      3  C   UNL     1       2.331 -19.874  -6.848  1.00  0.00    -0.019 C 
ATOM      4  C   UNL     1       2.427 -19.694  -5.356  1.00  0.00     0.036 C 
ATOM      5  C   UNL     1       1.111 -20.096  -4.664  1.00  0.00     0.025 C 
ATOM      6  C   UNL     1       0.718 -21.534  -5.055  1.00  0.00     0.089 C 
ATOM      7  C   UNL     1       0.715 -21.692  -6.550  1.00  0.00     0.158 C 
ATOM      8  O   UNL     1      -0.011 -22.581  -7.072  1.00  0.00    -0.295 OA
ENDROOT
BRANCH   5   9
ATOM      9  C   UNL     1       1.191 -19.925  -3.155  1.00  0.00    -0.077 C 
ATOM     10  C   UNL     1       0.508 -20.729  -2.320  1.00  0.00     0.008 C 
ATOM     11  C   UNL     1       2.062 -18.829  -2.599  1.00  0.00     0.039 C 
ENDBRANCH   5   9
TORSDOF 1
ENDMDL
MODEL 5
REMARK VINA RESULT:    -4.905      1.947      4.689
REMARK INTER + INTRA:          -5.293
REMARK INTER:                  -5.202
REMARK INTRA:                  -0.092
REMARK UNBOUND:                -0.102
REMARK SMILES C=C(C)[C@H]1CC=C(C)C(=O)C1
REMARK SMILES IDX 8 1 7 2 6 3 5 4 4 5 11 6 9 7 10 8 2 9 1 10 3 11
REMARK H PARENT
REMARK Flexibility Score: inf
ROOT
ATOM      1  C   UNL     1       0.827 -22.508  -7.516  1.00  0.00     0.048 C 
ATOM      2  C   UNL     1       0.995 -21.425  -6.485  1.00  0.00    -0.012 C 
ATOM      3  C   UNL     1       0.346 -21.514  -5.311  1.00  0.00    -0.019 C 
ATOM      4  C   UNL     1       0.464 -20.450  -4.252  1.00  0.00     0.036 C 
ATOM      5  C   UNL     1       1.860 -19.799  -4.274  1.00  0.00     0.025 C 
ATOM      6  C   UNL     1       2.178 -19.259  -5.681  1.00  0.00     0.089 C 
ATOM      7  C   UNL     1       1.968 -20.329  -6.716  1.00  0.00     0.158 C 
ATOM      8  O   UNL     1       2.604 -20.265  -7.803  1.00  0.00    -0.295 OA
ENDROOT
BRANCH   5   9
ATOM      9  C   UNL     1       1.995 -18.717  -3.212  1.00  0.00    -0.077 C 
ATOM     10  C   UNL     1       2.762 -18.896  -2.122  1.00  0.00     0.008 C 
ATOM     11  C   UNL     1       1.250 -17.422  -3.405  1.00  0.00     0.039 C 
ENDBRANCH   5   9
TORSDOF 1
ENDMDL
MODEL 6
REMARK VINA RESULT:    -4.711      2.739      3.035
REMARK INTER + INTRA:          -5.088
REMARK INTER:                  -4.990
REMARK INTRA:                  -0.098
REMARK UNBOUND:                -0.102
REMARK SMILES C=C(C)[C@H]1CC=C(C)C(=O)C1
REMARK SMILES IDX 8 1 7 2 6 3 5 4 4 5 11 6 9 7 10 8 2 9 1 10 3 11
REMARK H PARENT
REMARK Flexibility Score: inf
ROOT
ATOM      1  C   UNL     1       6.305 -20.973  -4.144  1.00  0.00     0.048 C 
ATOM      2  C   UNL     1       5.057 -20.945  -4.983  1.00  0.00    -0.012 C 
ATOM      3  C   UNL     1       5.104 -21.341  -6.265  1.00  0.00    -0.019 C 
ATOM      4  C   UNL     1       3.889 -21.317  -7.155  1.00  0.00     0.036 C 
ATOM      5  C   UNL     1       2.606 -21.591  -6.347  1.00  0.00     0.025 C 
ATOM      6  C   UNL     1       2.490 -20.602  -5.173  1.00  0.00     0.089 C 
ATOM      7  C   UNL     1       3.755 -20.598  -4.359  1.00  0.00     0.158 C 
ATOM      8  O   UNL     1       3.704 -20.260  -3.146  1.00  0.00    -0.295 OA
ENDROOT
BRANCH   5   9
ATOM      9  C   UNL     1       1.367 -21.565  -7.229  1.00  0.00    -0.077 C 
ATOM     10  C   UNL     1       0.198 -22.083  -6.814  1.00  0.00     0.008 C 
ATOM     11  C   UNL     1       1.468 -20.936  -8.595  1.00  0.00     0.039 C 
ENDBRANCH   5   9
TORSDOF 1
ENDMDL
MODEL 7
REMARK VINA RESULT:    -4.679      1.996      3.960
REMARK INTER + INTRA:          -5.054
REMARK INTER:                  -4.953
REMARK INTRA:                  -0.101
REMARK UNBOUND:                -0.102
REMARK SMILES C=C(C)[C@H]1CC=C(C)C(=O)C1
REMARK SMILES IDX 8 1 7 2 6 3 5 4 4 5 11 6 9 7 10 8 2 9 1 10 3 11
REMARK H PARENT
REMARK Flexibility Score: inf
ROOT
ATOM      1  C   UNL     1      -0.226 -22.495  -6.393  1.00  0.00     0.048 C 
ATOM      2  C   UNL     1       1.013 -21.642  -6.400  1.00  0.00    -0.012 C 
ATOM      3  C   UNL     1       1.830 -21.658  -7.467  1.00  0.00    -0.019 C 
ATOM      4  C   UNL     1       3.091 -20.837  -7.519  1.00  0.00     0.036 C 
ATOM      5  C   UNL     1       2.927 -19.519  -6.738  1.00  0.00     0.025 C 
ATOM      6  C   UNL     1       2.476 -19.805  -5.294  1.00  0.00     0.089 C 
ATOM      7  C   UNL     1       1.263 -20.694  -5.286  1.00  0.00     0.158 C 
ATOM      8  O   UNL     1       0.478 -20.652  -4.300  1.00  0.00    -0.295 OA
ENDROOT
BRANCH   5   9
ATOM      9  C   UNL     1       4.195 -18.679  -6.776  1.00  0.00    -0.077 C 
ATOM     10  C   UNL     1       4.329 -17.576  -6.019  1.00  0.00     0.008 C 
ATOM     11  C   UNL     1       5.317 -19.109  -7.685  1.00  0.00     0.039 C 
ENDBRANCH   5   9
TORSDOF 1
ENDMDL
MODEL 8
REMARK VINA RESULT:    -4.672      2.662      3.918
REMARK INTER + INTRA:          -5.046
REMARK INTER:                  -4.949
REMARK INTRA:                  -0.098
REMARK UNBOUND:                -0.102
REMARK SMILES C=C(C)[C@H]1CC=C(C)C(=O)C1
REMARK SMILES IDX 8 1 7 2 6 3 5 4 4 5 11 6 9 7 10 8 2 9 1 10 3 11
REMARK H PARENT
REMARK Flexibility Score: inf
ROOT
ATOM      1  C   UNL     1       5.652 -19.079  -7.999  1.00  0.00     0.048 C 
ATOM      2  C   UNL     1       4.317 -19.548  -7.489  1.00  0.00    -0.012 C 
ATOM      3  C   UNL     1       3.825 -20.731  -7.893  1.00  0.00    -0.019 C 
ATOM      4  C   UNL     1       2.486 -21.241  -7.428  1.00  0.00     0.036 C 
ATOM      5  C   UNL     1       2.183 -20.771  -5.993  1.00  0.00     0.025 C 
ATOM      6  C   UNL     1       2.289 -19.237  -5.898  1.00  0.00     0.089 C 
ATOM      7  C   UNL     1       3.606 -18.764  -6.448  1.00  0.00     0.158 C 
ATOM      8  O   UNL     1       4.084 -17.671  -6.041  1.00  0.00    -0.295 OA
ENDROOT
BRANCH   5   9
ATOM      9  C   UNL     1       0.831 -21.272  -5.508  1.00  0.00    -0.077 C 
ATOM     10  C   UNL     1       0.149 -22.216  -6.182  1.00  0.00     0.008 C 
ATOM     11  C   UNL     1       0.260 -20.692  -4.241  1.00  0.00     0.039 C 
ENDBRANCH   5   9
TORSDOF 1
ENDMDL
MODEL 9
REMARK VINA RESULT:    -4.623      3.454      4.074
REMARK INTER + INTRA:          -4.995
REMARK INTER:                  -4.897
REMARK INTRA:                  -0.098
REMARK UNBOUND:                -0.102
REMARK SMILES C=C(C)[C@H]1CC=C(C)C(=O)C1
REMARK SMILES IDX 8 1 7 2 6 3 5 4 4 5 11 6 9 7 10 8 2 9 1 10 3 11
REMARK H PARENT
REMARK Flexibility Score: inf
ROOT
ATOM      1  C   UNL     1       7.398 -20.144  -6.230  1.00  0.00     0.048 C 
ATOM      2  C   UNL     1       5.921 -20.281  -6.478  1.00  0.00    -0.012 C 
ATOM      3  C   UNL     1       5.383 -19.780  -7.603  1.00  0.00    -0.019 C 
ATOM      4  C   UNL     1       3.908 -19.873  -7.893  1.00  0.00     0.036 C 
ATOM      5  C   UNL     1       3.308 -21.163  -7.302  1.00  0.00     0.025 C 
ATOM      6  C   UNL     1       3.613 -21.255  -5.796  1.00  0.00     0.089 C 
ATOM      7  C   UNL     1       5.085 -21.074  -5.544  1.00  0.00     0.158 C 
ATOM      8  O   UNL     1       5.596 -21.576  -4.506  1.00  0.00    -0.295 OA
ENDROOT
BRANCH   5   9
ATOM      9  C   UNL     1       1.817 -21.271  -7.581  1.00  0.00    -0.077 C 
ATOM     10  C   UNL     1       1.297 -20.917  -8.771  1.00  0.00     0.008 C 
ATOM     11  C   UNL     1       0.916 -21.791  -6.492  1.00  0.00     0.039 C 
ENDBRANCH   5   9
TORSDOF 1
ENDMDL
