MODEL 1
REMARK VINA RESULT:    -3.266      0.000      0.000
REMARK INTER + INTRA:          -6.396
REMARK INTER:                  -4.985
REMARK INTRA:                  -1.412
REMARK UNBOUND:                -1.412
REMARK SMILES COc1cc(C=CCOC(=O)C=Cc2ccc(O)c(OC)c2)ccc1O
REMARK SMILES IDX 9 1 8 2 7 3 6 4 5 5 3 6 25 7 4 8 24 9 23 10 2 11 1 12 26 13
REMARK SMILES IDX 10 15 11 16 12 17 13 18 14 19 22 20 15 21 19 22 16 23 17 24
REMARK SMILES IDX 20 25 21 26 18 27
REMARK H PARENT 26 14 18 28
REMARK Flexibility Score: inf
ROOT
ATOM      1  O   UNL     1      -9.940  13.898  30.756  1.00  0.00    -0.458 OA
ENDROOT
BRANCH   1   2
ATOM      2  C   UNL     1     -10.502  13.040  31.745  1.00  0.00     0.261 C 
BRANCH   2   3
ATOM      3  C   UNL     1     -10.303  13.624  33.112  1.00  0.00     0.015 C 
ATOM      4  C   UNL     1      -9.262  14.420  33.390  1.00  0.00     0.007 C 
BRANCH   4   5
ATOM      5  C   UNL     1      -8.991  14.984  34.736  1.00  0.00    -0.022 A 
ATOM      6  C   UNL     1      -7.375  15.942  36.304  1.00  0.00     0.161 A 
ATOM      7  C   UNL     1      -8.392  16.089  37.256  1.00  0.00     0.157 A 
ATOM      8  C   UNL     1      -7.683  15.394  35.042  1.00  0.00     0.058 A 
ATOM      9  C   UNL     1      -9.702  15.696  36.951  1.00  0.00     0.051 A 
ATOM     10  C   UNL     1     -10.003  15.152  35.701  1.00  0.00     0.012 A 
BRANCH   6  11
ATOM     11  O   UNL     1      -6.077  16.351  36.645  1.00  0.00    -0.493 OA
ATOM     12  C   UNL     1      -5.086  16.758  35.707  1.00  0.00     0.278 C 
ENDBRANCH   6  11
BRANCH   7  13
ATOM     13  O   UNL     1      -8.094  16.629  38.505  1.00  0.00    -0.504 OA
ATOM     14  H   UNL     1      -7.343  16.260  39.078  1.00  0.00     0.293 HD
ENDBRANCH   7  13
ENDBRANCH   4   5
ENDBRANCH   2   3
ENDBRANCH   1   2
BRANCH   1  15
ATOM     15  C   UNL     1     -10.690  14.818  30.013  1.00  0.00     0.331 C 
ATOM     16  O   UNL     1     -11.048  14.543  28.836  1.00  0.00    -0.247 OA
BRANCH  15  17
ATOM     17  C   UNL     1     -11.125  16.096  30.608  1.00  0.00     0.094 C 
ATOM     18  C   UNL     1     -10.306  17.074  31.026  1.00  0.00     0.016 C 
BRANCH  18  19
ATOM     19  C   UNL     1      -8.848  17.121  30.798  1.00  0.00    -0.021 A 
ATOM     20  C   UNL     1      -8.356  17.107  29.485  1.00  0.00     0.058 A 
ATOM     21  C   UNL     1      -7.945  17.088  31.873  1.00  0.00     0.012 A 
ATOM     22  C   UNL     1      -6.969  17.115  29.239  1.00  0.00     0.161 A 
ATOM     23  C   UNL     1      -6.570  17.097  31.636  1.00  0.00     0.051 A 
ATOM     24  C   UNL     1      -6.080  17.114  30.324  1.00  0.00     0.157 A 
BRANCH  22  25
ATOM     25  O   UNL     1      -6.438  17.121  27.939  1.00  0.00    -0.493 OA
ATOM     26  C   UNL     1      -7.197  16.882  26.759  1.00  0.00     0.278 C 
ENDBRANCH  22  25
BRANCH  24  27
ATOM     27  O   UNL     1      -4.705  17.125  30.088  1.00  0.00    -0.504 OA
ATOM     28  H   UNL     1      -4.041  16.870  30.810  1.00  0.00     0.293 HD
ENDBRANCH  24  27
ENDBRANCH  18  19
ENDBRANCH  15  17
ENDBRANCH   1  15
TORSDOF 10
ENDMDL
MODEL 2
REMARK VINA RESULT:    -2.165      1.678      2.376
REMARK INTER + INTRA:          -4.716
REMARK INTER:                  -4.593
REMARK INTRA:                  -0.123
REMARK UNBOUND:                -1.412
REMARK SMILES COc1cc(C=CCOC(=O)C=Cc2ccc(O)c(OC)c2)ccc1O
REMARK SMILES IDX 9 1 8 2 7 3 6 4 5 5 3 6 25 7 4 8 24 9 23 10 2 11 1 12 26 13
REMARK SMILES IDX 10 15 11 16 12 17 13 18 14 19 22 20 15 21 19 22 16 23 17 24
REMARK SMILES IDX 20 25 21 26 18 27
REMARK H PARENT 26 14 18 28
REMARK Flexibility Score: inf
ROOT
ATOM      1  O   UNL     1      -9.987  14.746  28.729  1.00  0.00    -0.458 OA
ENDROOT
BRANCH   1   2
ATOM      2  C   UNL     1     -10.958  14.500  29.742  1.00  0.00     0.261 C 
BRANCH   2   3
ATOM      3  C   UNL     1     -10.337  14.642  31.100  1.00  0.00     0.015 C 
ATOM      4  C   UNL     1     -10.987  15.232  32.112  1.00  0.00     0.007 C 
BRANCH   4   5
ATOM      5  C   UNL     1     -10.401  15.442  33.459  1.00  0.00    -0.022 A 
ATOM      6  C   UNL     1      -8.487  16.155  34.807  1.00  0.00     0.161 A 
ATOM      7  C   UNL     1      -9.219  15.897  35.973  1.00  0.00     0.157 A 
ATOM      8  C   UNL     1      -9.087  15.931  33.551  1.00  0.00     0.058 A 
ATOM      9  C   UNL     1     -10.535  15.425  35.887  1.00  0.00     0.051 A 
ATOM     10  C   UNL     1     -11.125  15.203  34.642  1.00  0.00     0.012 A 
BRANCH   6  11
ATOM     11  O   UNL     1      -7.173  16.632  34.934  1.00  0.00    -0.493 OA
ATOM     12  C   UNL     1      -6.006  15.842  34.732  1.00  0.00     0.278 C 
ENDBRANCH   6  11
BRANCH   7  13
ATOM     13  O   UNL     1      -8.631  16.116  37.218  1.00  0.00    -0.504 OA
ATOM     14  H   UNL     1      -9.161  16.027  38.078  1.00  0.00     0.293 HD
ENDBRANCH   7  13
ENDBRANCH   4   5
ENDBRANCH   2   3
ENDBRANCH   1   2
BRANCH   1  15
ATOM     15  C   UNL     1     -10.268  14.692  27.358  1.00  0.00     0.331 C 
ATOM     16  O   UNL     1     -10.892  13.709  26.876  1.00  0.00    -0.247 OA
BRANCH  15  17
ATOM     17  C   UNL     1      -9.895  15.805  26.465  1.00  0.00     0.094 C 
ATOM     18  C   UNL     1      -9.031  16.786  26.769  1.00  0.00     0.016 C 
BRANCH  18  19
ATOM     19  C   UNL     1      -8.171  16.823  27.969  1.00  0.00    -0.021 A 
ATOM     20  C   UNL     1      -6.820  16.461  27.859  1.00  0.00     0.058 A 
ATOM     21  C   UNL     1      -8.702  17.125  29.233  1.00  0.00     0.012 A 
ATOM     22  C   UNL     1      -5.985  16.453  28.994  1.00  0.00     0.161 A 
ATOM     23  C   UNL     1      -7.880  17.119  30.361  1.00  0.00     0.051 A 
ATOM     24  C   UNL     1      -6.524  16.788  30.244  1.00  0.00     0.157 A 
BRANCH  22  25
ATOM     25  O   UNL     1      -4.624  16.117  28.920  1.00  0.00    -0.493 OA
ATOM     26  C   UNL     1      -3.854  16.132  27.722  1.00  0.00     0.278 C 
ENDBRANCH  22  25
BRANCH  24  27
ATOM     27  O   UNL     1      -5.703  16.785  31.372  1.00  0.00    -0.504 OA
ATOM     28  H   UNL     1      -5.631  15.973  31.973  1.00  0.00     0.293 HD
ENDBRANCH  24  27
ENDBRANCH  18  19
ENDBRANCH  15  17
ENDBRANCH   1  15
TORSDOF 10
ENDMDL
MODEL 3
REMARK VINA RESULT:    -1.988      2.257      6.377
REMARK INTER + INTRA:          -4.445
REMARK INTER:                  -4.314
REMARK INTRA:                  -0.131
REMARK UNBOUND:                -1.412
REMARK SMILES COc1cc(C=CCOC(=O)C=Cc2ccc(O)c(OC)c2)ccc1O
REMARK SMILES IDX 9 1 8 2 7 3 6 4 5 5 3 6 25 7 4 8 24 9 23 10 2 11 1 12 26 13
REMARK SMILES IDX 10 15 11 16 12 17 13 18 14 19 22 20 15 21 19 22 16 23 17 24
REMARK SMILES IDX 20 25 21 26 18 27
REMARK H PARENT 26 14 18 28
REMARK Flexibility Score: inf
ROOT
ATOM      1  O   UNL     1      -7.847  13.581  33.555  1.00  0.00    -0.458 OA
ENDROOT
BRANCH   1   2
ATOM      2  C   UNL     1      -9.084  13.683  32.856  1.00  0.00     0.261 C 
BRANCH   2   3
ATOM      3  C   UNL     1      -8.857  14.239  31.481  1.00  0.00     0.015 C 
ATOM      4  C   UNL     1      -9.759  15.030  30.886  1.00  0.00     0.007 C 
BRANCH   4   5
ATOM      5  C   UNL     1      -9.608  15.565  29.510  1.00  0.00    -0.022 A 
ATOM      6  C   UNL     1      -8.114  16.295  27.714  1.00  0.00     0.161 A 
ATOM      7  C   UNL     1      -9.226  16.553  26.901  1.00  0.00     0.157 A 
ATOM      8  C   UNL     1      -8.313  15.795  29.017  1.00  0.00     0.058 A 
ATOM      9  C   UNL     1     -10.519  16.311  27.382  1.00  0.00     0.051 A 
ATOM     10  C   UNL     1     -10.711  15.817  28.673  1.00  0.00     0.012 A 
BRANCH   6  11
ATOM     11  O   UNL     1      -6.835  16.545  27.196  1.00  0.00    -0.493 OA
ATOM     12  C   UNL     1      -5.618  16.168  27.832  1.00  0.00     0.278 C 
ENDBRANCH   6  11
BRANCH   7  13
ATOM     13  O   UNL     1      -9.037  17.049  25.612  1.00  0.00    -0.504 OA
ATOM     14  H   UNL     1      -8.397  17.813  25.426  1.00  0.00     0.293 HD
ENDBRANCH   7  13
ENDBRANCH   4   5
ENDBRANCH   2   3
ENDBRANCH   1   2
BRANCH   1  15
ATOM     15  C   UNL     1      -7.415  14.514  34.505  1.00  0.00     0.331 C 
ATOM     16  O   UNL     1      -6.508  14.211  35.326  1.00  0.00    -0.247 OA
BRANCH  15  17
ATOM     17  C   UNL     1      -7.968  15.881  34.529  1.00  0.00     0.094 C 
ATOM     18  C   UNL     1      -7.252  17.009  34.395  1.00  0.00     0.016 C 
BRANCH  18  19
ATOM     19  C   UNL     1      -5.825  17.073  34.019  1.00  0.00    -0.021 A 
ATOM     20  C   UNL     1      -5.470  17.075  32.662  1.00  0.00     0.058 A 
ATOM     21  C   UNL     1      -4.816  17.038  34.995  1.00  0.00     0.012 A 
ATOM     22  C   UNL     1      -4.116  17.100  32.276  1.00  0.00     0.161 A 
ATOM     23  C   UNL     1      -3.472  17.064  34.618  1.00  0.00     0.051 A 
ATOM     24  C   UNL     1      -3.120  17.098  33.263  1.00  0.00     0.157 A 
BRANCH  22  25
ATOM     25  O   UNL     1      -3.721  17.124  30.928  1.00  0.00    -0.493 OA
ATOM     26  C   UNL     1      -2.484  16.613  30.442  1.00  0.00     0.278 C 
ENDBRANCH  22  25
BRANCH  24  27
ATOM     27  O   UNL     1      -1.777  17.125  32.888  1.00  0.00    -0.504 OA
ATOM     28  H   UNL     1      -1.484  16.894  31.946  1.00  0.00     0.293 HD
ENDBRANCH  24  27
ENDBRANCH  18  19
ENDBRANCH  15  17
ENDBRANCH   1  15
TORSDOF 10
ENDMDL
MODEL 4
REMARK VINA RESULT:    -1.233      2.160      5.094
REMARK INTER + INTRA:          -3.293
REMARK INTER:                  -4.264
REMARK INTRA:                   0.971
REMARK UNBOUND:                -1.412
REMARK SMILES COc1cc(C=CCOC(=O)C=Cc2ccc(O)c(OC)c2)ccc1O
REMARK SMILES IDX 9 1 8 2 7 3 6 4 5 5 3 6 25 7 4 8 24 9 23 10 2 11 1 12 26 13
REMARK SMILES IDX 10 15 11 16 12 17 13 18 14 19 22 20 15 21 19 22 16 23 17 24
REMARK SMILES IDX 20 25 21 26 18 27
REMARK H PARENT 26 14 18 28
REMARK Flexibility Score: inf
ROOT
ATOM      1  O   UNL     1      -7.789  15.502  27.237  1.00  0.00    -0.458 OA
ENDROOT
BRANCH   1   2
ATOM      2  C   UNL     1      -6.666  15.446  28.110  1.00  0.00     0.261 C 
BRANCH   2   3
ATOM      3  C   UNL     1      -7.026  16.006  29.454  1.00  0.00     0.015 C 
ATOM      4  C   UNL     1      -6.922  15.273  30.571  1.00  0.00     0.007 C 
BRANCH   4   5
ATOM      5  C   UNL     1      -7.312  15.761  31.917  1.00  0.00    -0.022 A 
ATOM      6  C   UNL     1      -8.893  15.677  33.783  1.00  0.00     0.161 A 
ATOM      7  C   UNL     1      -8.113  16.609  34.479  1.00  0.00     0.157 A 
ATOM      8  C   UNL     1      -8.483  15.252  32.503  1.00  0.00     0.058 A 
ATOM      9  C   UNL     1      -6.936  17.108  33.907  1.00  0.00     0.051 A 
ATOM     10  C   UNL     1      -6.534  16.686  32.639  1.00  0.00     0.012 A 
BRANCH   6  11
ATOM     11  O   UNL     1     -10.063  15.197  34.392  1.00  0.00    -0.493 OA
ATOM     12  C   UNL     1     -10.961  15.995  35.156  1.00  0.00     0.278 C 
ENDBRANCH   6  11
BRANCH   7  13
ATOM     13  O   UNL     1      -8.513  17.034  35.745  1.00  0.00    -0.504 OA
ATOM     14  H   UNL     1      -7.879  17.525  36.366  1.00  0.00     0.293 HD
ENDBRANCH   7  13
ENDBRANCH   4   5
ENDBRANCH   2   3
ENDBRANCH   1   2
BRANCH   1  15
ATOM     15  C   UNL     1      -9.052  15.964  27.628  1.00  0.00     0.331 C 
ATOM     16  O   UNL     1      -9.155  16.867  28.502  1.00  0.00    -0.247 OA
BRANCH  15  17
ATOM     17  C   UNL     1     -10.278  15.449  26.989  1.00  0.00     0.094 C 
ATOM     18  C   UNL     1     -11.124  14.563  27.538  1.00  0.00     0.016 C 
BRANCH  18  19
ATOM     19  C   UNL     1     -11.077  14.093  28.936  1.00  0.00    -0.021 A 
ATOM     20  C   UNL     1     -11.093  12.716  29.200  1.00  0.00     0.058 A 
ATOM     21  C   UNL     1     -11.109  15.000  30.007  1.00  0.00     0.012 A 
ATOM     22  C   UNL     1     -11.085  12.240  30.527  1.00  0.00     0.161 A 
ATOM     23  C   UNL     1     -11.100  14.535  31.324  1.00  0.00     0.051 A 
ATOM     24  C   UNL     1     -11.085  13.159  31.586  1.00  0.00     0.157 A 
BRANCH  22  25
ATOM     25  O   UNL     1     -11.080  10.869  30.831  1.00  0.00    -0.493 OA
ATOM     26  C   UNL     1      -9.931  10.032  30.756  1.00  0.00     0.278 C 
ENDBRANCH  22  25
BRANCH  24  27
ATOM     27  O   UNL     1     -11.074  12.695  32.901  1.00  0.00    -0.504 OA
ATOM     28  H   UNL     1     -10.446  13.084  33.595  1.00  0.00     0.293 HD
ENDBRANCH  24  27
ENDBRANCH  18  19
ENDBRANCH  15  17
ENDBRANCH   1  15
TORSDOF 10
ENDMDL
MODEL 5
REMARK VINA RESULT:    -0.668      4.952      8.808
REMARK INTER + INTRA:          -2.432
REMARK INTER:                  -2.538
REMARK INTRA:                   0.107
REMARK UNBOUND:                -1.412
REMARK SMILES COc1cc(C=CCOC(=O)C=Cc2ccc(O)c(OC)c2)ccc1O
REMARK SMILES IDX 9 1 8 2 7 3 6 4 5 5 3 6 25 7 4 8 24 9 23 10 2 11 1 12 26 13
REMARK SMILES IDX 10 15 11 16 12 17 13 18 14 19 22 20 15 21 19 22 16 23 17 24
REMARK SMILES IDX 20 25 21 26 18 27
REMARK H PARENT 26 14 18 28
REMARK Flexibility Score: inf
ROOT
ATOM      1  O   UNL     1      -4.660  16.216  29.283  1.00  0.00    -0.458 OA
ENDROOT
BRANCH   1   2
ATOM      2  C   UNL     1      -4.340  17.034  28.161  1.00  0.00     0.261 C 
BRANCH   2   3
ATOM      3  C   UNL     1      -2.865  16.989  27.892  1.00  0.00     0.015 C 
ATOM      4  C   UNL     1      -1.967  17.112  28.879  1.00  0.00     0.007 C 
BRANCH   4   5
ATOM      5  C   UNL     1      -0.499  17.125  28.661  1.00  0.00    -0.022 A 
ATOM      6  C   UNL     1       1.748  17.121  29.631  1.00  0.00     0.161 A 
ATOM      7  C   UNL     1       2.299  17.121  28.343  1.00  0.00     0.157 A 
ATOM      8  C   UNL     1       0.347  17.117  29.783  1.00  0.00     0.058 A 
ATOM      9  C   UNL     1       1.461  17.112  27.220  1.00  0.00     0.051 A 
ATOM     10  C   UNL     1       0.073  17.110  27.375  1.00  0.00     0.012 A 
BRANCH   6  11
ATOM     11  O   UNL     1       2.620  17.125  30.730  1.00  0.00    -0.493 OA
ATOM     12  C   UNL     1       3.382  16.001  31.161  1.00  0.00     0.278 C 
ENDBRANCH   6  11
BRANCH   7  13
ATOM     13  O   UNL     1       3.684  17.125  28.185  1.00  0.00    -0.504 OA
ATOM     14  H   UNL     1       4.171  16.350  27.748  1.00  0.00     0.293 HD
ENDBRANCH   7  13
ENDBRANCH   4   5
ENDBRANCH   2   3
ENDBRANCH   1   2
BRANCH   1  15
ATOM     15  C   UNL     1      -5.970  15.883  29.650  1.00  0.00     0.331 C 
ATOM     16  O   UNL     1      -6.281  14.683  29.873  1.00  0.00    -0.247 OA
BRANCH  15  17
ATOM     17  C   UNL     1      -6.992  16.929  29.838  1.00  0.00     0.094 C 
ATOM     18  C   UNL     1      -8.049  16.841  30.662  1.00  0.00     0.016 C 
BRANCH  18  19
ATOM     19  C   UNL     1      -8.270  15.768  31.651  1.00  0.00    -0.021 A 
ATOM     20  C   UNL     1      -7.520  15.758  32.836  1.00  0.00     0.058 A 
ATOM     21  C   UNL     1      -9.152  14.708  31.386  1.00  0.00     0.012 A 
ATOM     22  C   UNL     1      -7.685  14.726  33.781  1.00  0.00     0.161 A 
ATOM     23  C   UNL     1      -9.322  13.684  32.319  1.00  0.00     0.051 A 
ATOM     24  C   UNL     1      -8.594  13.691  33.516  1.00  0.00     0.157 A 
BRANCH  22  25
ATOM     25  O   UNL     1      -6.967  14.692  34.987  1.00  0.00    -0.493 OA
ATOM     26  C   UNL     1      -6.462  15.843  35.656  1.00  0.00     0.278 C 
ENDBRANCH  22  25
BRANCH  24  27
ATOM     27  O   UNL     1      -8.766  12.669  34.447  1.00  0.00    -0.504 OA
ATOM     28  H   UNL     1      -8.966  12.866  35.421  1.00  0.00     0.293 HD
ENDBRANCH  24  27
ENDBRANCH  18  19
ENDBRANCH  15  17
ENDBRANCH   1  15
TORSDOF 10
ENDMDL
MODEL 6
REMARK VINA RESULT:    -0.626      4.973      8.753
REMARK INTER + INTRA:          -2.367
REMARK INTER:                  -2.488
REMARK INTRA:                   0.121
REMARK UNBOUND:                -1.412
REMARK SMILES COc1cc(C=CCOC(=O)C=Cc2ccc(O)c(OC)c2)ccc1O
REMARK SMILES IDX 9 1 8 2 7 3 6 4 5 5 3 6 25 7 4 8 24 9 23 10 2 11 1 12 26 13
REMARK SMILES IDX 10 15 11 16 12 17 13 18 14 19 22 20 15 21 19 22 16 23 17 24
REMARK SMILES IDX 20 25 21 26 18 27
REMARK H PARENT 26 14 18 28
REMARK Flexibility Score: inf
ROOT
ATOM      1  O   UNL     1      -4.664  16.233  29.289  1.00  0.00    -0.458 OA
ENDROOT
BRANCH   1   2
ATOM      2  C   UNL     1      -4.357  17.035  28.153  1.00  0.00     0.261 C 
BRANCH   2   3
ATOM      3  C   UNL     1      -2.887  16.978  27.861  1.00  0.00     0.015 C 
ATOM      4  C   UNL     1      -1.972  17.112  28.831  1.00  0.00     0.007 C 
BRANCH   4   5
ATOM      5  C   UNL     1      -0.508  17.113  28.589  1.00  0.00    -0.022 A 
ATOM      6  C   UNL     1       1.754  17.104  29.522  1.00  0.00     0.161 A 
ATOM      7  C   UNL     1       2.284  17.086  28.225  1.00  0.00     0.157 A 
ATOM      8  C   UNL     1       0.356  17.111  29.697  1.00  0.00     0.058 A 
ATOM      9  C   UNL     1       1.428  17.072  27.117  1.00  0.00     0.051 A 
ATOM     10  C   UNL     1       0.043  17.080  27.294  1.00  0.00     0.012 A 
BRANCH   6  11
ATOM     11  O   UNL     1       2.645  17.113  30.607  1.00  0.00    -0.493 OA
ATOM     12  C   UNL     1       3.536  16.051  30.929  1.00  0.00     0.278 C 
ENDBRANCH   6  11
BRANCH   7  13
ATOM     13  O   UNL     1       3.666  17.080  28.045  1.00  0.00    -0.504 OA
ATOM     14  H   UNL     1       4.127  17.760  27.450  1.00  0.00     0.293 HD
ENDBRANCH   7  13
ENDBRANCH   4   5
ENDBRANCH   2   3
ENDBRANCH   1   2
BRANCH   1  15
ATOM     15  C   UNL     1      -5.970  15.921  29.686  1.00  0.00     0.331 C 
ATOM     16  O   UNL     1      -6.364  14.723  29.691  1.00  0.00    -0.247 OA
BRANCH  15  17
ATOM     17  C   UNL     1      -6.889  16.973  30.161  1.00  0.00     0.094 C 
ATOM     18  C   UNL     1      -7.825  16.814  31.110  1.00  0.00     0.016 C 
BRANCH  18  19
ATOM     19  C   UNL     1      -7.974  15.621  31.968  1.00  0.00    -0.021 A 
ATOM     20  C   UNL     1      -8.914  14.639  31.625  1.00  0.00     0.058 A 
ATOM     21  C   UNL     1      -7.258  15.499  33.170  1.00  0.00     0.012 A 
ATOM     22  C   UNL     1      -9.102  13.509  32.444  1.00  0.00     0.161 A 
ATOM     23  C   UNL     1      -7.439  14.381  33.986  1.00  0.00     0.051 A 
ATOM     24  C   UNL     1      -8.355  13.385  33.625  1.00  0.00     0.157 A 
BRANCH  22  25
ATOM     25  O   UNL     1     -10.018  12.494  32.123  1.00  0.00    -0.493 OA
ATOM     26  C   UNL     1     -10.593  12.307  30.834  1.00  0.00     0.278 C 
ENDBRANCH  22  25
BRANCH  24  27
ATOM     27  O   UNL     1      -8.534  12.268  34.440  1.00  0.00    -0.504 OA
ATOM     28  H   UNL     1      -8.132  11.368  34.203  1.00  0.00     0.293 HD
ENDBRANCH  24  27
ENDBRANCH  18  19
ENDBRANCH  15  17
ENDBRANCH   1  15
TORSDOF 10
ENDMDL
MODEL 7
REMARK VINA RESULT:    -0.463      2.263      6.611
REMARK INTER + INTRA:          -2.118
REMARK INTER:                  -0.997
REMARK INTRA:                  -1.120
REMARK UNBOUND:                -1.412
REMARK SMILES COc1cc(C=CCOC(=O)C=Cc2ccc(O)c(OC)c2)ccc1O
REMARK SMILES IDX 9 1 8 2 7 3 6 4 5 5 3 6 25 7 4 8 24 9 23 10 2 11 1 12 26 13
REMARK SMILES IDX 10 15 11 16 12 17 13 18 14 19 22 20 15 21 19 22 16 23 17 24
REMARK SMILES IDX 20 25 21 26 18 27
REMARK H PARENT 26 14 18 28
REMARK Flexibility Score: inf
ROOT
ATOM      1  O   UNL     1      -7.831  13.449  33.565  1.00  0.00    -0.458 OA
ENDROOT
BRANCH   1   2
ATOM      2  C   UNL     1      -9.105  13.817  33.046  1.00  0.00     0.261 C 
BRANCH   2   3
ATOM      3  C   UNL     1      -8.967  14.304  31.634  1.00  0.00     0.015 C 
ATOM      4  C   UNL     1      -9.920  15.044  31.050  1.00  0.00     0.007 C 
BRANCH   4   5
ATOM      5  C   UNL     1      -9.857  15.509  29.643  1.00  0.00    -0.022 A 
ATOM      6  C   UNL     1     -10.461  15.140  27.300  1.00  0.00     0.161 A 
ATOM      7  C   UNL     1      -9.810  16.330  26.950  1.00  0.00     0.157 A 
ATOM      8  C   UNL     1     -10.486  14.738  28.651  1.00  0.00     0.058 A 
ATOM      9  C   UNL     1      -9.195  17.111  27.936  1.00  0.00     0.051 A 
ATOM     10  C   UNL     1      -9.220  16.709  29.272  1.00  0.00     0.012 A 
BRANCH   6  11
ATOM     11  O   UNL     1     -11.070  14.387  26.284  1.00  0.00    -0.493 OA
ATOM     12  C   UNL     1     -11.122  12.964  26.255  1.00  0.00     0.278 C 
ENDBRANCH   6  11
BRANCH   7  13
ATOM     13  O   UNL     1      -9.782  16.733  25.615  1.00  0.00    -0.504 OA
ATOM     14  H   UNL     1      -9.023  17.296  25.247  1.00  0.00     0.293 HD
ENDBRANCH   7  13
ENDBRANCH   4   5
ENDBRANCH   2   3
ENDBRANCH   1   2
BRANCH   1  15
ATOM     15  C   UNL     1      -7.102  14.241  34.462  1.00  0.00     0.331 C 
ATOM     16  O   UNL     1      -6.000  13.833  34.919  1.00  0.00    -0.247 OA
BRANCH  15  17
ATOM     17  C   UNL     1      -7.576  15.585  34.843  1.00  0.00     0.094 C 
ATOM     18  C   UNL     1      -6.928  16.734  34.593  1.00  0.00     0.016 C 
BRANCH  18  19
ATOM     19  C   UNL     1      -5.730  16.870  33.741  1.00  0.00    -0.021 A 
ATOM     20  C   UNL     1      -5.875  16.868  32.346  1.00  0.00     0.058 A 
ATOM     21  C   UNL     1      -4.443  16.908  34.300  1.00  0.00     0.012 A 
ATOM     22  C   UNL     1      -4.746  16.960  31.508  1.00  0.00     0.161 A 
ATOM     23  C   UNL     1      -3.320  17.000  33.475  1.00  0.00     0.051 A 
ATOM     24  C   UNL     1      -3.468  17.030  32.082  1.00  0.00     0.157 A 
BRANCH  22  25
ATOM     25  O   UNL     1      -4.851  16.982  30.108  1.00  0.00    -0.493 OA
ATOM     26  C   UNL     1      -5.606  16.049  29.342  1.00  0.00     0.278 C 
ENDBRANCH  22  25
BRANCH  24  27
ATOM     27  O   UNL     1      -2.346  17.124  31.260  1.00  0.00    -0.504 OA
ATOM     28  H   UNL     1      -1.475  17.518  31.594  1.00  0.00     0.293 HD
ENDBRANCH  24  27
ENDBRANCH  18  19
ENDBRANCH  15  17
ENDBRANCH   1  15
TORSDOF 10
ENDMDL
MODEL 8
REMARK VINA RESULT:    -0.437      2.095      4.828
REMARK INTER + INTRA:          -2.079
REMARK INTER:                  -2.557
REMARK INTRA:                   0.478
REMARK UNBOUND:                -1.412
REMARK SMILES COc1cc(C=CCOC(=O)C=Cc2ccc(O)c(OC)c2)ccc1O
REMARK SMILES IDX 9 1 8 2 7 3 6 4 5 5 3 6 25 7 4 8 24 9 23 10 2 11 1 12 26 13
REMARK SMILES IDX 10 15 11 16 12 17 13 18 14 19 22 20 15 21 19 22 16 23 17 24
REMARK SMILES IDX 20 25 21 26 18 27
REMARK H PARENT 26 14 18 28
REMARK Flexibility Score: inf
ROOT
ATOM      1  O   UNL     1      -6.957  15.331  27.743  1.00  0.00    -0.458 OA
ENDROOT
BRANCH   1   2
ATOM      2  C   UNL     1      -5.731  15.284  28.467  1.00  0.00     0.261 C 
BRANCH   2   3
ATOM      3  C   UNL     1      -5.993  14.950  29.906  1.00  0.00     0.015 C 
ATOM      4  C   UNL     1      -7.218  15.050  30.439  1.00  0.00     0.007 C 
BRANCH   4   5
ATOM      5  C   UNL     1      -7.521  14.780  31.866  1.00  0.00    -0.022 A 
ATOM      6  C   UNL     1      -7.902  15.664  34.116  1.00  0.00     0.161 A 
ATOM      7  C   UNL     1      -8.120  14.362  34.586  1.00  0.00     0.157 A 
ATOM      8  C   UNL     1      -7.609  15.866  32.752  1.00  0.00     0.058 A 
ATOM      9  C   UNL     1      -8.050  13.276  33.704  1.00  0.00     0.051 A 
ATOM     10  C   UNL     1      -7.758  13.481  32.354  1.00  0.00     0.012 A 
BRANCH   6  11
ATOM     11  O   UNL     1      -7.985  16.726  35.029  1.00  0.00    -0.493 OA
ATOM     12  C   UNL     1      -7.091  16.925  36.119  1.00  0.00     0.278 C 
ENDBRANCH   6  11
BRANCH   7  13
ATOM     13  O   UNL     1      -8.410  14.155  35.933  1.00  0.00    -0.504 OA
ATOM     14  H   UNL     1      -9.328  14.353  36.315  1.00  0.00     0.293 HD
ENDBRANCH   7  13
ENDBRANCH   4   5
ENDBRANCH   2   3
ENDBRANCH   1   2
BRANCH   1  15
ATOM     15  C   UNL     1      -7.947  16.298  27.958  1.00  0.00     0.331 C 
ATOM     16  O   UNL     1      -7.832  17.125  28.903  1.00  0.00    -0.247 OA
BRANCH  15  17
ATOM     17  C   UNL     1      -9.108  16.407  27.055  1.00  0.00     0.094 C 
ATOM     18  C   UNL     1     -10.173  15.590  27.061  1.00  0.00     0.016 C 
BRANCH  18  19
ATOM     19  C   UNL     1     -10.454  14.562  28.083  1.00  0.00    -0.021 A 
ATOM     20  C   UNL     1     -10.577  14.943  29.427  1.00  0.00     0.058 A 
ATOM     21  C   UNL     1     -10.508  13.200  27.746  1.00  0.00     0.012 A 
ATOM     22  C   UNL     1     -10.809  13.979  30.427  1.00  0.00     0.161 A 
ATOM     23  C   UNL     1     -10.738  12.240  28.732  1.00  0.00     0.051 A 
ATOM     24  C   UNL     1     -10.893  12.625  30.070  1.00  0.00     0.157 A 
BRANCH  22  25
ATOM     25  O   UNL     1     -10.959  14.324  31.780  1.00  0.00    -0.493 OA
ATOM     26  C   UNL     1     -11.023  15.660  32.269  1.00  0.00     0.278 C 
ENDBRANCH  22  25
BRANCH  24  27
ATOM     27  O   UNL     1     -11.125  11.665  31.054  1.00  0.00    -0.504 OA
ATOM     28  H   UNL     1     -10.509  11.563  31.852  1.00  0.00     0.293 HD
ENDBRANCH  24  27
ENDBRANCH  18  19
ENDBRANCH  15  17
ENDBRANCH   1  15
TORSDOF 10
ENDMDL
