MODEL 1
REMARK VINA RESULT:    -6.548      0.000      0.000
REMARK INTER + INTRA:         -13.779
REMARK INTER:                 -12.291
REMARK INTRA:                  -1.488
REMARK UNBOUND:                -1.488
REMARK SMILES O=C([O-])CCCCCCCCCCCCCCC(=O)[O-]
REMARK SMILES IDX 10 1 9 2 8 3 7 4 6 5 5 6 4 7 2 8 1 9 3 10 11 11 12 12 13 13
REMARK SMILES IDX 14 14 15 15 16 16 17 17 18 18 19 19 20 20
REMARK H PARENT
REMARK Flexibility Score: inf
ROOT
ATOM      1  C   UNL     1      15.464  70.720  72.297  1.00  0.00     0.000 C 
ENDROOT
BRANCH   1   2
ATOM      2  C   UNL     1      14.274  70.041  72.995  1.00  0.00     0.000 C 
BRANCH   2   3
ATOM      3  C   UNL     1      13.852  70.762  74.284  1.00  0.00     0.000 C 
BRANCH   3   4
ATOM      4  C   UNL     1      14.112  69.883  75.514  1.00  0.00     0.000 C 
BRANCH   4   5
ATOM      5  C   UNL     1      15.041  70.591  76.511  1.00  0.00     0.000 C 
BRANCH   5   6
ATOM      6  C   UNL     1      16.307  71.153  75.845  1.00  0.00     0.006 C 
BRANCH   6   7
ATOM      7  C   UNL     1      17.287  71.761  76.855  1.00  0.00     0.053 C 
BRANCH   7   8
ATOM      8  C   UNL     1      18.662  71.210  76.645  1.00  0.00     0.041 C 
ATOM      9  O   UNL     1      19.353  71.588  75.663  1.00  0.00    -0.550 OA
ATOM     10  O   UNL     1      19.202  70.317  77.563  1.00  0.00    -0.550 OA
ENDBRANCH   7   8
ENDBRANCH   6   7
ENDBRANCH   5   6
ENDBRANCH   4   5
ENDBRANCH   3   4
ENDBRANCH   2   3
ENDBRANCH   1   2
BRANCH   1  11
ATOM     11  C   UNL     1      15.390  72.256  72.361  1.00  0.00     0.000 C 
BRANCH  11  12
ATOM     12  C   UNL     1      16.777  72.908  72.486  1.00  0.00     0.000 C 
BRANCH  12  13
ATOM     13  C   UNL     1      17.911  71.872  72.548  1.00  0.00     0.000 C 
BRANCH  13  14
ATOM     14  C   UNL     1      19.163  72.320  71.776  1.00  0.00     0.000 C 
BRANCH  14  15
ATOM     15  C   UNL     1      20.051  71.140  71.345  1.00  0.00     0.000 C 
BRANCH  15  16
ATOM     16  C   UNL     1      21.427  71.156  72.028  1.00  0.00     0.006 C 
BRANCH  16  17
ATOM     17  C   UNL     1      21.463  70.304  73.303  1.00  0.00     0.053 C 
BRANCH  17  18
ATOM     18  C   UNL     1      22.729  70.549  74.060  1.00  0.00     0.041 C 
ATOM     19  O   UNL     1      23.745  70.997  73.468  1.00  0.00    -0.550 OA
ATOM     20  O   UNL     1      22.803  70.235  75.412  1.00  0.00    -0.550 OA
ENDBRANCH  17  18
ENDBRANCH  16  17
ENDBRANCH  15  16
ENDBRANCH  14  15
ENDBRANCH  13  14
ENDBRANCH  12  13
ENDBRANCH  11  12
ENDBRANCH   1  11
TORSDOF 15
ENDMDL
MODEL 2
REMARK VINA RESULT:    -6.492      1.740      2.357
REMARK INTER + INTRA:         -13.673
REMARK INTER:                 -12.256
REMARK INTRA:                  -1.418
REMARK UNBOUND:                -1.488
REMARK SMILES O=C([O-])CCCCCCCCCCCCCCC(=O)[O-]
REMARK SMILES IDX 10 1 9 2 8 3 7 4 6 5 5 6 4 7 2 8 1 9 3 10 11 11 12 12 13 13
REMARK SMILES IDX 14 14 15 15 16 16 17 17 18 18 19 19 20 20
REMARK H PARENT
REMARK Flexibility Score: inf
ROOT
ATOM      1  C   UNL     1      14.108  70.112  72.910  1.00  0.00     0.000 C 
ENDROOT
BRANCH   1   2
ATOM      2  C   UNL     1      13.730  70.753  74.255  1.00  0.00     0.000 C 
BRANCH   2   3
ATOM      3  C   UNL     1      14.047  69.847  75.455  1.00  0.00     0.000 C 
BRANCH   3   4
ATOM      4  C   UNL     1      15.024  70.533  76.416  1.00  0.00     0.000 C 
BRANCH   4   5
ATOM      5  C   UNL     1      16.146  71.247  75.645  1.00  0.00     0.000 C 
BRANCH   5   6
ATOM      6  C   UNL     1      17.334  71.625  76.544  1.00  0.00     0.006 C 
BRANCH   6   7
ATOM      7  C   UNL     1      17.298  70.915  77.902  1.00  0.00     0.053 C 
BRANCH   7   8
ATOM      8  C   UNL     1      18.683  70.577  78.353  1.00  0.00     0.041 C 
ATOM      9  O   UNL     1      19.507  70.072  77.546  1.00  0.00    -0.550 OA
ATOM     10  O   UNL     1      19.082  70.866  79.652  1.00  0.00    -0.550 OA
ENDBRANCH   7   8
ENDBRANCH   6   7
ENDBRANCH   5   6
ENDBRANCH   4   5
ENDBRANCH   3   4
ENDBRANCH   2   3
ENDBRANCH   1   2
BRANCH   1  11
ATOM     11  C   UNL     1      15.385  70.720  72.303  1.00  0.00     0.000 C 
BRANCH  11  12
ATOM     12  C   UNL     1      15.316  72.253  72.199  1.00  0.00     0.000 C 
BRANCH  12  13
ATOM     13  C   UNL     1      16.701  72.895  72.013  1.00  0.00     0.000 C 
BRANCH  13  14
ATOM     14  C   UNL     1      17.823  71.850  71.893  1.00  0.00     0.000 C 
BRANCH  14  15
ATOM     15  C   UNL     1      18.826  71.917  73.058  1.00  0.00     0.000 C 
BRANCH  15  16
ATOM     16  C   UNL     1      20.271  71.655  72.608  1.00  0.00     0.006 C 
BRANCH  16  17
ATOM     17  C   UNL     1      20.570  70.162  72.425  1.00  0.00     0.053 C 
BRANCH  17  18
ATOM     18  C   UNL     1      20.780  69.845  70.978  1.00  0.00     0.041 C 
ATOM     19  O   UNL     1      21.066  70.760  70.163  1.00  0.00    -0.550 OA
ATOM     20  O   UNL     1      20.609  68.544  70.519  1.00  0.00    -0.550 OA
ENDBRANCH  17  18
ENDBRANCH  16  17
ENDBRANCH  15  16
ENDBRANCH  14  15
ENDBRANCH  13  14
ENDBRANCH  12  13
ENDBRANCH  11  12
ENDBRANCH   1  11
TORSDOF 15
ENDMDL
MODEL 3
REMARK VINA RESULT:    -6.443      1.935      3.878
REMARK INTER + INTRA:         -13.582
REMARK INTER:                 -12.133
REMARK INTRA:                  -1.449
REMARK UNBOUND:                -1.488
REMARK SMILES O=C([O-])CCCCCCCCCCCCCCC(=O)[O-]
REMARK SMILES IDX 10 1 9 2 8 3 7 4 6 5 5 6 4 7 2 8 1 9 3 10 11 11 12 12 13 13
REMARK SMILES IDX 14 14 15 15 16 16 17 17 18 18 19 19 20 20
REMARK H PARENT
REMARK Flexibility Score: inf
ROOT
ATOM      1  C   UNL     1      14.352  69.920  76.058  1.00  0.00     0.000 C 
ENDROOT
BRANCH   1   2
ATOM      2  C   UNL     1      15.449  70.792  76.691  1.00  0.00     0.000 C 
BRANCH   2   3
ATOM      3  C   UNL     1      16.452  71.327  75.657  1.00  0.00     0.000 C 
BRANCH   3   4
ATOM      4  C   UNL     1      17.804  71.633  76.313  1.00  0.00     0.000 C 
BRANCH   4   5
ATOM      5  C   UNL     1      17.912  70.961  77.691  1.00  0.00     0.000 C 
BRANCH   5   6
ATOM      6  C   UNL     1      19.213  70.159  77.858  1.00  0.00     0.006 C 
BRANCH   6   7
ATOM      7  C   UNL     1      20.049  70.115  76.573  1.00  0.00     0.053 C 
BRANCH   7   8
ATOM      8  C   UNL     1      21.397  69.528  76.847  1.00  0.00     0.041 C 
ATOM      9  O   UNL     1      21.578  68.799  77.857  1.00  0.00    -0.550 OA
ATOM     10  O   UNL     1      22.444  69.743  75.958  1.00  0.00    -0.550 OA
ENDBRANCH   7   8
ENDBRANCH   6   7
ENDBRANCH   5   6
ENDBRANCH   4   5
ENDBRANCH   3   4
ENDBRANCH   2   3
ENDBRANCH   1   2
BRANCH   1  11
ATOM     11  C   UNL     1      13.704  70.585  74.829  1.00  0.00     0.000 C 
BRANCH  11  12
ATOM     12  C   UNL     1      14.125  69.919  73.509  1.00  0.00     0.000 C 
BRANCH  12  13
ATOM     13  C   UNL     1      14.320  70.936  72.372  1.00  0.00     0.000 C 
BRANCH  13  14
ATOM     14  C   UNL     1      15.803  71.207  72.070  1.00  0.00     0.000 C 
BRANCH  14  15
ATOM     15  C   UNL     1      16.179  72.691  72.219  1.00  0.00     0.000 C 
BRANCH  15  16
ATOM     16  C   UNL     1      17.662  72.957  71.917  1.00  0.00     0.006 C 
BRANCH  16  17
ATOM     17  C   UNL     1      18.582  71.861  72.468  1.00  0.00     0.053 C 
BRANCH  17  18
ATOM     18  C   UNL     1      19.629  71.502  71.461  1.00  0.00     0.041 C 
ATOM     19  O   UNL     1      20.434  72.376  71.045  1.00  0.00    -0.550 OA
ATOM     20  O   UNL     1      19.685  70.213  70.945  1.00  0.00    -0.550 OA
ENDBRANCH  17  18
ENDBRANCH  16  17
ENDBRANCH  15  16
ENDBRANCH  14  15
ENDBRANCH  13  14
ENDBRANCH  12  13
ENDBRANCH  11  12
ENDBRANCH   1  11
TORSDOF 15
ENDMDL
MODEL 4
REMARK VINA RESULT:    -6.435      4.155      7.724
REMARK INTER + INTRA:         -13.567
REMARK INTER:                 -12.080
REMARK INTRA:                  -1.487
REMARK UNBOUND:                -1.488
REMARK SMILES O=C([O-])CCCCCCCCCCCCCCC(=O)[O-]
REMARK SMILES IDX 10 1 9 2 8 3 7 4 6 5 5 6 4 7 2 8 1 9 3 10 11 11 12 12 13 13
REMARK SMILES IDX 14 14 15 15 16 16 17 17 18 18 19 19 20 20
REMARK H PARENT
REMARK Flexibility Score: inf
ROOT
ATOM      1  C   UNL     1      16.231  71.212  74.382  1.00  0.00     0.000 C 
ENDROOT
BRANCH   1   2
ATOM      2  C   UNL     1      16.084  72.657  73.877  1.00  0.00     0.000 C 
BRANCH   2   3
ATOM      3  C   UNL     1      16.641  72.850  72.458  1.00  0.00     0.000 C 
BRANCH   3   4
ATOM      4  C   UNL     1      17.371  71.589  71.980  1.00  0.00     0.000 C 
BRANCH   4   5
ATOM      5  C   UNL     1      18.860  71.875  71.731  1.00  0.00     0.000 C 
BRANCH   5   6
ATOM      6  C   UNL     1      19.662  72.016  73.035  1.00  0.00     0.006 C 
BRANCH   6   7
ATOM      7  C   UNL     1      20.003  70.662  73.669  1.00  0.00     0.053 C 
BRANCH   7   8
ATOM      8  C   UNL     1      21.425  70.295  73.386  1.00  0.00     0.041 C 
ATOM      9  O   UNL     1      21.845  70.255  72.200  1.00  0.00    -0.550 OA
ATOM     10  O   UNL     1      22.301  70.047  74.435  1.00  0.00    -0.550 OA
ENDBRANCH   7   8
ENDBRANCH   6   7
ENDBRANCH   5   6
ENDBRANCH   4   5
ENDBRANCH   3   4
ENDBRANCH   2   3
ENDBRANCH   1   2
BRANCH   1  11
ATOM     11  C   UNL     1      15.076  70.787  75.306  1.00  0.00     0.000 C 
BRANCH  11  12
ATOM     12  C   UNL     1      14.000  69.973  74.568  1.00  0.00     0.000 C 
BRANCH  12  13
ATOM     13  C   UNL     1      14.224  69.944  73.046  1.00  0.00     0.000 C 
BRANCH  13  14
ATOM     14  C   UNL     1      13.147  70.727  72.277  1.00  0.00     0.000 C 
BRANCH  14  15
ATOM     15  C   UNL     1      12.275  71.599  73.196  1.00  0.00     0.000 C 
BRANCH  15  16
ATOM     16  C   UNL     1      10.816  71.681  72.721  1.00  0.00     0.006 C 
BRANCH  16  17
ATOM     17  C   UNL     1      10.673  71.446  71.212  1.00  0.00     0.053 C 
BRANCH  17  18
ATOM     18  C   UNL     1       9.652  70.386  70.942  1.00  0.00     0.041 C 
ATOM     19  O   UNL     1       9.991  69.175  70.906  1.00  0.00    -0.550 OA
ATOM     20  O   UNL     1       8.334  70.740  70.681  1.00  0.00    -0.550 OA
ENDBRANCH  17  18
ENDBRANCH  16  17
ENDBRANCH  15  16
ENDBRANCH  14  15
ENDBRANCH  13  14
ENDBRANCH  12  13
ENDBRANCH  11  12
ENDBRANCH   1  11
TORSDOF 15
ENDMDL
MODEL 5
REMARK VINA RESULT:    -6.423      1.058      1.774
REMARK INTER + INTRA:         -13.543
REMARK INTER:                 -12.127
REMARK INTRA:                  -1.416
REMARK UNBOUND:                -1.488
REMARK SMILES O=C([O-])CCCCCCCCCCCCCCC(=O)[O-]
REMARK SMILES IDX 10 1 9 2 8 3 7 4 6 5 5 6 4 7 2 8 1 9 3 10 11 11 12 12 13 13
REMARK SMILES IDX 14 14 15 15 16 16 17 17 18 18 19 19 20 20
REMARK H PARENT
REMARK Flexibility Score: inf
ROOT
ATOM      1  C   UNL     1      15.527  72.185  72.196  1.00  0.00     0.000 C 
ENDROOT
BRANCH   1   2
ATOM      2  C   UNL     1      15.591  70.659  72.374  1.00  0.00     0.000 C 
BRANCH   2   3
ATOM      3  C   UNL     1      14.241  70.052  72.788  1.00  0.00     0.000 C 
BRANCH   3   4
ATOM      4  C   UNL     1      13.747  70.663  74.104  1.00  0.00     0.000 C 
BRANCH   4   5
ATOM      5  C   UNL     1      14.028  69.723  75.287  1.00  0.00     0.000 C 
BRANCH   5   6
ATOM      6  C   UNL     1      14.711  70.440  76.463  1.00  0.00     0.006 C 
BRANCH   6   7
ATOM      7  C   UNL     1      16.012  71.141  76.054  1.00  0.00     0.053 C 
BRANCH   7   8
ATOM      8  C   UNL     1      16.958  71.207  77.211  1.00  0.00     0.041 C 
ATOM      9  O   UNL     1      16.742  70.521  78.245  1.00  0.00    -0.550 OA
ATOM     10  O   UNL     1      18.104  71.987  77.129  1.00  0.00    -0.550 OA
ENDBRANCH   7   8
ENDBRANCH   6   7
ENDBRANCH   5   6
ENDBRANCH   4   5
ENDBRANCH   3   4
ENDBRANCH   2   3
ENDBRANCH   1   2
BRANCH   1  11
ATOM     11  C   UNL     1      16.795  72.894  72.707  1.00  0.00     0.000 C 
BRANCH  11  12
ATOM     12  C   UNL     1      17.491  73.716  71.610  1.00  0.00     0.000 C 
BRANCH  12  13
ATOM     13  C   UNL     1      18.976  73.347  71.451  1.00  0.00     0.000 C 
BRANCH  13  14
ATOM     14  C   UNL     1      19.363  72.096  72.258  1.00  0.00     0.000 C 
BRANCH  14  15
ATOM     15  C   UNL     1      20.244  71.121  71.458  1.00  0.00     0.000 C 
BRANCH  15  16
ATOM     16  C   UNL     1      20.766  69.958  72.316  1.00  0.00     0.006 C 
BRANCH  16  17
ATOM     17  C   UNL     1      22.100  70.281  73.000  1.00  0.00     0.053 C 
BRANCH  17  18
ATOM     18  C   UNL     1      21.924  70.355  74.483  1.00  0.00     0.041 C 
ATOM     19  O   UNL     1      22.913  70.576  75.229  1.00  0.00    -0.550 OA
ATOM     20  O   UNL     1      20.674  70.129  75.047  1.00  0.00    -0.550 OA
ENDBRANCH  17  18
ENDBRANCH  16  17
ENDBRANCH  15  16
ENDBRANCH  14  15
ENDBRANCH  13  14
ENDBRANCH  12  13
ENDBRANCH  11  12
ENDBRANCH   1  11
TORSDOF 15
ENDMDL
MODEL 6
REMARK VINA RESULT:    -6.416      1.415      5.500
REMARK INTER + INTRA:         -13.531
REMARK INTER:                 -12.280
REMARK INTRA:                  -1.250
REMARK UNBOUND:                -1.488
REMARK SMILES O=C([O-])CCCCCCCCCCCCCCC(=O)[O-]
REMARK SMILES IDX 10 1 9 2 8 3 7 4 6 5 5 6 4 7 2 8 1 9 3 10 11 11 12 12 13 13
REMARK SMILES IDX 14 14 15 15 16 16 17 17 18 18 19 19 20 20
REMARK H PARENT
REMARK Flexibility Score: inf
ROOT
ATOM      1  C   UNL     1      15.486  70.714  72.331  1.00  0.00     0.000 C 
ENDROOT
BRANCH   1   2
ATOM      2  C   UNL     1      15.734  72.191  72.682  1.00  0.00     0.000 C 
BRANCH   2   3
ATOM      3  C   UNL     1      17.022  72.742  72.053  1.00  0.00     0.000 C 
BRANCH   3   4
ATOM      4  C   UNL     1      18.112  71.665  72.002  1.00  0.00     0.000 C 
BRANCH   4   5
ATOM      5  C   UNL     1      18.946  71.664  73.293  1.00  0.00     0.000 C 
BRANCH   5   6
ATOM      6  C   UNL     1      20.435  71.381  73.036  1.00  0.00     0.006 C 
BRANCH   6   7
ATOM      7  C   UNL     1      21.314  71.686  74.254  1.00  0.00     0.053 C 
BRANCH   7   8
ATOM      8  C   UNL     1      22.335  70.609  74.446  1.00  0.00     0.041 C 
ATOM      9  O   UNL     1      22.216  69.785  75.390  1.00  0.00    -0.550 OA
ATOM     10  O   UNL     1      23.391  70.484  73.552  1.00  0.00    -0.550 OA
ENDBRANCH   7   8
ENDBRANCH   6   7
ENDBRANCH   5   6
ENDBRANCH   4   5
ENDBRANCH   3   4
ENDBRANCH   2   3
ENDBRANCH   1   2
BRANCH   1  11
ATOM     11  C   UNL     1      14.075  70.241  72.724  1.00  0.00     0.000 C 
BRANCH  11  12
ATOM     12  C   UNL     1      13.656  70.736  74.118  1.00  0.00     0.000 C 
BRANCH  12  13
ATOM     13  C   UNL     1      14.010  69.734  75.230  1.00  0.00     0.000 C 
BRANCH  13  14
ATOM     14  C   UNL     1      14.719  70.401  76.421  1.00  0.00     0.000 C 
BRANCH  14  15
ATOM     15  C   UNL     1      16.053  71.058  76.027  1.00  0.00     0.000 C 
BRANCH  15  16
ATOM     16  C   UNL     1      17.040  71.140  77.202  1.00  0.00     0.006 C 
BRANCH  16  17
ATOM     17  C   UNL     1      16.437  70.628  78.516  1.00  0.00     0.053 C 
BRANCH  17  18
ATOM     18  C   UNL     1      17.499  70.023  79.378  1.00  0.00     0.041 C 
ATOM     19  O   UNL     1      17.463  68.798  79.663  1.00  0.00    -0.550 OA
ATOM     20  O   UNL     1      18.503  70.825  79.909  1.00  0.00    -0.550 OA
ENDBRANCH  17  18
ENDBRANCH  16  17
ENDBRANCH  15  16
ENDBRANCH  14  15
ENDBRANCH  13  14
ENDBRANCH  12  13
ENDBRANCH  11  12
ENDBRANCH   1  11
TORSDOF 15
ENDMDL
MODEL 7
REMARK VINA RESULT:    -6.389      2.844      5.073
REMARK INTER + INTRA:         -13.481
REMARK INTER:                 -11.663
REMARK INTRA:                  -1.818
REMARK UNBOUND:                -1.488
REMARK SMILES O=C([O-])CCCCCCCCCCCCCCC(=O)[O-]
REMARK SMILES IDX 10 1 9 2 8 3 7 4 6 5 5 6 4 7 2 8 1 9 3 10 11 11 12 12 13 13
REMARK SMILES IDX 14 14 15 15 16 16 17 17 18 18 19 19 20 20
REMARK H PARENT
REMARK Flexibility Score: inf
ROOT
ATOM      1  C   UNL     1      19.739  71.436  75.224  1.00  0.00     0.000 C 
ENDROOT
BRANCH   1   2
ATOM      2  C   UNL     1      18.836  71.048  74.042  1.00  0.00     0.000 C 
BRANCH   2   3
ATOM      3  C   UNL     1      18.609  72.209  73.061  1.00  0.00     0.000 C 
BRANCH   3   4
ATOM      4  C   UNL     1      17.546  71.845  72.018  1.00  0.00     0.000 C 
BRANCH   4   5
ATOM      5  C   UNL     1      16.413  72.883  72.002  1.00  0.00     0.000 C 
BRANCH   5   6
ATOM      6  C   UNL     1      15.053  72.280  72.387  1.00  0.00     0.006 C 
BRANCH   6   7
ATOM      7  C   UNL     1      15.127  70.770  72.647  1.00  0.00     0.053 C 
BRANCH   7   8
ATOM      8  C   UNL     1      14.867  70.474  74.090  1.00  0.00     0.041 C 
ATOM      9  O   UNL     1      14.060  69.564  74.414  1.00  0.00    -0.550 OA
ATOM     10  O   UNL     1      15.553  71.170  75.078  1.00  0.00    -0.550 OA
ENDBRANCH   7   8
ENDBRANCH   6   7
ENDBRANCH   5   6
ENDBRANCH   4   5
ENDBRANCH   3   4
ENDBRANCH   2   3
ENDBRANCH   1   2
BRANCH   1  11
ATOM     11  C   UNL     1      20.373  70.213  75.911  1.00  0.00     0.000 C 
BRANCH  11  12
ATOM     12  C   UNL     1      21.867  70.061  75.580  1.00  0.00     0.000 C 
BRANCH  12  13
ATOM     13  C   UNL     1      22.402  71.223  74.726  1.00  0.00     0.000 C 
BRANCH  13  14
ATOM     14  C   UNL     1      22.918  70.757  73.354  1.00  0.00     0.000 C 
BRANCH  14  15
ATOM     15  C   UNL     1      21.923  71.041  72.216  1.00  0.00     0.000 C 
BRANCH  15  16
ATOM     16  C   UNL     1      21.335  69.756  71.612  1.00  0.00     0.006 C 
BRANCH  16  17
ATOM     17  C   UNL     1      20.645  69.999  70.264  1.00  0.00     0.053 C 
BRANCH  17  18
ATOM     18  C   UNL     1      20.246  68.700  69.639  1.00  0.00     0.041 C 
ATOM     19  O   UNL     1      19.284  68.039  70.111  1.00  0.00    -0.550 OA
ATOM     20  O   UNL     1      20.969  68.193  68.566  1.00  0.00    -0.550 OA
ENDBRANCH  17  18
ENDBRANCH  16  17
ENDBRANCH  15  16
ENDBRANCH  14  15
ENDBRANCH  13  14
ENDBRANCH  12  13
ENDBRANCH  11  12
ENDBRANCH   1  11
TORSDOF 15
ENDMDL
MODEL 8
REMARK VINA RESULT:    -6.350      4.755      6.080
REMARK INTER + INTRA:         -13.406
REMARK INTER:                 -12.361
REMARK INTRA:                  -1.046
REMARK UNBOUND:                -1.488
REMARK SMILES O=C([O-])CCCCCCCCCCCCCCC(=O)[O-]
REMARK SMILES IDX 10 1 9 2 8 3 7 4 6 5 5 6 4 7 2 8 1 9 3 10 11 11 12 12 13 13
REMARK SMILES IDX 14 14 15 15 16 16 17 17 18 18 19 19 20 20
REMARK H PARENT
REMARK Flexibility Score: inf
ROOT
ATOM      1  C   UNL     1      15.306  70.874  73.601  1.00  0.00     0.000 C 
ENDROOT
BRANCH   1   2
ATOM      2  C   UNL     1      14.024  70.044  73.427  1.00  0.00     0.000 C 
BRANCH   2   3
ATOM      3  C   UNL     1      13.013  70.703  72.477  1.00  0.00     0.000 C 
BRANCH   3   4
ATOM      4  C   UNL     1      12.366  71.930  73.130  1.00  0.00     0.000 C 
BRANCH   4   5
ATOM      5  C   UNL     1      11.320  72.563  72.199  1.00  0.00     0.000 C 
BRANCH   5   6
ATOM      6  C   UNL     1      11.326  71.942  70.793  1.00  0.00     0.006 C 
BRANCH   6   7
ATOM      7  C   UNL     1       9.915  71.627  70.280  1.00  0.00     0.053 C 
BRANCH   7   8
ATOM      8  C   UNL     1       9.356  70.434  70.988  1.00  0.00     0.041 C 
ATOM      9  O   UNL     1       8.306  70.540  71.674  1.00  0.00    -0.550 OA
ATOM     10  O   UNL     1       9.965  69.193  70.849  1.00  0.00    -0.550 OA
ENDBRANCH   7   8
ENDBRANCH   6   7
ENDBRANCH   5   6
ENDBRANCH   4   5
ENDBRANCH   3   4
ENDBRANCH   2   3
ENDBRANCH   1   2
BRANCH   1  11
ATOM     11  C   UNL     1      15.946  71.262  72.255  1.00  0.00     0.000 C 
BRANCH  11  12
ATOM     12  C   UNL     1      16.309  72.754  72.184  1.00  0.00     0.000 C 
BRANCH  12  13
ATOM     13  C   UNL     1      17.762  72.987  71.736  1.00  0.00     0.000 C 
BRANCH  13  14
ATOM     14  C   UNL     1      18.673  71.787  72.043  1.00  0.00     0.000 C 
BRANCH  14  15
ATOM     15  C   UNL     1      20.014  71.850  71.291  1.00  0.00     0.000 C 
BRANCH  15  16
ATOM     16  C   UNL     1      20.665  70.467  71.131  1.00  0.00     0.006 C 
BRANCH  16  17
ATOM     17  C   UNL     1      20.914  70.099  69.663  1.00  0.00     0.053 C 
BRANCH  17  18
ATOM     18  C   UNL     1      20.443  68.706  69.386  1.00  0.00     0.041 C 
ATOM     19  O   UNL     1      19.620  68.150  70.160  1.00  0.00    -0.550 OA
ATOM     20  O   UNL     1      20.950  68.003  68.301  1.00  0.00    -0.550 OA
ENDBRANCH  17  18
ENDBRANCH  16  17
ENDBRANCH  15  16
ENDBRANCH  14  15
ENDBRANCH  13  14
ENDBRANCH  12  13
ENDBRANCH  11  12
ENDBRANCH   1  11
TORSDOF 15
ENDMDL
MODEL 9
REMARK VINA RESULT:    -6.311      2.353      4.592
REMARK INTER + INTRA:         -13.334
REMARK INTER:                 -11.681
REMARK INTRA:                  -1.653
REMARK UNBOUND:                -1.488
REMARK SMILES O=C([O-])CCCCCCCCCCCCCCC(=O)[O-]
REMARK SMILES IDX 10 1 9 2 8 3 7 4 6 5 5 6 4 7 2 8 1 9 3 10 11 11 12 12 13 13
REMARK SMILES IDX 14 14 15 15 16 16 17 17 18 18 19 19 20 20
REMARK H PARENT
REMARK Flexibility Score: inf
ROOT
ATOM      1  C   UNL     1      19.844  70.754  71.260  1.00  0.00     0.000 C 
ENDROOT
BRANCH   1   2
ATOM      2  C   UNL     1      19.022  72.023  71.539  1.00  0.00     0.000 C 
BRANCH   2   3
ATOM      3  C   UNL     1      18.686  72.198  73.028  1.00  0.00     0.000 C 
BRANCH   3   4
ATOM      4  C   UNL     1      17.311  71.603  73.352  1.00  0.00     0.000 C 
BRANCH   4   5
ATOM      5  C   UNL     1      16.436  71.518  72.092  1.00  0.00     0.000 C 
BRANCH   5   6
ATOM      6  C   UNL     1      14.935  71.467  72.415  1.00  0.00     0.006 C 
BRANCH   6   7
ATOM      7  C   UNL     1      14.486  70.093  72.927  1.00  0.00     0.053 C 
BRANCH   7   8
ATOM      8  C   UNL     1      13.784  70.227  74.241  1.00  0.00     0.041 C 
ATOM      9  O   UNL     1      14.086  69.471  75.201  1.00  0.00    -0.550 OA
ATOM     10  O   UNL     1      12.831  71.222  74.422  1.00  0.00    -0.550 OA
ENDBRANCH   7   8
ENDBRANCH   6   7
ENDBRANCH   5   6
ENDBRANCH   4   5
ENDBRANCH   3   4
ENDBRANCH   2   3
ENDBRANCH   1   2
BRANCH   1  11
ATOM     11  C   UNL     1      21.129  71.044  70.464  1.00  0.00     0.000 C 
BRANCH  11  12
ATOM     12  C   UNL     1      21.517  72.532  70.494  1.00  0.00     0.000 C 
BRANCH  12  13
ATOM     13  C   UNL     1      22.811  72.787  71.287  1.00  0.00     0.000 C 
BRANCH  13  14
ATOM     14  C   UNL     1      22.620  72.604  72.802  1.00  0.00     0.000 C 
BRANCH  14  15
ATOM     15  C   UNL     1      23.468  71.455  73.374  1.00  0.00     0.000 C 
BRANCH  15  16
ATOM     16  C   UNL     1      22.622  70.227  73.746  1.00  0.00     0.006 C 
BRANCH  16  17
ATOM     17  C   UNL     1      21.451  70.576  74.672  1.00  0.00     0.053 C 
BRANCH  17  18
ATOM     18  C   UNL     1      21.622  69.915  76.003  1.00  0.00     0.041 C 
ATOM     19  O   UNL     1      22.749  69.481  76.355  1.00  0.00    -0.550 OA
ATOM     20  O   UNL     1      20.523  69.731  76.834  1.00  0.00    -0.550 OA
ENDBRANCH  17  18
ENDBRANCH  16  17
ENDBRANCH  15  16
ENDBRANCH  14  15
ENDBRANCH  13  14
ENDBRANCH  12  13
ENDBRANCH  11  12
ENDBRANCH   1  11
TORSDOF 15
ENDMDL
