MODEL 1
REMARK VINA RESULT:    -2.496      0.000      0.000
REMARK INTER + INTRA:          -1.912
REMARK INTER:                  -3.517
REMARK INTRA:                   1.605
REMARK UNBOUND:                 1.605
REMARK SMILES CC1=CCC(=C(C)C)C(=O)CC(C)=CCC1
REMARK SMILES IDX 12 1 14 2 13 3 15 4 16 5 2 6 1 7 3 8 11 10 9 11 10 12 5 13
REMARK SMILES IDX 6 14 7 15 8 16 4 17
REMARK H PARENT
REMARK Flexibility Score: 60.00
ROOT
ATOM      1  C   UNL     1      10.434  22.804  25.118  1.00  0.00    -0.070 C 
ATOM      2  C   UNL     1      10.637  21.674  24.403  1.00  0.00    -0.027 C 
ATOM      3  C   UNL     1      10.103  22.669  26.583  1.00  0.00     0.039 C 
ENDROOT
BRANCH   2   4
ATOM      4  C   UNL     1      11.117  21.630  22.976  1.00  0.00     0.032 C 
BRANCH   4   5
ATOM      5  C   UNL     1       9.957  21.953  22.027  1.00  0.00     0.034 C 
BRANCH   5   6
ATOM      6  C   UNL     1      10.431  22.527  20.706  1.00  0.00    -0.077 C 
ATOM      7  C   UNL     1      10.590  21.596  19.530  1.00  0.00     0.039 C 
ATOM      8  C   UNL     1      10.792  23.823  20.538  1.00  0.00    -0.023 CG0
ATOM      9  G   UNL     1      10.668  24.953  21.543  1.00  0.00     0.000 G0
ENDBRANCH   5   6
ENDBRANCH   4   5
ENDBRANCH   2   4
BRANCH   1  10
ATOM     10  C   UNL     1      10.502  24.195  24.518  1.00  0.00     0.111 C 
BRANCH  10  11
ATOM     11  C   UNL     1       9.288  24.506  23.678  1.00  0.00     0.163 C 
ATOM     12  O   UNL     1       8.161  24.237  24.177  1.00  0.00    -0.294 OA
BRANCH  11  13
ATOM     13  C   UNL     1       9.354  25.089  22.296  1.00  0.00    -0.002 C 
ATOM     14  C   UNL     1       8.223  25.557  21.683  1.00  0.00    -0.069 C 
ATOM     15  C   UNL     1       8.204  25.933  20.218  1.00  0.00     0.039 C 
ATOM     16  C   UNL     1       6.939  25.771  22.452  1.00  0.00     0.039 C 
BRANCH  13  17
ATOM     17  C   UNL     1      10.673  24.975  21.539  1.00  0.00     0.066 CG0
ATOM     18  G   UNL     1      10.792  23.822  20.559  1.00  0.00     0.000 G0
ENDBRANCH  13  17
ENDBRANCH  11  13
ENDBRANCH  10  11
ENDBRANCH   1  10
TORSDOF 0
ENDMDL
MODEL 2
REMARK VINA RESULT:    -2.185      1.518      4.100
REMARK INTER + INTRA:          -1.474
REMARK INTER:                  -1.408
REMARK INTRA:                  -0.066
REMARK UNBOUND:                 1.605
REMARK SMILES CC1=CCC(=C(C)C)C(=O)CC(C)=CCC1
REMARK SMILES IDX 12 1 14 2 13 3 15 4 16 5 2 6 1 7 3 8 11 10 9 11 10 12 5 13
REMARK SMILES IDX 6 14 7 15 8 16 4 17
REMARK H PARENT
REMARK Flexibility Score: 60.00
ROOT
ATOM      1  C   UNL     1       6.598  25.473  22.008  1.00  0.00    -0.070 C 
ATOM      2  C   UNL     1       7.127  26.019  20.889  1.00  0.00    -0.027 C 
ATOM      3  C   UNL     1       5.376  26.122  22.605  1.00  0.00     0.039 C 
ENDROOT
BRANCH   2   4
ATOM      4  C   UNL     1       8.249  25.420  20.082  1.00  0.00     0.032 C 
BRANCH   4   5
ATOM      5  C   UNL     1       9.599  25.875  20.649  1.00  0.00     0.034 C 
BRANCH   5   6
ATOM      6  C   UNL     1      10.635  24.768  20.640  1.00  0.00    -0.077 C 
ATOM      7  C   UNL     1      11.121  24.245  19.311  1.00  0.00     0.039 C 
ATOM      8  C   UNL     1      11.102  24.168  21.763  1.00  0.00    -0.023 CG0
ATOM      9  G   UNL     1      10.811  24.550  23.203  1.00  0.00     0.000 G0
ENDBRANCH   5   6
ENDBRANCH   4   5
ENDBRANCH   2   4
BRANCH   1  10
ATOM     10  C   UNL     1       7.183  24.258  22.699  1.00  0.00     0.111 C 
BRANCH  10  11
ATOM     11  C   UNL     1       8.258  24.635  23.689  1.00  0.00     0.163 C 
ATOM     12  O   UNL     1       8.041  25.645  24.414  1.00  0.00    -0.294 OA
BRANCH  11  13
ATOM     13  C   UNL     1       9.556  23.896  23.836  1.00  0.00    -0.002 C 
ATOM     14  C   UNL     1       9.638  22.785  24.631  1.00  0.00    -0.069 C 
ATOM     15  C   UNL     1      10.964  22.153  24.990  1.00  0.00     0.039 C 
ATOM     16  C   UNL     1       8.399  22.097  25.156  1.00  0.00     0.039 C 
BRANCH  13  17
ATOM     17  C   UNL     1      10.805  24.523  23.225  1.00  0.00     0.066 CG0
ATOM     18  G   UNL     1      11.092  24.182  21.774  1.00  0.00     0.000 G0
ENDBRANCH  13  17
ENDBRANCH  11  13
ENDBRANCH  10  11
ENDBRANCH   1  10
TORSDOF 0
ENDMDL
MODEL 3
REMARK VINA RESULT:    -1.976     19.836     21.938
REMARK INTER + INTRA:          -1.180
REMARK INTER:                  -2.297
REMARK INTRA:                   1.117
REMARK UNBOUND:                 1.605
REMARK SMILES CC1=CCC(=C(C)C)C(=O)CC(C)=CCC1
REMARK SMILES IDX 12 1 14 2 13 3 15 4 16 5 2 6 1 7 3 8 11 10 9 11 10 12 5 13
REMARK SMILES IDX 6 14 7 15 8 16 4 17
REMARK H PARENT
REMARK Flexibility Score: 60.00
ROOT
ATOM      1  C   UNL     1      -7.819  22.688   7.218  1.00  0.00    -0.070 C 
ATOM      2  C   UNL     1      -8.644  23.741   7.418  1.00  0.00    -0.027 C 
ATOM      3  C   UNL     1      -8.421  21.306   7.209  1.00  0.00     0.039 C 
ENDROOT
BRANCH   2   4
ATOM      4  C   UNL     1      -8.239  25.188   7.312  1.00  0.00     0.032 C 
BRANCH   4   5
ATOM      5  C   UNL     1      -8.709  25.952   8.555  1.00  0.00     0.034 C 
BRANCH   5   6
ATOM      6  C   UNL     1      -7.999  25.501   9.816  1.00  0.00    -0.077 C 
ATOM      7  C   UNL     1      -8.831  25.029  10.983  1.00  0.00     0.039 C 
ATOM      8  C   UNL     1      -6.655  25.564   9.985  1.00  0.00    -0.023 CG0
ATOM      9  G   UNL     1      -5.612  25.946   8.949  1.00  0.00     0.000 G0
ENDBRANCH   5   6
ENDBRANCH   4   5
ENDBRANCH   2   4
BRANCH   1  10
ATOM     10  C   UNL     1      -6.322  22.826   7.023  1.00  0.00     0.111 C 
BRANCH  10  11
ATOM     11  C   UNL     1      -5.650  23.433   8.230  1.00  0.00     0.163 C 
ATOM     12  O   UNL     1      -5.712  22.781   9.309  1.00  0.00    -0.294 OA
BRANCH  11  13
ATOM     13  C   UNL     1      -4.945  24.758   8.217  1.00  0.00    -0.002 C 
ATOM     14  C   UNL     1      -3.677  24.866   7.712  1.00  0.00    -0.069 C 
ATOM     15  C   UNL     1      -2.848  26.118   7.889  1.00  0.00     0.039 C 
ATOM     16  C   UNL     1      -3.052  23.752   6.902  1.00  0.00     0.039 C 
BRANCH  13  17
ATOM     17  C   UNL     1      -5.607  25.924   8.942  1.00  0.00     0.066 CG0
ATOM     18  G   UNL     1      -6.659  25.568   9.976  1.00  0.00     0.000 G0
ENDBRANCH  13  17
ENDBRANCH  11  13
ENDBRANCH  10  11
ENDBRANCH   1  10
TORSDOF 0
ENDMDL
MODEL 4
REMARK VINA RESULT:    -1.421      1.632      2.144
REMARK INTER + INTRA:          -0.398
REMARK INTER:                  -2.289
REMARK INTRA:                   1.890
REMARK UNBOUND:                 1.605
REMARK SMILES CC1=CCC(=C(C)C)C(=O)CC(C)=CCC1
REMARK SMILES IDX 12 1 14 2 13 3 15 4 16 5 2 6 1 7 3 8 11 10 9 11 10 12 5 13
REMARK SMILES IDX 6 14 7 15 8 16 4 17
REMARK H PARENT
REMARK Flexibility Score: 60.00
ROOT
ATOM      1  C   UNL     1       8.529  24.178  23.917  1.00  0.00    -0.070 C 
ATOM      2  C   UNL     1       8.937  22.914  23.660  1.00  0.00    -0.027 C 
ATOM      3  C   UNL     1       7.750  24.430  25.183  1.00  0.00     0.039 C 
ENDROOT
BRANCH   2   4
ATOM      4  C   UNL     1       9.843  22.513  22.525  1.00  0.00     0.032 C 
BRANCH   4   5
ATOM      5  C   UNL     1       9.151  22.786  21.185  1.00  0.00     0.034 C 
BRANCH   5   6
ATOM      6  C   UNL     1      10.136  23.104  20.077  1.00  0.00    -0.077 C 
ATOM      7  C   UNL     1      10.912  21.970  19.454  1.00  0.00     0.039 C 
ATOM      8  C   UNL     1      10.416  24.364  19.661  1.00  0.00    -0.023 CG0
ATOM      9  G   UNL     1       9.733  25.650  20.090  1.00  0.00     0.000 G0
ENDBRANCH   5   6
ENDBRANCH   4   5
ENDBRANCH   2   4
BRANCH   1  10
ATOM     10  C   UNL     1       8.798  25.346  22.989  1.00  0.00     0.111 C 
BRANCH  10  11
ATOM     11  C   UNL     1       7.863  25.353  21.805  1.00  0.00     0.163 C 
ATOM     12  O   UNL     1       6.673  24.988  22.013  1.00  0.00    -0.294 OA
BRANCH  11  13
ATOM     13  C   UNL     1       8.275  25.745  20.417  1.00  0.00    -0.002 C 
ATOM     14  C   UNL     1       7.334  25.959  19.446  1.00  0.00    -0.069 C 
ATOM     15  C   UNL     1       7.708  26.125  17.990  1.00  0.00     0.039 C 
ATOM     16  C   UNL     1       5.866  26.092  19.784  1.00  0.00     0.039 C 
BRANCH  13  17
ATOM     17  C   UNL     1       9.762  25.717  20.081  1.00  0.00     0.066 CG0
ATOM     18  G   UNL     1      10.336  24.375  19.665  1.00  0.00     0.000 G0
ENDBRANCH  13  17
ENDBRANCH  11  13
ENDBRANCH  10  11
ENDBRANCH   1  10
TORSDOF 0
ENDMDL
MODEL 5
REMARK VINA RESULT:    -1.404      1.965      4.321
REMARK INTER + INTRA:          -0.373
REMARK INTER:                  -1.255
REMARK INTRA:                   0.882
REMARK UNBOUND:                 1.605
REMARK SMILES CC1=CCC(=C(C)C)C(=O)CC(C)=CCC1
REMARK SMILES IDX 12 1 14 2 13 3 15 4 16 5 2 6 1 7 3 8 11 10 9 11 10 12 5 13
REMARK SMILES IDX 6 14 7 15 8 16 4 17
REMARK H PARENT
REMARK Flexibility Score: 60.00
ROOT
ATOM      1  C   UNL     1       7.909  24.492  21.851  1.00  0.00    -0.070 C 
ATOM      2  C   UNL     1       7.687  24.271  23.167  1.00  0.00    -0.027 C 
ATOM      3  C   UNL     1       7.119  23.685  20.853  1.00  0.00     0.039 C 
ENDROOT
BRANCH   2   4
ATOM      4  C   UNL     1       8.276  25.084  24.291  1.00  0.00     0.032 C 
BRANCH   4   5
ATOM      5  C   UNL     1       8.791  24.152  25.394  1.00  0.00     0.034 C 
BRANCH   5   6
ATOM      6  C   UNL     1       9.036  22.742  24.894  1.00  0.00    -0.077 C 
ATOM      7  C   UNL     1       8.123  21.639  25.369  1.00  0.00     0.039 C 
ATOM      8  C   UNL     1      10.078  22.399  24.096  1.00  0.00    -0.023 CG0
ATOM      9  G   UNL     1      11.088  23.328  23.448  1.00  0.00     0.000 G0
ENDBRANCH   5   6
ENDBRANCH   4   5
ENDBRANCH   2   4
BRANCH   1  10
ATOM     10  C   UNL     1       8.922  25.494  21.333  1.00  0.00     0.111 C 
BRANCH  10  11
ATOM     11  C   UNL     1      10.325  25.156  21.774  1.00  0.00     0.163 C 
ATOM     12  O   UNL     1      11.122  26.120  21.939  1.00  0.00    -0.294 OA
BRANCH  11  13
ATOM     13  C   UNL     1      10.815  23.756  22.003  1.00  0.00    -0.002 C 
ATOM     14  C   UNL     1      10.851  22.855  20.974  1.00  0.00    -0.069 C 
ATOM     15  C   UNL     1      11.113  21.383  21.206  1.00  0.00     0.039 C 
ATOM     16  C   UNL     1      10.680  23.291  19.536  1.00  0.00     0.039 C 
BRANCH  13  17
ATOM     17  C   UNL     1      11.092  23.325  23.439  1.00  0.00     0.066 CG0
ATOM     18  G   UNL     1      10.061  22.418  24.084  1.00  0.00     0.000 G0
ENDBRANCH  13  17
ENDBRANCH  11  13
ENDBRANCH  10  11
ENDBRANCH   1  10
TORSDOF 0
ENDMDL
