MODEL 1
REMARK VINA RESULT:    -4.977      0.000      0.000
REMARK INTER + INTRA:         -11.515
REMARK INTER:                  -9.050
REMARK INTRA:                  -2.465
REMARK UNBOUND:                -2.465
REMARK SMILES CCCCCC=CCC=CCCCCCCCC(=O)[O-]
REMARK SMILES IDX 11 1 12 2 13 3 14 4 15 5 16 6 17 7 18 8 19 9 20 10 10 11
REMARK SMILES IDX 9 12 8 13 7 14 6 15 5 16 4 17 3 18 2 19 1 20
REMARK H PARENT
REMARK Flexibility Score: inf
ROOT
ATOM      1  C   UNL     1       9.225  46.013  32.420  1.00  0.00     0.027 C 
ENDROOT
BRANCH   1   2
ATOM      2  C   UNL     1      10.505  45.312  32.893  1.00  0.00     0.004 C 
BRANCH   2   3
ATOM      3  C   UNL     1      11.127  44.430  31.801  1.00  0.00     0.000 C 
BRANCH   3   4
ATOM      4  C   UNL     1      12.625  44.717  31.649  1.00  0.00     0.000 C 
BRANCH   4   5
ATOM      5  C   UNL     1      13.359  43.502  31.061  1.00  0.00     0.000 C 
BRANCH   5   6
ATOM      6  C   UNL     1      12.543  42.781  29.973  1.00  0.00     0.006 C 
BRANCH   6   7
ATOM      7  C   UNL     1      12.935  43.156  28.535  1.00  0.00     0.053 C 
BRANCH   7   8
ATOM      8  C   UNL     1      11.863  42.799  27.551  1.00  0.00     0.041 C 
ATOM      9  O   UNL     1      10.851  43.536  27.420  1.00  0.00    -0.550 OA
ATOM     10  O   UNL     1      11.967  41.634  26.801  1.00  0.00    -0.550 OA
ENDBRANCH   7   8
ENDBRANCH   6   7
ENDBRANCH   5   6
ENDBRANCH   4   5
ENDBRANCH   3   4
ENDBRANCH   2   3
ENDBRANCH   1   2
BRANCH   1  11
ATOM     11  C   UNL     1       9.485  47.449  32.032  1.00  0.00    -0.031 C 
ATOM     12  C   UNL     1       9.420  47.949  30.783  1.00  0.00    -0.027 C 
BRANCH  12  13
ATOM     13  C   UNL     1       9.140  47.155  29.532  1.00  0.00     0.054 C 
BRANCH  13  14
ATOM     14  C   UNL     1      10.419  46.637  28.938  1.00  0.00    -0.027 C 
ATOM     15  C   UNL     1      11.601  47.215  29.194  1.00  0.00    -0.031 C 
BRANCH  15  16
ATOM     16  C   UNL     1      12.878  46.697  28.589  1.00  0.00     0.027 C 
BRANCH  16  17
ATOM     17  C   UNL     1      13.770  47.847  28.107  1.00  0.00     0.004 C 
BRANCH  17  18
ATOM     18  C   UNL     1      15.239  47.409  28.035  1.00  0.00     0.000 C 
BRANCH  18  19
ATOM     19  C   UNL     1      15.445  45.957  28.496  1.00  0.00    -0.003 C 
ATOM     20  C   UNL     1      16.212  45.858  29.815  1.00  0.00     0.004 C 
ENDBRANCH  18  19
ENDBRANCH  17  18
ENDBRANCH  16  17
ENDBRANCH  15  16
ENDBRANCH  13  14
ENDBRANCH  12  13
ENDBRANCH   1  11
TORSDOF 14
ENDMDL
MODEL 2
REMARK VINA RESULT:    -4.882      1.592      4.795
REMARK INTER + INTRA:         -11.342
REMARK INTER:                  -9.279
REMARK INTRA:                  -2.063
REMARK UNBOUND:                -2.465
REMARK SMILES CCCCCC=CCC=CCCCCCCCC(=O)[O-]
REMARK SMILES IDX 11 1 12 2 13 3 14 4 15 5 16 6 17 7 18 8 19 9 20 10 10 11
REMARK SMILES IDX 9 12 8 13 7 14 6 15 5 16 4 17 3 18 2 19 1 20
REMARK H PARENT
REMARK Flexibility Score: inf
ROOT
ATOM      1  C   UNL     1      15.730  45.576  28.940  1.00  0.00     0.027 C 
ENDROOT
BRANCH   1   2
ATOM      2  C   UNL     1      15.610  45.526  30.469  1.00  0.00     0.004 C 
BRANCH   2   3
ATOM      3  C   UNL     1      15.056  44.184  30.969  1.00  0.00     0.000 C 
BRANCH   3   4
ATOM      4  C   UNL     1      13.549  44.274  31.230  1.00  0.00     0.000 C 
BRANCH   4   5
ATOM      5  C   UNL     1      12.773  43.334  30.294  1.00  0.00     0.000 C 
BRANCH   5   6
ATOM      6  C   UNL     1      13.697  42.480  29.406  1.00  0.00     0.006 C 
BRANCH   6   7
ATOM      7  C   UNL     1      13.326  42.488  27.915  1.00  0.00     0.053 C 
BRANCH   7   8
ATOM      8  C   UNL     1      12.636  41.224  27.502  1.00  0.00     0.041 C 
ATOM      9  O   UNL     1      12.133  40.464  28.371  1.00  0.00    -0.550 OA
ATOM     10  O   UNL     1      12.577  40.869  26.160  1.00  0.00    -0.550 OA
ENDBRANCH   7   8
ENDBRANCH   6   7
ENDBRANCH   5   6
ENDBRANCH   4   5
ENDBRANCH   3   4
ENDBRANCH   2   3
ENDBRANCH   1   2
BRANCH   1  11
ATOM     11  C   UNL     1      15.266  46.901  28.385  1.00  0.00    -0.031 C 
ATOM     12  C   UNL     1      13.999  47.211  28.047  1.00  0.00    -0.027 C 
BRANCH  12  13
ATOM     13  C   UNL     1      12.822  46.270  28.095  1.00  0.00     0.054 C 
BRANCH  13  14
ATOM     14  C   UNL     1      11.802  46.751  29.087  1.00  0.00    -0.027 C 
ATOM     15  C   UNL     1      10.584  46.196  29.173  1.00  0.00    -0.031 C 
BRANCH  15  16
ATOM     16  C   UNL     1       9.563  46.688  30.162  1.00  0.00     0.027 C 
BRANCH  16  17
ATOM     17  C   UNL     1       8.683  47.785  29.552  1.00  0.00     0.004 C 
BRANCH  17  18
ATOM     18  C   UNL     1       9.188  49.179  29.952  1.00  0.00     0.000 C 
BRANCH  18  19
ATOM     19  C   UNL     1       8.278  50.306  29.440  1.00  0.00    -0.003 C 
ATOM     20  C   UNL     1       8.907  51.098  28.293  1.00  0.00     0.004 C 
ENDBRANCH  18  19
ENDBRANCH  17  18
ENDBRANCH  16  17
ENDBRANCH  15  16
ENDBRANCH  13  14
ENDBRANCH  12  13
ENDBRANCH   1  11
TORSDOF 14
ENDMDL
MODEL 3
REMARK VINA RESULT:    -4.874      3.027      5.172
REMARK INTER + INTRA:         -11.328
REMARK INTER:                  -9.545
REMARK INTRA:                  -1.783
REMARK UNBOUND:                -2.465
REMARK SMILES CCCCCC=CCC=CCCCCCCCC(=O)[O-]
REMARK SMILES IDX 11 1 12 2 13 3 14 4 15 5 16 6 17 7 18 8 19 9 20 10 10 11
REMARK SMILES IDX 9 12 8 13 7 14 6 15 5 16 4 17 3 18 2 19 1 20
REMARK H PARENT
REMARK Flexibility Score: inf
ROOT
ATOM      1  C   UNL     1       9.976  44.024  30.027  1.00  0.00     0.027 C 
ENDROOT
BRANCH   1   2
ATOM      2  C   UNL     1      10.501  44.855  31.204  1.00  0.00     0.004 C 
BRANCH   2   3
ATOM      3  C   UNL     1       9.370  45.527  31.998  1.00  0.00     0.000 C 
BRANCH   3   4
ATOM      4  C   UNL     1       9.280  47.021  31.670  1.00  0.00     0.000 C 
BRANCH   4   5
ATOM      5  C   UNL     1      10.552  47.503  30.957  1.00  0.00     0.000 C 
BRANCH   5   6
ATOM      6  C   UNL     1      10.250  48.340  29.699  1.00  0.00     0.006 C 
BRANCH   6   7
ATOM      7  C   UNL     1       8.757  48.626  29.473  1.00  0.00     0.053 C 
BRANCH   7   8
ATOM      8  C   UNL     1       8.487  50.089  29.302  1.00  0.00     0.041 C 
ATOM      9  O   UNL     1       8.665  50.642  28.185  1.00  0.00    -0.550 OA
ATOM     10  O   UNL     1       8.070  50.851  30.387  1.00  0.00    -0.550 OA
ENDBRANCH   7   8
ENDBRANCH   6   7
ENDBRANCH   5   6
ENDBRANCH   4   5
ENDBRANCH   3   4
ENDBRANCH   2   3
ENDBRANCH   1   2
BRANCH   1  11
ATOM     11  C   UNL     1      10.517  44.518  28.707  1.00  0.00    -0.031 C 
ATOM     12  C   UNL     1      11.664  44.113  28.127  1.00  0.00    -0.027 C 
BRANCH  12  13
ATOM     13  C   UNL     1      12.652  43.141  28.720  1.00  0.00     0.054 C 
BRANCH  13  14
ATOM     14  C   UNL     1      13.892  43.858  29.172  1.00  0.00    -0.027 C 
ATOM     15  C   UNL     1      14.491  44.784  28.409  1.00  0.00    -0.031 C 
BRANCH  15  16
ATOM     16  C   UNL     1      15.737  45.493  28.863  1.00  0.00     0.027 C 
BRANCH  16  17
ATOM     17  C   UNL     1      15.412  46.883  29.422  1.00  0.00     0.004 C 
BRANCH  17  18
ATOM     18  C   UNL     1      14.255  47.529  28.646  1.00  0.00     0.000 C 
BRANCH  18  19
ATOM     19  C   UNL     1      14.729  48.261  27.381  1.00  0.00    -0.003 C 
ATOM     20  C   UNL     1      15.030  49.739  27.630  1.00  0.00     0.004 C 
ENDBRANCH  18  19
ENDBRANCH  17  18
ENDBRANCH  16  17
ENDBRANCH  15  16
ENDBRANCH  13  14
ENDBRANCH  12  13
ENDBRANCH   1  11
TORSDOF 14
ENDMDL
MODEL 4
REMARK VINA RESULT:    -4.859      1.234      3.137
REMARK INTER + INTRA:         -11.301
REMARK INTER:                  -8.434
REMARK INTRA:                  -2.867
REMARK UNBOUND:                -2.465
REMARK SMILES CCCCCC=CCC=CCCCCCCCC(=O)[O-]
REMARK SMILES IDX 11 1 12 2 13 3 14 4 15 5 16 6 17 7 18 8 19 9 20 10 10 11
REMARK SMILES IDX 9 12 8 13 7 14 6 15 5 16 4 17 3 18 2 19 1 20
REMARK H PARENT
REMARK Flexibility Score: inf
ROOT
ATOM      1  C   UNL     1       9.554  47.028  30.570  1.00  0.00     0.027 C 
ENDROOT
BRANCH   1   2
ATOM      2  C   UNL     1      10.017  46.719  29.140  1.00  0.00     0.004 C 
BRANCH   2   3
ATOM      3  C   UNL     1      11.547  46.673  29.018  1.00  0.00     0.000 C 
BRANCH   3   4
ATOM      4  C   UNL     1      11.997  45.460  28.197  1.00  0.00     0.000 C 
BRANCH   4   5
ATOM      5  C   UNL     1      11.014  44.291  28.362  1.00  0.00     0.000 C 
BRANCH   5   6
ATOM      6  C   UNL     1      11.715  42.966  28.714  1.00  0.00     0.006 C 
BRANCH   6   7
ATOM      7  C   UNL     1      13.038  42.733  27.967  1.00  0.00     0.053 C 
BRANCH   7   8
ATOM      8  C   UNL     1      13.071  41.398  27.289  1.00  0.00     0.041 C 
ATOM      9  O   UNL     1      14.152  40.947  26.828  1.00  0.00    -0.550 OA
ATOM     10  O   UNL     1      11.900  40.666  27.137  1.00  0.00    -0.550 OA
ENDBRANCH   7   8
ENDBRANCH   6   7
ENDBRANCH   5   6
ENDBRANCH   4   5
ENDBRANCH   3   4
ENDBRANCH   2   3
ENDBRANCH   1   2
BRANCH   1  11
ATOM     11  C   UNL     1       9.071  45.787  31.282  1.00  0.00    -0.031 C 
ATOM     12  C   UNL     1       9.748  45.112  32.230  1.00  0.00    -0.027 C 
BRANCH  12  13
ATOM     13  C   UNL     1      11.141  45.430  32.709  1.00  0.00     0.054 C 
BRANCH  13  14
ATOM     14  C   UNL     1      12.161  44.665  31.915  1.00  0.00    -0.027 C 
ATOM     15  C   UNL     1      13.413  45.118  31.751  1.00  0.00    -0.031 C 
BRANCH  15  16
ATOM     16  C   UNL     1      14.428  44.352  30.947  1.00  0.00     0.027 C 
BRANCH  16  17
ATOM     17  C   UNL     1      15.854  44.809  31.276  1.00  0.00     0.004 C 
BRANCH  17  18
ATOM     18  C   UNL     1      16.356  45.826  30.241  1.00  0.00     0.000 C 
BRANCH  18  19
ATOM     19  C   UNL     1      15.708  45.633  28.861  1.00  0.00    -0.003 C 
ATOM     20  C   UNL     1      15.346  46.957  28.187  1.00  0.00     0.004 C 
ENDBRANCH  18  19
ENDBRANCH  17  18
ENDBRANCH  16  17
ENDBRANCH  15  16
ENDBRANCH  13  14
ENDBRANCH  12  13
ENDBRANCH   1  11
TORSDOF 14
ENDMDL
MODEL 5
REMARK VINA RESULT:    -4.835      2.228      5.050
REMARK INTER + INTRA:         -11.256
REMARK INTER:                  -9.538
REMARK INTRA:                  -1.718
REMARK UNBOUND:                -2.465
REMARK SMILES CCCCCC=CCC=CCCCCCCCC(=O)[O-]
REMARK SMILES IDX 11 1 12 2 13 3 14 4 15 5 16 6 17 7 18 8 19 9 20 10 10 11
REMARK SMILES IDX 9 12 8 13 7 14 6 15 5 16 4 17 3 18 2 19 1 20
REMARK H PARENT
REMARK Flexibility Score: inf
ROOT
ATOM      1  C   UNL     1      15.756  45.698  28.919  1.00  0.00     0.027 C 
ENDROOT
BRANCH   1   2
ATOM      2  C   UNL     1      15.268  44.976  30.182  1.00  0.00     0.004 C 
BRANCH   2   3
ATOM      3  C   UNL     1      14.072  44.054  29.904  1.00  0.00     0.000 C 
BRANCH   3   4
ATOM      4  C   UNL     1      14.039  43.623  28.434  1.00  0.00     0.000 C 
BRANCH   4   5
ATOM      5  C   UNL     1      12.608  43.272  27.998  1.00  0.00     0.000 C 
BRANCH   5   6
ATOM      6  C   UNL     1      12.180  41.860  28.438  1.00  0.00     0.006 C 
BRANCH   6   7
ATOM      7  C   UNL     1      11.952  40.877  27.278  1.00  0.00     0.053 C 
BRANCH   7   8
ATOM      8  C   UNL     1      13.232  40.255  26.812  1.00  0.00     0.041 C 
ATOM      9  O   UNL     1      14.104  39.896  27.646  1.00  0.00    -0.550 OA
ATOM     10  O   UNL     1      13.476  40.101  25.452  1.00  0.00    -0.550 OA
ENDBRANCH   7   8
ENDBRANCH   6   7
ENDBRANCH   5   6
ENDBRANCH   4   5
ENDBRANCH   3   4
ENDBRANCH   2   3
ENDBRANCH   1   2
BRANCH   1  11
ATOM     11  C   UNL     1      15.987  47.169  29.170  1.00  0.00    -0.031 C 
ATOM     12  C   UNL     1      15.303  48.180  28.600  1.00  0.00    -0.027 C 
BRANCH  12  13
ATOM     13  C   UNL     1      14.226  48.033  27.556  1.00  0.00     0.054 C 
BRANCH  13  14
ATOM     14  C   UNL     1      12.866  48.053  28.193  1.00  0.00    -0.027 C 
ATOM     15  C   UNL     1      12.206  46.923  28.484  1.00  0.00    -0.031 C 
BRANCH  15  16
ATOM     16  C   UNL     1      10.840  46.948  29.114  1.00  0.00     0.027 C 
BRANCH  16  17
ATOM     17  C   UNL     1      10.496  48.349  29.635  1.00  0.00     0.004 C 
BRANCH  17  18
ATOM     18  C   UNL     1       8.975  48.538  29.736  1.00  0.00     0.000 C 
BRANCH  18  19
ATOM     19  C   UNL     1       8.565  50.018  29.767  1.00  0.00    -0.003 C 
ATOM     20  C   UNL     1       8.691  50.696  28.403  1.00  0.00     0.004 C 
ENDBRANCH  18  19
ENDBRANCH  17  18
ENDBRANCH  16  17
ENDBRANCH  15  16
ENDBRANCH  13  14
ENDBRANCH  12  13
ENDBRANCH   1  11
TORSDOF 14
ENDMDL
MODEL 6
REMARK VINA RESULT:    -4.816      3.654      5.904
REMARK INTER + INTRA:         -11.222
REMARK INTER:                  -9.416
REMARK INTRA:                  -1.806
REMARK UNBOUND:                -2.465
REMARK SMILES CCCCCC=CCC=CCCCCCCCC(=O)[O-]
REMARK SMILES IDX 11 1 12 2 13 3 14 4 15 5 16 6 17 7 18 8 19 9 20 10 10 11
REMARK SMILES IDX 9 12 8 13 7 14 6 15 5 16 4 17 3 18 2 19 1 20
REMARK H PARENT
REMARK Flexibility Score: inf
ROOT
ATOM      1  C   UNL     1       9.770  45.003  31.242  1.00  0.00     0.027 C 
ENDROOT
BRANCH   1   2
ATOM      2  C   UNL     1       9.142  46.398  31.361  1.00  0.00     0.004 C 
BRANCH   2   3
ATOM      3  C   UNL     1       9.002  47.095  30.000  1.00  0.00     0.000 C 
BRANCH   3   4
ATOM      4  C   UNL     1       9.453  48.557  30.082  1.00  0.00     0.000 C 
BRANCH   4   5
ATOM      5  C   UNL     1       8.682  49.426  29.077  1.00  0.00     0.000 C 
BRANCH   5   6
ATOM      6  C   UNL     1       8.389  50.840  29.612  1.00  0.00     0.006 C 
BRANCH   6   7
ATOM      7  C   UNL     1       8.343  50.940  31.145  1.00  0.00     0.053 C 
BRANCH   7   8
ATOM      8  C   UNL     1       9.377  51.884  31.677  1.00  0.00     0.041 C 
ATOM      9  O   UNL     1      10.508  51.455  32.025  1.00  0.00    -0.550 OA
ATOM     10  O   UNL     1       9.080  53.234  31.819  1.00  0.00    -0.550 OA
ENDBRANCH   7   8
ENDBRANCH   6   7
ENDBRANCH   5   6
ENDBRANCH   4   5
ENDBRANCH   3   4
ENDBRANCH   2   3
ENDBRANCH   1   2
BRANCH   1  11
ATOM     11  C   UNL     1       9.485  44.375  29.899  1.00  0.00    -0.031 C 
ATOM     12  C   UNL     1      10.406  44.069  28.964  1.00  0.00    -0.027 C 
BRANCH  12  13
ATOM     13  C   UNL     1      11.882  44.360  29.057  1.00  0.00     0.054 C 
BRANCH  13  14
ATOM     14  C   UNL     1      12.212  45.650  28.362  1.00  0.00    -0.027 C 
ATOM     15  C   UNL     1      12.511  46.764  29.045  1.00  0.00    -0.031 C 
BRANCH  15  16
ATOM     16  C   UNL     1      12.832  48.055  28.344  1.00  0.00     0.027 C 
BRANCH  16  17
ATOM     17  C   UNL     1      14.092  47.919  27.480  1.00  0.00     0.004 C 
BRANCH  17  18
ATOM     18  C   UNL     1      15.338  47.726  28.356  1.00  0.00     0.000 C 
BRANCH  18  19
ATOM     19  C   UNL     1      15.791  46.259  28.423  1.00  0.00    -0.003 C 
ATOM     20  C   UNL     1      16.182  45.825  29.836  1.00  0.00     0.004 C 
ENDBRANCH  18  19
ENDBRANCH  17  18
ENDBRANCH  16  17
ENDBRANCH  15  16
ENDBRANCH  13  14
ENDBRANCH  12  13
ENDBRANCH   1  11
TORSDOF 14
ENDMDL
MODEL 7
REMARK VINA RESULT:    -4.790      3.006      6.540
REMARK INTER + INTRA:         -11.175
REMARK INTER:                  -8.837
REMARK INTRA:                  -2.338
REMARK UNBOUND:                -2.465
REMARK SMILES CCCCCC=CCC=CCCCCCCCC(=O)[O-]
REMARK SMILES IDX 11 1 12 2 13 3 14 4 15 5 16 6 17 7 18 8 19 9 20 10 10 11
REMARK SMILES IDX 9 12 8 13 7 14 6 15 5 16 4 17 3 18 2 19 1 20
REMARK H PARENT
REMARK Flexibility Score: inf
ROOT
ATOM      1  C   UNL     1      15.596  48.252  29.090  1.00  0.00     0.027 C 
ENDROOT
BRANCH   1   2
ATOM      2  C   UNL     1      14.093  48.528  29.231  1.00  0.00     0.004 C 
BRANCH   2   3
ATOM      3  C   UNL     1      13.281  47.958  28.059  1.00  0.00     0.000 C 
BRANCH   3   4
ATOM      4  C   UNL     1      12.158  47.044  28.561  1.00  0.00     0.000 C 
BRANCH   4   5
ATOM      5  C   UNL     1      11.344  47.733  29.667  1.00  0.00     0.000 C 
BRANCH   5   6
ATOM      6  C   UNL     1      10.029  48.344  29.148  1.00  0.00     0.006 C 
BRANCH   6   7
ATOM      7  C   UNL     1       9.147  48.970  30.240  1.00  0.00     0.053 C 
BRANCH   7   8
ATOM      8  C   UNL     1       8.572  50.285  29.810  1.00  0.00     0.041 C 
ATOM      9  O   UNL     1       8.322  51.177  30.663  1.00  0.00    -0.550 OA
ATOM     10  O   UNL     1       8.280  50.512  28.471  1.00  0.00    -0.550 OA
ENDBRANCH   7   8
ENDBRANCH   6   7
ENDBRANCH   5   6
ENDBRANCH   4   5
ENDBRANCH   3   4
ENDBRANCH   2   3
ENDBRANCH   1   2
BRANCH   1  11
ATOM     11  C   UNL     1      16.050  47.143  30.008  1.00  0.00    -0.031 C 
ATOM     12  C   UNL     1      16.095  45.834  29.695  1.00  0.00    -0.027 C 
BRANCH  12  13
ATOM     13  C   UNL     1      15.638  45.225  28.394  1.00  0.00     0.054 C 
BRANCH  13  14
ATOM     14  C   UNL     1      14.576  44.191  28.637  1.00  0.00    -0.027 C 
ATOM     15  C   UNL     1      13.952  44.085  29.819  1.00  0.00    -0.031 C 
BRANCH  15  16
ATOM     16  C   UNL     1      12.895  43.042  30.061  1.00  0.00     0.027 C 
BRANCH  16  17
ATOM     17  C   UNL     1      11.488  43.636  29.921  1.00  0.00     0.004 C 
BRANCH  17  18
ATOM     18  C   UNL     1      11.057  44.334  31.220  1.00  0.00     0.000 C 
BRANCH  18  19
ATOM     19  C   UNL     1       9.596  44.807  31.178  1.00  0.00    -0.003 C 
ATOM     20  C   UNL     1       9.243  45.739  32.338  1.00  0.00     0.004 C 
ENDBRANCH  18  19
ENDBRANCH  17  18
ENDBRANCH  16  17
ENDBRANCH  15  16
ENDBRANCH  13  14
ENDBRANCH  12  13
ENDBRANCH   1  11
TORSDOF 14
ENDMDL
MODEL 8
REMARK VINA RESULT:    -4.774      3.415      5.346
REMARK INTER + INTRA:         -11.146
REMARK INTER:                  -8.446
REMARK INTRA:                  -2.700
REMARK UNBOUND:                -2.465
REMARK SMILES CCCCCC=CCC=CCCCCCCCC(=O)[O-]
REMARK SMILES IDX 11 1 12 2 13 3 14 4 15 5 16 6 17 7 18 8 19 9 20 10 10 11
REMARK SMILES IDX 9 12 8 13 7 14 6 15 5 16 4 17 3 18 2 19 1 20
REMARK H PARENT
REMARK Flexibility Score: inf
ROOT
ATOM      1  C   UNL     1      11.753  47.219  32.786  1.00  0.00     0.027 C 
ENDROOT
BRANCH   1   2
ATOM      2  C   UNL     1      12.904  46.658  31.941  1.00  0.00     0.004 C 
BRANCH   2   3
ATOM      3  C   UNL     1      12.787  47.045  30.459  1.00  0.00     0.000 C 
BRANCH   3   4
ATOM      4  C   UNL     1      11.783  48.187  30.267  1.00  0.00     0.000 C 
BRANCH   4   5
ATOM      5  C   UNL     1      10.830  47.888  29.100  1.00  0.00     0.000 C 
BRANCH   5   6
ATOM      6  C   UNL     1       9.381  48.325  29.385  1.00  0.00     0.006 C 
BRANCH   6   7
ATOM      7  C   UNL     1       9.251  49.442  30.433  1.00  0.00     0.053 C 
BRANCH   7   8
ATOM      8  C   UNL     1       8.737  50.715  29.835  1.00  0.00     0.041 C 
ATOM      9  O   UNL     1       8.704  51.770  30.521  1.00  0.00    -0.550 OA
ATOM     10  O   UNL     1       8.263  50.729  28.529  1.00  0.00    -0.550 OA
ENDBRANCH   7   8
ENDBRANCH   6   7
ENDBRANCH   5   6
ENDBRANCH   4   5
ENDBRANCH   3   4
ENDBRANCH   2   3
ENDBRANCH   1   2
BRANCH   1  11
ATOM     11  C   UNL     1      11.082  46.140  33.602  1.00  0.00    -0.031 C 
ATOM     12  C   UNL     1      10.096  45.329  33.172  1.00  0.00    -0.027 C 
BRANCH  12  13
ATOM     13  C   UNL     1       9.434  45.391  31.819  1.00  0.00     0.054 C 
BRANCH  13  14
ATOM     14  C   UNL     1      10.116  44.464  30.854  1.00  0.00    -0.027 C 
ATOM     15  C   UNL     1       9.959  44.586  29.528  1.00  0.00    -0.031 C 
BRANCH  15  16
ATOM     16  C   UNL     1      10.637  43.649  28.566  1.00  0.00     0.027 C 
BRANCH  16  17
ATOM     17  C   UNL     1      11.940  44.254  28.029  1.00  0.00     0.004 C 
BRANCH  17  18
ATOM     18  C   UNL     1      13.149  43.754  28.835  1.00  0.00     0.000 C 
BRANCH  18  19
ATOM     19  C   UNL     1      13.253  42.221  28.854  1.00  0.00    -0.003 C 
ATOM     20  C   UNL     1      13.835  41.653  27.560  1.00  0.00     0.004 C 
ENDBRANCH  18  19
ENDBRANCH  17  18
ENDBRANCH  16  17
ENDBRANCH  15  16
ENDBRANCH  13  14
ENDBRANCH  12  13
ENDBRANCH   1  11
TORSDOF 14
ENDMDL
MODEL 9
REMARK VINA RESULT:    -4.737      1.189      4.640
REMARK INTER + INTRA:         -11.078
REMARK INTER:                  -8.158
REMARK INTRA:                  -2.920
REMARK UNBOUND:                -2.465
REMARK SMILES CCCCCC=CCC=CCCCCCCCC(=O)[O-]
REMARK SMILES IDX 11 1 12 2 13 3 14 4 15 5 16 6 17 7 18 8 19 9 20 10 10 11
REMARK SMILES IDX 9 12 8 13 7 14 6 15 5 16 4 17 3 18 2 19 1 20
REMARK H PARENT
REMARK Flexibility Score: inf
ROOT
ATOM      1  C   UNL     1      16.436  46.737  30.316  1.00  0.00     0.027 C 
ENDROOT
BRANCH   1   2
ATOM      2  C   UNL     1      15.602  46.131  31.451  1.00  0.00     0.004 C 
BRANCH   2   3
ATOM      3  C   UNL     1      15.891  44.637  31.657  1.00  0.00     0.000 C 
BRANCH   3   4
ATOM      4  C   UNL     1      14.668  43.785  31.301  1.00  0.00     0.000 C 
BRANCH   4   5
ATOM      5  C   UNL     1      13.381  44.623  31.357  1.00  0.00     0.000 C 
BRANCH   5   6
ATOM      6  C   UNL     1      12.378  44.251  30.249  1.00  0.00     0.006 C 
BRANCH   6   7
ATOM      7  C   UNL     1      13.005  44.088  28.855  1.00  0.00     0.053 C 
BRANCH   7   8
ATOM      8  C   UNL     1      12.158  43.244  27.955  1.00  0.00     0.041 C 
ATOM      9  O   UNL     1      12.604  42.159  27.496  1.00  0.00    -0.550 OA
ATOM     10  O   UNL     1      10.886  43.671  27.593  1.00  0.00    -0.550 OA
ENDBRANCH   7   8
ENDBRANCH   6   7
ENDBRANCH   5   6
ENDBRANCH   4   5
ENDBRANCH   3   4
ENDBRANCH   2   3
ENDBRANCH   1   2
BRANCH   1  11
ATOM     11  C   UNL     1      16.098  46.118  28.980  1.00  0.00    -0.031 C 
ATOM     12  C   UNL     1      15.336  46.683  28.024  1.00  0.00    -0.027 C 
BRANCH  12  13
ATOM     13  C   UNL     1      14.625  48.007  28.135  1.00  0.00     0.054 C 
BRANCH  13  14
ATOM     14  C   UNL     1      13.207  47.809  28.588  1.00  0.00    -0.027 C 
ATOM     15  C   UNL     1      12.823  48.078  29.844  1.00  0.00    -0.031 C 
BRANCH  15  16
ATOM     16  C   UNL     1      11.403  47.870  30.296  1.00  0.00     0.027 C 
BRANCH  16  17
ATOM     17  C   UNL     1      10.547  47.272  29.173  1.00  0.00     0.004 C 
BRANCH  17  18
ATOM     18  C   UNL     1       9.164  46.859  29.699  1.00  0.00     0.000 C 
BRANCH  18  19
ATOM     19  C   UNL     1       9.155  45.439  30.286  1.00  0.00    -0.003 C 
ATOM     20  C   UNL     1       9.020  45.430  31.809  1.00  0.00     0.004 C 
ENDBRANCH  18  19
ENDBRANCH  17  18
ENDBRANCH  16  17
ENDBRANCH  15  16
ENDBRANCH  13  14
ENDBRANCH  12  13
ENDBRANCH   1  11
TORSDOF 14
ENDMDL
