MODEL 1
REMARK VINA RESULT:    -3.734      0.000      0.000
REMARK INTER + INTRA:          -4.468
REMARK INTER:                  -4.389
REMARK INTRA:                  -0.079
REMARK UNBOUND:                -0.079
REMARK SMILES CCCCC(=O)[O-]
REMARK SMILES IDX 4 1 5 2 6 3 7 4 3 5 2 6 1 7
REMARK H PARENT
REMARK Flexibility Score: inf
ROOT
ATOM      1  C   UNL     1       5.960 -35.849  24.695  1.00  0.00     0.053 C 
ENDROOT
BRANCH   1   2
ATOM      2  C   UNL     1       4.906 -36.909  24.656  1.00  0.00     0.041 C 
ATOM      3  O   UNL     1       4.649 -37.507  23.578  1.00  0.00    -0.550 OA
ATOM      4  O   UNL     1       4.242 -37.272  25.820  1.00  0.00    -0.550 OA
ENDBRANCH   1   2
BRANCH   1   5
ATOM      5  C   UNL     1       6.123 -35.201  23.317  1.00  0.00     0.006 C 
BRANCH   5   6
ATOM      6  C   UNL     1       5.494 -33.804  23.287  1.00  0.00    -0.003 C 
ATOM      7  C   UNL     1       4.453 -33.691  22.177  1.00  0.00     0.004 C 
ENDBRANCH   5   6
ENDBRANCH   1   5
TORSDOF 3
ENDMDL
MODEL 2
REMARK VINA RESULT:    -3.700      0.089      1.227
REMARK INTER + INTRA:          -4.428
REMARK INTER:                  -4.345
REMARK INTRA:                  -0.083
REMARK UNBOUND:                -0.079
REMARK SMILES CCCCC(=O)[O-]
REMARK SMILES IDX 4 1 5 2 6 3 7 4 3 5 2 6 1 7
REMARK H PARENT
REMARK Flexibility Score: inf
ROOT
ATOM      1  C   UNL     1       5.914 -35.774  24.758  1.00  0.00     0.053 C 
ENDROOT
BRANCH   1   2
ATOM      2  C   UNL     1       4.920 -36.891  24.705  1.00  0.00     0.041 C 
ATOM      3  O   UNL     1       4.308 -37.243  25.747  1.00  0.00    -0.550 OA
ATOM      4  O   UNL     1       4.634 -37.510  23.496  1.00  0.00    -0.550 OA
ENDBRANCH   1   2
BRANCH   1   5
ATOM      5  C   UNL     1       6.125 -35.177  23.364  1.00  0.00     0.006 C 
BRANCH   5   6
ATOM      6  C   UNL     1       5.452 -33.806  23.245  1.00  0.00    -0.003 C 
ATOM      7  C   UNL     1       4.472 -33.772  22.076  1.00  0.00     0.004 C 
ENDBRANCH   5   6
ENDBRANCH   1   5
TORSDOF 3
ENDMDL
MODEL 3
REMARK VINA RESULT:    -3.610      2.651      3.625
REMARK INTER + INTRA:          -4.322
REMARK INTER:                  -4.246
REMARK INTRA:                  -0.076
REMARK UNBOUND:                -0.079
REMARK SMILES CCCCC(=O)[O-]
REMARK SMILES IDX 4 1 5 2 6 3 7 4 3 5 2 6 1 7
REMARK H PARENT
REMARK Flexibility Score: inf
ROOT
ATOM      1  C   UNL     1       4.291 -33.576  21.954  1.00  0.00     0.053 C 
ENDROOT
BRANCH   1   2
ATOM      2  C   UNL     1       5.209 -33.985  23.061  1.00  0.00     0.041 C 
ATOM      3  O   UNL     1       6.030 -33.160  23.541  1.00  0.00    -0.550 OA
ATOM      4  O   UNL     1       5.126 -35.264  23.597  1.00  0.00    -0.550 OA
ENDBRANCH   1   2
BRANCH   1   5
ATOM      5  C   UNL     1       4.215 -34.671  20.887  1.00  0.00     0.006 C 
BRANCH   5   6
ATOM      6  C   UNL     1       5.474 -34.674  20.012  1.00  0.00    -0.003 C 
ATOM      7  C   UNL     1       5.169 -34.164  18.606  1.00  0.00     0.004 C 
ENDBRANCH   5   6
ENDBRANCH   1   5
TORSDOF 3
ENDMDL
MODEL 4
REMARK VINA RESULT:    -3.600      2.623      3.832
REMARK INTER + INTRA:          -4.311
REMARK INTER:                  -4.250
REMARK INTRA:                  -0.061
REMARK UNBOUND:                -0.079
REMARK SMILES CCCCC(=O)[O-]
REMARK SMILES IDX 4 1 5 2 6 3 7 4 3 5 2 6 1 7
REMARK H PARENT
REMARK Flexibility Score: inf
ROOT
ATOM      1  C   UNL     1       5.655 -35.314  22.230  1.00  0.00     0.053 C 
ENDROOT
BRANCH   1   2
ATOM      2  C   UNL     1       5.063 -33.971  22.517  1.00  0.00     0.041 C 
ATOM      3  O   UNL     1       5.660 -33.164  23.276  1.00  0.00    -0.550 OA
ATOM      4  O   UNL     1       3.875 -33.591  21.906  1.00  0.00    -0.550 OA
ENDBRANCH   1   2
BRANCH   1   5
ATOM      5  C   UNL     1       4.938 -36.400  23.037  1.00  0.00     0.006 C 
BRANCH   5   6
ATOM      6  C   UNL     1       5.534 -36.524  24.444  1.00  0.00    -0.003 C 
ATOM      7  C   UNL     1       4.536 -37.154  25.412  1.00  0.00     0.004 C 
ENDBRANCH   5   6
ENDBRANCH   1   5
TORSDOF 3
ENDMDL
MODEL 5
REMARK VINA RESULT:    -3.560      2.888      4.016
REMARK INTER + INTRA:          -4.264
REMARK INTER:                  -4.186
REMARK INTRA:                  -0.078
REMARK UNBOUND:                -0.079
REMARK SMILES CCCCC(=O)[O-]
REMARK SMILES IDX 4 1 5 2 6 3 7 4 3 5 2 6 1 7
REMARK H PARENT
REMARK Flexibility Score: inf
ROOT
ATOM      1  C   UNL     1       5.056 -33.853  22.925  1.00  0.00     0.053 C 
ENDROOT
BRANCH   1   2
ATOM      2  C   UNL     1       4.357 -33.814  21.603  1.00  0.00     0.041 C 
ATOM      3  O   UNL     1       3.161 -33.428  21.531  1.00  0.00    -0.550 OA
ATOM      4  O   UNL     1       5.041 -34.157  20.444  1.00  0.00    -0.550 OA
ENDBRANCH   1   2
BRANCH   1   5
ATOM      5  C   UNL     1       5.878 -35.138  23.060  1.00  0.00     0.006 C 
BRANCH   5   6
ATOM      6  C   UNL     1       4.966 -36.361  23.211  1.00  0.00    -0.003 C 
ATOM      7  C   UNL     1       4.981 -36.886  24.644  1.00  0.00     0.004 C 
ENDBRANCH   5   6
ENDBRANCH   1   5
TORSDOF 3
ENDMDL
MODEL 6
REMARK VINA RESULT:    -3.545      3.248      3.988
REMARK INTER + INTRA:          -4.245
REMARK INTER:                  -4.186
REMARK INTRA:                  -0.060
REMARK UNBOUND:                -0.079
REMARK SMILES CCCCC(=O)[O-]
REMARK SMILES IDX 4 1 5 2 6 3 7 4 3 5 2 6 1 7
REMARK H PARENT
REMARK Flexibility Score: inf
ROOT
ATOM      1  C   UNL     1       5.307 -35.595  20.770  1.00  0.00     0.053 C 
ENDROOT
BRANCH   1   2
ATOM      2  C   UNL     1       4.744 -36.718  19.959  1.00  0.00     0.041 C 
ATOM      3  O   UNL     1       3.735 -36.529  19.229  1.00  0.00    -0.550 OA
ATOM      4  O   UNL     1       5.361 -37.962  19.970  1.00  0.00    -0.550 OA
ENDBRANCH   1   2
BRANCH   1   5
ATOM      5  C   UNL     1       4.571 -34.288  20.463  1.00  0.00     0.006 C 
BRANCH   5   6
ATOM      6  C   UNL     1       4.095 -33.609  21.752  1.00  0.00    -0.003 C 
ATOM      7  C   UNL     1       5.070 -33.857  22.899  1.00  0.00     0.004 C 
ENDBRANCH   5   6
ENDBRANCH   1   5
TORSDOF 3
ENDMDL
MODEL 7
REMARK VINA RESULT:    -3.479      2.074      2.431
REMARK INTER + INTRA:          -4.169
REMARK INTER:                  -4.071
REMARK INTRA:                  -0.098
REMARK UNBOUND:                -0.079
REMARK SMILES CCCCC(=O)[O-]
REMARK SMILES IDX 4 1 5 2 6 3 7 4 3 5 2 6 1 7
REMARK H PARENT
REMARK Flexibility Score: inf
ROOT
ATOM      1  C   UNL     1       4.994 -36.364  22.833  1.00  0.00     0.053 C 
ENDROOT
BRANCH   1   2
ATOM      2  C   UNL     1       4.776 -37.402  21.779  1.00  0.00     0.041 C 
ATOM      3  O   UNL     1       4.960 -37.121  20.566  1.00  0.00    -0.550 OA
ATOM      4  O   UNL     1       4.415 -38.694  22.139  1.00  0.00    -0.550 OA
ENDBRANCH   1   2
BRANCH   1   5
ATOM      5  C   UNL     1       5.653 -35.119  22.233  1.00  0.00     0.006 C 
BRANCH   5   6
ATOM      6  C   UNL     1       4.848 -33.858  22.564  1.00  0.00    -0.003 C 
ATOM      7  C   UNL     1       3.775 -33.596  21.512  1.00  0.00     0.004 C 
ENDBRANCH   5   6
ENDBRANCH   1   5
TORSDOF 3
ENDMDL
MODEL 8
REMARK VINA RESULT:    -3.422      2.879      3.901
REMARK INTER + INTRA:          -4.101
REMARK INTER:                  -3.989
REMARK INTRA:                  -0.112
REMARK UNBOUND:                -0.079
REMARK SMILES CCCCC(=O)[O-]
REMARK SMILES IDX 4 1 5 2 6 3 7 4 3 5 2 6 1 7
REMARK H PARENT
REMARK Flexibility Score: inf
ROOT
ATOM      1  C   UNL     1       4.214 -33.909  21.403  1.00  0.00     0.053 C 
ENDROOT
BRANCH   1   2
ATOM      2  C   UNL     1       4.985 -34.153  22.661  1.00  0.00     0.041 C 
ATOM      3  O   UNL     1       5.010 -35.301  23.177  1.00  0.00    -0.550 OA
ATOM      4  O   UNL     1       5.716 -33.123  23.239  1.00  0.00    -0.550 OA
ENDBRANCH   1   2
BRANCH   1   5
ATOM      5  C   UNL     1       4.931 -34.536  20.204  1.00  0.00     0.006 C 
BRANCH   5   6
ATOM      6  C   UNL     1       4.173 -35.766  19.692  1.00  0.00    -0.003 C 
ATOM      7  C   UNL     1       4.903 -37.055  20.057  1.00  0.00     0.004 C 
ENDBRANCH   5   6
ENDBRANCH   1   5
TORSDOF 3
ENDMDL
