MODEL 1
REMARK VINA RESULT:    -2.582      0.000      0.000
REMARK INTER + INTRA:          -3.669
REMARK INTER:                  -3.941
REMARK INTRA:                   0.271
REMARK UNBOUND:                 0.271
REMARK SMILES CC1=CCC[C@@H](C)C(=O)C[C@@H](C(C)C)C(=O)C1
REMARK SMILES IDX 8 1 9 2 6 3 7 4 5 5 4 6 3 7 2 8 1 9 10 11 11 12 15 13 16 14
REMARK SMILES IDX 17 15 12 17 13 18 14 19
REMARK H PARENT
REMARK Flexibility Score: 70.00
ROOT
ATOM      1  C   UNL     1      26.121  40.712  21.193  1.00  0.00     0.136 C 
ATOM      2  O   UNL     1      25.444  41.676  21.520  1.00  0.00    -0.299 OA
ENDROOT
BRANCH   1   3
ATOM      3  C   UNL     1      27.633  40.831  21.245  1.00  0.00     0.053 C 
ATOM      4  C   UNL     1      28.097  41.283  22.635  1.00  0.00     0.016 C 
BRANCH   3   5
ATOM      5  C   UNL     1      28.166  41.771  20.148  1.00  0.00     0.015 C 
BRANCH   5   6
ATOM      6  C   UNL     1      27.457  41.548  18.801  1.00  0.00     0.028 C 
BRANCH   6   7
ATOM      7  C   UNL     1      28.254  40.618  17.925  1.00  0.00    -0.028 C 
ATOM      8  C   UNL     1      27.917  39.334  17.660  1.00  0.00    -0.070 CG0
ATOM      9  C   UNL     1      28.791  38.554  16.710  1.00  0.00     0.039 C 
ATOM     10  G   UNL     1      26.713  38.649  18.288  1.00  0.00     0.000 G0
ENDBRANCH   6   7
ENDBRANCH   5   6
ENDBRANCH   3   5
ENDBRANCH   1   3
BRANCH   1  11
ATOM     11  C   UNL     1      25.417  39.458  20.722  1.00  0.00     0.087 C 
BRANCH  11  12
ATOM     12  C   UNL     1      26.316  38.197  20.850  1.00  0.00     0.066 C 
BRANCH  12  13
ATOM     13  C   UNL     1      27.082  37.933  19.562  1.00  0.00     0.140 C 
ATOM     14  O   UNL     1      28.049  37.185  19.571  1.00  0.00    -0.299 OA
BRANCH  13  15
ATOM     15  C   UNL     1      26.719  38.642  18.279  1.00  0.00     0.106 CG0
ATOM     16  G   UNL     1      27.915  39.339  17.649  1.00  0.00     0.000 G0
ENDBRANCH  13  15
ENDBRANCH  12  13
BRANCH  12  17
ATOM     17  C   UNL     1      25.535  36.919  21.296  1.00  0.00    -0.006 C 
ATOM     18  C   UNL     1      26.184  36.260  22.523  1.00  0.00     0.008 C 
ATOM     19  C   UNL     1      24.037  37.158  21.560  1.00  0.00     0.008 C 
ENDBRANCH  12  17
ENDBRANCH  11  12
ENDBRANCH   1  11
TORSDOF 1
ENDMDL
MODEL 2
REMARK VINA RESULT:    -2.421      1.790      2.782
REMARK INTER + INTRA:          -3.423
REMARK INTER:                  -4.065
REMARK INTRA:                   0.642
REMARK UNBOUND:                 0.271
REMARK SMILES CC1=CCC[C@@H](C)C(=O)C[C@@H](C(C)C)C(=O)C1
REMARK SMILES IDX 8 1 9 2 6 3 7 4 5 5 4 6 3 7 2 8 1 9 10 11 11 12 15 13 16 14
REMARK SMILES IDX 17 15 12 17 13 18 14 19
REMARK H PARENT
REMARK Flexibility Score: 70.00
ROOT
ATOM      1  C   UNL     1      26.375  40.292  20.369  1.00  0.00     0.136 C 
ATOM      2  O   UNL     1      26.088  40.926  21.374  1.00  0.00    -0.299 OA
ENDROOT
BRANCH   1   3
ATOM      3  C   UNL     1      27.526  40.775  19.506  1.00  0.00     0.053 C 
ATOM      4  C   UNL     1      27.254  42.186  18.971  1.00  0.00     0.016 C 
BRANCH   3   5
ATOM      5  C   UNL     1      27.823  39.794  18.356  1.00  0.00     0.015 C 
BRANCH   5   6
ATOM      6  C   UNL     1      29.124  39.005  18.592  1.00  0.00     0.028 C 
BRANCH   6   7
ATOM      7  C   UNL     1      28.840  37.531  18.716  1.00  0.00    -0.028 C 
ATOM      8  C   UNL     1      28.258  36.949  19.790  1.00  0.00    -0.070 CG0
ATOM      9  C   UNL     1      27.985  35.467  19.731  1.00  0.00     0.039 C 
ATOM     10  G   UNL     1      27.886  37.718  21.048  1.00  0.00     0.000 G0
ENDBRANCH   6   7
ENDBRANCH   5   6
ENDBRANCH   3   5
ENDBRANCH   1   3
BRANCH   1  11
ATOM     11  C   UNL     1      25.550  39.073  20.019  1.00  0.00     0.087 C 
BRANCH  11  12
ATOM     12  C   UNL     1      25.287  38.168  21.254  1.00  0.00     0.066 C 
BRANCH  12  13
ATOM     13  C   UNL     1      26.510  37.328  21.592  1.00  0.00     0.140 C 
ATOM     14  O   UNL     1      26.403  36.375  22.352  1.00  0.00    -0.299 OA
BRANCH  13  15
ATOM     15  C   UNL     1      27.878  37.697  21.071  1.00  0.00     0.106 CG0
ATOM     16  G   UNL     1      28.229  36.947  19.795  1.00  0.00     0.000 G0
ENDBRANCH  13  15
ENDBRANCH  12  13
BRANCH  12  17
ATOM     17  C   UNL     1      24.024  37.260  21.102  1.00  0.00    -0.006 C 
ATOM     18  C   UNL     1      22.735  38.022  21.452  1.00  0.00     0.008 C 
ATOM     19  C   UNL     1      23.885  36.604  19.716  1.00  0.00     0.008 C 
ENDBRANCH  12  17
ENDBRANCH  11  12
ENDBRANCH   1  11
TORSDOF 1
ENDMDL
MODEL 3
REMARK VINA RESULT:    -1.998      2.200      3.709
REMARK INTER + INTRA:          -2.777
REMARK INTER:                  -3.325
REMARK INTRA:                   0.548
REMARK UNBOUND:                 0.271
REMARK SMILES CC1=CCC[C@@H](C)C(=O)C[C@@H](C(C)C)C(=O)C1
REMARK SMILES IDX 8 1 9 2 6 3 7 4 5 5 4 6 3 7 2 8 1 9 10 11 11 12 15 13 16 14
REMARK SMILES IDX 17 15 12 17 13 18 14 19
REMARK H PARENT
REMARK Flexibility Score: 70.00
ROOT
ATOM      1  C   UNL     1      25.760  36.692  21.611  1.00  0.00     0.136 C 
ATOM      2  O   UNL     1      26.170  36.733  22.762  1.00  0.00    -0.299 OA
ENDROOT
BRANCH   1   3
ATOM      3  C   UNL     1      24.449  37.381  21.278  1.00  0.00     0.053 C 
ATOM      4  C   UNL     1      23.693  36.616  20.185  1.00  0.00     0.016 C 
BRANCH   3   5
ATOM      5  C   UNL     1      24.667  38.852  20.878  1.00  0.00     0.015 C 
BRANCH   5   6
ATOM      6  C   UNL     1      26.152  39.251  20.934  1.00  0.00     0.028 C 
BRANCH   6   7
ATOM      7  C   UNL     1      26.658  39.622  19.565  1.00  0.00    -0.028 C 
ATOM      8  C   UNL     1      27.862  39.257  19.066  1.00  0.00    -0.070 CG0
ATOM      9  C   UNL     1      28.193  39.658  17.651  1.00  0.00     0.039 C 
ATOM     10  G   UNL     1      28.890  38.479  19.873  1.00  0.00     0.000 G0
ENDBRANCH   6   7
ENDBRANCH   5   6
ENDBRANCH   3   5
ENDBRANCH   1   3
BRANCH   1  11
ATOM     11  C   UNL     1      26.565  35.931  20.581  1.00  0.00     0.087 C 
BRANCH  11  12
ATOM     12  C   UNL     1      28.095  36.103  20.787  1.00  0.00     0.066 C 
BRANCH  12  13
ATOM     13  C   UNL     1      28.705  36.968  19.693  1.00  0.00     0.140 C 
ATOM     14  O   UNL     1      29.124  36.448  18.669  1.00  0.00    -0.299 OA
BRANCH  13  15
ATOM     15  C   UNL     1      28.880  38.456  19.881  1.00  0.00     0.106 CG0
ATOM     16  G   UNL     1      27.876  39.260  19.069  1.00  0.00     0.000 G0
ENDBRANCH  13  15
ENDBRANCH  12  13
BRANCH  12  17
ATOM     17  C   UNL     1      28.863  34.747  20.906  1.00  0.00    -0.006 C 
ATOM     18  C   UNL     1      28.681  34.115  22.295  1.00  0.00     0.008 C 
ATOM     19  C   UNL     1      28.505  33.724  19.813  1.00  0.00     0.008 C 
ENDBRANCH  12  17
ENDBRANCH  11  12
ENDBRANCH   1  11
TORSDOF 1
ENDMDL
MODEL 4
REMARK VINA RESULT:    -0.689      2.931      4.899
REMARK INTER + INTRA:          -0.780
REMARK INTER:                  -4.012
REMARK INTRA:                   3.232
REMARK UNBOUND:                 0.271
REMARK SMILES CC1=CCC[C@@H](C)C(=O)C[C@@H](C(C)C)C(=O)C1
REMARK SMILES IDX 8 1 9 2 6 3 7 4 5 5 4 6 3 7 2 8 1 9 10 11 11 12 15 13 16 14
REMARK SMILES IDX 17 15 12 17 13 18 14 19
REMARK H PARENT
REMARK Flexibility Score: 70.00
ROOT
ATOM      1  C   UNL     1      26.771  41.535  19.407  1.00  0.00     0.136 C 
ATOM      2  O   UNL     1      27.234  40.803  18.544  1.00  0.00    -0.299 OA
ENDROOT
BRANCH   1   3
ATOM      3  C   UNL     1      26.843  43.037  19.205  1.00  0.00     0.053 C 
ATOM      4  C   UNL     1      28.220  43.453  18.675  1.00  0.00     0.016 C 
BRANCH   3   5
ATOM      5  C   UNL     1      26.491  43.800  20.496  1.00  0.00     0.015 C 
BRANCH   5   6
ATOM      6  C   UNL     1      27.740  44.117  21.337  1.00  0.00     0.028 C 
BRANCH   6   7
ATOM      7  C   UNL     1      27.451  43.951  22.806  1.00  0.00    -0.028 C 
ATOM      8  C   UNL     1      27.967  42.970  23.583  1.00  0.00    -0.070 CG0
ATOM      9  C   UNL     1      27.628  42.980  25.053  1.00  0.00     0.039 C 
ATOM     10  G   UNL     1      28.854  41.862  23.037  1.00  0.00     0.000 G0
ENDBRANCH   6   7
ENDBRANCH   5   6
ENDBRANCH   3   5
ENDBRANCH   1   3
BRANCH   1  11
ATOM     11  C   UNL     1      26.176  40.907  20.648  1.00  0.00     0.087 C 
BRANCH  11  12
ATOM     12  C   UNL     1      27.265  40.334  21.597  1.00  0.00     0.066 C 
BRANCH  12  13
ATOM     13  C   UNL     1      28.454  41.278  21.706  1.00  0.00     0.140 C 
ATOM     14  O   UNL     1      29.123  41.531  20.714  1.00  0.00    -0.299 OA
BRANCH  13  15
ATOM     15  C   UNL     1      28.876  41.851  23.038  1.00  0.00     0.106 CG0
ATOM     16  G   UNL     1      27.936  42.945  23.518  1.00  0.00     0.000 G0
ENDBRANCH  13  15
ENDBRANCH  12  13
BRANCH  12  17
ATOM     17  C   UNL     1      27.740  38.899  21.203  1.00  0.00    -0.006 C 
ATOM     18  C   UNL     1      26.577  38.044  20.674  1.00  0.00     0.008 C 
ATOM     19  C   UNL     1      28.906  38.876  20.197  1.00  0.00     0.008 C 
ENDBRANCH  12  17
ENDBRANCH  11  12
ENDBRANCH   1  11
TORSDOF 1
ENDMDL
MODEL 5
REMARK VINA RESULT:    -0.465      2.240      3.480
REMARK INTER + INTRA:          -0.439
REMARK INTER:                  -1.800
REMARK INTRA:                   1.362
REMARK UNBOUND:                 0.271
REMARK SMILES CC1=CCC[C@@H](C)C(=O)C[C@@H](C(C)C)C(=O)C1
REMARK SMILES IDX 8 1 9 2 6 3 7 4 5 5 4 6 3 7 2 8 1 9 10 11 11 12 15 13 16 14
REMARK SMILES IDX 17 15 12 17 13 18 14 19
REMARK H PARENT
REMARK Flexibility Score: 70.00
ROOT
ATOM      1  C   UNL     1      26.396  40.565  19.378  1.00  0.00     0.136 C 
ATOM      2  O   UNL     1      26.618  39.767  18.479  1.00  0.00    -0.299 OA
ENDROOT
BRANCH   1   3
ATOM      3  C   UNL     1      26.592  42.045  19.104  1.00  0.00     0.053 C 
ATOM      4  C   UNL     1      27.962  42.306  18.468  1.00  0.00     0.016 C 
BRANCH   3   5
ATOM      5  C   UNL     1      26.404  42.887  20.380  1.00  0.00     0.015 C 
BRANCH   5   6
ATOM      6  C   UNL     1      27.747  43.353  20.968  1.00  0.00     0.028 C 
BRANCH   6   7
ATOM      7  C   UNL     1      28.079  42.584  22.220  1.00  0.00    -0.028 C 
ATOM      8  C   UNL     1      28.708  41.386  22.241  1.00  0.00    -0.070 CG0
ATOM      9  C   UNL     1      29.023  40.776  23.583  1.00  0.00     0.039 C 
ATOM     10  G   UNL     1      29.094  40.632  20.978  1.00  0.00     0.000 G0
ENDBRANCH   6   7
ENDBRANCH   5   6
ENDBRANCH   3   5
ENDBRANCH   1   3
BRANCH   1  11
ATOM     11  C   UNL     1      25.964  40.036  20.728  1.00  0.00     0.087 C 
BRANCH  11  12
ATOM     12  C   UNL     1      27.009  39.062  21.339  1.00  0.00     0.066 C 
BRANCH  12  13
ATOM     13  C   UNL     1      28.396  39.312  20.767  1.00  0.00     0.140 C 
ATOM     14  O   UNL     1      28.988  38.410  20.191  1.00  0.00    -0.299 OA
BRANCH  13  15
ATOM     15  C   UNL     1      29.097  40.634  20.968  1.00  0.00     0.106 CG0
ATOM     16  G   UNL     1      28.670  41.321  22.256  1.00  0.00     0.000 G0
ENDBRANCH  13  15
ENDBRANCH  12  13
BRANCH  12  17
ATOM     17  C   UNL     1      26.617  37.556  21.190  1.00  0.00    -0.006 C 
ATOM     18  C   UNL     1      26.688  36.818  22.536  1.00  0.00     0.008 C 
ATOM     19  C   UNL     1      25.242  37.327  20.538  1.00  0.00     0.008 C 
ENDBRANCH  12  17
ENDBRANCH  11  12
ENDBRANCH   1  11
TORSDOF 1
ENDMDL
MODEL 6
REMARK VINA RESULT:    -0.272      1.972      2.725
REMARK INTER + INTRA:          -0.143
REMARK INTER:                  -1.102
REMARK INTRA:                   0.959
REMARK UNBOUND:                 0.271
REMARK SMILES CC1=CCC[C@@H](C)C(=O)C[C@@H](C(C)C)C(=O)C1
REMARK SMILES IDX 8 1 9 2 6 3 7 4 5 5 4 6 3 7 2 8 1 9 10 11 11 12 15 13 16 14
REMARK SMILES IDX 17 15 12 17 13 18 14 19
REMARK H PARENT
REMARK Flexibility Score: 70.00
ROOT
ATOM      1  C   UNL     1      24.889  38.054  21.003  1.00  0.00     0.136 C 
ATOM      2  O   UNL     1      23.723  38.342  20.778  1.00  0.00    -0.299 OA
ENDROOT
BRANCH   1   3
ATOM      3  C   UNL     1      25.948  39.132  20.859  1.00  0.00     0.053 C 
ATOM      4  C   UNL     1      25.623  40.339  21.746  1.00  0.00     0.016 C 
BRANCH   3   5
ATOM      5  C   UNL     1      26.130  39.555  19.389  1.00  0.00     0.015 C 
BRANCH   5   6
ATOM      6  C   UNL     1      27.608  39.804  19.039  1.00  0.00     0.028 C 
BRANCH   6   7
ATOM      7  C   UNL     1      28.188  38.626  18.302  1.00  0.00    -0.028 C 
ATOM      8  C   UNL     1      28.629  37.492  18.894  1.00  0.00    -0.070 CG0
ATOM      9  C   UNL     1      29.125  36.377  18.008  1.00  0.00     0.039 C 
ATOM     10  G   UNL     1      28.659  37.304  20.403  1.00  0.00     0.000 G0
ENDBRANCH   6   7
ENDBRANCH   5   6
ENDBRANCH   3   5
ENDBRANCH   1   3
BRANCH   1  11
ATOM     11  C   UNL     1      25.224  36.629  21.386  1.00  0.00     0.087 C 
BRANCH  11  12
ATOM     12  C   UNL     1      26.661  36.497  21.961  1.00  0.00     0.066 C 
BRANCH  12  13
ATOM     13  C   UNL     1      27.674  36.228  20.858  1.00  0.00     0.140 C 
ATOM     14  O   UNL     1      27.753  35.113  20.363  1.00  0.00    -0.299 OA
BRANCH  13  15
ATOM     15  C   UNL     1      28.647  37.295  20.415  1.00  0.00     0.106 CG0
ATOM     16  G   UNL     1      28.646  37.483  18.906  1.00  0.00     0.000 G0
ENDBRANCH  13  15
ENDBRANCH  12  13
BRANCH  12  17
ATOM     17  C   UNL     1      26.783  35.423  23.090  1.00  0.00    -0.006 C 
ATOM     18  C   UNL     1      28.251  35.149  23.453  1.00  0.00     0.008 C 
ATOM     19  C   UNL     1      25.982  35.756  24.362  1.00  0.00     0.008 C 
ENDBRANCH  12  17
ENDBRANCH  11  12
ENDBRANCH   1  11
TORSDOF 1
ENDMDL
MODEL 7
REMARK VINA RESULT:    -0.272      2.098      4.476
REMARK INTER + INTRA:          -0.143
REMARK INTER:                  -0.791
REMARK INTRA:                   0.648
REMARK UNBOUND:                 0.271
REMARK SMILES CC1=CCC[C@@H](C)C(=O)C[C@@H](C(C)C)C(=O)C1
REMARK SMILES IDX 8 1 9 2 6 3 7 4 5 5 4 6 3 7 2 8 1 9 10 11 11 12 15 13 16 14
REMARK SMILES IDX 17 15 12 17 13 18 14 19
REMARK H PARENT
REMARK Flexibility Score: 70.00
ROOT
ATOM      1  C   UNL     1      25.817  37.552  20.737  1.00  0.00     0.136 C 
ATOM      2  O   UNL     1      26.482  36.816  21.451  1.00  0.00    -0.299 OA
ENDROOT
BRANCH   1   3
ATOM      3  C   UNL     1      24.320  37.636  20.969  1.00  0.00     0.053 C 
ATOM      4  C   UNL     1      23.551  36.961  19.827  1.00  0.00     0.016 C 
BRANCH   3   5
ATOM      5  C   UNL     1      23.857  39.092  21.164  1.00  0.00     0.015 C 
BRANCH   5   6
ATOM      6  C   UNL     1      24.852  39.906  22.011  1.00  0.00     0.028 C 
BRANCH   6   7
ATOM      7  C   UNL     1      25.232  41.183  21.309  1.00  0.00    -0.028 C 
ATOM      8  C   UNL     1      26.499  41.538  20.993  1.00  0.00    -0.070 CG0
ATOM      9  C   UNL     1      26.705  42.824  20.232  1.00  0.00     0.039 C 
ATOM     10  G   UNL     1      27.712  40.709  21.385  1.00  0.00     0.000 G0
ENDBRANCH   6   7
ENDBRANCH   5   6
ENDBRANCH   3   5
ENDBRANCH   1   3
BRANCH   1  11
ATOM     11  C   UNL     1      26.515  38.321  19.636  1.00  0.00     0.087 C 
BRANCH  11  12
ATOM     12  C   UNL     1      28.024  38.539  19.938  1.00  0.00     0.066 C 
BRANCH  12  13
ATOM     13  C   UNL     1      28.325  40.005  20.213  1.00  0.00     0.140 C 
ATOM     14  O   UNL     1      29.125  40.604  19.509  1.00  0.00    -0.299 OA
BRANCH  13  15
ATOM     15  C   UNL     1      27.715  40.718  21.396  1.00  0.00     0.106 CG0
ATOM     16  G   UNL     1      26.501  41.547  21.005  1.00  0.00     0.000 G0
ENDBRANCH  13  15
ENDBRANCH  12  13
BRANCH  12  17
ATOM     17  C   UNL     1      28.967  37.986  18.822  1.00  0.00    -0.006 C 
ATOM     18  C   UNL     1      28.876  36.455  18.713  1.00  0.00     0.008 C 
ATOM     19  C   UNL     1      28.745  38.624  17.438  1.00  0.00     0.008 C 
ENDBRANCH  12  17
ENDBRANCH  11  12
ENDBRANCH   1  11
TORSDOF 1
ENDMDL
