MODEL 1
REMARK VINA RESULT:    -4.452      0.000      0.000
REMARK INTER + INTRA:          -4.874
REMARK INTER:                  -4.712
REMARK INTRA:                  -0.161
REMARK UNBOUND:                -0.161
REMARK SMILES CC1=CC=C(C(C)C)CC1
REMARK SMILES IDX 1 1 2 2 3 3 4 4 5 5 9 6 10 7 6 8 7 9 8 10
REMARK H PARENT
REMARK Flexibility Score: inf
ROOT
ATOM      1  C   UNL     1      10.348  14.094  39.444  1.00  0.00     0.039 C 
ATOM      2  C   UNL     1      11.492  14.567  38.597  1.00  0.00    -0.073 C 
ATOM      3  C   UNL     1      12.057  15.761  38.840  1.00  0.00    -0.001 C 
ATOM      4  C   UNL     1      13.185  16.243  38.021  1.00  0.00    -0.001 C 
ATOM      5  C   UNL     1      13.829  15.419  37.176  1.00  0.00    -0.067 C 
ATOM      6  C   UNL     1      13.456  13.948  37.159  1.00  0.00     0.035 C 
ATOM      7  C   UNL     1      11.954  13.750  37.412  1.00  0.00     0.035 C 
ENDROOT
BRANCH   5   8
ATOM      8  C   UNL     1      14.944  15.949  36.293  1.00  0.00     0.009 C 
ATOM      9  C   UNL     1      15.778  14.806  35.704  1.00  0.00     0.012 C 
ATOM     10  C   UNL     1      14.381  16.847  35.185  1.00  0.00     0.012 C 
ENDBRANCH   5   8
TORSDOF 1
ENDMDL
MODEL 2
REMARK VINA RESULT:    -4.304     13.273     15.235
REMARK INTER + INTRA:          -4.717
REMARK INTER:                  -4.544
REMARK INTRA:                  -0.173
REMARK UNBOUND:                -0.161
REMARK SMILES CC1=CC=C(C(C)C)CC1
REMARK SMILES IDX 1 1 2 2 3 3 4 4 5 5 9 6 10 7 6 8 7 9 8 10
REMARK H PARENT
REMARK Flexibility Score: inf
ROOT
ATOM      1  C   UNL     1       5.428  18.676  22.469  1.00  0.00     0.039 C 
ATOM      2  C   UNL     1       6.838  18.879  22.941  1.00  0.00    -0.073 C 
ATOM      3  C   UNL     1       7.864  18.626  22.115  1.00  0.00    -0.001 C 
ATOM      4  C   UNL     1       9.257  18.822  22.558  1.00  0.00    -0.001 C 
ATOM      5  C   UNL     1       9.535  19.476  23.700  1.00  0.00    -0.067 C 
ATOM      6  C   UNL     1       8.397  20.117  24.474  1.00  0.00     0.035 C 
ATOM      7  C   UNL     1       7.113  19.279  24.373  1.00  0.00     0.035 C 
ENDROOT
BRANCH   5   8
ATOM      8  C   UNL     1      10.970  19.611  24.175  1.00  0.00     0.009 C 
ATOM      9  C   UNL     1      11.123  19.136  25.625  1.00  0.00     0.012 C 
ATOM     10  C   UNL     1      11.924  18.853  23.245  1.00  0.00     0.012 C 
ENDBRANCH   5   8
TORSDOF 1
ENDMDL
MODEL 3
REMARK VINA RESULT:    -4.220      0.717      2.015
REMARK INTER + INTRA:          -4.628
REMARK INTER:                  -4.455
REMARK INTRA:                  -0.173
REMARK UNBOUND:                -0.161
REMARK SMILES CC1=CC=C(C(C)C)CC1
REMARK SMILES IDX 1 1 2 2 3 3 4 4 5 5 9 6 10 7 6 8 7 9 8 10
REMARK H PARENT
REMARK Flexibility Score: inf
ROOT
ATOM      1  C   UNL     1      10.278  14.323  39.344  1.00  0.00     0.039 C 
ATOM      2  C   UNL     1      11.562  14.755  38.698  1.00  0.00    -0.073 C 
ATOM      3  C   UNL     1      12.164  13.956  37.803  1.00  0.00    -0.001 C 
ATOM      4  C   UNL     1      13.424  14.363  37.154  1.00  0.00    -0.001 C 
ATOM      5  C   UNL     1      13.879  15.625  37.255  1.00  0.00    -0.067 C 
ATOM      6  C   UNL     1      13.017  16.662  37.951  1.00  0.00     0.035 C 
ATOM      7  C   UNL     1      12.233  16.043  39.118  1.00  0.00     0.035 C 
ENDROOT
BRANCH   5   8
ATOM      8  C   UNL     1      15.211  16.009  36.638  1.00  0.00     0.009 C 
ATOM      9  C   UNL     1      16.099  16.750  37.646  1.00  0.00     0.012 C 
ATOM     10  C   UNL     1      15.927  14.776  36.077  1.00  0.00     0.012 C 
ENDBRANCH   5   8
TORSDOF 1
ENDMDL
MODEL 4
REMARK VINA RESULT:    -4.143      0.972      4.312
REMARK INTER + INTRA:          -4.546
REMARK INTER:                  -4.402
REMARK INTRA:                  -0.144
REMARK UNBOUND:                -0.161
REMARK SMILES CC1=CC=C(C(C)C)CC1
REMARK SMILES IDX 1 1 2 2 3 3 4 4 5 5 9 6 10 7 6 8 7 9 8 10
REMARK H PARENT
REMARK Flexibility Score: inf
ROOT
ATOM      1  C   UNL     1      15.643  14.771  35.812  1.00  0.00     0.039 C 
ATOM      2  C   UNL     1      14.444  14.897  36.705  1.00  0.00    -0.073 C 
ATOM      3  C   UNL     1      14.106  16.095  37.208  1.00  0.00    -0.001 C 
ATOM      4  C   UNL     1      12.929  16.241  38.085  1.00  0.00    -0.001 C 
ATOM      5  C   UNL     1      12.034  15.246  38.215  1.00  0.00    -0.067 C 
ATOM      6  C   UNL     1      12.186  14.006  37.353  1.00  0.00     0.035 C 
ATOM      7  C   UNL     1      13.666  13.668  37.119  1.00  0.00     0.035 C 
ENDROOT
BRANCH   5   8
ATOM      8  C   UNL     1      10.865  15.389  39.172  1.00  0.00     0.009 C 
ATOM      9  C   UNL     1       9.720  16.186  38.537  1.00  0.00     0.012 C 
ATOM     10  C   UNL     1      10.382  14.016  39.650  1.00  0.00     0.012 C 
ENDBRANCH   5   8
TORSDOF 1
ENDMDL
MODEL 5
REMARK VINA RESULT:    -4.136     11.835     13.937
REMARK INTER + INTRA:          -4.539
REMARK INTER:                  -4.391
REMARK INTRA:                  -0.148
REMARK UNBOUND:                -0.161
REMARK SMILES CC1=CC=C(C(C)C)CC1
REMARK SMILES IDX 1 1 2 2 3 3 4 4 5 5 9 6 10 7 6 8 7 9 8 10
REMARK H PARENT
REMARK Flexibility Score: inf
ROOT
ATOM      1  C   UNL     1      11.525  19.245  27.742  1.00  0.00     0.039 C 
ATOM      2  C   UNL     1      10.389  19.220  26.762  1.00  0.00    -0.073 C 
ATOM      3  C   UNL     1       9.129  19.078  27.201  1.00  0.00    -0.001 C 
ATOM      4  C   UNL     1       7.998  19.054  26.255  1.00  0.00    -0.001 C 
ATOM      5  C   UNL     1       8.164  19.407  24.967  1.00  0.00    -0.067 C 
ATOM      6  C   UNL     1       9.511  19.945  24.523  1.00  0.00     0.035 C 
ATOM      7  C   UNL     1      10.662  19.260  25.275  1.00  0.00     0.035 C 
ENDROOT
BRANCH   5   8
ATOM      8  C   UNL     1       7.004  19.313  23.993  1.00  0.00     0.009 C 
ATOM      9  C   UNL     1       6.595  20.698  23.479  1.00  0.00     0.012 C 
ATOM     10  C   UNL     1       7.343  18.373  22.832  1.00  0.00     0.012 C 
ENDBRANCH   5   8
TORSDOF 1
ENDMDL
MODEL 6
REMARK VINA RESULT:    -3.974     14.469     16.436
REMARK INTER + INTRA:          -4.368
REMARK INTER:                  -4.197
REMARK INTRA:                  -0.171
REMARK UNBOUND:                -0.161
REMARK SMILES CC1=CC=C(C(C)C)CC1
REMARK SMILES IDX 1 1 2 2 3 3 4 4 5 5 9 6 10 7 6 8 7 9 8 10
REMARK H PARENT
REMARK Flexibility Score: inf
ROOT
ATOM      1  C   UNL     1      10.960  19.129  23.730  1.00  0.00     0.039 C 
ATOM      2  C   UNL     1       9.481  19.269  23.522  1.00  0.00    -0.073 C 
ATOM      3  C   UNL     1       8.920  18.829  22.385  1.00  0.00    -0.001 C 
ATOM      4  C   UNL     1       7.467  18.954  22.162  1.00  0.00    -0.001 C 
ATOM      5  C   UNL     1       6.638  19.287  23.168  1.00  0.00    -0.067 C 
ATOM      6  C   UNL     1       7.203  19.419  24.571  1.00  0.00     0.035 C 
ATOM      7  C   UNL     1       8.630  19.986  24.546  1.00  0.00     0.035 C 
ENDROOT
BRANCH   5   8
ATOM      8  C   UNL     1       5.155  19.476  22.906  1.00  0.00     0.009 C 
ATOM      9  C   UNL     1       4.714  20.910  23.220  1.00  0.00     0.012 C 
ATOM     10  C   UNL     1       4.804  19.095  21.464  1.00  0.00     0.012 C 
ENDBRANCH   5   8
TORSDOF 1
ENDMDL
MODEL 7
REMARK VINA RESULT:    -3.918     10.264     12.433
REMARK INTER + INTRA:          -4.308
REMARK INTER:                  -4.135
REMARK INTRA:                  -0.173
REMARK UNBOUND:                -0.161
REMARK SMILES CC1=CC=C(C(C)C)CC1
REMARK SMILES IDX 1 1 2 2 3 3 4 4 5 5 9 6 10 7 6 8 7 9 8 10
REMARK H PARENT
REMARK Flexibility Score: inf
ROOT
ATOM      1  C   UNL     1       7.288  19.503  24.654  1.00  0.00     0.039 C 
ATOM      2  C   UNL     1       8.607  19.513  25.369  1.00  0.00    -0.073 C 
ATOM      3  C   UNL     1       8.662  19.209  26.676  1.00  0.00    -0.001 C 
ATOM      4  C   UNL     1       9.949  19.210  27.397  1.00  0.00    -0.001 C 
ATOM      5  C   UNL     1      11.116  19.278  26.732  1.00  0.00    -0.067 C 
ATOM      6  C   UNL     1      11.099  19.237  25.215  1.00  0.00     0.035 C 
ATOM      7  C   UNL     1       9.863  19.953  24.651  1.00  0.00     0.035 C 
ENDROOT
BRANCH   5   8
ATOM      8  C   UNL     1      12.427  19.345  27.494  1.00  0.00     0.009 C 
ATOM      9  C   UNL     1      13.496  20.101  26.695  1.00  0.00     0.012 C 
ATOM     10  C   UNL     1      12.223  19.976  28.875  1.00  0.00     0.012 C 
ENDBRANCH   5   8
TORSDOF 1
ENDMDL
MODEL 8
REMARK VINA RESULT:    -3.887     12.254     14.334
REMARK INTER + INTRA:          -4.275
REMARK INTER:                  -4.131
REMARK INTRA:                  -0.145
REMARK UNBOUND:                -0.161
REMARK SMILES CC1=CC=C(C(C)C)CC1
REMARK SMILES IDX 1 1 2 2 3 3 4 4 5 5 9 6 10 7 6 8 7 9 8 10
REMARK H PARENT
REMARK Flexibility Score: inf
ROOT
ATOM      1  C   UNL     1      11.229  18.909  27.423  1.00  0.00     0.039 C 
ATOM      2  C   UNL     1      10.192  19.230  26.387  1.00  0.00    -0.073 C 
ATOM      3  C   UNL     1      10.528  19.252  25.088  1.00  0.00    -0.001 C 
ATOM      4  C   UNL     1       9.523  19.562  24.054  1.00  0.00    -0.001 C 
ATOM      5  C   UNL     1       8.211  19.597  24.350  1.00  0.00    -0.067 C 
ATOM      6  C   UNL     1       7.764  19.197  25.744  1.00  0.00     0.035 C 
ATOM      7  C   UNL     1       8.792  19.621  26.804  1.00  0.00     0.035 C 
ENDROOT
BRANCH   5   8
ATOM      8  C   UNL     1       7.198  19.983  23.289  1.00  0.00     0.009 C 
ATOM      9  C   UNL     1       6.765  18.765  22.464  1.00  0.00     0.012 C 
ATOM     10  C   UNL     1       5.987  20.679  23.920  1.00  0.00     0.012 C 
ENDBRANCH   5   8
TORSDOF 1
ENDMDL
