MODEL 1
REMARK VINA RESULT:    -6.171      0.000      0.000
REMARK INTER + INTRA:          -6.171
REMARK INTER:                  -6.171
REMARK INTRA:                   0.000
REMARK UNBOUND:                 0.000
REMARK SMILES O=c1ccc2ccccc2o1
REMARK SMILES IDX 7 1 8 2 9 3 10 4 5 5 6 6 4 7 3 8 2 9 1 10 11 11
REMARK H PARENT
REMARK Flexibility Score: inf
ROOT
ATOM      1  C   UNL     1     -15.262 -37.073 -16.747  1.00  0.00     0.001 A 
ATOM      2  C   UNL     1     -16.368 -36.956 -15.897  1.00  0.00     0.004 A 
ATOM      3  C   UNL     1     -16.381 -35.990 -14.886  1.00  0.00     0.048 A 
ATOM      4  C   UNL     1     -15.286 -35.134 -14.720  1.00  0.00     0.138 A 
ATOM      5  C   UNL     1     -14.169 -35.251 -15.578  1.00  0.00     0.018 A 
ATOM      6  C   UNL     1     -14.162 -36.222 -16.590  1.00  0.00     0.012 A 
ATOM      7  C   UNL     1     -13.089 -34.383 -15.389  1.00  0.00     0.019 A 
ATOM      8  C   UNL     1     -13.145 -33.434 -14.368  1.00  0.00     0.094 A 
ATOM      9  C   UNL     1     -14.284 -33.376 -13.557  1.00  0.00     0.336 A 
ATOM     10  O   UNL     1     -14.352 -32.528 -12.630  1.00  0.00    -0.246 OA
ATOM     11  O   UNL     1     -15.298 -34.215 -13.758  1.00  0.00    -0.423 OA
ENDROOT
TORSDOF 0
ENDMDL
MODEL 2
REMARK VINA RESULT:    -6.169      1.588      3.641
REMARK INTER + INTRA:          -6.169
REMARK INTER:                  -6.169
REMARK INTRA:                   0.000
REMARK UNBOUND:                 0.000
REMARK SMILES O=c1ccc2ccccc2o1
REMARK SMILES IDX 7 1 8 2 9 3 10 4 5 5 6 6 4 7 3 8 2 9 1 10 11 11
REMARK H PARENT
REMARK Flexibility Score: inf
ROOT
ATOM      1  C   UNL     1     -12.969 -34.875 -15.500  1.00  0.00     0.001 A 
ATOM      2  C   UNL     1     -13.526 -33.767 -14.851  1.00  0.00     0.004 A 
ATOM      3  C   UNL     1     -14.870 -33.778 -14.466  1.00  0.00     0.048 A 
ATOM      4  C   UNL     1     -15.665 -34.899 -14.728  1.00  0.00     0.138 A 
ATOM      5  C   UNL     1     -15.104 -36.019 -15.383  1.00  0.00     0.018 A 
ATOM      6  C   UNL     1     -13.754 -36.001 -15.767  1.00  0.00     0.012 A 
ATOM      7  C   UNL     1     -15.922 -37.125 -15.633  1.00  0.00     0.019 A 
ATOM      8  C   UNL     1     -17.257 -37.092 -15.231  1.00  0.00     0.094 A 
ATOM      9  C   UNL     1     -17.744 -35.949 -14.587  1.00  0.00     0.336 A 
ATOM     10  O   UNL     1     -18.946 -35.901 -14.218  1.00  0.00    -0.246 OA
ATOM     11  O   UNL     1     -16.944 -34.910 -14.362  1.00  0.00    -0.423 OA
ENDROOT
TORSDOF 0
ENDMDL
MODEL 3
REMARK VINA RESULT:    -6.095      1.463      3.746
REMARK INTER + INTRA:          -6.095
REMARK INTER:                  -6.095
REMARK INTRA:                   0.000
REMARK UNBOUND:                 0.000
REMARK SMILES O=c1ccc2ccccc2o1
REMARK SMILES IDX 7 1 8 2 9 3 10 4 5 5 6 6 4 7 3 8 2 9 1 10 11 11
REMARK H PARENT
REMARK Flexibility Score: inf
ROOT
ATOM      1  C   UNL     1     -12.630 -33.651 -14.739  1.00  0.00     0.001 A 
ATOM      2  C   UNL     1     -13.649 -33.163 -13.913  1.00  0.00     0.004 A 
ATOM      3  C   UNL     1     -14.897 -33.793 -13.887  1.00  0.00     0.048 A 
ATOM      4  C   UNL     1     -15.133 -34.915 -14.691  1.00  0.00     0.138 A 
ATOM      5  C   UNL     1     -14.105 -35.407 -15.526  1.00  0.00     0.018 A 
ATOM      6  C   UNL     1     -12.854 -34.771 -15.546  1.00  0.00     0.012 A 
ATOM      7  C   UNL     1     -14.369 -36.529 -16.317  1.00  0.00     0.019 A 
ATOM      8  C   UNL     1     -15.629 -37.125 -16.260  1.00  0.00     0.094 A 
ATOM      9  C   UNL     1     -16.598 -36.582 -15.410  1.00  0.00     0.336 A 
ATOM     10  O   UNL     1     -17.741 -37.105 -15.346  1.00  0.00    -0.246 OA
ATOM     11  O   UNL     1     -16.321 -35.513 -14.667  1.00  0.00    -0.423 OA
ENDROOT
TORSDOF 0
ENDMDL
MODEL 4
REMARK VINA RESULT:    -5.679      1.899      4.352
REMARK INTER + INTRA:          -5.679
REMARK INTER:                  -5.679
REMARK INTRA:                   0.000
REMARK UNBOUND:                 0.000
REMARK SMILES O=c1ccc2ccccc2o1
REMARK SMILES IDX 7 1 8 2 9 3 10 4 5 5 6 6 4 7 3 8 2 9 1 10 11 11
REMARK H PARENT
REMARK Flexibility Score: inf
ROOT
ATOM      1  C   UNL     1     -14.102 -33.003 -13.157  1.00  0.00     0.001 A 
ATOM      2  C   UNL     1     -12.964 -32.990 -13.970  1.00  0.00     0.004 A 
ATOM      3  C   UNL     1     -12.881 -33.838 -15.079  1.00  0.00     0.048 A 
ATOM      4  C   UNL     1     -13.938 -34.704 -15.381  1.00  0.00     0.138 A 
ATOM      5  C   UNL     1     -15.089 -34.717 -14.560  1.00  0.00     0.018 A 
ATOM      6  C   UNL     1     -15.166 -33.864 -13.448  1.00  0.00     0.012 A 
ATOM      7  C   UNL     1     -16.130 -35.592 -14.885  1.00  0.00     0.019 A 
ATOM      8  C   UNL     1     -16.004 -36.420 -16.000  1.00  0.00     0.094 A 
ATOM      9  C   UNL     1     -14.835 -36.352 -16.767  1.00  0.00     0.336 A 
ATOM     10  O   UNL     1     -14.703 -37.092 -17.777  1.00  0.00    -0.246 OA
ATOM     11  O   UNL     1     -13.859 -35.510 -16.436  1.00  0.00    -0.423 OA
ENDROOT
TORSDOF 0
ENDMDL
MODEL 5
REMARK VINA RESULT:    -5.065      1.961      4.570
REMARK INTER + INTRA:          -5.065
REMARK INTER:                  -5.065
REMARK INTRA:                   0.000
REMARK UNBOUND:                 0.000
REMARK SMILES O=c1ccc2ccccc2o1
REMARK SMILES IDX 7 1 8 2 9 3 10 4 5 5 6 6 4 7 3 8 2 9 1 10 11 11
REMARK H PARENT
REMARK Flexibility Score: inf
ROOT
ATOM      1  C   UNL     1     -13.391 -31.669 -10.823  1.00  0.00     0.001 A 
ATOM      2  C   UNL     1     -14.571 -32.317 -10.443  1.00  0.00     0.004 A 
ATOM      3  C   UNL     1     -15.209 -33.195 -11.326  1.00  0.00     0.048 A 
ATOM      4  C   UNL     1     -14.668 -33.427 -12.596  1.00  0.00     0.138 A 
ATOM      5  C   UNL     1     -13.476 -32.773 -12.980  1.00  0.00     0.018 A 
ATOM      6  C   UNL     1     -12.841 -31.894 -12.090  1.00  0.00     0.012 A 
ATOM      7  C   UNL     1     -12.958 -33.024 -14.255  1.00  0.00     0.019 A 
ATOM      8  C   UNL     1     -13.628 -33.907 -15.103  1.00  0.00     0.094 A 
ATOM      9  C   UNL     1     -14.804 -34.519 -14.654  1.00  0.00     0.336 A 
ATOM     10  O   UNL     1     -15.422 -35.317 -15.405  1.00  0.00    -0.246 OA
ATOM     11  O   UNL     1     -15.275 -34.262 -13.436  1.00  0.00    -0.423 OA
ENDROOT
TORSDOF 0
ENDMDL
MODEL 6
REMARK VINA RESULT:    -4.829      1.920      2.631
REMARK INTER + INTRA:          -4.829
REMARK INTER:                  -4.829
REMARK INTRA:                   0.000
REMARK UNBOUND:                 0.000
REMARK SMILES O=c1ccc2ccccc2o1
REMARK SMILES IDX 7 1 8 2 9 3 10 4 5 5 6 6 4 7 3 8 2 9 1 10 11 11
REMARK H PARENT
REMARK Flexibility Score: inf
ROOT
ATOM      1  C   UNL     1     -17.850 -35.912 -14.901  1.00  0.00     0.001 A 
ATOM      2  C   UNL     1     -17.256 -37.076 -15.400  1.00  0.00     0.004 A 
ATOM      3  C   UNL     1     -15.875 -37.125 -15.617  1.00  0.00     0.048 A 
ATOM      4  C   UNL     1     -15.081 -36.007 -15.335  1.00  0.00     0.138 A 
ATOM      5  C   UNL     1     -15.680 -34.831 -14.830  1.00  0.00     0.018 A 
ATOM      6  C   UNL     1     -17.066 -34.788 -14.615  1.00  0.00     0.012 A 
ATOM      7  C   UNL     1     -14.862 -33.730 -14.558  1.00  0.00     0.019 A 
ATOM      8  C   UNL     1     -13.490 -33.824 -14.790  1.00  0.00     0.094 A 
ATOM      9  C   UNL     1     -12.967 -35.021 -15.290  1.00  0.00     0.336 A 
ATOM     10  O   UNL     1     -11.731 -35.124 -15.507  1.00  0.00    -0.246 OA
ATOM     11  O   UNL     1     -13.767 -36.054 -15.542  1.00  0.00    -0.423 OA
ENDROOT
TORSDOF 0
ENDMDL
MODEL 7
REMARK VINA RESULT:    -4.667      4.799      7.316
REMARK INTER + INTRA:          -4.667
REMARK INTER:                  -4.667
REMARK INTRA:                   0.000
REMARK UNBOUND:                 0.000
REMARK SMILES O=c1ccc2ccccc2o1
REMARK SMILES IDX 7 1 8 2 9 3 10 4 5 5 6 6 4 7 3 8 2 9 1 10 11 11
REMARK H PARENT
REMARK Flexibility Score: inf
ROOT
ATOM      1  C   UNL     1     -14.498 -27.952  -9.506  1.00  0.00     0.001 A 
ATOM      2  C   UNL     1     -15.400 -27.974 -10.574  1.00  0.00     0.004 A 
ATOM      3  C   UNL     1     -15.631 -29.160 -11.278  1.00  0.00     0.048 A 
ATOM      4  C   UNL     1     -14.957 -30.332 -10.916  1.00  0.00     0.138 A 
ATOM      5  C   UNL     1     -14.045 -30.311  -9.836  1.00  0.00     0.018 A 
ATOM      6  C   UNL     1     -13.819 -29.117  -9.134  1.00  0.00     0.012 A 
ATOM      7  C   UNL     1     -13.386 -31.496  -9.497  1.00  0.00     0.019 A 
ATOM      8  C   UNL     1     -13.646 -32.656 -10.227  1.00  0.00     0.094 A 
ATOM      9  C   UNL     1     -14.562 -32.602 -11.283  1.00  0.00     0.336 A 
ATOM     10  O   UNL     1     -14.809 -33.639 -11.953  1.00  0.00    -0.246 OA
ATOM     11  O   UNL     1     -15.175 -31.461 -11.586  1.00  0.00    -0.423 OA
ENDROOT
TORSDOF 0
ENDMDL
MODEL 8
REMARK VINA RESULT:    -4.661      2.513      4.239
REMARK INTER + INTRA:          -4.661
REMARK INTER:                  -4.661
REMARK INTRA:                   0.000
REMARK UNBOUND:                 0.000
REMARK SMILES O=c1ccc2ccccc2o1
REMARK SMILES IDX 7 1 8 2 9 3 10 4 5 5 6 6 4 7 3 8 2 9 1 10 11 11
REMARK H PARENT
REMARK Flexibility Score: inf
ROOT
ATOM      1  C   UNL     1     -14.254 -34.155 -14.663  1.00  0.00     0.001 A 
ATOM      2  C   UNL     1     -13.055 -33.440 -14.753  1.00  0.00     0.004 A 
ATOM      3  C   UNL     1     -12.630 -32.640 -13.688  1.00  0.00     0.048 A 
ATOM      4  C   UNL     1     -13.405 -32.550 -12.526  1.00  0.00     0.138 A 
ATOM      5  C   UNL     1     -14.616 -33.272 -12.434  1.00  0.00     0.018 A 
ATOM      6  C   UNL     1     -15.037 -34.074 -13.506  1.00  0.00     0.012 A 
ATOM      7  C   UNL     1     -15.370 -33.164 -11.261  1.00  0.00     0.019 A 
ATOM      8  C   UNL     1     -14.907 -32.353 -10.224  1.00  0.00     0.094 A 
ATOM      9  C   UNL     1     -13.698 -31.668 -10.386  1.00  0.00     0.336 A 
ATOM     10  O   UNL     1     -13.266 -30.932  -9.461  1.00  0.00    -0.246 OA
ATOM     11  O   UNL     1     -13.000 -31.789 -11.513  1.00  0.00    -0.423 OA
ENDROOT
TORSDOF 0
ENDMDL
