MODEL 1
REMARK VINA RESULT:    -3.580      0.000      0.000
REMARK INTER + INTRA:          -6.876
REMARK INTER:                  -5.463
REMARK INTRA:                  -1.413
REMARK UNBOUND:                -1.413
REMARK SMILES OC[C@H]1O[C@](CO)(O[C@H]2O[C@H](CO)[C@@H](O)[C@H](O)[C@@H]2O)[C@H](O)[C@H]1O
REMARK SMILES IDX 8 1 9 2 11 3 14 4 10 5 16 6 18 7 12 8 13 9 15 11 17 13 19 15
REMARK SMILES IDX 5 17 20 18 4 19 22 20 3 21 6 22 7 23 21 25 23 27 2 29 1 30
REMARK H PARENT 13 10 15 12 17 14 19 16 7 24 21 26 23 28 1 31
REMARK Flexibility Score: inf
ROOT
ATOM      1  O   UNL     1      -5.633 -17.455  -7.729  1.00  0.00    -0.313 OA
ENDROOT
BRANCH   1   2
ATOM      2  C   UNL     1      -5.114 -17.372  -6.406  1.00  0.00     0.285 C 
ATOM      3  C   UNL     1      -3.229 -17.833  -5.041  1.00  0.00     0.178 C 
ATOM      4  C   UNL     1      -3.864 -16.892  -3.972  1.00  0.00     0.177 C 
ATOM      5  O   UNL     1      -3.721 -17.632  -6.364  1.00  0.00    -0.341 OA
ATOM      6  C   UNL     1      -4.440 -15.647  -4.658  1.00  0.00     0.179 C 
ATOM      7  C   UNL     1      -5.524 -16.063  -5.670  1.00  0.00     0.202 C 
BRANCH   3   8
ATOM      8  C   UNL     1      -3.330 -19.318  -4.651  1.00  0.00     0.191 C 
BRANCH   8   9
ATOM      9  O   UNL     1      -3.173 -20.124  -5.784  1.00  0.00    -0.394 OA
ATOM     10  H   UNL     1      -4.046 -20.574  -5.925  1.00  0.00     0.210 HD
ENDBRANCH   8   9
ENDBRANCH   3   8
BRANCH   4  11
ATOM     11  O   UNL     1      -2.890 -16.495  -3.038  1.00  0.00    -0.387 OA
ATOM     12  H   UNL     1      -3.373 -16.157  -2.239  1.00  0.00     0.211 HD
ENDBRANCH   4  11
BRANCH   6  13
ATOM     13  O   UNL     1      -4.990 -14.768  -3.708  1.00  0.00    -0.387 OA
ATOM     14  H   UNL     1      -4.463 -14.873  -2.874  1.00  0.00     0.211 HD
ENDBRANCH   6  13
BRANCH   7  15
ATOM     15  O   UNL     1      -6.745 -16.262  -5.001  1.00  0.00    -0.385 OA
ATOM     16  H   UNL     1      -7.064 -15.368  -4.713  1.00  0.00     0.211 HD
ENDBRANCH   7  15
ENDBRANCH   1   2
BRANCH   1  17
ATOM     17  C   UNL     1      -6.588 -18.471  -8.086  1.00  0.00     0.224 C 
ATOM     18  C   UNL     1      -5.835 -19.576  -8.857  1.00  0.00     0.208 C 
ATOM     19  O   UNL     1      -7.491 -17.866  -8.994  1.00  0.00    -0.337 OA
ATOM     20  C   UNL     1      -5.873 -19.070 -10.273  1.00  0.00     0.180 C 
ATOM     21  C   UNL     1      -7.191 -18.296 -10.306  1.00  0.00     0.179 C 
BRANCH  17  22
ATOM     22  C   UNL     1      -7.463 -19.093  -6.950  1.00  0.00     0.225 C 
BRANCH  22  23
ATOM     23  O   UNL     1      -8.496 -18.213  -6.596  1.00  0.00    -0.391 OA
ATOM     24  H   UNL     1      -9.345 -18.714  -6.718  1.00  0.00     0.210 HD
ENDBRANCH  22  23
ENDBRANCH  17  22
BRANCH  18  25
ATOM     25  O   UNL     1      -4.510 -19.725  -8.414  1.00  0.00    -0.385 OA
ATOM     26  H   UNL     1      -3.923 -19.471  -9.172  1.00  0.00     0.211 HD
ENDBRANCH  18  25
BRANCH  20  27
ATOM     27  O   UNL     1      -5.831 -20.121 -11.205  1.00  0.00    -0.387 OA
ATOM     28  H   UNL     1      -5.126 -19.885 -11.862  1.00  0.00     0.211 HD
ENDBRANCH  20  27
BRANCH  21  29
ATOM     29  C   UNL     1      -8.380 -19.112 -10.843  1.00  0.00     0.191 C 
BRANCH  29  30
ATOM     30  O   UNL     1      -8.362 -19.132 -12.243  1.00  0.00    -0.394 OA
ATOM     31  H   UNL     1      -7.411 -19.024 -12.507  1.00  0.00     0.210 HD
ENDBRANCH  29  30
ENDBRANCH  21  29
ENDBRANCH   1  17
TORSDOF 13
ENDMDL
MODEL 2
REMARK VINA RESULT:    -3.289      1.244      6.572
REMARK INTER + INTRA:          -6.433
REMARK INTER:                  -4.924
REMARK INTRA:                  -1.509
REMARK UNBOUND:                -1.413
REMARK SMILES OC[C@H]1O[C@](CO)(O[C@H]2O[C@H](CO)[C@@H](O)[C@H](O)[C@@H]2O)[C@H](O)[C@H]1O
REMARK SMILES IDX 8 1 9 2 11 3 14 4 10 5 16 6 18 7 12 8 13 9 15 11 17 13 19 15
REMARK SMILES IDX 5 17 20 18 4 19 22 20 3 21 6 22 7 23 21 25 23 27 2 29 1 30
REMARK H PARENT 13 10 15 12 17 14 19 16 7 24 21 26 23 28 1 31
REMARK Flexibility Score: inf
ROOT
ATOM      1  O   UNL     1      -4.991 -17.484  -7.158  1.00  0.00    -0.313 OA
ENDROOT
BRANCH   1   2
ATOM      2  C   UNL     1      -5.990 -18.118  -7.950  1.00  0.00     0.285 C 
ATOM      3  C   UNL     1      -8.215 -17.941  -8.753  1.00  0.00     0.178 C 
ATOM      4  C   UNL     1      -7.856 -19.058  -9.781  1.00  0.00     0.177 C 
ATOM      5  O   UNL     1      -7.086 -17.259  -8.212  1.00  0.00    -0.341 OA
ATOM      6  C   UNL     1      -6.459 -18.797 -10.358  1.00  0.00     0.179 C 
ATOM      7  C   UNL     1      -5.416 -18.801  -9.226  1.00  0.00     0.202 C 
BRANCH   3   8
ATOM      8  C   UNL     1      -9.125 -18.453  -7.623  1.00  0.00     0.191 C 
BRANCH   8   9
ATOM      9  O   UNL     1      -8.823 -17.794  -6.426  1.00  0.00    -0.394 OA
ATOM     10  H   UNL     1      -8.144 -17.107  -6.654  1.00  0.00     0.210 HD
ENDBRANCH   8   9
ENDBRANCH   3   8
BRANCH   4  11
ATOM     11  O   UNL     1      -8.794 -19.071 -10.828  1.00  0.00    -0.387 OA
ATOM     12  H   UNL     1      -8.321 -18.768 -11.647  1.00  0.00     0.211 HD
ENDBRANCH   4  11
BRANCH   6  13
ATOM     13  O   UNL     1      -6.127 -19.776 -11.313  1.00  0.00    -0.387 OA
ATOM     14  H   UNL     1      -5.708 -19.306 -12.079  1.00  0.00     0.211 HD
ENDBRANCH   6  13
BRANCH   7  15
ATOM     15  O   UNL     1      -5.047 -20.124  -8.926  1.00  0.00    -0.385 OA
ATOM     16  H   UNL     1      -4.103 -20.097  -8.620  1.00  0.00     0.211 HD
ENDBRANCH   7  15
ENDBRANCH   1   2
BRANCH   1  17
ATOM     17  C   UNL     1      -4.871 -17.767  -5.753  1.00  0.00     0.224 C 
ATOM     18  C   UNL     1      -5.486 -16.582  -4.978  1.00  0.00     0.208 C 
ATOM     19  O   UNL     1      -3.483 -17.781  -5.467  1.00  0.00    -0.337 OA
ATOM     20  C   UNL     1      -4.326 -15.630  -4.865  1.00  0.00     0.180 C 
ATOM     21  C   UNL     1      -3.129 -16.578  -4.815  1.00  0.00     0.179 C 
BRANCH  17  22
ATOM     22  C   UNL     1      -5.439 -19.123  -5.222  1.00  0.00     0.225 C 
BRANCH  22  23
ATOM     23  O   UNL     1      -6.724 -18.937  -4.692  1.00  0.00    -0.391 OA
ATOM     24  H   UNL     1      -7.144 -19.837  -4.652  1.00  0.00     0.210 HD
ENDBRANCH  22  23
ENDBRANCH  17  22
BRANCH  18  25
ATOM     25  O   UNL     1      -6.554 -15.990  -5.672  1.00  0.00    -0.385 OA
ATOM     26  H   UNL     1      -6.157 -15.444  -6.399  1.00  0.00     0.211 HD
ENDBRANCH  18  25
BRANCH  20  27
ATOM     27  O   UNL     1      -4.428 -14.815  -3.725  1.00  0.00    -0.387 OA
ATOM     28  H   UNL     1      -4.868 -15.364  -3.025  1.00  0.00     0.211 HD
ENDBRANCH  20  27
BRANCH  21  29
ATOM     29  C   UNL     1      -2.656 -16.911  -3.389  1.00  0.00     0.191 C 
BRANCH  29  30
ATOM     30  O   UNL     1      -1.529 -16.147  -3.062  1.00  0.00    -0.394 OA
ATOM     31  H   UNL     1      -1.873 -15.285  -2.711  1.00  0.00     0.210 HD
ENDBRANCH  29  30
ENDBRANCH  21  29
ENDBRANCH   1  17
TORSDOF 13
ENDMDL
MODEL 3
REMARK VINA RESULT:    -3.272      1.566      2.621
REMARK INTER + INTRA:          -6.406
REMARK INTER:                  -5.878
REMARK INTRA:                  -0.529
REMARK UNBOUND:                -1.413
REMARK SMILES OC[C@H]1O[C@](CO)(O[C@H]2O[C@H](CO)[C@@H](O)[C@H](O)[C@@H]2O)[C@H](O)[C@H]1O
REMARK SMILES IDX 8 1 9 2 11 3 14 4 10 5 16 6 18 7 12 8 13 9 15 11 17 13 19 15
REMARK SMILES IDX 5 17 20 18 4 19 22 20 3 21 6 22 7 23 21 25 23 27 2 29 1 30
REMARK H PARENT 13 10 15 12 17 14 19 16 7 24 21 26 23 28 1 31
REMARK Flexibility Score: inf
ROOT
ATOM      1  O   UNL     1      -5.690 -18.307  -5.837  1.00  0.00    -0.313 OA
ENDROOT
BRANCH   1   2
ATOM      2  C   UNL     1      -4.728 -17.840  -4.898  1.00  0.00     0.285 C 
ATOM      3  C   UNL     1      -2.426 -17.861  -4.322  1.00  0.00     0.178 C 
ATOM      4  C   UNL     1      -2.728 -16.664  -3.369  1.00  0.00     0.177 C 
ATOM      5  O   UNL     1      -3.400 -18.055  -5.346  1.00  0.00    -0.341 OA
ATOM      6  C   UNL     1      -3.674 -15.677  -4.065  1.00  0.00     0.179 C 
ATOM      7  C   UNL     1      -4.995 -16.382  -4.422  1.00  0.00     0.202 C 
BRANCH   3   8
ATOM      8  C   UNL     1      -2.184 -19.174  -3.557  1.00  0.00     0.191 C 
BRANCH   8   9
ATOM      9  O   UNL     1      -1.603 -20.124  -4.404  1.00  0.00    -0.394 OA
ATOM     10  H   UNL     1      -2.101 -20.969  -4.254  1.00  0.00     0.210 HD
ENDBRANCH   8   9
ENDBRANCH   3   8
BRANCH   4  11
ATOM     11  O   UNL     1      -1.535 -16.002  -3.032  1.00  0.00    -0.387 OA
ATOM     12  H   UNL     1      -0.931 -16.678  -2.626  1.00  0.00     0.211 HD
ENDBRANCH   4  11
BRANCH   6  13
ATOM     13  O   UNL     1      -3.935 -14.572  -3.235  1.00  0.00    -0.387 OA
ATOM     14  H   UNL     1      -4.828 -14.222  -3.488  1.00  0.00     0.211 HD
ENDBRANCH   6  13
BRANCH   7  15
ATOM     15  O   UNL     1      -5.840 -16.402  -3.298  1.00  0.00    -0.385 OA
ATOM     16  H   UNL     1      -5.812 -17.324  -2.933  1.00  0.00     0.211 HD
ENDBRANCH   7  15
ENDBRANCH   1   2
BRANCH   1  17
ATOM     17  C   UNL     1      -5.540 -18.042  -7.244  1.00  0.00     0.224 C 
ATOM     18  C   UNL     1      -6.881 -17.482  -7.765  1.00  0.00     0.208 C 
ATOM     19  O   UNL     1      -5.339 -19.299  -7.866  1.00  0.00    -0.337 OA
ATOM     20  C   UNL     1      -7.647 -18.732  -8.102  1.00  0.00     0.180 C 
ATOM     21  C   UNL     1      -6.533 -19.697  -8.508  1.00  0.00     0.179 C 
BRANCH  17  22
ATOM     22  C   UNL     1      -4.352 -17.135  -7.700  1.00  0.00     0.225 C 
BRANCH  22  23
ATOM     23  O   UNL     1      -3.374 -17.904  -8.347  1.00  0.00    -0.391 OA
ATOM     24  H   UNL     1      -3.670 -18.850  -8.280  1.00  0.00     0.210 HD
ENDBRANCH  22  23
ENDBRANCH  17  22
BRANCH  18  25
ATOM     25  O   UNL     1      -7.556 -16.729  -6.791  1.00  0.00    -0.385 OA
ATOM     26  H   UNL     1      -7.970 -17.375  -6.163  1.00  0.00     0.211 HD
ENDBRANCH  18  25
BRANCH  20  27
ATOM     27  O   UNL     1      -8.582 -18.511  -9.127  1.00  0.00    -0.387 OA
ATOM     28  H   UNL     1      -9.477 -18.675  -8.731  1.00  0.00     0.211 HD
ENDBRANCH  20  27
BRANCH  21  29
ATOM     29  C   UNL     1      -6.281 -19.756 -10.025  1.00  0.00     0.191 C 
BRANCH  29  30
ATOM     30  O   UNL     1      -4.957 -19.399 -10.311  1.00  0.00    -0.394 OA
ATOM     31  H   UNL     1      -4.617 -20.087 -10.940  1.00  0.00     0.210 HD
ENDBRANCH  29  30
ENDBRANCH  21  29
ENDBRANCH   1  17
TORSDOF 13
ENDMDL
MODEL 4
REMARK VINA RESULT:    -3.033      1.660      6.014
REMARK INTER + INTRA:          -6.042
REMARK INTER:                  -4.722
REMARK INTRA:                  -1.320
REMARK UNBOUND:                -1.413
REMARK SMILES OC[C@H]1O[C@](CO)(O[C@H]2O[C@H](CO)[C@@H](O)[C@H](O)[C@@H]2O)[C@H](O)[C@H]1O
REMARK SMILES IDX 8 1 9 2 11 3 14 4 10 5 16 6 18 7 12 8 13 9 15 11 17 13 19 15
REMARK SMILES IDX 5 17 20 18 4 19 22 20 3 21 6 22 7 23 21 25 23 27 2 29 1 30
REMARK H PARENT 13 10 15 12 17 14 19 16 7 24 21 26 23 28 1 31
REMARK Flexibility Score: inf
ROOT
ATOM      1  O   UNL     1      -5.258 -16.460  -6.695  1.00  0.00    -0.313 OA
ENDROOT
BRANCH   1   2
ATOM      2  C   UNL     1      -5.470 -17.526  -7.614  1.00  0.00     0.285 C 
ATOM      3  C   UNL     1      -6.734 -18.228  -9.496  1.00  0.00     0.178 C 
ATOM      4  C   UNL     1      -5.682 -19.363  -9.688  1.00  0.00     0.177 C 
ATOM      5  O   UNL     1      -6.273 -17.128  -8.713  1.00  0.00    -0.341 OA
ATOM      6  C   UNL     1      -4.272 -18.803  -9.463  1.00  0.00     0.179 C 
ATOM      7  C   UNL     1      -4.154 -18.243  -8.033  1.00  0.00     0.202 C 
BRANCH   3   8
ATOM      8  C   UNL     1      -8.072 -18.753  -8.946  1.00  0.00     0.191 C 
BRANCH   8   9
ATOM      9  O   UNL     1      -8.189 -20.125  -9.194  1.00  0.00    -0.394 OA
ATOM     10  H   UNL     1      -7.323 -20.529  -8.923  1.00  0.00     0.210 HD
ENDBRANCH   8   9
ENDBRANCH   3   8
BRANCH   4  11
ATOM     11  O   UNL     1      -5.770 -19.887 -10.989  1.00  0.00    -0.387 OA
ATOM     12  H   UNL     1      -5.763 -20.877 -10.906  1.00  0.00     0.211 HD
ENDBRANCH   4  11
BRANCH   6  13
ATOM     13  O   UNL     1      -3.304 -19.804  -9.663  1.00  0.00    -0.387 OA
ATOM     14  H   UNL     1      -3.343 -20.408  -8.876  1.00  0.00     0.211 HD
ENDBRANCH   6  13
BRANCH   7  15
ATOM     15  O   UNL     1      -3.883 -19.291  -7.135  1.00  0.00    -0.385 OA
ATOM     16  H   UNL     1      -4.656 -19.912  -7.175  1.00  0.00     0.211 HD
ENDBRANCH   7  15
ENDBRANCH   1   2
BRANCH   1  17
ATOM     17  C   UNL     1      -5.763 -16.532  -5.350  1.00  0.00     0.224 C 
ATOM     18  C   UNL     1      -4.662 -16.009  -4.403  1.00  0.00     0.208 C 
ATOM     19  O   UNL     1      -5.942 -17.909  -5.065  1.00  0.00    -0.337 OA
ATOM     20  C   UNL     1      -3.844 -17.244  -4.141  1.00  0.00     0.180 C 
ATOM     21  C   UNL     1      -4.890 -18.354  -4.234  1.00  0.00     0.179 C 
BRANCH  17  22
ATOM     22  C   UNL     1      -7.130 -15.841  -5.037  1.00  0.00     0.225 C 
BRANCH  22  23
ATOM     23  O   UNL     1      -8.112 -16.805  -4.768  1.00  0.00    -0.391 OA
ATOM     24  H   UNL     1      -7.677 -17.500  -4.206  1.00  0.00     0.210 HD
ENDBRANCH  22  23
ENDBRANCH  17  22
BRANCH  18  25
ATOM     25  O   UNL     1      -3.879 -15.008  -5.001  1.00  0.00    -0.385 OA
ATOM     26  H   UNL     1      -3.134 -15.465  -5.469  1.00  0.00     0.211 HD
ENDBRANCH  18  25
BRANCH  20  27
ATOM     27  O   UNL     1      -3.208 -17.193  -2.888  1.00  0.00    -0.387 OA
ATOM     28  H   UNL     1      -3.414 -18.051  -2.434  1.00  0.00     0.211 HD
ENDBRANCH  20  27
BRANCH  21  29
ATOM     29  C   UNL     1      -5.478 -18.773  -2.875  1.00  0.00     0.191 C 
BRANCH  29  30
ATOM     30  O   UNL     1      -6.845 -19.050  -3.003  1.00  0.00    -0.394 OA
ATOM     31  H   UNL     1      -7.122 -18.668  -3.876  1.00  0.00     0.210 HD
ENDBRANCH  29  30
ENDBRANCH  21  29
ENDBRANCH   1  17
TORSDOF 13
ENDMDL
MODEL 5
REMARK VINA RESULT:    -2.865      1.656      6.415
REMARK INTER + INTRA:          -5.785
REMARK INTER:                  -4.345
REMARK INTRA:                  -1.440
REMARK UNBOUND:                -1.413
REMARK SMILES OC[C@H]1O[C@](CO)(O[C@H]2O[C@H](CO)[C@@H](O)[C@H](O)[C@@H]2O)[C@H](O)[C@H]1O
REMARK SMILES IDX 8 1 9 2 11 3 14 4 10 5 16 6 18 7 12 8 13 9 15 11 17 13 19 15
REMARK SMILES IDX 5 17 20 18 4 19 22 20 3 21 6 22 7 23 21 25 23 27 2 29 1 30
REMARK H PARENT 13 10 15 12 17 14 19 16 7 24 21 26 23 28 1 31
REMARK Flexibility Score: inf
ROOT
ATOM      1  O   UNL     1      -5.286 -17.421  -5.627  1.00  0.00    -0.313 OA
ENDROOT
BRANCH   1   2
ATOM      2  C   UNL     1      -5.765 -18.330  -6.612  1.00  0.00     0.285 C 
ATOM      3  C   UNL     1      -7.699 -19.098  -7.752  1.00  0.00     0.178 C 
ATOM      4  C   UNL     1      -6.738 -19.765  -8.783  1.00  0.00     0.177 C 
ATOM      5  O   UNL     1      -7.103 -18.051  -6.988  1.00  0.00    -0.341 OA
ATOM      6  C   UNL     1      -5.584 -18.808  -9.107  1.00  0.00     0.179 C 
ATOM      7  C   UNL     1      -4.799 -18.484  -7.823  1.00  0.00     0.202 C 
BRANCH   3   8
ATOM      8  C   UNL     1      -8.369 -20.125  -6.823  1.00  0.00     0.191 C 
BRANCH   8   9
ATOM      9  O   UNL     1      -8.890 -19.484  -5.693  1.00  0.00    -0.394 OA
ATOM     10  H   UNL     1      -9.245 -18.613  -6.009  1.00  0.00     0.210 HD
ENDBRANCH   8   9
ENDBRANCH   3   8
BRANCH   4  11
ATOM     11  O   UNL     1      -7.435 -20.067  -9.967  1.00  0.00    -0.387 OA
ATOM     12  H   UNL     1      -7.262 -19.325 -10.604  1.00  0.00     0.211 HD
ENDBRANCH   4  11
BRANCH   6  13
ATOM     13  O   UNL     1      -4.721 -19.378 -10.061  1.00  0.00    -0.387 OA
ATOM     14  H   UNL     1      -3.949 -18.762 -10.160  1.00  0.00     0.211 HD
ENDBRANCH   6  13
BRANCH   7  15
ATOM     15  O   UNL     1      -3.875 -19.511  -7.561  1.00  0.00    -0.385 OA
ATOM     16  H   UNL     1      -4.089 -20.256  -8.179  1.00  0.00     0.211 HD
ENDBRANCH   7  15
ENDBRANCH   1   2
BRANCH   1  17
ATOM     17  C   UNL     1      -4.917 -17.880  -4.314  1.00  0.00     0.224 C 
ATOM     18  C   UNL     1      -4.036 -16.793  -3.663  1.00  0.00     0.208 C 
ATOM     19  O   UNL     1      -4.100 -19.022  -4.508  1.00  0.00    -0.337 OA
ATOM     20  C   UNL     1      -2.660 -17.151  -4.155  1.00  0.00     0.180 C 
ATOM     21  C   UNL     1      -2.749 -18.670  -4.293  1.00  0.00     0.179 C 
BRANCH  17  22
ATOM     22  C   UNL     1      -6.057 -18.320  -3.339  1.00  0.00     0.225 C 
BRANCH  22  23
ATOM     23  O   UNL     1      -7.295 -17.841  -3.791  1.00  0.00    -0.391 OA
ATOM     24  H   UNL     1      -7.968 -18.530  -3.550  1.00  0.00     0.210 HD
ENDBRANCH  22  23
ENDBRANCH  17  22
BRANCH  18  25
ATOM     25  O   UNL     1      -4.396 -15.500  -4.079  1.00  0.00    -0.385 OA
ATOM     26  H   UNL     1      -4.065 -15.394  -5.008  1.00  0.00     0.211 HD
ENDBRANCH  18  25
BRANCH  20  27
ATOM     27  O   UNL     1      -1.661 -16.739  -3.256  1.00  0.00    -0.387 OA
ATOM     28  H   UNL     1      -1.537 -17.485  -2.613  1.00  0.00     0.211 HD
ENDBRANCH  20  27
BRANCH  21  29
ATOM     29  C   UNL     1      -2.226 -19.440  -3.067  1.00  0.00     0.191 C 
BRANCH  29  30
ATOM     30  O   UNL     1      -0.870 -19.747  -3.230  1.00  0.00    -0.394 OA
ATOM     31  H   UNL     1      -0.589 -20.202  -2.394  1.00  0.00     0.210 HD
ENDBRANCH  29  30
ENDBRANCH  21  29
ENDBRANCH   1  17
TORSDOF 13
ENDMDL
MODEL 6
REMARK VINA RESULT:    -2.552      1.230      2.585
REMARK INTER + INTRA:          -5.308
REMARK INTER:                  -5.318
REMARK INTRA:                   0.010
REMARK UNBOUND:                -1.413
REMARK SMILES OC[C@H]1O[C@](CO)(O[C@H]2O[C@H](CO)[C@@H](O)[C@H](O)[C@@H]2O)[C@H](O)[C@H]1O
REMARK SMILES IDX 8 1 9 2 11 3 14 4 10 5 16 6 18 7 12 8 13 9 15 11 17 13 19 15
REMARK SMILES IDX 5 17 20 18 4 19 22 20 3 21 6 22 7 23 21 25 23 27 2 29 1 30
REMARK H PARENT 13 10 15 12 17 14 19 16 7 24 21 26 23 28 1 31
REMARK Flexibility Score: inf
ROOT
ATOM      1  O   UNL     1      -6.487 -17.763  -8.032  1.00  0.00    -0.313 OA
ENDROOT
BRANCH   1   2
ATOM      2  C   UNL     1      -5.822 -17.581  -6.787  1.00  0.00     0.285 C 
ATOM      3  C   UNL     1      -6.140 -17.319  -4.450  1.00  0.00     0.178 C 
ATOM      4  C   UNL     1      -4.620 -17.629  -4.282  1.00  0.00     0.177 C 
ATOM      5  O   UNL     1      -6.695 -17.765  -5.686  1.00  0.00    -0.341 OA
ATOM      6  C   UNL     1      -4.225 -18.784  -5.211  1.00  0.00     0.179 C 
ATOM      7  C   UNL     1      -4.500 -18.395  -6.675  1.00  0.00     0.202 C 
BRANCH   3   8
ATOM      8  C   UNL     1      -6.465 -15.833  -4.222  1.00  0.00     0.191 C 
BRANCH   8   9
ATOM      9  O   UNL     1      -5.287 -15.113  -3.992  1.00  0.00    -0.394 OA
ATOM     10  H   UNL     1      -5.452 -14.197  -4.336  1.00  0.00     0.210 HD
ENDBRANCH   8   9
ENDBRANCH   3   8
BRANCH   4  11
ATOM     11  O   UNL     1      -4.346 -17.991  -2.952  1.00  0.00    -0.387 OA
ATOM     12  H   UNL     1      -4.465 -17.176  -2.397  1.00  0.00     0.211 HD
ENDBRANCH   4  11
BRANCH   6  13
ATOM     13  O   UNL     1      -2.863 -19.102  -5.052  1.00  0.00    -0.387 OA
ATOM     14  H   UNL     1      -2.345 -18.286  -5.276  1.00  0.00     0.211 HD
ENDBRANCH   6  13
BRANCH   7  15
ATOM     15  O   UNL     1      -3.431 -17.628  -7.171  1.00  0.00    -0.385 OA
ATOM     16  H   UNL     1      -3.597 -17.496  -8.140  1.00  0.00     0.211 HD
ENDBRANCH   7  15
ENDBRANCH   1   2
BRANCH   1  17
ATOM     17  C   UNL     1      -7.033 -19.042  -8.399  1.00  0.00     0.224 C 
ATOM     18  C   UNL     1      -6.086 -19.682  -9.436  1.00  0.00     0.208 C 
ATOM     19  O   UNL     1      -8.259 -18.776  -9.058  1.00  0.00    -0.337 OA
ATOM     20  C   UNL     1      -6.593 -19.115 -10.734  1.00  0.00     0.180 C 
ATOM     21  C   UNL     1      -8.084 -18.936 -10.451  1.00  0.00     0.179 C 
BRANCH  17  22
ATOM     22  C   UNL     1      -7.363 -20.058  -7.257  1.00  0.00     0.225 C 
BRANCH  22  23
ATOM     23  O   UNL     1      -8.702 -19.923  -6.859  1.00  0.00    -0.391 OA
ATOM     24  H   UNL     1      -9.218 -19.709  -7.680  1.00  0.00     0.210 HD
ENDBRANCH  22  23
ENDBRANCH  17  22
BRANCH  18  25
ATOM     25  O   UNL     1      -4.745 -19.322  -9.222  1.00  0.00    -0.385 OA
ATOM     26  H   UNL     1      -4.693 -18.932  -8.312  1.00  0.00     0.211 HD
ENDBRANCH  18  25
BRANCH  20  27
ATOM     27  O   UNL     1      -6.339 -19.976 -11.815  1.00  0.00    -0.387 OA
ATOM     28  H   UNL     1      -6.000 -20.823 -11.425  1.00  0.00     0.211 HD
ENDBRANCH  20  27
BRANCH  21  29
ATOM     29  C   UNL     1      -8.954 -20.112 -10.927  1.00  0.00     0.191 C 
BRANCH  29  30
ATOM     30  O   UNL     1      -9.124 -20.059 -12.316  1.00  0.00    -0.394 OA
ATOM     31  H   UNL     1      -8.237 -19.821 -12.692  1.00  0.00     0.210 HD
ENDBRANCH  29  30
ENDBRANCH  21  29
ENDBRANCH   1  17
TORSDOF 13
ENDMDL
MODEL 7
REMARK VINA RESULT:    -2.508     14.614     16.375
REMARK INTER + INTRA:          -5.241
REMARK INTER:                  -3.918
REMARK INTRA:                  -1.323
REMARK UNBOUND:                -1.413
REMARK SMILES OC[C@H]1O[C@](CO)(O[C@H]2O[C@H](CO)[C@@H](O)[C@H](O)[C@@H]2O)[C@H](O)[C@H]1O
REMARK SMILES IDX 8 1 9 2 11 3 14 4 10 5 16 6 18 7 12 8 13 9 15 11 17 13 19 15
REMARK SMILES IDX 5 17 20 18 4 19 22 20 3 21 6 22 7 23 21 25 23 27 2 29 1 30
REMARK H PARENT 13 10 15 12 17 14 19 16 7 24 21 26 23 28 1 31
REMARK Flexibility Score: inf
ROOT
ATOM      1  O   UNL     1      -6.797  -2.703  -8.867  1.00  0.00    -0.313 OA
ENDROOT
BRANCH   1   2
ATOM      2  C   UNL     1      -6.265  -2.390  -7.584  1.00  0.00     0.285 C 
ATOM      3  C   UNL     1      -5.317  -3.308  -5.612  1.00  0.00     0.178 C 
ATOM      4  C   UNL     1      -4.850  -1.864  -5.252  1.00  0.00     0.177 C 
ATOM      5  O   UNL     1      -5.610  -3.500  -6.995  1.00  0.00    -0.341 OA
ATOM      6  C   UNL     1      -4.307  -1.169  -6.507  1.00  0.00     0.179 C 
ATOM      7  C   UNL     1      -5.410  -1.089  -7.578  1.00  0.00     0.202 C 
BRANCH   3   8
ATOM      8  C   UNL     1      -6.497  -3.778  -4.744  1.00  0.00     0.191 C 
BRANCH   8   9
ATOM      9  O   UNL     1      -6.336  -3.328  -3.429  1.00  0.00    -0.394 OA
ATOM     10  H   UNL     1      -6.900  -2.516  -3.344  1.00  0.00     0.210 HD
ENDBRANCH   8   9
ENDBRANCH   3   8
BRANCH   4  11
ATOM     11  O   UNL     1      -3.839  -1.913  -4.276  1.00  0.00    -0.387 OA
ATOM     12  H   UNL     1      -3.626  -0.975  -4.030  1.00  0.00     0.211 HD
ENDBRANCH   4  11
BRANCH   6  13
ATOM     13  O   UNL     1      -3.850   0.125  -6.198  1.00  0.00    -0.387 OA
ATOM     14  H   UNL     1      -4.383   0.760  -6.743  1.00  0.00     0.211 HD
ENDBRANCH   6  13
BRANCH   7  15
ATOM     15  O   UNL     1      -6.240   0.018  -7.323  1.00  0.00    -0.385 OA
ATOM     16  H   UNL     1      -6.382   0.477  -8.191  1.00  0.00     0.211 HD
ENDBRANCH   7  15
ENDBRANCH   1   2
BRANCH   1  17
ATOM     17  C   UNL     1      -8.008  -2.084  -9.337  1.00  0.00     0.224 C 
ATOM     18  C   UNL     1      -8.570  -2.954 -10.481  1.00  0.00     0.208 C 
ATOM     19  O   UNL     1      -7.626  -0.842  -9.902  1.00  0.00    -0.337 OA
ATOM     20  C   UNL     1      -7.849  -2.414 -11.686  1.00  0.00     0.180 C 
ATOM     21  C   UNL     1      -7.643  -0.946 -11.311  1.00  0.00     0.179 C 
BRANCH  17  22
ATOM     22  C   UNL     1      -9.125  -1.762  -8.292  1.00  0.00     0.225 C 
BRANCH  22  23
ATOM     23  O   UNL     1      -9.015  -0.433  -7.857  1.00  0.00    -0.391 OA
ATOM     24  H   UNL     1      -8.519  -0.460  -6.997  1.00  0.00     0.210 HD
ENDBRANCH  22  23
ENDBRANCH  17  22
BRANCH  18  25
ATOM     25  O   UNL     1      -8.288  -4.318 -10.299  1.00  0.00    -0.385 OA
ATOM     26  H   UNL     1      -8.656  -4.796 -11.086  1.00  0.00     0.211 HD
ENDBRANCH  18  25
BRANCH  20  27
ATOM     27  O   UNL     1      -8.600  -2.579 -12.862  1.00  0.00    -0.387 OA
ATOM     28  H   UNL     1      -8.596  -3.551 -13.064  1.00  0.00     0.211 HD
ENDBRANCH  20  27
BRANCH  21  29
ATOM     29  C   UNL     1      -8.727  -0.004 -11.863  1.00  0.00     0.191 C 
BRANCH  29  30
ATOM     30  O   UNL     1      -8.649   0.060 -13.259  1.00  0.00    -0.394 OA
ATOM     31  H   UNL     1      -9.021  -0.796 -13.595  1.00  0.00     0.210 HD
ENDBRANCH  29  30
ENDBRANCH  21  29
ENDBRANCH   1  17
TORSDOF 13
ENDMDL
MODEL 8
REMARK VINA RESULT:    -2.378      1.583      2.493
REMARK INTER + INTRA:          -5.042
REMARK INTER:                  -5.219
REMARK INTRA:                   0.177
REMARK UNBOUND:                -1.413
REMARK SMILES OC[C@H]1O[C@](CO)(O[C@H]2O[C@H](CO)[C@@H](O)[C@H](O)[C@@H]2O)[C@H](O)[C@H]1O
REMARK SMILES IDX 8 1 9 2 11 3 14 4 10 5 16 6 18 7 12 8 13 9 15 11 17 13 19 15
REMARK SMILES IDX 5 17 20 18 4 19 22 20 3 21 6 22 7 23 21 25 23 27 2 29 1 30
REMARK H PARENT 13 10 15 12 17 14 19 16 7 24 21 26 23 28 1 31
REMARK Flexibility Score: inf
ROOT
ATOM      1  O   UNL     1      -6.565 -19.017  -6.817  1.00  0.00    -0.313 OA
ENDROOT
BRANCH   1   2
ATOM      2  C   UNL     1      -6.203 -18.190  -5.717  1.00  0.00     0.285 C 
ATOM      3  C   UNL     1      -4.507 -16.782  -4.837  1.00  0.00     0.178 C 
ATOM      4  C   UNL     1      -5.572 -16.252  -3.828  1.00  0.00     0.177 C 
ATOM      5  O   UNL     1      -5.058 -17.402  -5.998  1.00  0.00    -0.341 OA
ATOM      6  C   UNL     1      -6.907 -16.037  -4.553  1.00  0.00     0.179 C 
ATOM      7  C   UNL     1      -7.397 -17.369  -5.149  1.00  0.00     0.202 C 
BRANCH   3   8
ATOM      8  C   UNL     1      -3.477 -17.710  -4.171  1.00  0.00     0.191 C 
BRANCH   8   9
ATOM      9  O   UNL     1      -2.571 -18.187  -5.125  1.00  0.00    -0.394 OA
ATOM     10  H   UNL     1      -2.358 -17.416  -5.713  1.00  0.00     0.210 HD
ENDBRANCH   8   9
ENDBRANCH   3   8
BRANCH   4  11
ATOM     11  O   UNL     1      -5.146 -15.033  -3.273  1.00  0.00    -0.387 OA
ATOM     12  H   UNL     1      -5.898 -14.391  -3.367  1.00  0.00     0.211 HD
ENDBRANCH   4  11
BRANCH   6  13
ATOM     13  O   UNL     1      -7.874 -15.528  -3.667  1.00  0.00    -0.387 OA
ATOM     14  H   UNL     1      -8.103 -14.615  -3.979  1.00  0.00     0.211 HD
ENDBRANCH   6  13
BRANCH   7  15
ATOM     15  O   UNL     1      -8.055 -18.119  -4.157  1.00  0.00    -0.385 OA
ATOM     16  H   UNL     1      -9.011 -17.857  -4.185  1.00  0.00     0.211 HD
ENDBRANCH   7  15
ENDBRANCH   1   2
BRANCH   1  17
ATOM     17  C   UNL     1      -5.876 -18.916  -8.076  1.00  0.00     0.224 C 
ATOM     18  C   UNL     1      -6.533 -17.777  -8.885  1.00  0.00     0.208 C 
ATOM     19  O   UNL     1      -6.135 -20.125  -8.769  1.00  0.00    -0.337 OA
ATOM     20  C   UNL     1      -7.664 -18.482  -9.582  1.00  0.00     0.180 C 
ATOM     21  C   UNL     1      -7.102 -19.891  -9.771  1.00  0.00     0.179 C 
BRANCH  17  22
ATOM     22  C   UNL     1      -4.322 -18.749  -8.056  1.00  0.00     0.225 C 
BRANCH  22  23
ATOM     23  O   UNL     1      -3.730 -19.796  -7.333  1.00  0.00    -0.391 OA
ATOM     24  H   UNL     1      -2.761 -19.774  -7.550  1.00  0.00     0.210 HD
ENDBRANCH  22  23
ENDBRANCH  17  22
BRANCH  18  25
ATOM     25  O   UNL     1      -7.017 -16.750  -8.058  1.00  0.00    -0.385 OA
ATOM     26  H   UNL     1      -6.914 -17.062  -7.122  1.00  0.00     0.211 HD
ENDBRANCH  18  25
BRANCH  20  27
ATOM     27  O   UNL     1      -8.000 -17.858 -10.796  1.00  0.00    -0.387 OA
ATOM     28  H   UNL     1      -8.928 -17.524 -10.693  1.00  0.00     0.211 HD
ENDBRANCH  20  27
BRANCH  21  29
ATOM     29  C   UNL     1      -6.455 -20.125 -11.147  1.00  0.00     0.191 C 
BRANCH  29  30
ATOM     30  O   UNL     1      -7.433 -20.125 -12.149  1.00  0.00    -0.394 OA
ATOM     31  H   UNL     1      -7.973 -20.945 -12.006  1.00  0.00     0.210 HD
ENDBRANCH  29  30
ENDBRANCH  21  29
ENDBRANCH   1  17
TORSDOF 13
ENDMDL
MODEL 9
REMARK VINA RESULT:    -2.257      1.643      3.364
REMARK INTER + INTRA:          -4.857
REMARK INTER:                  -4.990
REMARK INTRA:                   0.133
REMARK UNBOUND:                -1.413
REMARK SMILES OC[C@H]1O[C@](CO)(O[C@H]2O[C@H](CO)[C@@H](O)[C@H](O)[C@@H]2O)[C@H](O)[C@H]1O
REMARK SMILES IDX 8 1 9 2 11 3 14 4 10 5 16 6 18 7 12 8 13 9 15 11 17 13 19 15
REMARK SMILES IDX 5 17 20 18 4 19 22 20 3 21 6 22 7 23 21 25 23 27 2 29 1 30
REMARK H PARENT 13 10 15 12 17 14 19 16 7 24 21 26 23 28 1 31
REMARK Flexibility Score: inf
ROOT
ATOM      1  O   UNL     1      -5.461 -19.400  -7.246  1.00  0.00    -0.313 OA
ENDROOT
BRANCH   1   2
ATOM      2  C   UNL     1      -5.829 -18.409  -6.293  1.00  0.00     0.285 C 
ATOM      3  C   UNL     1      -7.551 -17.684  -4.831  1.00  0.00     0.178 C 
ATOM      4  C   UNL     1      -6.486 -16.776  -4.144  1.00  0.00     0.177 C 
ATOM      5  O   UNL     1      -7.002 -18.765  -5.582  1.00  0.00    -0.341 OA
ATOM      6  C   UNL     1      -5.171 -17.551  -3.988  1.00  0.00     0.179 C 
ATOM      7  C   UNL     1      -4.650 -17.979  -5.372  1.00  0.00     0.202 C 
BRANCH   3   8
ATOM      8  C   UNL     1      -8.540 -16.880  -5.693  1.00  0.00     0.191 C 
BRANCH   8   9
ATOM      9  O   UNL     1      -8.123 -15.548  -5.788  1.00  0.00    -0.394 OA
ATOM     10  H   UNL     1      -7.136 -15.560  -5.689  1.00  0.00     0.210 HD
ENDBRANCH   8   9
ENDBRANCH   3   8
BRANCH   4  11
ATOM     11  O   UNL     1      -6.940 -16.375  -2.875  1.00  0.00    -0.387 OA
ATOM     12  H   UNL     1      -6.143 -16.079  -2.360  1.00  0.00     0.211 HD
ENDBRANCH   4  11
BRANCH   6  13
ATOM     13  O   UNL     1      -4.204 -16.760  -3.340  1.00  0.00    -0.387 OA
ATOM     14  H   UNL     1      -4.331 -16.887  -2.364  1.00  0.00     0.211 HD
ENDBRANCH   6  13
BRANCH   7  15
ATOM     15  O   UNL     1      -3.953 -16.912  -5.967  1.00  0.00    -0.385 OA
ATOM     16  H   UNL     1      -4.042 -17.022  -6.949  1.00  0.00     0.211 HD
ENDBRANCH   7  15
ENDBRANCH   1   2
BRANCH   1  17
ATOM     17  C   UNL     1      -5.321 -19.070  -8.640  1.00  0.00     0.224 C 
ATOM     18  C   UNL     1      -6.147 -17.794  -8.909  1.00  0.00     0.208 C 
ATOM     19  O   UNL     1      -5.932 -20.125  -9.362  1.00  0.00    -0.337 OA
ATOM     20  C   UNL     1      -7.516 -18.346  -9.197  1.00  0.00     0.180 C 
ATOM     21  C   UNL     1      -7.194 -19.699  -9.831  1.00  0.00     0.179 C 
BRANCH  17  22
ATOM     22  C   UNL     1      -3.877 -18.922  -9.222  1.00  0.00     0.225 C 
BRANCH  22  23
ATOM     23  O   UNL     1      -3.180 -17.913  -8.540  1.00  0.00    -0.391 OA
ATOM     24  H   UNL     1      -3.863 -17.267  -8.220  1.00  0.00     0.210 HD
ENDBRANCH  22  23
ENDBRANCH  17  22
BRANCH  18  25
ATOM     25  O   UNL     1      -6.177 -16.937  -7.796  1.00  0.00    -0.385 OA
ATOM     26  H   UNL     1      -6.895 -16.273  -7.963  1.00  0.00     0.211 HD
ENDBRANCH  18  25
BRANCH  20  27
ATOM     27  O   UNL     1      -8.251 -17.502 -10.047  1.00  0.00    -0.387 OA
ATOM     28  H   UNL     1      -9.049 -18.018 -10.333  1.00  0.00     0.211 HD
ENDBRANCH  20  27
BRANCH  21  29
ATOM     29  C   UNL     1      -7.166 -19.675 -11.370  1.00  0.00     0.191 C 
BRANCH  29  30
ATOM     30  O   UNL     1      -8.457 -19.476 -11.875  1.00  0.00    -0.394 OA
ATOM     31  H   UNL     1      -8.588 -18.493 -11.915  1.00  0.00     0.210 HD
ENDBRANCH  29  30
ENDBRANCH  21  29
ENDBRANCH   1  17
TORSDOF 13
ENDMDL
