MODEL 1
REMARK VINA RESULT:    -7.411      0.000      0.000
REMARK INTER + INTRA:          -8.758
REMARK INTER:                  -9.144
REMARK INTRA:                   0.386
REMARK UNBOUND:                 0.386
REMARK SMILES O=c1c(O)c(-c2cc(O)c(O)c(O)c2)oc2cc(O)cc(O)c12
REMARK SMILES IDX 5 1 3 2 2 3 1 4 23 5 21 6 20 7 18 8 17 9 16 10 15 11 6 12
REMARK SMILES IDX 7 13 8 14 14 15 10 16 12 17 9 18 11 20 13 22 4 24 22 26
REMARK SMILES IDX 19 28
REMARK H PARENT 9 19 11 21 13 23 4 25 22 27 19 29
REMARK Flexibility Score: inf
ROOT
ATOM      1  C   UNL     1       8.824  -2.595  19.601  1.00  0.00     0.180 A 
ATOM      2  C   UNL     1       7.582  -1.964  19.784  1.00  0.00     0.208 A 
ATOM      3  C   UNL     1       7.504  -0.567  19.668  1.00  0.00     0.238 A 
ATOM      4  O   UNL     1       6.401  -0.001  19.886  1.00  0.00    -0.285 OA
ATOM      5  C   UNL     1       8.667   0.180  19.354  1.00  0.00     0.111 A 
ATOM      6  C   UNL     1       8.695   1.596  19.173  1.00  0.00     0.134 A 
ATOM      7  C   UNL     1       9.924   2.244  18.995  1.00  0.00     0.093 A 
ATOM      8  C   UNL     1      11.115   1.523  18.925  1.00  0.00     0.123 A 
ATOM      9  C   UNL     1      11.092   0.132  19.041  1.00  0.00     0.094 A 
ATOM     10  C   UNL     1       9.886  -0.539  19.257  1.00  0.00     0.146 A 
ATOM     11  O   UNL     1       9.907  -1.861  19.373  1.00  0.00    -0.452 OA
ENDROOT
BRANCH   1  12
ATOM     12  C   UNL     1       8.981  -4.065  19.683  1.00  0.00     0.029 A 
ATOM     13  C   UNL     1      10.266  -4.621  19.726  1.00  0.00     0.062 A 
ATOM     14  C   UNL     1      10.443  -6.006  19.785  1.00  0.00     0.162 A 
ATOM     15  C   UNL     1       7.867  -4.920  19.660  1.00  0.00     0.062 A 
ATOM     16  C   UNL     1       9.326  -6.864  19.785  1.00  0.00     0.200 A 
ATOM     17  C   UNL     1       8.026  -6.310  19.713  1.00  0.00     0.162 A 
BRANCH  14  18
ATOM     18  O   UNL     1      11.741  -6.514  19.842  1.00  0.00    -0.504 OA
ATOM     19  H   UNL     1      11.945  -7.496  19.703  1.00  0.00     0.293 HD
ENDBRANCH  14  18
BRANCH  16  20
ATOM     20  O   UNL     1       9.547  -8.242  19.854  1.00  0.00    -0.502 OA
ATOM     21  H   UNL     1      10.074  -8.767  19.170  1.00  0.00     0.293 HD
ENDBRANCH  16  20
BRANCH  17  22
ATOM     22  O   UNL     1       6.871  -7.095  19.687  1.00  0.00    -0.504 OA
ATOM     23  H   UNL     1       6.191  -7.128  20.433  1.00  0.00     0.293 HD
ENDBRANCH  17  22
ENDBRANCH   1  12
BRANCH   2  24
ATOM     24  O   UNL     1       6.453  -2.717  20.114  1.00  0.00    -0.502 OA
ATOM     25  H   UNL     1       5.744  -2.383  20.756  1.00  0.00     0.293 HD
ENDBRANCH   2  24
BRANCH   6  26
ATOM     26  O   UNL     1       7.554   2.401  19.132  1.00  0.00    -0.507 OA
ATOM     27  H   UNL     1       7.464   3.294  19.591  1.00  0.00     0.293 HD
ENDBRANCH   6  26
BRANCH   8  28
ATOM     28  O   UNL     1      12.318   2.199  18.729  1.00  0.00    -0.508 OA
ATOM     29  H   UNL     1      12.605   2.513  17.810  1.00  0.00     0.293 HD
ENDBRANCH   8  28
TORSDOF 7
ENDMDL
MODEL 2
REMARK VINA RESULT:    -7.289      1.398      7.275
REMARK INTER + INTRA:          -8.607
REMARK INTER:                  -8.874
REMARK INTRA:                   0.267
REMARK UNBOUND:                 0.386
REMARK SMILES O=c1c(O)c(-c2cc(O)c(O)c(O)c2)oc2cc(O)cc(O)c12
REMARK SMILES IDX 5 1 3 2 2 3 1 4 23 5 21 6 20 7 18 8 17 9 16 10 15 11 6 12
REMARK SMILES IDX 7 13 8 14 14 15 10 16 12 17 9 18 11 20 13 22 4 24 22 26
REMARK SMILES IDX 19 28
REMARK H PARENT 9 19 11 21 13 23 4 25 22 27 19 29
REMARK Flexibility Score: inf
ROOT
ATOM      1  C   UNL     1       9.579  -1.902  19.319  1.00  0.00     0.180 A 
ATOM      2  C   UNL     1      10.921  -2.304  19.436  1.00  0.00     0.208 A 
ATOM      3  C   UNL     1      11.210  -3.668  19.605  1.00  0.00     0.238 A 
ATOM      4  O   UNL     1      12.408  -4.017  19.764  1.00  0.00    -0.285 OA
ATOM      5  C   UNL     1      10.155  -4.613  19.639  1.00  0.00     0.111 A 
ATOM      6  C   UNL     1      10.336  -6.023  19.766  1.00  0.00     0.134 A 
ATOM      7  C   UNL     1       9.217  -6.851  19.920  1.00  0.00     0.093 A 
ATOM      8  C   UNL     1       7.925  -6.329  19.886  1.00  0.00     0.123 A 
ATOM      9  C   UNL     1       7.735  -4.958  19.702  1.00  0.00     0.094 A 
ATOM     10  C   UNL     1       8.832  -4.103  19.583  1.00  0.00     0.146 A 
ATOM     11  O   UNL     1       8.610  -2.804  19.420  1.00  0.00    -0.452 OA
ENDROOT
BRANCH   1  12
ATOM     12  C   UNL     1       9.197  -0.486  19.114  1.00  0.00     0.029 A 
ATOM     13  C   UNL     1       9.967   0.529  19.697  1.00  0.00     0.062 A 
ATOM     14  C   UNL     1       9.617   1.872  19.536  1.00  0.00     0.162 A 
ATOM     15  C   UNL     1       8.042  -0.138  18.395  1.00  0.00     0.062 A 
ATOM     16  C   UNL     1       8.472   2.223  18.796  1.00  0.00     0.200 A 
ATOM     17  C   UNL     1       7.674   1.202  18.228  1.00  0.00     0.162 A 
BRANCH  14  18
ATOM     18  O   UNL     1      10.423   2.849  20.121  1.00  0.00    -0.504 OA
ATOM     19  H   UNL     1      11.355   2.648  20.463  1.00  0.00     0.293 HD
ENDBRANCH  14  18
BRANCH  16  20
ATOM     20  O   UNL     1       8.164   3.578  18.652  1.00  0.00    -0.502 OA
ATOM     21  H   UNL     1       8.417   4.292  19.320  1.00  0.00     0.293 HD
ENDBRANCH  16  20
BRANCH  17  22
ATOM     22  O   UNL     1       6.512   1.469  17.499  1.00  0.00    -0.504 OA
ATOM     23  H   UNL     1       5.615   1.047  17.689  1.00  0.00     0.293 HD
ENDBRANCH  17  22
ENDBRANCH   1  12
BRANCH   2  24
ATOM     24  O   UNL     1      11.943  -1.353  19.421  1.00  0.00    -0.502 OA
ATOM     25  H   UNL     1      12.056  -0.663  20.155  1.00  0.00     0.293 HD
ENDBRANCH   2  24
BRANCH   6  26
ATOM     26  O   UNL     1      11.580  -6.659  19.719  1.00  0.00    -0.507 OA
ATOM     27  H   UNL     1      12.275  -6.509  19.004  1.00  0.00     0.293 HD
ENDBRANCH   6  26
BRANCH   8  28
ATOM     28  O   UNL     1       6.833  -7.184  20.025  1.00  0.00    -0.508 OA
ATOM     29  H   UNL     1       6.055  -6.955  20.631  1.00  0.00     0.293 HD
ENDBRANCH   8  28
TORSDOF 7
ENDMDL
MODEL 3
REMARK VINA RESULT:    -6.460      1.079      6.982
REMARK INTER + INTRA:          -7.584
REMARK INTER:                  -8.009
REMARK INTRA:                   0.425
REMARK UNBOUND:                 0.386
REMARK SMILES O=c1c(O)c(-c2cc(O)c(O)c(O)c2)oc2cc(O)cc(O)c12
REMARK SMILES IDX 5 1 3 2 2 3 1 4 23 5 21 6 20 7 18 8 17 9 16 10 15 11 6 12
REMARK SMILES IDX 7 13 8 14 14 15 10 16 12 17 9 18 11 20 13 22 4 24 22 26
REMARK SMILES IDX 19 28
REMARK H PARENT 9 19 11 21 13 23 4 25 22 27 19 29
REMARK Flexibility Score: inf
ROOT
ATOM      1  C   UNL     1       8.340  -1.891  19.627  1.00  0.00     0.180 A 
ATOM      2  C   UNL     1       7.079  -2.510  19.602  1.00  0.00     0.208 A 
ATOM      3  C   UNL     1       7.006  -3.910  19.684  1.00  0.00     0.238 A 
ATOM      4  O   UNL     1       5.878  -4.463  19.608  1.00  0.00    -0.285 OA
ATOM      5  C   UNL     1       8.195  -4.672  19.806  1.00  0.00     0.111 A 
ATOM      6  C   UNL     1       8.236  -6.092  19.937  1.00  0.00     0.134 A 
ATOM      7  C   UNL     1       9.472  -6.752  19.918  1.00  0.00     0.093 A 
ATOM      8  C   UNL     1      10.667  -6.038  19.840  1.00  0.00     0.123 A 
ATOM      9  C   UNL     1      10.640  -4.644  19.773  1.00  0.00     0.094 A 
ATOM     10  C   UNL     1       9.422  -3.961  19.752  1.00  0.00     0.146 A 
ATOM     11  O   UNL     1       9.438  -2.636  19.676  1.00  0.00    -0.452 OA
ENDROOT
BRANCH   1  12
ATOM     12  C   UNL     1       8.496  -0.420  19.570  1.00  0.00     0.029 A 
ATOM     13  C   UNL     1       7.398   0.403  19.850  1.00  0.00     0.062 A 
ATOM     14  C   UNL     1       7.512   1.794  19.784  1.00  0.00     0.162 A 
ATOM     15  C   UNL     1       9.710   0.171  19.181  1.00  0.00     0.062 A 
ATOM     16  C   UNL     1       8.734   2.388  19.417  1.00  0.00     0.200 A 
ATOM     17  C   UNL     1       9.841   1.563  19.105  1.00  0.00     0.162 A 
BRANCH  14  18
ATOM     18  O   UNL     1       6.395   2.573  20.088  1.00  0.00    -0.504 OA
ATOM     19  H   UNL     1       6.462   3.567  20.270  1.00  0.00     0.293 HD
ENDBRANCH  14  18
BRANCH  16  20
ATOM     20  O   UNL     1       8.808   3.783  19.373  1.00  0.00    -0.502 OA
ATOM     21  H   UNL     1       9.601   4.298  19.018  1.00  0.00     0.293 HD
ENDBRANCH  16  20
BRANCH  17  22
ATOM     22  O   UNL     1      11.079   2.076  18.712  1.00  0.00    -0.504 OA
ATOM     23  H   UNL     1      11.445   2.016  17.773  1.00  0.00     0.293 HD
ENDBRANCH  17  22
ENDBRANCH   1  12
BRANCH   2  24
ATOM     24  O   UNL     1       5.921  -1.742  19.460  1.00  0.00    -0.502 OA
ATOM     25  H   UNL     1       5.592  -1.115  20.185  1.00  0.00     0.293 HD
ENDBRANCH   2  24
BRANCH   6  26
ATOM     26  O   UNL     1       7.105  -6.894  20.114  1.00  0.00    -0.507 OA
ATOM     27  H   UNL     1       6.797  -7.604  19.468  1.00  0.00     0.293 HD
ENDBRANCH   6  26
BRANCH   8  28
ATOM     28  O   UNL     1      11.879  -6.725  19.842  1.00  0.00    -0.508 OA
ATOM     29  H   UNL     1      12.689  -6.373  19.345  1.00  0.00     0.293 HD
ENDBRANCH   8  28
TORSDOF 7
ENDMDL
MODEL 4
REMARK VINA RESULT:    -5.843      1.256      6.814
REMARK INTER + INTRA:          -6.823
REMARK INTER:                  -7.296
REMARK INTRA:                   0.472
REMARK UNBOUND:                 0.386
REMARK SMILES O=c1c(O)c(-c2cc(O)c(O)c(O)c2)oc2cc(O)cc(O)c12
REMARK SMILES IDX 5 1 3 2 2 3 1 4 23 5 21 6 20 7 18 8 17 9 16 10 15 11 6 12
REMARK SMILES IDX 7 13 8 14 14 15 10 16 12 17 9 18 11 20 13 22 4 24 22 26
REMARK SMILES IDX 19 28
REMARK H PARENT 9 19 11 21 13 23 4 25 22 27 19 29
REMARK Flexibility Score: inf
ROOT
ATOM      1  C   UNL     1       9.573  -2.066  19.517  1.00  0.00     0.180 A 
ATOM      2  C   UNL     1       8.175  -1.923  19.494  1.00  0.00     0.208 A 
ATOM      3  C   UNL     1       7.371  -3.069  19.610  1.00  0.00     0.238 A 
ATOM      4  O   UNL     1       6.122  -2.942  19.535  1.00  0.00    -0.285 OA
ATOM      5  C   UNL     1       7.976  -4.341  19.764  1.00  0.00     0.111 A 
ATOM      6  C   UNL     1       7.259  -5.564  19.931  1.00  0.00     0.134 A 
ATOM      7  C   UNL     1       7.958  -6.778  19.943  1.00  0.00     0.093 A 
ATOM      8  C   UNL     1       9.349  -6.808  19.860  1.00  0.00     0.123 A 
ATOM      9  C   UNL     1      10.065  -5.614  19.758  1.00  0.00     0.094 A 
ATOM     10  C   UNL     1       9.393  -4.390  19.706  1.00  0.00     0.146 A 
ATOM     11  O   UNL     1      10.109  -3.278  19.597  1.00  0.00    -0.452 OA
ENDROOT
BRANCH   1  12
ATOM     12  C   UNL     1      10.484  -0.903  19.425  1.00  0.00     0.029 A 
ATOM     13  C   UNL     1       9.982   0.337  19.008  1.00  0.00     0.062 A 
ATOM     14  C   UNL     1      10.825   1.446  18.893  1.00  0.00     0.162 A 
ATOM     15  C   UNL     1      11.858  -1.028  19.689  1.00  0.00     0.062 A 
ATOM     16  C   UNL     1      12.198   1.327  19.180  1.00  0.00     0.200 A 
ATOM     17  C   UNL     1      12.717   0.070  19.574  1.00  0.00     0.162 A 
BRANCH  14  18
ATOM     18  O   UNL     1      10.277   2.664  18.490  1.00  0.00    -0.504 OA
ATOM     19  H   UNL     1       9.380   2.727  18.024  1.00  0.00     0.293 HD
ENDBRANCH  14  18
BRANCH  16  20
ATOM     20  O   UNL     1      13.002   2.463  19.061  1.00  0.00    -0.502 OA
ATOM     21  H   UNL     1      13.898   2.574  19.515  1.00  0.00     0.293 HD
ENDBRANCH  16  20
BRANCH  17  22
ATOM     22  O   UNL     1      14.070  -0.133  19.855  1.00  0.00    -0.504 OA
ATOM     23  H   UNL     1      14.416  -0.537  20.713  1.00  0.00     0.293 HD
ENDBRANCH  17  22
ENDBRANCH   1  12
BRANCH   2  24
ATOM     24  O   UNL     1       7.600  -0.662  19.320  1.00  0.00    -0.502 OA
ATOM     25  H   UNL     1       7.925  -0.008  18.618  1.00  0.00     0.293 HD
ENDBRANCH   2  24
BRANCH   6  26
ATOM     26  O   UNL     1       5.876  -5.639  20.116  1.00  0.00    -0.507 OA
ATOM     27  H   UNL     1       5.217  -4.938  19.814  1.00  0.00     0.293 HD
ENDBRANCH   6  26
BRANCH   8  28
ATOM     28  O   UNL     1      10.013  -8.033  19.892  1.00  0.00    -0.508 OA
ATOM     29  H   UNL     1      10.980  -8.104  20.186  1.00  0.00     0.293 HD
ENDBRANCH   8  28
TORSDOF 7
ENDMDL
