MODEL 1
REMARK VINA RESULT:    -3.094      0.000      0.000
REMARK INTER + INTRA:          -4.021
REMARK INTER:                  -3.727
REMARK INTRA:                  -0.294
REMARK UNBOUND:                -0.294
REMARK SMILES NC(=O)C[C@H]([NH3+])C(=O)[O-]
REMARK SMILES IDX 4 1 5 2 6 3 7 7 8 8 9 9 2 10 3 11 1 12
REMARK H PARENT 6 4 6 5 6 6 1 13 1 14
REMARK Flexibility Score: inf
ROOT
ATOM      1  C   UNL     1     137.061 144.725 134.090  1.00  0.00     0.171 C 
ENDROOT
BRANCH   1   2
ATOM      2  C   UNL     1     135.684 144.458 133.452  1.00  0.00     0.237 C 
BRANCH   2   3
ATOM      3  N   UNL     1     134.970 145.720 133.224  1.00  0.00    -0.350 N 
ATOM      4  H   UNL     1     134.656 145.794 132.229  1.00  0.00     0.345 HD
ATOM      5  H   UNL     1     134.132 145.772 133.850  1.00  0.00     0.345 HD
ATOM      6  H   UNL     1     135.595 146.528 133.450  1.00  0.00     0.345 HD
ENDBRANCH   2   3
BRANCH   2   7
ATOM      7  C   UNL     1     134.855 143.540 134.314  1.00  0.00     0.100 C 
ATOM      8  O   UNL     1     133.854 142.944 133.836  1.00  0.00    -0.544 OA
ATOM      9  O   UNL     1     135.186 143.361 135.651  1.00  0.00    -0.544 OA
ENDBRANCH   2   7
ENDBRANCH   1   2
BRANCH   1  10
ATOM     10  C   UNL     1     137.243 146.178 134.425  1.00  0.00     0.223 C 
ATOM     11  O   UNL     1     136.689 146.657 135.449  1.00  0.00    -0.275 OA
ATOM     12  N   UNL     1     138.007 147.029 133.570  1.00  0.00    -0.369 N 
ATOM     13  H   UNL     1     138.457 146.653 132.707  1.00  0.00     0.159 HD
ATOM     14  H   UNL     1     138.118 148.042 133.798  1.00  0.00     0.159 HD
ENDBRANCH   1  10
TORSDOF 4
ENDMDL
MODEL 2
REMARK VINA RESULT:    -3.063      1.659      2.208
REMARK INTER + INTRA:          -3.984
REMARK INTER:                  -3.872
REMARK INTRA:                  -0.111
REMARK UNBOUND:                -0.294
REMARK SMILES NC(=O)C[C@H]([NH3+])C(=O)[O-]
REMARK SMILES IDX 4 1 5 2 6 3 7 7 8 8 9 9 2 10 3 11 1 12
REMARK H PARENT 6 4 6 5 6 6 1 13 1 14
REMARK Flexibility Score: inf
ROOT
ATOM      1  C   UNL     1     137.019 146.806 134.945  1.00  0.00     0.171 C 
ENDROOT
BRANCH   1   2
ATOM      2  C   UNL     1     136.528 146.075 133.679  1.00  0.00     0.237 C 
BRANCH   2   3
ATOM      3  N   UNL     1     135.217 146.589 133.266  1.00  0.00    -0.350 N 
ATOM      4  H   UNL     1     134.471 145.873 133.425  1.00  0.00     0.345 HD
ATOM      5  H   UNL     1     134.985 147.450 133.814  1.00  0.00     0.345 HD
ATOM      6  H   UNL     1     135.239 146.845 132.251  1.00  0.00     0.345 HD
ENDBRANCH   2   3
BRANCH   2   7
ATOM      7  C   UNL     1     136.456 144.586 133.906  1.00  0.00     0.100 C 
ATOM      8  O   UNL     1     137.414 143.974 134.447  1.00  0.00    -0.544 OA
ATOM      9  O   UNL     1     135.332 143.878 133.501  1.00  0.00    -0.544 OA
ENDBRANCH   2   7
ENDBRANCH   1   2
BRANCH   1  10
ATOM     10  C   UNL     1     138.064 147.835 134.620  1.00  0.00     0.223 C 
ATOM     11  O   UNL     1     138.177 148.860 135.342  1.00  0.00    -0.275 OA
ATOM     12  N   UNL     1     138.902 147.680 133.475  1.00  0.00    -0.369 N 
ATOM     13  H   UNL     1     138.809 146.846 132.854  1.00  0.00     0.159 HD
ATOM     14  H   UNL     1     139.617 148.405 133.244  1.00  0.00     0.159 HD
ENDBRANCH   1  10
TORSDOF 4
ENDMDL
MODEL 3
REMARK VINA RESULT:    -3.046      1.917      4.083
REMARK INTER + INTRA:          -3.963
REMARK INTER:                  -3.698
REMARK INTRA:                  -0.265
REMARK UNBOUND:                -0.294
REMARK SMILES NC(=O)C[C@H]([NH3+])C(=O)[O-]
REMARK SMILES IDX 4 1 5 2 6 3 7 7 8 8 9 9 2 10 3 11 1 12
REMARK H PARENT 6 4 6 5 6 6 1 13 1 14
REMARK Flexibility Score: inf
ROOT
ATOM      1  C   UNL     1     135.552 143.842 135.228  1.00  0.00     0.171 C 
ENDROOT
BRANCH   1   2
ATOM      2  C   UNL     1     136.308 144.757 134.244  1.00  0.00     0.237 C 
BRANCH   2   3
ATOM      3  N   UNL     1     137.322 143.992 133.507  1.00  0.00    -0.350 N 
ATOM      4  H   UNL     1     137.157 142.964 133.609  1.00  0.00     0.345 HD
ATOM      5  H   UNL     1     137.287 144.245 132.492  1.00  0.00     0.345 HD
ATOM      6  H   UNL     1     138.276 144.226 133.868  1.00  0.00     0.345 HD
ENDBRANCH   2   3
BRANCH   2   7
ATOM      7  C   UNL     1     136.951 145.915 134.964  1.00  0.00     0.100 C 
ATOM      8  O   UNL     1     137.880 146.569 134.422  1.00  0.00    -0.544 OA
ATOM      9  O   UNL     1     136.530 146.254 136.244  1.00  0.00    -0.544 OA
ENDBRANCH   2   7
ENDBRANCH   1   2
BRANCH   1  10
ATOM     10  C   UNL     1     134.450 143.085 134.543  1.00  0.00     0.223 C 
ATOM     11  O   UNL     1     134.373 143.094 133.286  1.00  0.00    -0.275 OA
ATOM     12  N   UNL     1     133.466 142.389 135.307  1.00  0.00    -0.369 N 
ATOM     13  H   UNL     1     133.502 142.387 136.350  1.00  0.00     0.159 HD
ATOM     14  H   UNL     1     132.692 141.877 134.828  1.00  0.00     0.159 HD
ENDBRANCH   1  10
TORSDOF 4
ENDMDL
MODEL 4
REMARK VINA RESULT:    -2.917      1.620      3.847
REMARK INTER + INTRA:          -3.808
REMARK INTER:                  -3.591
REMARK INTRA:                  -0.218
REMARK UNBOUND:                -0.294
REMARK SMILES NC(=O)C[C@H]([NH3+])C(=O)[O-]
REMARK SMILES IDX 4 1 5 2 6 3 7 7 8 8 9 9 2 10 3 11 1 12
REMARK H PARENT 6 4 6 5 6 6 1 13 1 14
REMARK Flexibility Score: inf
ROOT
ATOM      1  C   UNL     1     137.114 144.948 134.365  1.00  0.00     0.171 C 
ENDROOT
BRANCH   1   2
ATOM      2  C   UNL     1     136.871 146.460 134.192  1.00  0.00     0.237 C 
BRANCH   2   3
ATOM      3  N   UNL     1     138.019 147.093 133.531  1.00  0.00    -0.350 N 
ATOM      4  H   UNL     1     138.919 146.719 133.912  1.00  0.00     0.345 HD
ATOM      5  H   UNL     1     137.982 146.906 132.501  1.00  0.00     0.345 HD
ATOM      6  H   UNL     1     137.987 148.128 133.675  1.00  0.00     0.345 HD
ENDBRANCH   2   3
BRANCH   2   7
ATOM      7  C   UNL     1     136.606 147.123 135.520  1.00  0.00     0.100 C 
ATOM      8  O   UNL     1     136.479 146.432 136.565  1.00  0.00    -0.544 OA
ATOM      9  O   UNL     1     136.481 148.504 135.592  1.00  0.00    -0.544 OA
ENDBRANCH   2   7
ENDBRANCH   1   2
BRANCH   1  10
ATOM     10  C   UNL     1     135.868 144.153 134.098  1.00  0.00     0.223 C 
ATOM     11  O   UNL     1     135.579 143.822 132.917  1.00  0.00    -0.275 OA
ATOM     12  N   UNL     1     134.988 143.804 135.166  1.00  0.00    -0.369 N 
ATOM     13  H   UNL     1     135.202 144.086 136.147  1.00  0.00     0.159 HD
ATOM     14  H   UNL     1     134.115 143.265 134.973  1.00  0.00     0.159 HD
ENDBRANCH   1  10
TORSDOF 4
ENDMDL
MODEL 5
REMARK VINA RESULT:    -2.896     23.635     24.732
REMARK INTER + INTRA:          -3.782
REMARK INTER:                  -3.302
REMARK INTRA:                  -0.481
REMARK UNBOUND:                -0.294
REMARK SMILES NC(=O)C[C@H]([NH3+])C(=O)[O-]
REMARK SMILES IDX 4 1 5 2 6 3 7 7 8 8 9 9 2 10 3 11 1 12
REMARK H PARENT 6 4 6 5 6 6 1 13 1 14
REMARK Flexibility Score: inf
ROOT
ATOM      1  C   UNL     1     150.905 153.887 151.353  1.00  0.00     0.171 C 
ENDROOT
BRANCH   1   2
ATOM      2  C   UNL     1     149.685 154.681 151.863  1.00  0.00     0.237 C 
BRANCH   2   3
ATOM      3  N   UNL     1     150.005 155.359 153.125  1.00  0.00    -0.350 N 
ATOM      4  H   UNL     1     150.084 156.392 152.981  1.00  0.00     0.345 HD
ATOM      5  H   UNL     1     149.254 155.169 153.829  1.00  0.00     0.345 HD
ATOM      6  H   UNL     1     150.909 154.993 153.506  1.00  0.00     0.345 HD
ENDBRANCH   2   3
BRANCH   2   7
ATOM      7  C   UNL     1     148.489 153.782 152.043  1.00  0.00     0.100 C 
ATOM      8  O   UNL     1     148.313 153.162 153.125  1.00  0.00    -0.544 OA
ATOM      9  O   UNL     1     147.582 153.620 151.005  1.00  0.00    -0.544 OA
ENDBRANCH   2   7
ENDBRANCH   1   2
BRANCH   1  10
ATOM     10  C   UNL     1     151.740 153.368 152.487  1.00  0.00     0.223 C 
ATOM     11  O   UNL     1     152.756 154.013 152.862  1.00  0.00    -0.275 OA
ATOM     12  N   UNL     1     151.417 152.129 153.118  1.00  0.00    -0.369 N 
ATOM     13  H   UNL     1     150.591 151.572 152.808  1.00  0.00     0.159 HD
ATOM     14  H   UNL     1     152.010 151.764 153.897  1.00  0.00     0.159 HD
ENDBRANCH   1  10
TORSDOF 4
ENDMDL
MODEL 6
REMARK VINA RESULT:    -2.887     14.445     14.900
REMARK INTER + INTRA:          -3.772
REMARK INTER:                  -3.614
REMARK INTRA:                  -0.158
REMARK UNBOUND:                -0.294
REMARK SMILES NC(=O)C[C@H]([NH3+])C(=O)[O-]
REMARK SMILES IDX 4 1 5 2 6 3 7 7 8 8 9 9 2 10 3 11 1 12
REMARK H PARENT 6 4 6 5 6 6 1 13 1 14
REMARK Flexibility Score: inf
ROOT
ATOM      1  C   UNL     1     150.906 144.518 133.100  1.00  0.00     0.171 C 
ENDROOT
BRANCH   1   2
ATOM      2  C   UNL     1     151.533 143.891 134.362  1.00  0.00     0.237 C 
BRANCH   2   3
ATOM      3  N   UNL     1     152.391 142.756 133.999  1.00  0.00    -0.350 N 
ATOM      4  H   UNL     1     153.381 143.065 133.871  1.00  0.00     0.345 HD
ATOM      5  H   UNL     1     152.355 142.030 134.754  1.00  0.00     0.345 HD
ATOM      6  H   UNL     1     152.047 142.320 133.112  1.00  0.00     0.345 HD
ENDBRANCH   2   3
BRANCH   2   7
ATOM      7  C   UNL     1     150.470 143.451 135.335  1.00  0.00     0.100 C 
ATOM      8  O   UNL     1     149.810 142.398 135.128  1.00  0.00    -0.544 OA
ATOM      9  O   UNL     1     150.200 144.219 136.460  1.00  0.00    -0.544 OA
ENDBRANCH   2   7
ENDBRANCH   1   2
BRANCH   1  10
ATOM     10  C   UNL     1     150.400 145.906 133.366  1.00  0.00     0.223 C 
ATOM     11  O   UNL     1     149.167 146.150 133.277  1.00  0.00    -0.275 OA
ATOM     12  N   UNL     1     151.309 146.962 133.678  1.00  0.00    -0.369 N 
ATOM     13  H   UNL     1     152.335 146.783 133.737  1.00  0.00     0.159 HD
ATOM     14  H   UNL     1     150.953 147.929 133.847  1.00  0.00     0.159 HD
ENDBRANCH   1  10
TORSDOF 4
ENDMDL
MODEL 7
REMARK VINA RESULT:    -2.828     13.906     14.859
REMARK INTER + INTRA:          -3.701
REMARK INTER:                  -3.215
REMARK INTRA:                  -0.486
REMARK UNBOUND:                -0.294
REMARK SMILES NC(=O)C[C@H]([NH3+])C(=O)[O-]
REMARK SMILES IDX 4 1 5 2 6 3 7 7 8 8 9 9 2 10 3 11 1 12
REMARK H PARENT 6 4 6 5 6 6 1 13 1 14
REMARK Flexibility Score: inf
ROOT
ATOM      1  C   UNL     1     149.716 145.200 132.958  1.00  0.00     0.171 C 
ENDROOT
BRANCH   1   2
ATOM      2  C   UNL     1     150.036 144.223 134.108  1.00  0.00     0.237 C 
BRANCH   2   3
ATOM      3  N   UNL     1     149.968 144.913 135.402  1.00  0.00    -0.350 N 
ATOM      4  H   UNL     1     150.378 144.320 136.160  1.00  0.00     0.345 HD
ATOM      5  H   UNL     1     150.499 145.815 135.350  1.00  0.00     0.345 HD
ATOM      6  H   UNL     1     148.973 145.134 135.636  1.00  0.00     0.345 HD
ENDBRANCH   2   3
BRANCH   2   7
ATOM      7  C   UNL     1     151.393 143.594 133.924  1.00  0.00     0.100 C 
ATOM      8  O   UNL     1     151.700 142.543 134.545  1.00  0.00    -0.544 OA
ATOM      9  O   UNL     1     152.321 144.184 133.076  1.00  0.00    -0.544 OA
ENDBRANCH   2   7
ENDBRANCH   1   2
BRANCH   1  10
ATOM     10  C   UNL     1     149.973 146.625 133.356  1.00  0.00     0.223 C 
ATOM     11  O   UNL     1     149.030 147.326 133.813  1.00  0.00    -0.275 OA
ATOM     12  N   UNL     1     151.266 147.204 133.184  1.00  0.00    -0.369 N 
ATOM     13  H   UNL     1     152.053 146.645 132.790  1.00  0.00     0.159 HD
ATOM     14  H   UNL     1     151.436 148.201 133.448  1.00  0.00     0.159 HD
ENDBRANCH   1  10
TORSDOF 4
ENDMDL
MODEL 8
REMARK VINA RESULT:    -2.783     24.235     25.016
REMARK INTER + INTRA:          -3.647
REMARK INTER:                  -3.251
REMARK INTRA:                  -0.395
REMARK UNBOUND:                -0.294
REMARK SMILES NC(=O)C[C@H]([NH3+])C(=O)[O-]
REMARK SMILES IDX 4 1 5 2 6 3 7 7 8 8 9 9 2 10 3 11 1 12
REMARK H PARENT 6 4 6 5 6 6 1 13 1 14
REMARK Flexibility Score: inf
ROOT
ATOM      1  C   UNL     1     149.837 153.386 151.266  1.00  0.00     0.171 C 
ENDROOT
BRANCH   1   2
ATOM      2  C   UNL     1     151.213 152.775 151.597  1.00  0.00     0.237 C 
BRANCH   2   3
ATOM      3  N   UNL     1     151.248 152.312 152.989  1.00  0.00    -0.350 N 
ATOM      4  H   UNL     1     151.783 152.981 153.589  1.00  0.00     0.345 HD
ATOM      5  H   UNL     1     150.272 152.228 153.359  1.00  0.00     0.345 HD
ATOM      6  H   UNL     1     151.697 151.368 153.039  1.00  0.00     0.345 HD
ENDBRANCH   2   3
BRANCH   2   7
ATOM      7  C   UNL     1     152.321 153.767 151.350  1.00  0.00     0.100 C 
ATOM      8  O   UNL     1     153.125 154.070 152.271  1.00  0.00    -0.544 OA
ATOM      9  O   UNL     1     152.448 154.367 150.104  1.00  0.00    -0.544 OA
ENDBRANCH   2   7
ENDBRANCH   1   2
BRANCH   1  10
ATOM     10  C   UNL     1     149.672 154.745 151.883  1.00  0.00     0.223 C 
ATOM     11  O   UNL     1     149.476 154.849 153.123  1.00  0.00    -0.275 OA
ATOM     12  N   UNL     1     149.697 155.918 151.070  1.00  0.00    -0.369 N 
ATOM     13  H   UNL     1     149.839 155.849 150.038  1.00  0.00     0.159 HD
ATOM     14  H   UNL     1     149.567 156.860 151.501  1.00  0.00     0.159 HD
ENDBRANCH   1  10
TORSDOF 4
ENDMDL
