MODEL 1
REMARK VINA RESULT:    -5.683      0.000      0.000
REMARK INTER + INTRA:          -6.975
REMARK INTER:                  -6.680
REMARK INTRA:                  -0.295
REMARK UNBOUND:                -0.295
REMARK SMILES O=c1c(O)c(-c2ccc(O)c(O)c2)oc2cc(O)ccc12
REMARK SMILES IDX 5 1 3 2 2 3 1 4 21 5 15 6 14 7 16 8 17 9 19 10 20 11 6 12
REMARK SMILES IDX 7 13 8 14 9 15 13 16 11 17 10 18 12 20 4 22 18 24
REMARK H PARENT 10 19 12 21 4 23 18 25
REMARK Flexibility Score: inf
ROOT
ATOM      1  C   UNL     1     -16.494  24.668  -7.908  1.00  0.00     0.180 A 
ATOM      2  C   UNL     1     -16.602  23.272  -8.082  1.00  0.00     0.208 A 
ATOM      3  C   UNL     1     -15.432  22.525  -8.293  1.00  0.00     0.235 A 
ATOM      4  O   UNL     1     -15.504  21.276  -8.463  1.00  0.00    -0.285 OA
ATOM      5  C   UNL     1     -14.190  23.176  -8.305  1.00  0.00     0.069 A 
ATOM      6  C   UNL     1     -14.163  24.573  -8.099  1.00  0.00     0.142 A 
ATOM      7  O   UNL     1     -15.294  25.245  -7.912  1.00  0.00    -0.452 OA
ATOM      8  C   UNL     1     -12.944  25.257  -8.094  1.00  0.00     0.094 A 
ATOM      9  C   UNL     1     -11.744  24.564  -8.295  1.00  0.00     0.119 A 
ATOM     10  C   UNL     1     -11.766  23.178  -8.502  1.00  0.00     0.047 A 
ATOM     11  C   UNL     1     -12.981  22.486  -8.507  1.00  0.00     0.020 A 
ENDROOT
BRANCH   1  12
ATOM     12  C   UNL     1     -17.681  25.528  -7.698  1.00  0.00     0.025 A 
ATOM     13  C   UNL     1     -18.240  26.272  -8.752  1.00  0.00     0.016 A 
ATOM     14  C   UNL     1     -19.345  27.097  -8.525  1.00  0.00     0.051 A 
ATOM     15  C   UNL     1     -19.899  27.199  -7.242  1.00  0.00     0.157 A 
ATOM     16  C   UNL     1     -18.227  25.651  -6.409  1.00  0.00     0.062 A 
ATOM     17  C   UNL     1     -19.336  26.478  -6.182  1.00  0.00     0.158 A 
BRANCH  15  18
ATOM     18  O   UNL     1     -21.003  28.018  -7.012  1.00  0.00    -0.504 OA
ATOM     19  H   UNL     1     -21.939  27.730  -7.270  1.00  0.00     0.293 HD
ENDBRANCH  15  18
BRANCH  17  20
ATOM     20  O   UNL     1     -19.884  26.587  -4.905  1.00  0.00    -0.504 OA
ATOM     21  H   UNL     1     -20.885  26.539  -4.751  1.00  0.00     0.293 HD
ENDBRANCH  17  20
ENDBRANCH   1  12
BRANCH   2  22
ATOM     22  O   UNL     1     -17.849  22.645  -8.016  1.00  0.00    -0.502 OA
ATOM     23  H   UNL     1     -18.717  23.164  -8.051  1.00  0.00     0.293 HD
ENDBRANCH   2  22
BRANCH   9  24
ATOM     24  O   UNL     1     -10.539  25.262  -8.288  1.00  0.00    -0.508 OA
ATOM     25  H   UNL     1     -10.513  26.274  -8.245  1.00  0.00     0.293 HD
ENDBRANCH   9  24
TORSDOF 5
ENDMDL
MODEL 2
REMARK VINA RESULT:    -5.322      2.618      5.022
REMARK INTER + INTRA:          -6.550
REMARK INTER:                  -6.467
REMARK INTRA:                  -0.083
REMARK UNBOUND:                -0.295
REMARK SMILES O=c1c(O)c(-c2ccc(O)c(O)c2)oc2cc(O)ccc12
REMARK SMILES IDX 5 1 3 2 2 3 1 4 21 5 15 6 14 7 16 8 17 9 19 10 20 11 6 12
REMARK SMILES IDX 7 13 8 14 9 15 13 16 11 17 10 18 12 20 4 22 18 24
REMARK H PARENT 10 19 12 21 4 23 18 25
REMARK Flexibility Score: inf
ROOT
ATOM      1  C   UNL     1     -12.361  23.791  -8.503  1.00  0.00     0.180 A 
ATOM      2  C   UNL     1     -11.539  24.867  -8.898  1.00  0.00     0.208 A 
ATOM      3  C   UNL     1     -10.148  24.679  -8.934  1.00  0.00     0.235 A 
ATOM      4  O   UNL     1      -9.391  25.630  -9.272  1.00  0.00    -0.285 OA
ATOM      5  C   UNL     1      -9.613  23.425  -8.598  1.00  0.00     0.069 A 
ATOM      6  C   UNL     1     -10.504  22.392  -8.237  1.00  0.00     0.142 A 
ATOM      7  O   UNL     1     -11.814  22.614  -8.207  1.00  0.00    -0.452 OA
ATOM      8  C   UNL     1     -10.011  21.126  -7.906  1.00  0.00     0.094 A 
ATOM      9  C   UNL     1      -8.634  20.877  -7.928  1.00  0.00     0.119 A 
ATOM     10  C   UNL     1      -7.746  21.901  -8.284  1.00  0.00     0.047 A 
ATOM     11  C   UNL     1      -8.230  23.169  -8.618  1.00  0.00     0.020 A 
ENDROOT
BRANCH   1  12
ATOM     12  C   UNL     1     -13.834  23.916  -8.423  1.00  0.00     0.025 A 
ATOM     13  C   UNL     1     -14.680  23.112  -9.207  1.00  0.00     0.016 A 
ATOM     14  C   UNL     1     -16.067  23.265  -9.133  1.00  0.00     0.051 A 
ATOM     15  C   UNL     1     -16.628  24.229  -8.286  1.00  0.00     0.157 A 
ATOM     16  C   UNL     1     -14.401  24.896  -7.591  1.00  0.00     0.062 A 
ATOM     17  C   UNL     1     -15.793  25.048  -7.516  1.00  0.00     0.158 A 
BRANCH  15  18
ATOM     18  O   UNL     1     -18.011  24.383  -8.207  1.00  0.00    -0.504 OA
ATOM     19  H   UNL     1     -18.449  24.831  -7.411  1.00  0.00     0.293 HD
ENDBRANCH  15  18
BRANCH  17  20
ATOM     20  O   UNL     1     -16.352  26.012  -6.679  1.00  0.00    -0.504 OA
ATOM     21  H   UNL     1     -15.810  26.458  -5.947  1.00  0.00     0.293 HD
ENDBRANCH  17  20
ENDBRANCH   1  12
BRANCH   2  22
ATOM     22  O   UNL     1     -12.104  26.089  -9.274  1.00  0.00    -0.502 OA
ATOM     23  H   UNL     1     -13.053  26.343  -9.029  1.00  0.00     0.293 HD
ENDBRANCH   2  22
BRANCH   9  24
ATOM     24  O   UNL     1      -8.159  19.610  -7.593  1.00  0.00    -0.508 OA
ATOM     25  H   UNL     1      -8.411  19.165  -6.719  1.00  0.00     0.293 HD
ENDBRANCH   9  24
TORSDOF 5
ENDMDL
MODEL 3
REMARK VINA RESULT:    -5.316      3.192      8.696
REMARK INTER + INTRA:          -6.544
REMARK INTER:                  -6.232
REMARK INTRA:                  -0.311
REMARK UNBOUND:                -0.295
REMARK SMILES O=c1c(O)c(-c2ccc(O)c(O)c2)oc2cc(O)ccc12
REMARK SMILES IDX 5 1 3 2 2 3 1 4 21 5 15 6 14 7 16 8 17 9 19 10 20 11 6 12
REMARK SMILES IDX 7 13 8 14 9 15 13 16 11 17 10 18 12 20 4 22 18 24
REMARK H PARENT 10 19 12 21 4 23 18 25
REMARK Flexibility Score: inf
ROOT
ATOM      1  C   UNL     1     -11.293  22.402  -8.328  1.00  0.00     0.180 A 
ATOM      2  C   UNL     1     -11.197  23.786  -8.587  1.00  0.00     0.208 A 
ATOM      3  C   UNL     1     -12.377  24.542  -8.666  1.00  0.00     0.235 A 
ATOM      4  O   UNL     1     -12.318  25.779  -8.908  1.00  0.00    -0.285 OA
ATOM      5  C   UNL     1     -13.615  23.913  -8.465  1.00  0.00     0.069 A 
ATOM      6  C   UNL     1     -13.626  22.529  -8.185  1.00  0.00     0.142 A 
ATOM      7  O   UNL     1     -12.487  21.847  -8.129  1.00  0.00    -0.452 OA
ATOM      8  C   UNL     1     -14.839  21.868  -7.969  1.00  0.00     0.094 A 
ATOM      9  C   UNL     1     -16.047  22.571  -8.030  1.00  0.00     0.119 A 
ATOM     10  C   UNL     1     -16.041  23.944  -8.309  1.00  0.00     0.047 A 
ATOM     11  C   UNL     1     -14.833  24.614  -8.525  1.00  0.00     0.020 A 
ENDROOT
BRANCH   1  12
ATOM     12  C   UNL     1     -10.098  21.533  -8.248  1.00  0.00     0.025 A 
ATOM     13  C   UNL     1      -9.485  21.022  -9.406  1.00  0.00     0.016 A 
ATOM     14  C   UNL     1      -8.373  20.182  -9.305  1.00  0.00     0.051 A 
ATOM     15  C   UNL     1      -7.864  19.832  -8.048  1.00  0.00     0.157 A 
ATOM     16  C   UNL     1      -9.596  21.161  -6.989  1.00  0.00     0.062 A 
ATOM     17  C   UNL     1      -8.478  20.320  -6.888  1.00  0.00     0.158 A 
BRANCH  15  18
ATOM     18  O   UNL     1      -6.753  18.997  -7.943  1.00  0.00    -0.504 OA
ATOM     19  H   UNL     1      -6.094  18.894  -8.706  1.00  0.00     0.293 HD
ENDBRANCH  15  18
BRANCH  17  20
ATOM     20  O   UNL     1      -7.975  19.964  -5.638  1.00  0.00    -0.504 OA
ATOM     21  H   UNL     1      -8.589  19.718  -4.869  1.00  0.00     0.293 HD
ENDBRANCH  17  20
ENDBRANCH   1  12
BRANCH   2  22
ATOM     22  O   UNL     1      -9.948  24.393  -8.734  1.00  0.00    -0.502 OA
ATOM     23  H   UNL     1      -9.828  25.398  -8.702  1.00  0.00     0.293 HD
ENDBRANCH   2  22
BRANCH   9  24
ATOM     24  O   UNL     1     -17.246  21.896  -7.813  1.00  0.00    -0.508 OA
ATOM     25  H   UNL     1     -17.307  20.887  -7.887  1.00  0.00     0.293 HD
ENDBRANCH   9  24
TORSDOF 5
ENDMDL
MODEL 4
REMARK VINA RESULT:    -5.305      1.378      6.704
REMARK INTER + INTRA:          -6.530
REMARK INTER:                  -6.393
REMARK INTRA:                  -0.137
REMARK UNBOUND:                -0.295
REMARK SMILES O=c1c(O)c(-c2ccc(O)c(O)c2)oc2cc(O)ccc12
REMARK SMILES IDX 5 1 3 2 2 3 1 4 21 5 15 6 14 7 16 8 17 9 19 10 20 11 6 12
REMARK SMILES IDX 7 13 8 14 9 15 13 16 11 17 10 18 12 20 4 22 18 24
REMARK H PARENT 10 19 12 21 4 23 18 25
REMARK Flexibility Score: inf
ROOT
ATOM      1  C   UNL     1     -15.010  24.204  -8.335  1.00  0.00     0.180 A 
ATOM      2  C   UNL     1     -15.950  23.533  -9.146  1.00  0.00     0.208 A 
ATOM      3  C   UNL     1     -17.315  23.811  -8.970  1.00  0.00     0.235 A 
ATOM      4  O   UNL     1     -18.176  23.216  -9.674  1.00  0.00    -0.285 OA
ATOM      5  C   UNL     1     -17.708  24.758  -8.012  1.00  0.00     0.069 A 
ATOM      6  C   UNL     1     -16.705  25.404  -7.257  1.00  0.00     0.142 A 
ATOM      7  O   UNL     1     -15.424  25.106  -7.449  1.00  0.00    -0.452 OA
ATOM      8  C   UNL     1     -17.056  26.361  -6.300  1.00  0.00     0.094 A 
ATOM      9  C   UNL     1     -18.400  26.684  -6.083  1.00  0.00     0.119 A 
ATOM     10  C   UNL     1     -19.399  26.043  -6.829  1.00  0.00     0.047 A 
ATOM     11  C   UNL     1     -19.058  25.086  -7.789  1.00  0.00     0.020 A 
ENDROOT
BRANCH   1  12
ATOM     12  C   UNL     1     -13.555  23.953  -8.448  1.00  0.00     0.025 A 
ATOM     13  C   UNL     1     -13.014  22.674  -8.227  1.00  0.00     0.016 A 
ATOM     14  C   UNL     1     -11.634  22.466  -8.314  1.00  0.00     0.051 A 
ATOM     15  C   UNL     1     -10.777  23.533  -8.609  1.00  0.00     0.157 A 
ATOM     16  C   UNL     1     -12.688  25.024  -8.722  1.00  0.00     0.062 A 
ATOM     17  C   UNL     1     -11.304  24.815  -8.811  1.00  0.00     0.158 A 
BRANCH  15  18
ATOM     18  O   UNL     1      -9.401  23.330  -8.700  1.00  0.00    -0.504 OA
ATOM     19  H   UNL     1      -8.949  23.152  -9.589  1.00  0.00     0.293 HD
ENDBRANCH  15  18
BRANCH  17  20
ATOM     20  O   UNL     1     -10.448  25.877  -9.097  1.00  0.00    -0.504 OA
ATOM     21  H   UNL     1     -10.128  26.060 -10.041  1.00  0.00     0.293 HD
ENDBRANCH  17  20
ENDBRANCH   1  12
BRANCH   2  22
ATOM     22  O   UNL     1     -15.525  22.632 -10.125  1.00  0.00    -0.502 OA
ATOM     23  H   UNL     1     -15.186  21.706  -9.896  1.00  0.00     0.293 HD
ENDBRANCH   2  22
BRANCH   9  24
ATOM     24  O   UNL     1     -18.732  27.638  -5.124  1.00  0.00    -0.508 OA
ATOM     25  H   UNL     1     -19.697  27.857  -4.908  1.00  0.00     0.293 HD
ENDBRANCH   9  24
TORSDOF 5
ENDMDL
MODEL 5
REMARK VINA RESULT:    -5.224      3.897      9.321
REMARK INTER + INTRA:          -6.436
REMARK INTER:                  -6.127
REMARK INTRA:                  -0.309
REMARK UNBOUND:                -0.295
REMARK SMILES O=c1c(O)c(-c2ccc(O)c(O)c2)oc2cc(O)ccc12
REMARK SMILES IDX 5 1 3 2 2 3 1 4 21 5 15 6 14 7 16 8 17 9 19 10 20 11 6 12
REMARK SMILES IDX 7 13 8 14 9 15 13 16 11 17 10 18 12 20 4 22 18 24
REMARK H PARENT 10 19 12 21 4 23 18 25
REMARK Flexibility Score: inf
ROOT
ATOM      1  C   UNL     1     -10.072  22.132  -8.110  1.00  0.00     0.180 A 
ATOM      2  C   UNL     1      -9.643  23.424  -8.479  1.00  0.00     0.208 A 
ATOM      3  C   UNL     1     -10.608  24.407  -8.745  1.00  0.00     0.235 A 
ATOM      4  O   UNL     1     -10.249  25.567  -9.089  1.00  0.00    -0.285 OA
ATOM      5  C   UNL     1     -11.969  24.090  -8.618  1.00  0.00     0.069 A 
ATOM      6  C   UNL     1     -12.318  22.781  -8.220  1.00  0.00     0.142 A 
ATOM      7  O   UNL     1     -11.373  21.877  -7.986  1.00  0.00    -0.452 OA
ATOM      8  C   UNL     1     -13.663  22.430  -8.072  1.00  0.00     0.094 A 
ATOM      9  C   UNL     1     -14.670  23.370  -8.318  1.00  0.00     0.119 A 
ATOM     10  C   UNL     1     -14.329  24.669  -8.715  1.00  0.00     0.047 A 
ATOM     11  C   UNL     1     -12.986  25.030  -8.865  1.00  0.00     0.020 A 
ENDROOT
BRANCH   1  12
ATOM     12  C   UNL     1      -9.117  21.036  -7.831  1.00  0.00     0.025 A 
ATOM     13  C   UNL     1      -8.532  20.292  -8.871  1.00  0.00     0.016 A 
ATOM     14  C   UNL     1      -7.653  19.245  -8.582  1.00  0.00     0.051 A 
ATOM     15  C   UNL     1      -7.355  18.919  -7.253  1.00  0.00     0.157 A 
ATOM     16  C   UNL     1      -8.831  20.690  -6.499  1.00  0.00     0.062 A 
ATOM     17  C   UNL     1      -7.947  19.640  -6.210  1.00  0.00     0.158 A 
BRANCH  15  18
ATOM     18  O   UNL     1      -6.476  17.877  -6.961  1.00  0.00    -0.504 OA
ATOM     19  H   UNL     1      -6.710  16.913  -7.166  1.00  0.00     0.293 HD
ENDBRANCH  15  18
BRANCH  17  20
ATOM     20  O   UNL     1      -7.655  19.309  -4.888  1.00  0.00    -0.504 OA
ATOM     21  H   UNL     1      -7.780  18.367  -4.537  1.00  0.00     0.293 HD
ENDBRANCH  17  20
ENDBRANCH   1  12
BRANCH   2  22
ATOM     22  O   UNL     1      -8.280  23.723  -8.551  1.00  0.00    -0.502 OA
ATOM     23  H   UNL     1      -7.758  23.662  -9.416  1.00  0.00     0.293 HD
ENDBRANCH   2  22
BRANCH   9  24
ATOM     24  O   UNL     1     -16.005  23.002  -8.167  1.00  0.00    -0.508 OA
ATOM     25  H   UNL     1     -16.723  23.686  -7.958  1.00  0.00     0.293 HD
ENDBRANCH   9  24
TORSDOF 5
ENDMDL
MODEL 6
REMARK VINA RESULT:    -5.214     17.844     19.997
REMARK INTER + INTRA:          -6.423
REMARK INTER:                  -6.695
REMARK INTRA:                   0.272
REMARK UNBOUND:                -0.295
REMARK SMILES O=c1c(O)c(-c2ccc(O)c(O)c2)oc2cc(O)ccc12
REMARK SMILES IDX 5 1 3 2 2 3 1 4 21 5 15 6 14 7 16 8 17 9 19 10 20 11 6 12
REMARK SMILES IDX 7 13 8 14 9 15 13 16 11 17 10 18 12 20 4 22 18 24
REMARK H PARENT 10 19 12 21 4 23 18 25
REMARK Flexibility Score: inf
ROOT
ATOM      1  C   UNL     1      -5.712  17.834   7.080  1.00  0.00     0.180 A 
ATOM      2  C   UNL     1      -4.829  17.815   8.180  1.00  0.00     0.208 A 
ATOM      3  C   UNL     1      -4.950  16.785   9.126  1.00  0.00     0.235 A 
ATOM      4  O   UNL     1      -4.180  16.752  10.125  1.00  0.00    -0.285 OA
ATOM      5  C   UNL     1      -5.928  15.794   8.946  1.00  0.00     0.069 A 
ATOM      6  C   UNL     1      -6.757  15.870   7.806  1.00  0.00     0.142 A 
ATOM      7  O   UNL     1      -6.615  16.867   6.939  1.00  0.00    -0.452 OA
ATOM      8  C   UNL     1      -7.736  14.896   7.586  1.00  0.00     0.094 A 
ATOM      9  C   UNL     1      -7.901  13.843   8.493  1.00  0.00     0.119 A 
ATOM     10  C   UNL     1      -7.081  13.765   9.626  1.00  0.00     0.047 A 
ATOM     11  C   UNL     1      -6.099  14.734   9.854  1.00  0.00     0.020 A 
ENDROOT
BRANCH   1  12
ATOM     12  C   UNL     1      -5.660  18.896   6.049  1.00  0.00     0.025 A 
ATOM     13  C   UNL     1      -4.452  19.535   5.717  1.00  0.00     0.016 A 
ATOM     14  C   UNL     1      -4.431  20.552   4.759  1.00  0.00     0.051 A 
ATOM     15  C   UNL     1      -5.616  20.953   4.128  1.00  0.00     0.157 A 
ATOM     16  C   UNL     1      -6.848  19.317   5.429  1.00  0.00     0.062 A 
ATOM     17  C   UNL     1      -6.827  20.336   4.466  1.00  0.00     0.158 A 
BRANCH  15  18
ATOM     18  O   UNL     1      -5.599  21.964   3.170  1.00  0.00    -0.504 OA
ATOM     19  H   UNL     1      -6.399  22.142   2.574  1.00  0.00     0.293 HD
ENDBRANCH  15  18
BRANCH  17  20
ATOM     20  O   UNL     1      -8.006  20.741   3.843  1.00  0.00    -0.504 OA
ATOM     21  H   UNL     1      -8.355  21.689   3.934  1.00  0.00     0.293 HD
ENDBRANCH  17  20
ENDBRANCH   1  12
BRANCH   2  22
ATOM     22  O   UNL     1      -3.834  18.788   8.306  1.00  0.00    -0.502 OA
ATOM     23  H   UNL     1      -3.802  19.429   9.089  1.00  0.00     0.293 HD
ENDBRANCH   2  22
BRANCH   9  24
ATOM     24  O   UNL     1      -8.882  12.882   8.259  1.00  0.00    -0.508 OA
ATOM     25  H   UNL     1      -9.318  12.375   9.020  1.00  0.00     0.293 HD
ENDBRANCH   9  24
TORSDOF 5
ENDMDL
MODEL 7
REMARK VINA RESULT:    -5.209      5.852      8.700
REMARK INTER + INTRA:          -6.418
REMARK INTER:                  -6.313
REMARK INTRA:                  -0.105
REMARK UNBOUND:                -0.295
REMARK SMILES O=c1c(O)c(-c2ccc(O)c(O)c2)oc2cc(O)ccc12
REMARK SMILES IDX 5 1 3 2 2 3 1 4 21 5 15 6 14 7 16 8 17 9 19 10 20 11 6 12
REMARK SMILES IDX 7 13 8 14 9 15 13 16 11 17 10 18 12 20 4 22 18 24
REMARK H PARENT 10 19 12 21 4 23 18 25
REMARK Flexibility Score: inf
ROOT
ATOM      1  C   UNL     1      -8.895  21.772  -7.722  1.00  0.00     0.180 A 
ATOM      2  C   UNL     1      -7.566  21.498  -8.109  1.00  0.00     0.208 A 
ATOM      3  C   UNL     1      -6.888  20.433  -7.495  1.00  0.00     0.235 A 
ATOM      4  O   UNL     1      -5.696  20.175  -7.816  1.00  0.00    -0.285 OA
ATOM      5  C   UNL     1      -7.551  19.658  -6.531  1.00  0.00     0.069 A 
ATOM      6  C   UNL     1      -8.889  19.981  -6.215  1.00  0.00     0.142 A 
ATOM      7  O   UNL     1      -9.491  21.003  -6.814  1.00  0.00    -0.452 OA
ATOM      8  C   UNL     1      -9.587  19.226  -5.268  1.00  0.00     0.094 A 
ATOM      9  C   UNL     1      -8.965  18.149  -4.626  1.00  0.00     0.119 A 
ATOM     10  C   UNL     1      -7.637  17.826  -4.934  1.00  0.00     0.047 A 
ATOM     11  C   UNL     1      -6.931  18.575  -5.882  1.00  0.00     0.020 A 
ENDROOT
BRANCH   1  12
ATOM     12  C   UNL     1      -9.670  22.888  -8.309  1.00  0.00     0.025 A 
ATOM     13  C   UNL     1      -9.208  24.215  -8.243  1.00  0.00     0.016 A 
ATOM     14  C   UNL     1      -9.969  25.255  -8.782  1.00  0.00     0.051 A 
ATOM     15  C   UNL     1     -11.206  24.988  -9.382  1.00  0.00     0.157 A 
ATOM     16  C   UNL     1     -10.921  22.629  -8.893  1.00  0.00     0.062 A 
ATOM     17  C   UNL     1     -11.684  23.673  -9.435  1.00  0.00     0.158 A 
BRANCH  15  18
ATOM     18  O   UNL     1     -11.967  26.022  -9.924  1.00  0.00    -0.504 OA
ATOM     19  H   UNL     1     -12.306  26.786  -9.351  1.00  0.00     0.293 HD
ENDBRANCH  15  18
BRANCH  17  20
ATOM     20  O   UNL     1     -12.919  23.410 -10.027  1.00  0.00    -0.504 OA
ATOM     21  H   UNL     1     -12.994  22.864 -10.877  1.00  0.00     0.293 HD
ENDBRANCH  17  20
ENDBRANCH   1  12
BRANCH   2  22
ATOM     22  O   UNL     1      -6.949  22.257  -9.107  1.00  0.00    -0.502 OA
ATOM     23  H   UNL     1      -5.950  22.225  -9.270  1.00  0.00     0.293 HD
ENDBRANCH   2  22
BRANCH   9  24
ATOM     24  O   UNL     1      -9.674  17.408  -3.683  1.00  0.00    -0.508 OA
ATOM     25  H   UNL     1      -9.540  16.409  -3.585  1.00  0.00     0.293 HD
ENDBRANCH   9  24
TORSDOF 5
ENDMDL
MODEL 8
REMARK VINA RESULT:    -5.158      9.641     12.888
REMARK INTER + INTRA:          -6.358
REMARK INTER:                  -6.132
REMARK INTRA:                  -0.226
REMARK UNBOUND:                -0.295
REMARK SMILES O=c1c(O)c(-c2ccc(O)c(O)c2)oc2cc(O)ccc12
REMARK SMILES IDX 5 1 3 2 2 3 1 4 21 5 15 6 14 7 16 8 17 9 19 10 20 11 6 12
REMARK SMILES IDX 7 13 8 14 9 15 13 16 11 17 10 18 12 20 4 22 18 24
REMARK H PARENT 10 19 12 21 4 23 18 25
REMARK Flexibility Score: inf
ROOT
ATOM      1  C   UNL     1      -8.083  16.698  -4.370  1.00  0.00     0.180 A 
ATOM      2  C   UNL     1      -8.804  15.559  -4.787  1.00  0.00     0.208 A 
ATOM      3  C   UNL     1      -8.621  14.351  -4.095  1.00  0.00     0.235 A 
ATOM      4  O   UNL     1      -9.246  13.316  -4.456  1.00  0.00    -0.285 OA
ATOM      5  C   UNL     1      -7.746  14.310  -2.999  1.00  0.00     0.069 A 
ATOM      6  C   UNL     1      -7.079  15.499  -2.629  1.00  0.00     0.142 A 
ATOM      7  O   UNL     1      -7.274  16.619  -3.316  1.00  0.00    -0.452 OA
ATOM      8  C   UNL     1      -6.207  15.501  -1.536  1.00  0.00     0.094 A 
ATOM      9  C   UNL     1      -5.987  14.328  -0.805  1.00  0.00     0.119 A 
ATOM     10  C   UNL     1      -6.645  13.146  -1.170  1.00  0.00     0.047 A 
ATOM     11  C   UNL     1      -7.521  13.134  -2.260  1.00  0.00     0.020 A 
ENDROOT
BRANCH   1  12
ATOM     12  C   UNL     1      -8.207  18.002  -5.059  1.00  0.00     0.025 A 
ATOM     13  C   UNL     1      -9.376  18.777  -4.952  1.00  0.00     0.016 A 
ATOM     14  C   UNL     1      -9.481  19.994  -5.632  1.00  0.00     0.051 A 
ATOM     15  C   UNL     1      -8.427  20.447  -6.436  1.00  0.00     0.157 A 
ATOM     16  C   UNL     1      -7.162  18.452  -5.883  1.00  0.00     0.062 A 
ATOM     17  C   UNL     1      -7.267  19.673  -6.564  1.00  0.00     0.158 A 
BRANCH  15  18
ATOM     18  O   UNL     1      -8.526  21.661  -7.113  1.00  0.00    -0.504 OA
ATOM     19  H   UNL     1      -8.781  21.702  -8.092  1.00  0.00     0.293 HD
ENDBRANCH  15  18
BRANCH  17  20
ATOM     20  O   UNL     1      -6.222  20.123  -7.370  1.00  0.00    -0.504 OA
ATOM     21  H   UNL     1      -5.975  19.648  -8.231  1.00  0.00     0.293 HD
ENDBRANCH  17  20
ENDBRANCH   1  12
BRANCH   2  22
ATOM     22  O   UNL     1      -9.705  15.642  -5.852  1.00  0.00    -0.502 OA
ATOM     23  H   UNL     1     -10.667  15.934  -5.725  1.00  0.00     0.293 HD
ENDBRANCH   2  22
BRANCH   9  24
ATOM     24  O   UNL     1      -5.114  14.348   0.280  1.00  0.00    -0.508 OA
ATOM     25  H   UNL     1      -4.912  15.205   0.781  1.00  0.00     0.293 HD
ENDBRANCH   9  24
TORSDOF 5
ENDMDL
MODEL 9
REMARK VINA RESULT:    -5.079      2.538      4.274
REMARK INTER + INTRA:          -6.265
REMARK INTER:                  -5.986
REMARK INTRA:                  -0.279
REMARK UNBOUND:                -0.295
REMARK SMILES O=c1c(O)c(-c2ccc(O)c(O)c2)oc2cc(O)ccc12
REMARK SMILES IDX 5 1 3 2 2 3 1 4 21 5 15 6 14 7 16 8 17 9 19 10 20 11 6 12
REMARK SMILES IDX 7 13 8 14 9 15 13 16 11 17 10 18 12 20 4 22 18 24
REMARK H PARENT 10 19 12 21 4 23 18 25
REMARK Flexibility Score: inf
ROOT
ATOM      1  C   UNL     1     -12.520  23.877  -8.678  1.00  0.00     0.180 A 
ATOM      2  C   UNL     1     -12.179  22.654  -8.062  1.00  0.00     0.208 A 
ATOM      3  C   UNL     1     -10.826  22.282  -7.999  1.00  0.00     0.235 A 
ATOM      4  O   UNL     1     -10.497  21.188  -7.464  1.00  0.00    -0.285 OA
ATOM      5  C   UNL     1      -9.850  23.141  -8.527  1.00  0.00     0.069 A 
ATOM      6  C   UNL     1     -10.270  24.359  -9.105  1.00  0.00     0.142 A 
ATOM      7  O   UNL     1     -11.561  24.668  -9.153  1.00  0.00    -0.452 OA
ATOM      8  C   UNL     1      -9.326  25.245  -9.632  1.00  0.00     0.094 A 
ATOM      9  C   UNL     1      -7.963  24.932  -9.593  1.00  0.00     0.119 A 
ATOM     10  C   UNL     1      -7.542  23.723  -9.023  1.00  0.00     0.047 A 
ATOM     11  C   UNL     1      -8.478  22.831  -8.491  1.00  0.00     0.020 A 
ENDROOT
BRANCH   1  12
ATOM     12  C   UNL     1     -13.923  24.330  -8.800  1.00  0.00     0.025 A 
ATOM     13  C   UNL     1     -14.619  24.238 -10.019  1.00  0.00     0.016 A 
ATOM     14  C   UNL     1     -15.935  24.696 -10.117  1.00  0.00     0.051 A 
ATOM     15  C   UNL     1     -16.571  25.263  -9.006  1.00  0.00     0.157 A 
ATOM     16  C   UNL     1     -14.559  24.919  -7.694  1.00  0.00     0.062 A 
ATOM     17  C   UNL     1     -15.881  25.377  -7.793  1.00  0.00     0.158 A 
BRANCH  15  18
ATOM     18  O   UNL     1     -17.885  25.718  -9.099  1.00  0.00    -0.504 OA
ATOM     19  H   UNL     1     -18.171  26.597  -8.684  1.00  0.00     0.293 HD
ENDBRANCH  15  18
BRANCH  17  20
ATOM     20  O   UNL     1     -16.513  25.949  -6.690  1.00  0.00    -0.504 OA
ATOM     21  H   UNL     1     -16.771  26.929  -6.675  1.00  0.00     0.293 HD
ENDBRANCH  17  20
ENDBRANCH   1  12
BRANCH   2  22
ATOM     22  O   UNL     1     -13.169  21.843  -7.502  1.00  0.00    -0.502 OA
ATOM     23  H   UNL     1     -12.978  20.905  -7.173  1.00  0.00     0.293 HD
ENDBRANCH   2  22
BRANCH   9  24
ATOM     24  O   UNL     1      -7.036  25.826 -10.125  1.00  0.00    -0.508 OA
ATOM     25  H   UNL     1      -6.910  26.752  -9.734  1.00  0.00     0.293 HD
ENDBRANCH   9  24
TORSDOF 5
ENDMDL
