MODEL 1
REMARK VINA RESULT:    -3.123      0.000      0.000
REMARK INTER + INTRA:          -4.261
REMARK INTER:                  -3.853
REMARK INTRA:                  -0.408
REMARK UNBOUND:                -0.408
REMARK SMILES CCCCC=CC(C)=O
REMARK SMILES IDX 4 1 3 2 2 3 1 4 5 5 6 6 7 7 9 8 8 9
REMARK H PARENT
REMARK Flexibility Score: inf
ROOT
ATOM      1  C   UNL     1       9.609  14.406  -0.261  1.00  0.00     0.027 C 
ENDROOT
BRANCH   1   2
ATOM      2  C   UNL     1      10.602  13.296  -0.631  1.00  0.00     0.004 C 
BRANCH   2   3
ATOM      3  C   UNL     1      12.046  13.647  -0.246  1.00  0.00    -0.003 C 
ATOM      4  C   UNL     1      12.486  12.875   0.994  1.00  0.00     0.004 C 
ENDBRANCH   2   3
ENDBRANCH   1   2
BRANCH   1   5
ATOM      5  C   UNL     1       9.297  14.408   1.213  1.00  0.00    -0.023 C 
ATOM      6  C   UNL     1       9.389  15.452   2.055  1.00  0.00     0.042 C 
BRANCH   6   7
ATOM      7  C   UNL     1       9.844  16.823   1.733  1.00  0.00     0.152 C 
ATOM      8  O   UNL     1       9.038  17.733   1.406  1.00  0.00    -0.295 OA
ATOM      9  C   UNL     1      11.310  17.118   1.708  1.00  0.00     0.093 C 
ENDBRANCH   6   7
ENDBRANCH   1   5
TORSDOF 4
ENDMDL
MODEL 2
REMARK VINA RESULT:    -2.544      2.367      4.491
REMARK INTER + INTRA:          -3.547
REMARK INTER:                  -3.285
REMARK INTRA:                  -0.262
REMARK UNBOUND:                -0.408
REMARK SMILES CCCCC=CC(C)=O
REMARK SMILES IDX 4 1 3 2 2 3 1 4 5 5 6 6 7 7 9 8 8 9
REMARK H PARENT
REMARK Flexibility Score: inf
ROOT
ATOM      1  C   UNL     1      11.385  16.511   1.407  1.00  0.00     0.027 C 
ENDROOT
BRANCH   1   2
ATOM      2  C   UNL     1      10.204  17.370   1.881  1.00  0.00     0.004 C 
BRANCH   2   3
ATOM      3  C   UNL     1       8.935  16.541   2.125  1.00  0.00    -0.003 C 
ATOM      4  C   UNL     1       7.685  17.411   2.034  1.00  0.00     0.004 C 
ENDBRANCH   2   3
ENDBRANCH   1   2
BRANCH   1   5
ATOM      5  C   UNL     1      11.428  15.181   2.115  1.00  0.00    -0.023 C 
ATOM      6  C   UNL     1      11.427  13.964   1.545  1.00  0.00     0.042 C 
BRANCH   6   7
ATOM      7  C   UNL     1      11.355  13.653   0.100  1.00  0.00     0.152 C 
ATOM      8  O   UNL     1      12.320  13.133  -0.519  1.00  0.00    -0.295 OA
ATOM      9  C   UNL     1      10.135  14.048  -0.670  1.00  0.00     0.093 C 
ENDBRANCH   6   7
ENDBRANCH   1   5
TORSDOF 4
ENDMDL
MODEL 3
REMARK VINA RESULT:    -2.528      1.482      2.335
REMARK INTER + INTRA:          -3.527
REMARK INTER:                  -3.633
REMARK INTRA:                   0.105
REMARK UNBOUND:                -0.408
REMARK SMILES CCCCC=CC(C)=O
REMARK SMILES IDX 4 1 3 2 2 3 1 4 5 5 6 6 7 7 9 8 8 9
REMARK H PARENT
REMARK Flexibility Score: inf
ROOT
ATOM      1  C   UNL     1      11.435  13.761   1.583  1.00  0.00     0.027 C 
ENDROOT
BRANCH   1   2
ATOM      2  C   UNL     1      11.994  13.288   0.234  1.00  0.00     0.004 C 
BRANCH   2   3
ATOM      3  C   UNL     1      11.340  14.003  -0.956  1.00  0.00    -0.003 C 
ATOM      4  C   UNL     1       9.819  13.967  -0.850  1.00  0.00     0.004 C 
ENDBRANCH   2   3
ENDBRANCH   1   2
BRANCH   1   5
ATOM      5  C   UNL     1      11.763  15.209   1.846  1.00  0.00    -0.023 C 
ATOM      6  C   UNL     1      10.890  16.202   2.089  1.00  0.00     0.042 C 
BRANCH   6   7
ATOM      7  C   UNL     1       9.413  16.105   2.125  1.00  0.00     0.152 C 
ATOM      8  O   UNL     1       8.818  14.996   2.119  1.00  0.00    -0.295 OA
ATOM      9  C   UNL     1       8.600  17.359   2.078  1.00  0.00     0.093 C 
ENDBRANCH   6   7
ENDBRANCH   1   5
TORSDOF 4
ENDMDL
MODEL 4
REMARK VINA RESULT:    -2.505      0.910      1.662
REMARK INTER + INTRA:          -3.499
REMARK INTER:                  -3.803
REMARK INTRA:                   0.304
REMARK UNBOUND:                -0.408
REMARK SMILES CCCCC=CC(C)=O
REMARK SMILES IDX 4 1 3 2 2 3 1 4 5 5 6 6 7 7 9 8 8 9
REMARK H PARENT
REMARK Flexibility Score: inf
ROOT
ATOM      1  C   UNL     1      11.654  14.283   1.630  1.00  0.00     0.027 C 
ENDROOT
BRANCH   1   2
ATOM      2  C   UNL     1      11.791  13.255   0.499  1.00  0.00     0.004 C 
BRANCH   2   3
ATOM      3  C   UNL     1      11.546  13.870  -0.886  1.00  0.00    -0.003 C 
ATOM      4  C   UNL     1      10.053  13.996  -1.175  1.00  0.00     0.004 C 
ENDBRANCH   2   3
ENDBRANCH   1   2
BRANCH   1   5
ATOM      5  C   UNL     1      10.234  14.384   2.125  1.00  0.00    -0.023 C 
ATOM      6  C   UNL     1       9.456  15.480   2.124  1.00  0.00     0.042 C 
BRANCH   6   7
ATOM      7  C   UNL     1       9.825  16.839   1.666  1.00  0.00     0.152 C 
ATOM      8  O   UNL     1       8.977  17.631   1.179  1.00  0.00    -0.295 OA
ATOM      9  C   UNL     1      11.261  17.254   1.700  1.00  0.00     0.093 C 
ENDBRANCH   6   7
ENDBRANCH   1   5
TORSDOF 4
ENDMDL
MODEL 5
REMARK VINA RESULT:    -2.320      2.127      4.141
REMARK INTER + INTRA:          -3.271
REMARK INTER:                  -3.370
REMARK INTRA:                   0.100
REMARK UNBOUND:                -0.408
REMARK SMILES CCCCC=CC(C)=O
REMARK SMILES IDX 4 1 3 2 2 3 1 4 5 5 6 6 7 7 9 8 8 9
REMARK H PARENT
REMARK Flexibility Score: inf
ROOT
ATOM      1  C   UNL     1       9.540  16.314   1.382  1.00  0.00     0.027 C 
ENDROOT
BRANCH   1   2
ATOM      2  C   UNL     1       8.224  16.044   2.124  1.00  0.00     0.004 C 
BRANCH   2   3
ATOM      3  C   UNL     1       7.845  14.557   2.125  1.00  0.00    -0.003 C 
ATOM      4  C   UNL     1       6.332  14.375   2.050  1.00  0.00     0.004 C 
ENDBRANCH   2   3
ENDBRANCH   1   2
BRANCH   1   5
ATOM      5  C   UNL     1      10.713  15.664   2.070  1.00  0.00    -0.023 C 
ATOM      6  C   UNL     1      11.461  14.651   1.602  1.00  0.00     0.042 C 
BRANCH   6   7
ATOM      7  C   UNL     1      11.287  13.927   0.323  1.00  0.00     0.152 C 
ATOM      8  O   UNL     1      10.263  14.077  -0.393  1.00  0.00    -0.295 OA
ATOM      9  C   UNL     1      12.313  12.921  -0.090  1.00  0.00     0.093 C 
ENDBRANCH   6   7
ENDBRANCH   1   5
TORSDOF 4
ENDMDL
MODEL 6
REMARK VINA RESULT:    -1.052      1.834      3.130
REMARK INTER + INTRA:          -1.706
REMARK INTER:                  -1.861
REMARK INTRA:                   0.154
REMARK UNBOUND:                -0.408
REMARK SMILES CCCCC=CC(C)=O
REMARK SMILES IDX 4 1 3 2 2 3 1 4 5 5 6 6 7 7 9 8 8 9
REMARK H PARENT
REMARK Flexibility Score: inf
ROOT
ATOM      1  C   UNL     1       9.810  14.816  -0.085  1.00  0.00     0.027 C 
ENDROOT
BRANCH   1   2
ATOM      2  C   UNL     1       8.374  14.425   0.291  1.00  0.00     0.004 C 
BRANCH   2   3
ATOM      3  C   UNL     1       8.133  14.461   1.806  1.00  0.00    -0.003 C 
ATOM      4  C   UNL     1       6.641  14.448   2.125  1.00  0.00     0.004 C 
ENDBRANCH   2   3
ENDBRANCH   1   2
BRANCH   1   5
ATOM      5  C   UNL     1      10.803  14.365   0.956  1.00  0.00    -0.023 C 
ATOM      6  C   UNL     1      11.449  15.141   1.843  1.00  0.00     0.042 C 
BRANCH   6   7
ATOM      7  C   UNL     1      11.355  16.612   1.980  1.00  0.00     0.152 C 
ATOM      8  O   UNL     1      12.377  17.334   2.121  1.00  0.00    -0.295 OA
ATOM      9  C   UNL     1      10.006  17.254   2.042  1.00  0.00     0.093 C 
ENDBRANCH   6   7
ENDBRANCH   1   5
TORSDOF 4
ENDMDL
MODEL 7
REMARK VINA RESULT:    -0.380      2.291      4.063
REMARK INTER + INTRA:          -0.877
REMARK INTER:                  -0.514
REMARK INTRA:                  -0.363
REMARK UNBOUND:                -0.408
REMARK SMILES CCCCC=CC(C)=O
REMARK SMILES IDX 4 1 3 2 2 3 1 4 5 5 6 6 7 7 9 8 8 9
REMARK H PARENT
REMARK Flexibility Score: inf
ROOT
ATOM      1  C   UNL     1      10.058  15.510   0.045  1.00  0.00     0.027 C 
ENDROOT
BRANCH   1   2
ATOM      2  C   UNL     1       9.618  15.698   1.503  1.00  0.00     0.004 C 
BRANCH   2   3
ATOM      3  C   UNL     1      10.177  16.985   2.125  1.00  0.00    -0.003 C 
ATOM      4  C   UNL     1      11.701  17.002   2.075  1.00  0.00     0.004 C 
ENDBRANCH   2   3
ENDBRANCH   1   2
BRANCH   1   5
ATOM      5  C   UNL     1       9.799  14.107  -0.441  1.00  0.00    -0.023 C 
ATOM      6  C   UNL     1      10.623  13.051  -0.334  1.00  0.00     0.042 C 
BRANCH   6   7
ATOM      7  C   UNL     1      11.980  13.032   0.258  1.00  0.00     0.152 C 
ATOM      8  O   UNL     1      13.012  12.886  -0.447  1.00  0.00    -0.295 OA
ATOM      9  C   UNL     1      12.127  13.099   1.745  1.00  0.00     0.093 C 
ENDBRANCH   6   7
ENDBRANCH   1   5
TORSDOF 4
ENDMDL
MODEL 8
REMARK VINA RESULT:    -0.330      1.447      2.485
REMARK INTER + INTRA:          -0.815
REMARK INTER:                  -0.913
REMARK INTRA:                   0.098
REMARK UNBOUND:                -0.408
REMARK SMILES CCCCC=CC(C)=O
REMARK SMILES IDX 4 1 3 2 2 3 1 4 5 5 6 6 7 7 9 8 8 9
REMARK H PARENT
REMARK Flexibility Score: inf
ROOT
ATOM      1  C   UNL     1      11.536  15.037   0.717  1.00  0.00     0.027 C 
ENDROOT
BRANCH   1   2
ATOM      2  C   UNL     1      11.787  14.474  -0.689  1.00  0.00     0.004 C 
BRANCH   2   3
ATOM      3  C   UNL     1      10.684  13.508  -1.141  1.00  0.00    -0.003 C 
ATOM      4  C   UNL     1       9.404  14.262  -1.492  1.00  0.00     0.004 C 
ENDBRANCH   2   3
ENDBRANCH   1   2
BRANCH   1   5
ATOM      5  C   UNL     1      10.736  14.082   1.566  1.00  0.00    -0.023 C 
ATOM      6  C   UNL     1       9.535  14.313   2.125  1.00  0.00     0.042 C 
BRANCH   6   7
ATOM      7  C   UNL     1       8.742  15.561   2.058  1.00  0.00     0.152 C 
ATOM      8  O   UNL     1       9.286  16.696   2.056  1.00  0.00    -0.295 OA
ATOM      9  C   UNL     1       7.249  15.478   2.083  1.00  0.00     0.093 C 
ENDBRANCH   6   7
ENDBRANCH   1   5
TORSDOF 4
ENDMDL
