MODEL 1
REMARK VINA RESULT:     8.018      0.000      0.000
REMARK INTER + INTRA:          13.814
REMARK INTER:                  11.065
REMARK INTRA:                   2.749
REMARK UNBOUND:                 2.749
REMARK SMILES C[C@@H]1OC(=O)[C@H](C)[C@H]1C[C@H](O)[C@@](C)(O)[C@@H]1CC[C@@]2(O)C3=CC(=O)[C@H]4C[C@@H](O)[C@@H](O)C[C@]4(C)[C@@H]3CC[C@@]12C
REMARK SMILES IDX 12 1 13 2 10 3 9 4 8 5 7 6 6 7 4 8 2 9 3 10 5 11 1 12 11 13
REMARK SMILES IDX 15 15 16 16 36 17 17 18 18 19 35 20 37 21 20 22 34 23 33 24
REMARK SMILES IDX 21 25 31 26 22 27 24 28 30 29 32 30 23 31 25 32 28 33 26 34
REMARK SMILES IDX 19 35 29 37 27 39 14 41
REMARK H PARENT 11 14 19 36 29 38 27 40 14 42
REMARK Flexibility Score: inf
ROOT
ATOM      1  C   UNL     1     -12.858  10.966   7.261  1.00  0.00     0.091 C 
ATOM      2  C   UNL     1     -11.895  11.953   7.999  1.00  0.00     0.045 C 
ENDROOT
BRANCH   1   3
ATOM      3  C   UNL     1     -13.856  10.452   8.391  1.00  0.00     0.146 C 
BRANCH   3   4
ATOM      4  C   UNL     1     -14.835  11.584   8.840  1.00  0.00     0.043 C 
BRANCH   4   5
ATOM      5  C   UNL     1     -16.313  11.468   8.378  1.00  0.00     0.046 C 
ATOM      6  C   UNL     1     -17.984  12.325  10.125  1.00  0.00     0.020 C 
ATOM      7  C   UNL     1     -17.325  11.095   9.492  1.00  0.00     0.103 C 
ATOM      8  C   UNL     1     -18.304  10.268   8.741  1.00  0.00     0.309 C 
ATOM      9  C   UNL     1     -16.568  10.451   7.228  1.00  0.00     0.177 C 
ATOM     10  O   UNL     1     -17.873   9.948   7.470  1.00  0.00    -0.462 OA
ATOM     11  O   UNL     1     -19.409   9.875   9.204  1.00  0.00    -0.252 OA
ATOM     12  C   UNL     1     -16.492  11.084   5.836  1.00  0.00     0.053 C 
ENDBRANCH   4   5
ENDBRANCH   3   4
BRANCH   3  13
ATOM     13  O   UNL     1     -13.196   9.982   9.536  1.00  0.00    -0.390 OA
ATOM     14  H   UNL     1     -13.888   9.732  10.200  1.00  0.00     0.211 HD
ENDBRANCH   3  13
ENDBRANCH   1   3
BRANCH   1  15
ATOM     15  C   UNL     1     -13.565  11.712   6.037  1.00  0.00     0.032 C 
ATOM     16  C   UNL     1     -14.446  10.795   5.148  1.00  0.00     0.010 C 
ATOM     17  C   UNL     1     -12.684  12.559   5.006  1.00  0.00     0.006 C 
ATOM     18  C   UNL     1     -13.883  10.742   3.744  1.00  0.00     0.041 C 
ATOM     19  C   UNL     1     -12.795  11.820   3.605  1.00  0.00     0.092 C 
ATOM     20  C   UNL     1     -13.248  14.036   4.936  1.00  0.00     0.011 C 
ATOM     21  C   UNL     1     -11.176  12.728   5.354  1.00  0.00     0.015 C 
ATOM     22  C   UNL     1     -13.127  12.854   2.526  1.00  0.00    -0.031 C 
ATOM     23  C   UNL     1     -14.542  14.205   4.113  1.00  0.00     0.009 C 
ATOM     24  C   UNL     1     -14.465  13.583   2.680  1.00  0.00     0.025 C 
ATOM     25  C   UNL     1     -12.121  13.424   1.824  1.00  0.00     0.050 C 
ATOM     26  C   UNL     1     -14.758  14.564   1.483  1.00  0.00    -0.013 C 
ATOM     27  C   UNL     1     -12.269  14.724   1.148  1.00  0.00     0.159 C 
ATOM     28  C   UNL     1     -13.537  15.518   1.329  1.00  0.00     0.070 C 
ATOM     29  C   UNL     1     -16.090  15.378   1.702  1.00  0.00     0.042 C 
ATOM     30  C   UNL     1     -14.942  13.700   0.196  1.00  0.00     0.013 C 
ATOM     31  O   UNL     1     -11.284  15.209   0.524  1.00  0.00    -0.295 OA
ATOM     32  C   UNL     1     -13.743  16.579   0.223  1.00  0.00     0.047 C 
ATOM     33  C   UNL     1     -15.927  16.906   1.543  1.00  0.00     0.143 C 
ATOM     34  C   UNL     1     -15.148  17.240   0.257  1.00  0.00     0.143 C 
BRANCH  19  35
ATOM     35  O   UNL     1     -11.593  11.146   3.287  1.00  0.00    -0.385 OA
ATOM     36  H   UNL     1     -10.847  11.808   3.323  1.00  0.00     0.211 HD
ENDBRANCH  19  35
BRANCH  33  37
ATOM     37  O   UNL     1     -17.189  17.524   1.500  1.00  0.00    -0.390 OA
ATOM     38  H   UNL     1     -17.722  17.040   0.815  1.00  0.00     0.211 HD
ENDBRANCH  33  37
BRANCH  34  39
ATOM     39  O   UNL     1     -15.887  16.829  -0.865  1.00  0.00    -0.390 OA
ATOM     40  H   UNL     1     -16.189  15.897  -0.693  1.00  0.00     0.211 HD
ENDBRANCH  34  39
ENDBRANCH   1  15
BRANCH   1  41
ATOM     41  O   UNL     1     -12.093   9.889   6.764  1.00  0.00    -0.387 OA
ATOM     42  H   UNL     1     -12.612   9.443   6.044  1.00  0.00     0.211 HD
ENDBRANCH   1  41
TORSDOF 9
ENDMDL
MODEL 2
REMARK VINA RESULT:     8.054      1.254      1.670
REMARK INTER + INTRA:          13.864
REMARK INTER:                  12.286
REMARK INTRA:                   1.578
REMARK UNBOUND:                 2.749
REMARK SMILES C[C@@H]1OC(=O)[C@H](C)[C@H]1C[C@H](O)[C@@](C)(O)[C@@H]1CC[C@@]2(O)C3=CC(=O)[C@H]4C[C@@H](O)[C@@H](O)C[C@]4(C)[C@@H]3CC[C@@]12C
REMARK SMILES IDX 12 1 13 2 10 3 9 4 8 5 7 6 6 7 4 8 2 9 3 10 5 11 1 12 11 13
REMARK SMILES IDX 15 15 16 16 36 17 17 18 18 19 35 20 37 21 20 22 34 23 33 24
REMARK SMILES IDX 21 25 31 26 22 27 24 28 30 29 32 30 23 31 25 32 28 33 26 34
REMARK SMILES IDX 19 35 29 37 27 39 14 41
REMARK H PARENT 11 14 19 36 29 38 27 40 14 42
REMARK Flexibility Score: inf
ROOT
ATOM      1  C   UNL     1     -12.856  10.793   6.138  1.00  0.00     0.091 C 
ATOM      2  C   UNL     1     -12.039  11.685   7.128  1.00  0.00     0.045 C 
ENDROOT
BRANCH   1   3
ATOM      3  C   UNL     1     -13.779   9.891   7.072  1.00  0.00     0.146 C 
BRANCH   3   4
ATOM      4  C   UNL     1     -15.262  10.380   7.046  1.00  0.00     0.043 C 
BRANCH   4   5
ATOM      5  C   UNL     1     -15.910  10.755   8.406  1.00  0.00     0.046 C 
ATOM      6  C   UNL     1     -18.310   9.883   8.653  1.00  0.00     0.020 C 
ATOM      7  C   UNL     1     -17.422  11.094   8.346  1.00  0.00     0.103 C 
ATOM      8  C   UNL     1     -17.534  12.142   9.392  1.00  0.00     0.309 C 
ATOM      9  C   UNL     1     -15.245  11.950   9.148  1.00  0.00     0.177 C 
ATOM     10  O   UNL     1     -16.308  12.581   9.846  1.00  0.00    -0.462 OA
ATOM     11  O   UNL     1     -18.624  12.606   9.822  1.00  0.00    -0.252 OA
ATOM     12  C   UNL     1     -14.148  11.519  10.125  1.00  0.00     0.053 C 
ENDBRANCH   4   5
ENDBRANCH   3   4
BRANCH   3  13
ATOM     13  O   UNL     1     -13.359   9.875   8.409  1.00  0.00    -0.390 OA
ATOM     14  H   UNL     1     -13.371   8.933   8.718  1.00  0.00     0.211 HD
ENDBRANCH   3  13
ENDBRANCH   1   3
BRANCH   1  15
ATOM     15  C   UNL     1     -13.655  11.717   5.106  1.00  0.00     0.032 C 
ATOM     16  C   UNL     1     -14.742  10.974   4.286  1.00  0.00     0.010 C 
ATOM     17  C   UNL     1     -12.851  12.586   4.031  1.00  0.00     0.006 C 
ATOM     18  C   UNL     1     -14.396  11.017   2.813  1.00  0.00     0.041 C 
ATOM     19  C   UNL     1     -13.236  12.006   2.604  1.00  0.00     0.092 C 
ATOM     20  C   UNL     1     -13.269  14.106   4.179  1.00  0.00     0.011 C 
ATOM     21  C   UNL     1     -11.300  12.589   4.157  1.00  0.00     0.015 C 
ATOM     22  C   UNL     1     -13.616  13.169   1.684  1.00  0.00    -0.031 C 
ATOM     23  C   UNL     1     -14.645  14.468   3.582  1.00  0.00     0.009 C 
ATOM     24  C   UNL     1     -14.838  13.991   2.105  1.00  0.00     0.025 C 
ATOM     25  C   UNL     1     -12.670  13.719   0.889  1.00  0.00     0.050 C 
ATOM     26  C   UNL     1     -15.201  15.110   1.058  1.00  0.00    -0.013 C 
ATOM     27  C   UNL     1     -12.783  15.090   0.360  1.00  0.00     0.159 C 
ATOM     28  C   UNL     1     -13.926  15.967   0.803  1.00  0.00     0.070 C 
ATOM     29  C   UNL     1     -16.400  16.008   1.549  1.00  0.00     0.042 C 
ATOM     30  C   UNL     1     -15.655  14.401  -0.257  1.00  0.00     0.013 C 
ATOM     31  O   UNL     1     -11.855  15.549  -0.362  1.00  0.00    -0.295 OA
ATOM     32  C   UNL     1     -14.182  17.148  -0.161  1.00  0.00     0.047 C 
ATOM     33  C   UNL     1     -16.109  17.526   1.502  1.00  0.00     0.143 C 
ATOM     34  C   UNL     1     -15.494  17.920   0.146  1.00  0.00     0.143 C 
BRANCH  19  35
ATOM     35  O   UNL     1     -12.167  11.267   2.048  1.00  0.00    -0.385 OA
ATOM     36  H   UNL     1     -12.541  10.434   1.645  1.00  0.00     0.211 HD
ENDBRANCH  19  35
BRANCH  33  37
ATOM     37  O   UNL     1     -17.296  18.250   1.707  1.00  0.00    -0.390 OA
ATOM     38  H   UNL     1     -17.790  17.790   2.435  1.00  0.00     0.211 HD
ENDBRANCH  33  37
BRANCH  34  39
ATOM     39  O   UNL     1     -16.425  17.691  -0.881  1.00  0.00    -0.390 OA
ATOM     40  H   UNL     1     -16.958  18.524  -0.987  1.00  0.00     0.211 HD
ENDBRANCH  34  39
ENDBRANCH   1  15
BRANCH   1  41
ATOM     41  O   UNL     1     -11.951   9.981   5.421  1.00  0.00    -0.387 OA
ATOM     42  H   UNL     1     -12.101   9.036   5.685  1.00  0.00     0.211 HD
ENDBRANCH   1  41
TORSDOF 9
ENDMDL
