MODEL 1
REMARK VINA RESULT:    -3.064      0.000      0.000
REMARK INTER + INTRA:          -3.708
REMARK INTER:                  -3.601
REMARK INTRA:                  -0.108
REMARK UNBOUND:                -0.108
REMARK SMILES O=C([O-])CCC(=O)[O-]
REMARK SMILES IDX 4 1 2 2 1 3 3 4 5 5 6 6 7 7 8 8
REMARK H PARENT
REMARK Flexibility Score: inf
ROOT
ATOM      1  C   UNL     1      27.911   0.842   5.469  1.00  0.00     0.059 C 
ENDROOT
BRANCH   1   2
ATOM      2  C   UNL     1      26.793   1.837   5.406  1.00  0.00     0.042 C 
ATOM      3  O   UNL     1      26.068   1.913   4.380  1.00  0.00    -0.550 OA
ATOM      4  O   UNL     1      26.578   2.709   6.467  1.00  0.00    -0.550 OA
ENDBRANCH   1   2
BRANCH   1   5
ATOM      5  C   UNL     1      27.427  -0.516   5.990  1.00  0.00     0.059 C 
BRANCH   5   6
ATOM      6  C   UNL     1      28.001  -0.825   7.338  1.00  0.00     0.042 C 
ATOM      7  O   UNL     1      28.538   0.085   8.022  1.00  0.00    -0.550 OA
ATOM      8  O   UNL     1      27.976  -2.127   7.823  1.00  0.00    -0.550 OA
ENDBRANCH   5   6
ENDBRANCH   1   5
TORSDOF 3
ENDMDL
MODEL 2
REMARK VINA RESULT:    -3.063      0.143      3.985
REMARK INTER + INTRA:          -3.708
REMARK INTER:                  -3.600
REMARK INTRA:                  -0.108
REMARK UNBOUND:                -0.108
REMARK SMILES O=C([O-])CCC(=O)[O-]
REMARK SMILES IDX 4 1 2 2 1 3 3 4 5 5 6 6 7 7 8 8
REMARK H PARENT
REMARK Flexibility Score: inf
ROOT
ATOM      1  C   UNL     1      27.495  -0.508   5.912  1.00  0.00     0.059 C 
ENDROOT
BRANCH   1   2
ATOM      2  C   UNL     1      27.987  -0.723   7.310  1.00  0.00     0.042 C 
ATOM      3  O   UNL     1      28.484   0.232   7.963  1.00  0.00    -0.550 OA
ATOM      4  O   UNL     1      27.933  -1.990   7.878  1.00  0.00    -0.550 OA
ENDBRANCH   1   2
BRANCH   1   5
ATOM      5  C   UNL     1      27.879   0.881   5.387  1.00  0.00     0.059 C 
BRANCH   5   6
ATOM      6  C   UNL     1      26.701   1.805   5.363  1.00  0.00     0.042 C 
ATOM      7  O   UNL     1      25.884   1.765   4.406  1.00  0.00    -0.550 OA
ATOM      8  O   UNL     1      26.527   2.738   6.379  1.00  0.00    -0.550 OA
ENDBRANCH   5   6
ENDBRANCH   1   5
TORSDOF 3
ENDMDL
MODEL 3
REMARK VINA RESULT:    -3.030      0.775      1.579
REMARK INTER + INTRA:          -3.670
REMARK INTER:                  -3.550
REMARK INTRA:                  -0.119
REMARK UNBOUND:                -0.108
REMARK SMILES O=C([O-])CCC(=O)[O-]
REMARK SMILES IDX 4 1 2 2 1 3 3 4 5 5 6 6 7 7 8 8
REMARK H PARENT
REMARK Flexibility Score: inf
ROOT
ATOM      1  C   UNL     1      27.899   0.895   5.396  1.00  0.00     0.059 C 
ENDROOT
BRANCH   1   2
ATOM      2  C   UNL     1      26.733   1.834   5.337  1.00  0.00     0.042 C 
ATOM      3  O   UNL     1      26.582   2.715   6.224  1.00  0.00    -0.550 OA
ATOM      4  O   UNL     1      25.792   1.710   4.322  1.00  0.00    -0.550 OA
ENDBRANCH   1   2
BRANCH   1   5
ATOM      5  C   UNL     1      27.495  -0.468   5.968  1.00  0.00     0.059 C 
BRANCH   5   6
ATOM      6  C   UNL     1      27.572  -0.483   7.464  1.00  0.00     0.042 C 
ATOM      7  O   UNL     1      26.543  -0.721   8.149  1.00  0.00    -0.550 OA
ATOM      8  O   UNL     1      28.773  -0.197   8.101  1.00  0.00    -0.550 OA
ENDBRANCH   5   6
ENDBRANCH   1   5
TORSDOF 3
ENDMDL
MODEL 4
REMARK VINA RESULT:    -3.016      2.123      3.598
REMARK INTER + INTRA:          -3.653
REMARK INTER:                  -3.473
REMARK INTRA:                  -0.179
REMARK UNBOUND:                -0.108
REMARK SMILES O=C([O-])CCC(=O)[O-]
REMARK SMILES IDX 4 1 2 2 1 3 3 4 5 5 6 6 7 7 8 8
REMARK H PARENT
REMARK Flexibility Score: inf
ROOT
ATOM      1  C   UNL     1      26.775   2.672   7.553  1.00  0.00     0.059 C 
ENDROOT
BRANCH   1   2
ATOM      2  C   UNL     1      26.156   1.480   8.214  1.00  0.00     0.042 C 
ATOM      3  O   UNL     1      26.841   0.750   8.978  1.00  0.00    -0.550 OA
ATOM      4  O   UNL     1      24.831   1.151   7.954  1.00  0.00    -0.550 OA
ENDBRANCH   1   2
BRANCH   1   5
ATOM      5  C   UNL     1      27.933   2.269   6.633  1.00  0.00     0.059 C 
BRANCH   5   6
ATOM      6  C   UNL     1      27.451   1.480   5.454  1.00  0.00     0.042 C 
ATOM      7  O   UNL     1      27.996   0.384   5.159  1.00  0.00    -0.550 OA
ATOM      8  O   UNL     1      26.425   1.975   4.659  1.00  0.00    -0.550 OA
ENDBRANCH   5   6
ENDBRANCH   1   5
TORSDOF 3
ENDMDL
MODEL 5
REMARK VINA RESULT:    -3.009      2.135      2.761
REMARK INTER + INTRA:          -3.644
REMARK INTER:                  -3.483
REMARK INTRA:                  -0.161
REMARK UNBOUND:                -0.108
REMARK SMILES O=C([O-])CCC(=O)[O-]
REMARK SMILES IDX 4 1 2 2 1 3 3 4 5 5 6 6 7 7 8 8
REMARK H PARENT
REMARK Flexibility Score: inf
ROOT
ATOM      1  C   UNL     1      27.892   2.287   6.645  1.00  0.00     0.059 C 
ENDROOT
BRANCH   1   2
ATOM      2  C   UNL     1      27.424   1.488   5.468  1.00  0.00     0.042 C 
ATOM      3  O   UNL     1      27.966   0.385   5.194  1.00  0.00    -0.550 OA
ATOM      4  O   UNL     1      26.416   1.982   4.650  1.00  0.00    -0.550 OA
ENDBRANCH   1   2
BRANCH   1   5
ATOM      5  C   UNL     1      26.731   2.651   7.577  1.00  0.00     0.059 C 
BRANCH   5   6
ATOM      6  C   UNL     1      26.227   1.453   8.323  1.00  0.00     0.042 C 
ATOM      7  O   UNL     1      25.014   1.125   8.249  1.00  0.00    -0.550 OA
ATOM      8  O   UNL     1      27.090   0.723   9.130  1.00  0.00    -0.550 OA
ENDBRANCH   5   6
ENDBRANCH   1   5
TORSDOF 3
ENDMDL
MODEL 6
REMARK VINA RESULT:    -2.943     11.900     13.062
REMARK INTER + INTRA:          -3.567
REMARK INTER:                  -3.458
REMARK INTRA:                  -0.110
REMARK UNBOUND:                -0.108
REMARK SMILES O=C([O-])CCC(=O)[O-]
REMARK SMILES IDX 4 1 2 2 1 3 3 4 5 5 6 6 7 7 8 8
REMARK H PARENT
REMARK Flexibility Score: inf
ROOT
ATOM      1  C   UNL     1      25.376  -4.615  17.020  1.00  0.00     0.059 C 
ENDROOT
BRANCH   1   2
ATOM      2  C   UNL     1      25.110  -5.708  18.009  1.00  0.00     0.042 C 
ATOM      3  O   UNL     1      24.318  -5.516  18.969  1.00  0.00    -0.550 OA
ATOM      4  O   UNL     1      25.767  -6.927  17.892  1.00  0.00    -0.550 OA
ENDBRANCH   1   2
BRANCH   1   5
ATOM      5  C   UNL     1      25.378  -3.237  17.691  1.00  0.00     0.059 C 
BRANCH   5   6
ATOM      6  C   UNL     1      24.169  -2.438  17.311  1.00  0.00     0.042 C 
ATOM      7  O   UNL     1      24.156  -1.190  17.479  1.00  0.00    -0.550 OA
ATOM      8  O   UNL     1      23.043  -3.077  16.809  1.00  0.00    -0.550 OA
ENDBRANCH   5   6
ENDBRANCH   1   5
TORSDOF 3
ENDMDL
MODEL 7
REMARK VINA RESULT:    -2.931     12.004     12.828
REMARK INTER + INTRA:          -3.553
REMARK INTER:                  -3.435
REMARK INTRA:                  -0.119
REMARK UNBOUND:                -0.108
REMARK SMILES O=C([O-])CCC(=O)[O-]
REMARK SMILES IDX 4 1 2 2 1 3 3 4 5 5 6 6 7 7 8 8
REMARK H PARENT
REMARK Flexibility Score: inf
ROOT
ATOM      1  C   UNL     1      25.048  -2.189  18.271  1.00  0.00     0.059 C 
ENDROOT
BRANCH   1   2
ATOM      2  C   UNL     1      23.775  -1.403  18.212  1.00  0.00     0.042 C 
ATOM      3  O   UNL     1      23.667  -0.427  17.424  1.00  0.00    -0.550 OA
ATOM      4  O   UNL     1      22.720  -1.724  19.058  1.00  0.00    -0.550 OA
ENDBRANCH   1   2
BRANCH   1   5
ATOM      5  C   UNL     1      24.972  -3.452  17.404  1.00  0.00     0.059 C 
BRANCH   5   6
ATOM      6  C   UNL     1      24.968  -4.694  18.240  1.00  0.00     0.042 C 
ATOM      7  O   UNL     1      24.054  -4.888  19.084  1.00  0.00    -0.550 OA
ATOM      8  O   UNL     1      25.996  -5.620  18.113  1.00  0.00    -0.550 OA
ENDBRANCH   5   6
ENDBRANCH   1   5
TORSDOF 3
ENDMDL
MODEL 8
REMARK VINA RESULT:    -2.928     12.480     13.461
REMARK INTER + INTRA:          -3.549
REMARK INTER:                  -3.436
REMARK INTRA:                  -0.113
REMARK UNBOUND:                -0.108
REMARK SMILES O=C([O-])CCC(=O)[O-]
REMARK SMILES IDX 4 1 2 2 1 3 3 4 5 5 6 6 7 7 8 8
REMARK H PARENT
REMARK Flexibility Score: inf
ROOT
ATOM      1  C   UNL     1      24.970  -3.509  17.403  1.00  0.00     0.059 C 
ENDROOT
BRANCH   1   2
ATOM      2  C   UNL     1      25.062  -4.741  18.249  1.00  0.00     0.042 C 
ATOM      3  O   UNL     1      26.097  -5.457  18.218  1.00  0.00    -0.550 OA
ATOM      4  O   UNL     1      23.987  -5.120  19.044  1.00  0.00    -0.550 OA
ENDBRANCH   1   2
BRANCH   1   5
ATOM      5  C   UNL     1      25.041  -2.234  18.252  1.00  0.00     0.059 C 
BRANCH   5   6
ATOM      6  C   UNL     1      23.678  -1.670  18.513  1.00  0.00     0.042 C 
ATOM      7  O   UNL     1      22.681  -2.102  17.878  1.00  0.00    -0.550 OA
ATOM      8  O   UNL     1      23.517  -0.639  19.430  1.00  0.00    -0.550 OA
ENDBRANCH   5   6
ENDBRANCH   1   5
TORSDOF 3
ENDMDL
MODEL 9
REMARK VINA RESULT:    -2.848      1.684      3.997
REMARK INTER + INTRA:          -3.455
REMARK INTER:                  -3.337
REMARK INTRA:                  -0.118
REMARK UNBOUND:                -0.108
REMARK SMILES O=C([O-])CCC(=O)[O-]
REMARK SMILES IDX 4 1 2 2 1 3 3 4 5 5 6 6 7 7 8 8
REMARK H PARENT
REMARK Flexibility Score: inf
ROOT
ATOM      1  C   UNL     1      26.752   0.748   7.909  1.00  0.00     0.059 C 
ENDROOT
BRANCH   1   2
ATOM      2  C   UNL     1      27.794   0.044   8.721  1.00  0.00     0.042 C 
ATOM      3  O   UNL     1      28.722  -0.589   8.151  1.00  0.00    -0.550 OA
ATOM      4  O   UNL     1      27.719   0.054  10.108  1.00  0.00    -0.550 OA
ENDBRANCH   1   2
BRANCH   1   5
ATOM      5  C   UNL     1      27.359   1.878   7.069  1.00  0.00     0.059 C 
BRANCH   5   6
ATOM      6  C   UNL     1      27.321   1.559   5.606  1.00  0.00     0.042 C 
ATOM      7  O   UNL     1      28.027   0.625   5.143  1.00  0.00    -0.550 OA
ATOM      8  O   UNL     1      26.535   2.319   4.749  1.00  0.00    -0.550 OA
ENDBRANCH   5   6
ENDBRANCH   1   5
TORSDOF 3
ENDMDL
