MODEL 1
REMARK VINA RESULT:    -5.710      0.000      0.000
REMARK INTER + INTRA:         -12.055
REMARK INTER:                 -10.718
REMARK INTRA:                  -1.338
REMARK UNBOUND:                -1.338
REMARK SMILES O=C([O-])CCCCCCCCCCCCCCC(=O)[O-]
REMARK SMILES IDX 10 1 9 2 8 3 7 4 6 5 5 6 4 7 2 8 1 9 3 10 11 11 12 12 13 13
REMARK SMILES IDX 14 14 15 15 16 16 17 17 18 18 19 19 20 20
REMARK H PARENT
REMARK Flexibility Score: inf
ROOT
ATOM      1  C   UNL     1       9.001  23.166  -9.633  1.00  0.00     0.000 C 
ENDROOT
BRANCH   1   2
ATOM      2  C   UNL     1      10.385  22.740 -10.147  1.00  0.00     0.000 C 
BRANCH   2   3
ATOM      3  C   UNL     1      11.368  23.917 -10.244  1.00  0.00     0.000 C 
BRANCH   3   4
ATOM      4  C   UNL     1      11.809  24.383  -8.847  1.00  0.00     0.000 C 
BRANCH   4   5
ATOM      5  C   UNL     1      12.996  23.557  -8.306  1.00  0.00     0.000 C 
BRANCH   5   6
ATOM      6  C   UNL     1      12.609  22.596  -7.169  1.00  0.00     0.006 C 
BRANCH   6   7
ATOM      7  C   UNL     1      12.112  21.238  -7.678  1.00  0.00     0.053 C 
BRANCH   7   8
ATOM      8  C   UNL     1      10.730  20.965  -7.176  1.00  0.00     0.041 C 
ATOM      9  O   UNL     1      10.104  21.849  -6.533  1.00  0.00    -0.550 OA
ATOM     10  O   UNL     1      10.112  19.754  -7.460  1.00  0.00    -0.550 OA
ENDBRANCH   7   8
ENDBRANCH   6   7
ENDBRANCH   5   6
ENDBRANCH   4   5
ENDBRANCH   3   4
ENDBRANCH   2   3
ENDBRANCH   1   2
BRANCH   1  11
ATOM     11  C   UNL     1       7.915  22.117  -9.919  1.00  0.00     0.000 C 
BRANCH  11  12
ATOM     12  C   UNL     1       6.782  22.718 -10.760  1.00  0.00     0.000 C 
BRANCH  12  13
ATOM     13  C   UNL     1       5.415  22.192 -10.298  1.00  0.00     0.000 C 
BRANCH  13  14
ATOM     14  C   UNL     1       4.650  23.213  -9.441  1.00  0.00     0.000 C 
BRANCH  14  15
ATOM     15  C   UNL     1       4.007  22.576  -8.197  1.00  0.00     0.000 C 
BRANCH  15  16
ATOM     16  C   UNL     1       4.668  23.025  -6.880  1.00  0.00     0.006 C 
BRANCH  16  17
ATOM     17  C   UNL     1       6.100  23.560  -7.053  1.00  0.00     0.053 C 
BRANCH  17  18
ATOM     18  C   UNL     1       6.650  24.157  -5.794  1.00  0.00     0.041 C 
ATOM     19  O   UNL     1       7.558  23.567  -5.153  1.00  0.00    -0.550 OA
ATOM     20  O   UNL     1       6.178  25.383  -5.342  1.00  0.00    -0.550 OA
ENDBRANCH  17  18
ENDBRANCH  16  17
ENDBRANCH  15  16
ENDBRANCH  14  15
ENDBRANCH  13  14
ENDBRANCH  12  13
ENDBRANCH  11  12
ENDBRANCH   1  11
TORSDOF 15
ENDMDL
MODEL 2
REMARK VINA RESULT:    -5.688      2.535      6.334
REMARK INTER + INTRA:         -12.013
REMARK INTER:                 -10.053
REMARK INTRA:                  -1.960
REMARK UNBOUND:                -1.338
REMARK SMILES O=C([O-])CCCCCCCCCCCCCCC(=O)[O-]
REMARK SMILES IDX 10 1 9 2 8 3 7 4 6 5 5 6 4 7 2 8 1 9 3 10 11 11 12 12 13 13
REMARK SMILES IDX 14 14 15 15 16 16 17 17 18 18 19 19 20 20
REMARK H PARENT
REMARK Flexibility Score: inf
ROOT
ATOM      1  C   UNL     1       6.971  24.693  -6.988  1.00  0.00     0.000 C 
ENDROOT
BRANCH   1   2
ATOM      2  C   UNL     1       7.373  24.734  -8.471  1.00  0.00     0.000 C 
BRANCH   2   3
ATOM      3  C   UNL     1       7.804  23.359  -9.005  1.00  0.00     0.000 C 
BRANCH   3   4
ATOM      4  C   UNL     1       6.856  22.878 -10.115  1.00  0.00     0.000 C 
BRANCH   4   5
ATOM      5  C   UNL     1       5.772  23.925 -10.450  1.00  0.00     0.000 C 
BRANCH   5   6
ATOM      6  C   UNL     1       4.352  23.490 -10.052  1.00  0.00     0.006 C 
BRANCH   6   7
ATOM      7  C   UNL     1       4.325  22.160  -9.290  1.00  0.00     0.053 C 
BRANCH   7   8
ATOM      8  C   UNL     1       3.335  22.219  -8.170  1.00  0.00     0.041 C 
ATOM      9  O   UNL     1       3.565  22.931  -7.157  1.00  0.00    -0.550 OA
ATOM     10  O   UNL     1       2.134  21.526  -8.266  1.00  0.00    -0.550 OA
ENDBRANCH   7   8
ENDBRANCH   6   7
ENDBRANCH   5   6
ENDBRANCH   4   5
ENDBRANCH   3   4
ENDBRANCH   2   3
ENDBRANCH   1   2
BRANCH   1  11
ATOM     11  C   UNL     1       6.824  23.261  -6.452  1.00  0.00     0.000 C 
BRANCH  11  12
ATOM     12  C   UNL     1       7.651  23.067  -5.175  1.00  0.00     0.000 C 
BRANCH  12  13
ATOM     13  C   UNL     1       8.548  21.826  -5.284  1.00  0.00     0.000 C 
BRANCH  13  14
ATOM     14  C   UNL     1       9.763  22.054  -6.198  1.00  0.00     0.000 C 
BRANCH  14  15
ATOM     15  C   UNL     1       9.987  20.894  -7.184  1.00  0.00     0.000 C 
BRANCH  15  16
ATOM     16  C   UNL     1      10.913  21.269  -8.356  1.00  0.00     0.006 C 
BRANCH  16  17
ATOM     17  C   UNL     1      11.608  22.632  -8.189  1.00  0.00     0.053 C 
BRANCH  17  18
ATOM     18  C   UNL     1      11.500  23.489  -9.413  1.00  0.00     0.041 C 
ATOM     19  O   UNL     1      11.050  23.012 -10.487  1.00  0.00    -0.550 OA
ATOM     20  O   UNL     1      11.871  24.827  -9.359  1.00  0.00    -0.550 OA
ENDBRANCH  17  18
ENDBRANCH  16  17
ENDBRANCH  15  16
ENDBRANCH  14  15
ENDBRANCH  13  14
ENDBRANCH  12  13
ENDBRANCH  11  12
ENDBRANCH   1  11
TORSDOF 15
ENDMDL
MODEL 3
REMARK VINA RESULT:    -5.547      2.181      4.978
REMARK INTER + INTRA:         -11.749
REMARK INTER:                  -9.867
REMARK INTRA:                  -1.883
REMARK UNBOUND:                -1.338
REMARK SMILES O=C([O-])CCCCCCCCCCCCCCC(=O)[O-]
REMARK SMILES IDX 10 1 9 2 8 3 7 4 6 5 5 6 4 7 2 8 1 9 3 10 11 11 12 12 13 13
REMARK SMILES IDX 14 14 15 15 16 16 17 17 18 18 19 19 20 20
REMARK H PARENT
REMARK Flexibility Score: inf
ROOT
ATOM      1  C   UNL     1      12.784  24.357  -8.270  1.00  0.00     0.000 C 
ENDROOT
BRANCH   1   2
ATOM      2  C   UNL     1      11.445  24.481  -9.015  1.00  0.00     0.000 C 
BRANCH   2   3
ATOM      3  C   UNL     1      11.385  23.605 -10.275  1.00  0.00     0.000 C 
BRANCH   3   4
ATOM      4  C   UNL     1      10.162  22.674 -10.241  1.00  0.00     0.000 C 
BRANCH   4   5
ATOM      5  C   UNL     1       8.901  23.388  -9.707  1.00  0.00     0.000 C 
BRANCH   5   6
ATOM      6  C   UNL     1       7.594  22.631 -10.000  1.00  0.00     0.006 C 
BRANCH   6   7
ATOM      7  C   UNL     1       6.387  23.215  -9.256  1.00  0.00     0.053 C 
BRANCH   7   8
ATOM      8  C   UNL     1       5.115  22.834  -9.945  1.00  0.00     0.041 C 
ATOM      9  O   UNL     1       4.122  22.446  -9.273  1.00  0.00    -0.550 OA
ATOM     10  O   UNL     1       5.008  22.951 -11.325  1.00  0.00    -0.550 OA
ENDBRANCH   7   8
ENDBRANCH   6   7
ENDBRANCH   5   6
ENDBRANCH   4   5
ENDBRANCH   3   4
ENDBRANCH   2   3
ENDBRANCH   1   2
BRANCH   1  11
ATOM     11  C   UNL     1      13.221  22.897  -8.076  1.00  0.00     0.000 C 
BRANCH  11  12
ATOM     12  C   UNL     1      12.330  22.192  -7.046  1.00  0.00     0.000 C 
BRANCH  12  13
ATOM     13  C   UNL     1      11.694  20.928  -7.642  1.00  0.00     0.000 C 
BRANCH  13  14
ATOM     14  C   UNL     1      10.219  20.765  -7.243  1.00  0.00     0.000 C 
BRANCH  14  15
ATOM     15  C   UNL     1       9.805  21.723  -6.112  1.00  0.00     0.000 C 
BRANCH  15  16
ATOM     16  C   UNL     1       8.579  22.584  -6.470  1.00  0.00     0.006 C 
BRANCH  16  17
ATOM     17  C   UNL     1       7.744  23.017  -5.252  1.00  0.00     0.053 C 
BRANCH  17  18
ATOM     18  C   UNL     1       6.601  23.910  -5.622  1.00  0.00     0.041 C 
ATOM     19  O   UNL     1       6.739  25.161  -5.607  1.00  0.00    -0.550 OA
ATOM     20  O   UNL     1       5.386  23.359  -6.011  1.00  0.00    -0.550 OA
ENDBRANCH  17  18
ENDBRANCH  16  17
ENDBRANCH  15  16
ENDBRANCH  14  15
ENDBRANCH  13  14
ENDBRANCH  12  13
ENDBRANCH  11  12
ENDBRANCH   1  11
TORSDOF 15
ENDMDL
MODEL 4
REMARK VINA RESULT:    -5.515      2.650      6.428
REMARK INTER + INTRA:         -11.689
REMARK INTER:                  -9.974
REMARK INTRA:                  -1.715
REMARK UNBOUND:                -1.338
REMARK SMILES O=C([O-])CCCCCCCCCCCCCCC(=O)[O-]
REMARK SMILES IDX 10 1 9 2 8 3 7 4 6 5 5 6 4 7 2 8 1 9 3 10 11 11 12 12 13 13
REMARK SMILES IDX 14 14 15 15 16 16 17 17 18 18 19 19 20 20
REMARK H PARENT
REMARK Flexibility Score: inf
ROOT
ATOM      1  C   UNL     1      10.043  20.999  -6.776  1.00  0.00     0.000 C 
ENDROOT
BRANCH   1   2
ATOM      2  C   UNL     1       9.330  22.314  -6.420  1.00  0.00     0.000 C 
BRANCH   2   3
ATOM      3  C   UNL     1       8.278  22.136  -5.315  1.00  0.00     0.000 C 
BRANCH   3   4
ATOM      4  C   UNL     1       7.249  23.277  -5.345  1.00  0.00     0.000 C 
BRANCH   4   5
ATOM      5  C   UNL     1       7.193  23.975  -6.721  1.00  0.00     0.000 C 
BRANCH   5   6
ATOM      6  C   UNL     1       6.018  23.513  -7.599  1.00  0.00     0.006 C 
BRANCH   6   7
ATOM      7  C   UNL     1       6.310  23.633  -9.100  1.00  0.00     0.053 C 
BRANCH   7   8
ATOM      8  C   UNL     1       5.148  23.136  -9.900  1.00  0.00     0.041 C 
ATOM      9  O   UNL     1       4.100  22.747  -9.320  1.00  0.00    -0.550 OA
ATOM     10  O   UNL     1       5.202  23.148 -11.288  1.00  0.00    -0.550 OA
ENDBRANCH   7   8
ENDBRANCH   6   7
ENDBRANCH   5   6
ENDBRANCH   4   5
ENDBRANCH   3   4
ENDBRANCH   2   3
ENDBRANCH   1   2
BRANCH   1  11
ATOM     11  C   UNL     1      10.271  20.839  -8.286  1.00  0.00     0.000 C 
BRANCH  11  12
ATOM     12  C   UNL     1       9.450  21.865  -9.076  1.00  0.00     0.000 C 
BRANCH  12  13
ATOM     13  C   UNL     1      10.361  22.756  -9.933  1.00  0.00     0.000 C 
BRANCH  13  14
ATOM     14  C   UNL     1      10.804  24.029  -9.195  1.00  0.00     0.000 C 
BRANCH  14  15
ATOM     15  C   UNL     1      12.275  24.388  -9.466  1.00  0.00     0.000 C 
BRANCH  15  16
ATOM     16  C   UNL     1      13.153  24.329  -8.202  1.00  0.00     0.006 C 
BRANCH  16  17
ATOM     17  C   UNL     1      12.984  23.035  -7.386  1.00  0.00     0.053 C 
BRANCH  17  18
ATOM     18  C   UNL     1      14.014  22.892  -6.308  1.00  0.00     0.041 C 
ATOM     19  O   UNL     1      13.691  22.455  -5.173  1.00  0.00    -0.550 OA
ATOM     20  O   UNL     1      15.340  23.219  -6.566  1.00  0.00    -0.550 OA
ENDBRANCH  17  18
ENDBRANCH  16  17
ENDBRANCH  15  16
ENDBRANCH  14  15
ENDBRANCH  13  14
ENDBRANCH  12  13
ENDBRANCH  11  12
ENDBRANCH   1  11
TORSDOF 15
ENDMDL
MODEL 5
REMARK VINA RESULT:    -5.507      2.724      3.932
REMARK INTER + INTRA:         -11.675
REMARK INTER:                 -10.068
REMARK INTRA:                  -1.607
REMARK UNBOUND:                -1.338
REMARK SMILES O=C([O-])CCCCCCCCCCCCCCC(=O)[O-]
REMARK SMILES IDX 10 1 9 2 8 3 7 4 6 5 5 6 4 7 2 8 1 9 3 10 11 11 12 12 13 13
REMARK SMILES IDX 14 14 15 15 16 16 17 17 18 18 19 19 20 20
REMARK H PARENT
REMARK Flexibility Score: inf
ROOT
ATOM      1  C   UNL     1       9.904  21.313  -7.975  1.00  0.00     0.000 C 
ENDROOT
BRANCH   1   2
ATOM      2  C   UNL     1       9.739  22.162  -9.245  1.00  0.00     0.000 C 
BRANCH   2   3
ATOM      3  C   UNL     1      11.082  22.664  -9.799  1.00  0.00     0.000 C 
BRANCH   3   4
ATOM      4  C   UNL     1      11.327  24.129  -9.403  1.00  0.00     0.000 C 
BRANCH   4   5
ATOM      5  C   UNL     1      12.696  24.326  -8.717  1.00  0.00     0.000 C 
BRANCH   5   6
ATOM      6  C   UNL     1      13.052  23.209  -7.720  1.00  0.00     0.006 C 
BRANCH   6   7
ATOM      7  C   UNL     1      14.519  23.251  -7.275  1.00  0.00     0.053 C 
BRANCH   7   8
ATOM      8  C   UNL     1      14.633  22.917  -5.821  1.00  0.00     0.041 C 
ATOM      9  O   UNL     1      13.626  22.513  -5.183  1.00  0.00    -0.550 OA
ATOM     10  O   UNL     1      15.863  23.005  -5.182  1.00  0.00    -0.550 OA
ENDBRANCH   7   8
ENDBRANCH   6   7
ENDBRANCH   5   6
ENDBRANCH   4   5
ENDBRANCH   3   4
ENDBRANCH   2   3
ENDBRANCH   1   2
BRANCH   1  11
ATOM     11  C   UNL     1       9.885  22.156  -6.691  1.00  0.00     0.000 C 
BRANCH  11  12
ATOM     12  C   UNL     1       8.686  21.785  -5.810  1.00  0.00     0.000 C 
BRANCH  12  13
ATOM     13  C   UNL     1       7.843  23.025  -5.477  1.00  0.00     0.000 C 
BRANCH  13  14
ATOM     14  C   UNL     1       6.766  23.308  -6.536  1.00  0.00     0.000 C 
BRANCH  14  15
ATOM     15  C   UNL     1       6.989  24.646  -7.263  1.00  0.00     0.000 C 
BRANCH  15  16
ATOM     16  C   UNL     1       7.032  24.500  -8.795  1.00  0.00     0.006 C 
BRANCH  16  17
ATOM     17  C   UNL     1       6.441  23.176  -9.312  1.00  0.00     0.053 C 
BRANCH  17  18
ATOM     18  C   UNL     1       5.033  23.323  -9.801  1.00  0.00     0.041 C 
ATOM     19  O   UNL     1       4.799  23.851 -10.919  1.00  0.00    -0.550 OA
ATOM     20  O   UNL     1       3.977  22.851  -9.031  1.00  0.00    -0.550 OA
ENDBRANCH  17  18
ENDBRANCH  16  17
ENDBRANCH  15  16
ENDBRANCH  14  15
ENDBRANCH  13  14
ENDBRANCH  12  13
ENDBRANCH  11  12
ENDBRANCH   1  11
TORSDOF 15
ENDMDL
MODEL 6
REMARK VINA RESULT:    -5.480      1.653      2.680
REMARK INTER + INTRA:         -11.622
REMARK INTER:                 -10.060
REMARK INTRA:                  -1.562
REMARK UNBOUND:                -1.338
REMARK SMILES O=C([O-])CCCCCCCCCCCCCCC(=O)[O-]
REMARK SMILES IDX 10 1 9 2 8 3 7 4 6 5 5 6 4 7 2 8 1 9 3 10 11 11 12 12 13 13
REMARK SMILES IDX 14 14 15 15 16 16 17 17 18 18 19 19 20 20
REMARK H PARENT
REMARK Flexibility Score: inf
ROOT
ATOM      1  C   UNL     1       7.279  22.366 -10.459  1.00  0.00     0.000 C 
ENDROOT
BRANCH   1   2
ATOM      2  C   UNL     1       8.097  22.676  -9.196  1.00  0.00     0.000 C 
BRANCH   2   3
ATOM      3  C   UNL     1       9.613  22.607  -9.441  1.00  0.00     0.000 C 
BRANCH   3   4
ATOM      4  C   UNL     1      10.305  23.896  -8.972  1.00  0.00     0.000 C 
BRANCH   4   5
ATOM      5  C   UNL     1      11.742  24.019  -9.523  1.00  0.00     0.000 C 
BRANCH   5   6
ATOM      6  C   UNL     1      12.788  24.358  -8.446  1.00  0.00     0.006 C 
BRANCH   6   7
ATOM      7  C   UNL     1      13.686  23.167  -8.091  1.00  0.00     0.053 C 
BRANCH   7   8
ATOM      8  C   UNL     1      12.918  22.146  -7.314  1.00  0.00     0.041 C 
ATOM      9  O   UNL     1      12.586  22.376  -6.121  1.00  0.00    -0.550 OA
ATOM     10  O   UNL     1      12.525  20.960  -7.920  1.00  0.00    -0.550 OA
ENDBRANCH   7   8
ENDBRANCH   6   7
ENDBRANCH   5   6
ENDBRANCH   4   5
ENDBRANCH   3   4
ENDBRANCH   2   3
ENDBRANCH   1   2
BRANCH   1  11
ATOM     11  C   UNL     1       5.764  22.458 -10.221  1.00  0.00     0.000 C 
BRANCH  11  12
ATOM     12  C   UNL     1       5.449  23.403  -9.055  1.00  0.00     0.000 C 
BRANCH  12  13
ATOM     13  C   UNL     1       4.595  22.698  -7.991  1.00  0.00     0.000 C 
BRANCH  13  14
ATOM     14  C   UNL     1       4.921  23.170  -6.566  1.00  0.00     0.000 C 
BRANCH  14  15
ATOM     15  C   UNL     1       6.056  24.208  -6.533  1.00  0.00     0.000 C 
BRANCH  15  16
ATOM     16  C   UNL     1       7.202  23.819  -5.580  1.00  0.00     0.006 C 
BRANCH  16  17
ATOM     17  C   UNL     1       7.314  22.306  -5.325  1.00  0.00     0.053 C 
BRANCH  17  18
ATOM     18  C   UNL     1       8.669  21.900  -4.835  1.00  0.00     0.041 C 
ATOM     19  O   UNL     1       9.571  21.576  -5.652  1.00  0.00    -0.550 OA
ATOM     20  O   UNL     1       8.947  21.905  -3.474  1.00  0.00    -0.550 OA
ENDBRANCH  17  18
ENDBRANCH  16  17
ENDBRANCH  15  16
ENDBRANCH  14  15
ENDBRANCH  13  14
ENDBRANCH  12  13
ENDBRANCH  11  12
ENDBRANCH   1  11
TORSDOF 15
ENDMDL
MODEL 7
REMARK VINA RESULT:    -5.419      1.787      2.688
REMARK INTER + INTRA:         -11.509
REMARK INTER:                  -9.972
REMARK INTRA:                  -1.537
REMARK UNBOUND:                -1.338
REMARK SMILES O=C([O-])CCCCCCCCCCCCCCC(=O)[O-]
REMARK SMILES IDX 10 1 9 2 8 3 7 4 6 5 5 6 4 7 2 8 1 9 3 10 11 11 12 12 13 13
REMARK SMILES IDX 14 14 15 15 16 16 17 17 18 18 19 19 20 20
REMARK H PARENT
REMARK Flexibility Score: inf
ROOT
ATOM      1  C   UNL     1       8.871  22.098  -9.566  1.00  0.00     0.000 C 
ENDROOT
BRANCH   1   2
ATOM      2  C   UNL     1       9.127  22.837  -8.242  1.00  0.00     0.000 C 
BRANCH   2   3
ATOM      3  C   UNL     1       9.889  21.976  -7.222  1.00  0.00     0.000 C 
BRANCH   3   4
ATOM      4  C   UNL     1      10.160  20.570  -7.781  1.00  0.00     0.000 C 
BRANCH   4   5
ATOM      5  C   UNL     1      11.670  20.275  -7.906  1.00  0.00     0.000 C 
BRANCH   5   6
ATOM      6  C   UNL     1      12.464  21.402  -8.589  1.00  0.00     0.006 C 
BRANCH   6   7
ATOM      7  C   UNL     1      13.513  22.036  -7.669  1.00  0.00     0.053 C 
BRANCH   7   8
ATOM      8  C   UNL     1      13.550  23.519  -7.862  1.00  0.00     0.041 C 
ATOM      9  O   UNL     1      14.360  24.224  -7.204  1.00  0.00    -0.550 OA
ATOM     10  O   UNL     1      12.725  24.119  -8.805  1.00  0.00    -0.550 OA
ENDBRANCH   7   8
ENDBRANCH   6   7
ENDBRANCH   5   6
ENDBRANCH   4   5
ENDBRANCH   3   4
ENDBRANCH   2   3
ENDBRANCH   1   2
BRANCH   1  11
ATOM     11  C   UNL     1       7.495  22.419 -10.167  1.00  0.00     0.000 C 
BRANCH  11  12
ATOM     12  C   UNL     1       6.900  23.681  -9.532  1.00  0.00     0.000 C 
BRANCH  12  13
ATOM     13  C   UNL     1       5.385  23.756  -9.770  1.00  0.00     0.000 C 
BRANCH  13  14
ATOM     14  C   UNL     1       4.678  22.419  -9.495  1.00  0.00     0.000 C 
BRANCH  14  15
ATOM     15  C   UNL     1       3.895  22.428  -8.170  1.00  0.00     0.000 C 
BRANCH  15  16
ATOM     16  C   UNL     1       4.476  23.407  -7.132  1.00  0.00     0.006 C 
BRANCH  16  17
ATOM     17  C   UNL     1       5.496  22.766  -6.174  1.00  0.00     0.053 C 
BRANCH  17  18
ATOM     18  C   UNL     1       6.608  23.699  -5.806  1.00  0.00     0.041 C 
ATOM     19  O   UNL     1       6.590  24.896  -6.192  1.00  0.00    -0.550 OA
ATOM     20  O   UNL     1       7.656  23.251  -5.011  1.00  0.00    -0.550 OA
ENDBRANCH  17  18
ENDBRANCH  16  17
ENDBRANCH  15  16
ENDBRANCH  14  15
ENDBRANCH  13  14
ENDBRANCH  12  13
ENDBRANCH  11  12
ENDBRANCH   1  11
TORSDOF 15
ENDMDL
MODEL 8
REMARK VINA RESULT:    -5.407      2.283      6.397
REMARK INTER + INTRA:         -11.486
REMARK INTER:                 -10.386
REMARK INTRA:                  -1.100
REMARK UNBOUND:                -1.338
REMARK SMILES O=C([O-])CCCCCCCCCCCCCCC(=O)[O-]
REMARK SMILES IDX 10 1 9 2 8 3 7 4 6 5 5 6 4 7 2 8 1 9 3 10 11 11 12 12 13 13
REMARK SMILES IDX 14 14 15 15 16 16 17 17 18 18 19 19 20 20
REMARK H PARENT
REMARK Flexibility Score: inf
ROOT
ATOM      1  C   UNL     1       9.202  23.221  -9.214  1.00  0.00     0.000 C 
ENDROOT
BRANCH   1   2
ATOM      2  C   UNL     1       7.939  22.564  -9.793  1.00  0.00     0.000 C 
BRANCH   2   3
ATOM      3  C   UNL     1       6.656  23.331  -9.437  1.00  0.00     0.000 C 
BRANCH   3   4
ATOM      4  C   UNL     1       6.901  24.302  -8.271  1.00  0.00     0.000 C 
BRANCH   4   5
ATOM      5  C   UNL     1       6.220  23.832  -6.968  1.00  0.00     0.000 C 
BRANCH   5   6
ATOM      6  C   UNL     1       7.182  23.730  -5.772  1.00  0.00     0.006 C 
BRANCH   6   7
ATOM      7  C   UNL     1       7.238  22.322  -5.168  1.00  0.00     0.053 C 
BRANCH   7   8
ATOM      8  C   UNL     1       8.643  21.967  -4.798  1.00  0.00     0.041 C 
ATOM      9  O   UNL     1       8.968  21.846  -3.587  1.00  0.00    -0.550 OA
ATOM     10  O   UNL     1       9.583  21.722  -5.791  1.00  0.00    -0.550 OA
ENDBRANCH   7   8
ENDBRANCH   6   7
ENDBRANCH   5   6
ENDBRANCH   4   5
ENDBRANCH   3   4
ENDBRANCH   2   3
ENDBRANCH   1   2
BRANCH   1  11
ATOM     11  C   UNL     1      10.497  22.591  -9.748  1.00  0.00     0.000 C 
BRANCH  11  12
ATOM     12  C   UNL     1      11.349  23.631 -10.485  1.00  0.00     0.000 C 
BRANCH  12  13
ATOM     13  C   UNL     1      12.072  24.552  -9.491  1.00  0.00     0.000 C 
BRANCH  13  14
ATOM     14  C   UNL     1      12.523  23.813  -8.222  1.00  0.00     0.000 C 
BRANCH  14  15
ATOM     15  C   UNL     1      13.999  24.080  -7.875  1.00  0.00     0.000 C 
BRANCH  15  16
ATOM     16  C   UNL     1      14.786  22.795  -7.556  1.00  0.00     0.006 C 
BRANCH  16  17
ATOM     17  C   UNL     1      15.566  22.855  -6.231  1.00  0.00     0.053 C 
BRANCH  17  18
ATOM     18  C   UNL     1      14.714  23.287  -5.077  1.00  0.00     0.041 C 
ATOM     19  O   UNL     1      15.003  24.325  -4.426  1.00  0.00    -0.550 OA
ATOM     20  O   UNL     1      13.582  22.557  -4.737  1.00  0.00    -0.550 OA
ENDBRANCH  17  18
ENDBRANCH  16  17
ENDBRANCH  15  16
ENDBRANCH  14  15
ENDBRANCH  13  14
ENDBRANCH  12  13
ENDBRANCH  11  12
ENDBRANCH   1  11
TORSDOF 15
ENDMDL
MODEL 9
REMARK VINA RESULT:    -5.389      2.037      2.431
REMARK INTER + INTRA:         -11.452
REMARK INTER:                 -10.515
REMARK INTRA:                  -0.938
REMARK UNBOUND:                -1.338
REMARK SMILES O=C([O-])CCCCCCCCCCCCCCC(=O)[O-]
REMARK SMILES IDX 10 1 9 2 8 3 7 4 6 5 5 6 4 7 2 8 1 9 3 10 11 11 12 12 13 13
REMARK SMILES IDX 14 14 15 15 16 16 17 17 18 18 19 19 20 20
REMARK H PARENT
REMARK Flexibility Score: inf
ROOT
ATOM      1  C   UNL     1       8.731  23.077  -9.387  1.00  0.00     0.000 C 
ENDROOT
BRANCH   1   2
ATOM      2  C   UNL     1      10.210  22.667  -9.458  1.00  0.00     0.000 C 
BRANCH   2   3
ATOM      3  C   UNL     1      11.110  23.791  -9.994  1.00  0.00     0.000 C 
BRANCH   3   4
ATOM      4  C   UNL     1      12.184  24.175  -8.964  1.00  0.00     0.000 C 
BRANCH   4   5
ATOM      5  C   UNL     1      12.367  23.090  -7.881  1.00  0.00     0.000 C 
BRANCH   5   6
ATOM      6  C   UNL     1      13.783  23.052  -7.279  1.00  0.00     0.006 C 
BRANCH   6   7
ATOM      7  C   UNL     1      13.821  22.427  -5.880  1.00  0.00     0.053 C 
BRANCH   7   8
ATOM      8  C   UNL     1      14.683  23.240  -4.968  1.00  0.00     0.041 C 
ATOM      9  O   UNL     1      14.266  23.567  -3.825  1.00  0.00    -0.550 OA
ATOM     10  O   UNL     1      15.967  23.598  -5.359  1.00  0.00    -0.550 OA
ENDBRANCH   7   8
ENDBRANCH   6   7
ENDBRANCH   5   6
ENDBRANCH   4   5
ENDBRANCH   3   4
ENDBRANCH   2   3
ENDBRANCH   1   2
BRANCH   1  11
ATOM     11  C   UNL     1       7.809  22.106 -10.141  1.00  0.00     0.000 C 
BRANCH  11  12
ATOM     12  C   UNL     1       6.602  22.844 -10.731  1.00  0.00     0.000 C 
BRANCH  12  13
ATOM     13  C   UNL     1       5.285  22.201 -10.272  1.00  0.00     0.000 C 
BRANCH  13  14
ATOM     14  C   UNL     1       4.435  23.149  -9.412  1.00  0.00     0.000 C 
BRANCH  14  15
ATOM     15  C   UNL     1       4.004  22.510  -8.079  1.00  0.00     0.000 C 
BRANCH  15  16
ATOM     16  C   UNL     1       4.647  23.185  -6.852  1.00  0.00     0.006 C 
BRANCH  16  17
ATOM     17  C   UNL     1       6.083  23.682  -7.096  1.00  0.00     0.053 C 
BRANCH  17  18
ATOM     18  C   UNL     1       6.762  24.126  -5.837  1.00  0.00     0.041 C 
ATOM     19  O   UNL     1       7.557  23.357  -5.237  1.00  0.00    -0.550 OA
ATOM     20  O   UNL     1       6.538  25.403  -5.339  1.00  0.00    -0.550 OA
ENDBRANCH  17  18
ENDBRANCH  16  17
ENDBRANCH  15  16
ENDBRANCH  14  15
ENDBRANCH  13  14
ENDBRANCH  12  13
ENDBRANCH  11  12
ENDBRANCH   1  11
TORSDOF 15
ENDMDL
