MODEL 1
REMARK VINA RESULT:    -7.317      0.000      0.000
REMARK INTER + INTRA:          -8.536
REMARK INTER:                  -8.814
REMARK INTRA:                   0.279
REMARK UNBOUND:                 0.279
REMARK SMILES O=c1c(O)c(-c2ccc(O)c(O)c2)oc2cc(O)cc(O)c12
REMARK SMILES IDX 5 1 3 2 2 3 1 4 22 5 20 6 19 7 17 8 16 9 15 10 14 11 6 12
REMARK SMILES IDX 7 13 8 14 9 15 13 16 11 17 10 18 12 20 4 22 21 24 18 26
REMARK H PARENT 10 19 12 21 4 23 21 25 18 27
REMARK Flexibility Score: inf
ROOT
ATOM      1  C   UNL     1     -10.730  -8.818  38.579  1.00  0.00     0.180 A 
ATOM      2  C   UNL     1      -9.822  -9.134  37.554  1.00  0.00     0.208 A 
ATOM      3  C   UNL     1      -8.769 -10.021  37.828  1.00  0.00     0.238 A 
ATOM      4  O   UNL     1      -7.927 -10.258  36.921  1.00  0.00    -0.285 OA
ATOM      5  C   UNL     1      -8.646 -10.593  39.117  1.00  0.00     0.111 A 
ATOM      6  C   UNL     1      -7.641 -11.535  39.494  1.00  0.00     0.134 A 
ATOM      7  C   UNL     1      -7.537 -11.935  40.830  1.00  0.00     0.093 A 
ATOM      8  C   UNL     1      -8.441 -11.478  41.793  1.00  0.00     0.123 A 
ATOM      9  C   UNL     1      -9.461 -10.605  41.422  1.00  0.00     0.094 A 
ATOM     10  C   UNL     1      -9.569 -10.160  40.103  1.00  0.00     0.146 A 
ATOM     11  O   UNL     1     -10.550  -9.319  39.795  1.00  0.00    -0.452 OA
ENDROOT
BRANCH   1  12
ATOM     12  C   UNL     1     -11.880  -7.911  38.360  1.00  0.00     0.025 A 
ATOM     13  C   UNL     1     -12.437  -7.225  39.451  1.00  0.00     0.016 A 
ATOM     14  C   UNL     1     -13.535  -6.381  39.271  1.00  0.00     0.051 A 
ATOM     15  C   UNL     1     -14.103  -6.221  38.004  1.00  0.00     0.157 A 
ATOM     16  C   UNL     1     -12.466  -7.764  37.090  1.00  0.00     0.062 A 
ATOM     17  C   UNL     1     -13.570  -6.918  36.908  1.00  0.00     0.158 A 
BRANCH  15  18
ATOM     18  O   UNL     1     -15.197  -5.368  37.854  1.00  0.00    -0.504 OA
ATOM     19  H   UNL     1     -15.125  -4.480  37.372  1.00  0.00     0.293 HD
ENDBRANCH  15  18
BRANCH  17  20
ATOM     20  O   UNL     1     -14.140  -6.774  35.644  1.00  0.00    -0.504 OA
ATOM     21  H   UNL     1     -13.654  -7.068  34.804  1.00  0.00     0.293 HD
ENDBRANCH  17  20
ENDBRANCH   1  12
BRANCH   2  22
ATOM     22  O   UNL     1      -9.948  -8.540  36.295  1.00  0.00    -0.502 OA
ATOM     23  H   UNL     1      -9.637  -8.996  35.445  1.00  0.00     0.293 HD
ENDBRANCH   2  22
BRANCH   6  24
ATOM     24  O   UNL     1      -6.747 -12.123  38.593  1.00  0.00    -0.507 OA
ATOM     25  H   UNL     1      -6.156 -12.913  38.803  1.00  0.00     0.293 HD
ENDBRANCH   6  24
BRANCH   8  26
ATOM     26  O   UNL     1      -8.339 -11.893  43.118  1.00  0.00    -0.508 OA
ATOM     27  H   UNL     1      -7.673 -11.473  43.756  1.00  0.00     0.293 HD
ENDBRANCH   8  26
TORSDOF 6
ENDMDL
MODEL 2
REMARK VINA RESULT:    -7.174      4.651      7.511
REMARK INTER + INTRA:          -8.364
REMARK INTER:                  -8.141
REMARK INTRA:                  -0.223
REMARK UNBOUND:                 0.279
REMARK SMILES O=c1c(O)c(-c2ccc(O)c(O)c2)oc2cc(O)cc(O)c12
REMARK SMILES IDX 5 1 3 2 2 3 1 4 22 5 20 6 19 7 17 8 16 9 15 10 14 11 6 12
REMARK SMILES IDX 7 13 8 14 9 15 13 16 11 17 10 18 12 20 4 22 21 24 18 26
REMARK H PARENT 10 19 12 21 4 23 21 25 18 27
REMARK Flexibility Score: inf
ROOT
ATOM      1  C   UNL     1     -14.295  -5.883  41.130  1.00  0.00     0.180 A 
ATOM      2  C   UNL     1     -13.340  -5.152  41.858  1.00  0.00     0.208 A 
ATOM      3  C   UNL     1     -13.496  -5.021  43.247  1.00  0.00     0.238 A 
ATOM      4  O   UNL     1     -12.668  -4.321  43.885  1.00  0.00    -0.285 OA
ATOM      5  C   UNL     1     -14.596  -5.636  43.893  1.00  0.00     0.111 A 
ATOM      6  C   UNL     1     -14.831  -5.602  45.301  1.00  0.00     0.134 A 
ATOM      7  C   UNL     1     -16.020  -6.133  45.815  1.00  0.00     0.093 A 
ATOM      8  C   UNL     1     -16.952  -6.755  44.980  1.00  0.00     0.123 A 
ATOM      9  C   UNL     1     -16.703  -6.845  43.613  1.00  0.00     0.094 A 
ATOM     10  C   UNL     1     -15.543  -6.292  43.065  1.00  0.00     0.146 A 
ATOM     11  O   UNL     1     -15.351  -6.391  41.755  1.00  0.00    -0.452 OA
ENDROOT
BRANCH   1  12
ATOM     12  C   UNL     1     -14.184  -6.085  39.668  1.00  0.00     0.025 A 
ATOM     13  C   UNL     1     -15.153  -5.529  38.818  1.00  0.00     0.016 A 
ATOM     14  C   UNL     1     -15.081  -5.725  37.437  1.00  0.00     0.051 A 
ATOM     15  C   UNL     1     -14.051  -6.491  36.885  1.00  0.00     0.157 A 
ATOM     16  C   UNL     1     -13.161  -6.873  39.112  1.00  0.00     0.062 A 
ATOM     17  C   UNL     1     -13.088  -7.073  37.726  1.00  0.00     0.158 A 
BRANCH  15  18
ATOM     18  O   UNL     1     -14.003  -6.667  35.502  1.00  0.00    -0.504 OA
ATOM     19  H   UNL     1     -14.727  -7.165  34.997  1.00  0.00     0.293 HD
ENDBRANCH  15  18
BRANCH  17  20
ATOM     20  O   UNL     1     -12.065  -7.850  37.183  1.00  0.00    -0.504 OA
ATOM     21  H   UNL     1     -11.464  -8.421  37.767  1.00  0.00     0.293 HD
ENDBRANCH  17  20
ENDBRANCH   1  12
BRANCH   2  22
ATOM     22  O   UNL     1     -12.274  -4.535  41.196  1.00  0.00    -0.502 OA
ATOM     23  H   UNL     1     -12.052  -4.726  40.227  1.00  0.00     0.293 HD
ENDBRANCH   2  22
BRANCH   6  24
ATOM     24  O   UNL     1     -13.923  -5.088  46.231  1.00  0.00    -0.507 OA
ATOM     25  H   UNL     1     -13.792  -4.107  46.425  1.00  0.00     0.293 HD
ENDBRANCH   6  24
BRANCH   8  26
ATOM     26  O   UNL     1     -18.125  -7.294  45.503  1.00  0.00    -0.508 OA
ATOM     27  H   UNL     1     -19.015  -6.818  45.410  1.00  0.00     0.293 HD
ENDBRANCH   8  26
TORSDOF 6
ENDMDL
MODEL 3
REMARK VINA RESULT:    -7.019      7.326      9.303
REMARK INTER + INTRA:          -8.177
REMARK INTER:                  -8.360
REMARK INTRA:                   0.184
REMARK UNBOUND:                 0.279
REMARK SMILES O=c1c(O)c(-c2ccc(O)c(O)c2)oc2cc(O)cc(O)c12
REMARK SMILES IDX 5 1 3 2 2 3 1 4 22 5 20 6 19 7 17 8 16 9 15 10 14 11 6 12
REMARK SMILES IDX 7 13 8 14 9 15 13 16 11 17 10 18 12 20 4 22 21 24 18 26
REMARK H PARENT 10 19 12 21 4 23 21 25 18 27
REMARK Flexibility Score: inf
ROOT
ATOM      1  C   UNL     1     -16.679  -7.560  44.026  1.00  0.00     0.180 A 
ATOM      2  C   UNL     1     -16.970  -8.862  44.466  1.00  0.00     0.208 A 
ATOM      3  C   UNL     1     -16.804  -9.174  45.825  1.00  0.00     0.238 A 
ATOM      4  O   UNL     1     -17.014 -10.357  46.204  1.00  0.00    -0.285 OA
ATOM      5  C   UNL     1     -16.366  -8.177  46.729  1.00  0.00     0.111 A 
ATOM      6  C   UNL     1     -16.203  -8.371  48.134  1.00  0.00     0.134 A 
ATOM      7  C   UNL     1     -15.639  -7.352  48.911  1.00  0.00     0.093 A 
ATOM      8  C   UNL     1     -15.294  -6.122  48.345  1.00  0.00     0.123 A 
ATOM      9  C   UNL     1     -15.505  -5.902  46.986  1.00  0.00     0.094 A 
ATOM     10  C   UNL     1     -16.032  -6.912  46.178  1.00  0.00     0.146 A 
ATOM     11  O   UNL     1     -16.206  -6.665  44.885  1.00  0.00    -0.452 OA
ENDROOT
BRANCH   1  12
ATOM     12  C   UNL     1     -16.852  -7.149  42.614  1.00  0.00     0.025 A 
ATOM     13  C   UNL     1     -17.953  -7.628  41.885  1.00  0.00     0.016 A 
ATOM     14  C   UNL     1     -18.124  -7.271  40.546  1.00  0.00     0.051 A 
ATOM     15  C   UNL     1     -17.194  -6.445  39.909  1.00  0.00     0.157 A 
ATOM     16  C   UNL     1     -15.907  -6.335  41.966  1.00  0.00     0.062 A 
ATOM     17  C   UNL     1     -16.077  -5.977  40.621  1.00  0.00     0.158 A 
BRANCH  15  18
ATOM     18  O   UNL     1     -17.393  -6.103  38.572  1.00  0.00    -0.504 OA
ATOM     19  H   UNL     1     -16.739  -5.522  38.062  1.00  0.00     0.293 HD
ENDBRANCH  15  18
BRANCH  17  20
ATOM     20  O   UNL     1     -15.137  -5.164  39.989  1.00  0.00    -0.504 OA
ATOM     21  H   UNL     1     -14.849  -4.276  40.384  1.00  0.00     0.293 HD
ENDBRANCH  17  20
ENDBRANCH   1  12
BRANCH   2  22
ATOM     22  O   UNL     1     -17.380  -9.838  43.553  1.00  0.00    -0.502 OA
ATOM     23  H   UNL     1     -17.451  -9.656  42.559  1.00  0.00     0.293 HD
ENDBRANCH   2  22
BRANCH   6  24
ATOM     24  O   UNL     1     -16.601  -9.527  48.813  1.00  0.00    -0.507 OA
ATOM     25  H   UNL     1     -17.498  -9.653  49.256  1.00  0.00     0.293 HD
ENDBRANCH   6  24
BRANCH   8  26
ATOM     26  O   UNL     1     -14.748  -5.108  49.129  1.00  0.00    -0.508 OA
ATOM     27  H   UNL     1     -14.646  -4.163  48.778  1.00  0.00     0.293 HD
ENDBRANCH   8  26
TORSDOF 6
ENDMDL
MODEL 4
REMARK VINA RESULT:    -6.980      8.309     10.580
REMARK INTER + INTRA:          -8.129
REMARK INTER:                  -7.859
REMARK INTRA:                  -0.270
REMARK UNBOUND:                 0.279
REMARK SMILES O=c1c(O)c(-c2ccc(O)c(O)c2)oc2cc(O)cc(O)c12
REMARK SMILES IDX 5 1 3 2 2 3 1 4 22 5 20 6 19 7 17 8 16 9 15 10 14 11 6 12
REMARK SMILES IDX 7 13 8 14 9 15 13 16 11 17 10 18 12 20 4 22 21 24 18 26
REMARK H PARENT 10 19 12 21 4 23 21 25 18 27
REMARK Flexibility Score: inf
ROOT
ATOM      1  C   UNL     1     -13.321  -8.303  46.962  1.00  0.00     0.180 A 
ATOM      2  C   UNL     1     -13.666  -9.664  47.028  1.00  0.00     0.208 A 
ATOM      3  C   UNL     1     -14.795 -10.114  46.325  1.00  0.00     0.238 A 
ATOM      4  O   UNL     1     -15.130 -11.323  46.431  1.00  0.00    -0.285 OA
ATOM      5  C   UNL     1     -15.555  -9.202  45.553  1.00  0.00     0.111 A 
ATOM      6  C   UNL     1     -16.694  -9.557  44.769  1.00  0.00     0.134 A 
ATOM      7  C   UNL     1     -17.446  -8.551  44.150  1.00  0.00     0.093 A 
ATOM      8  C   UNL     1     -17.063  -7.210  44.233  1.00  0.00     0.123 A 
ATOM      9  C   UNL     1     -15.920  -6.861  44.947  1.00  0.00     0.094 A 
ATOM     10  C   UNL     1     -15.169  -7.838  45.605  1.00  0.00     0.146 A 
ATOM     11  O   UNL     1     -14.092  -7.460  46.284  1.00  0.00    -0.452 OA
ENDROOT
BRANCH   1  12
ATOM     12  C   UNL     1     -12.132  -7.758  47.655  1.00  0.00     0.025 A 
ATOM     13  C   UNL     1     -12.188  -7.515  49.037  1.00  0.00     0.016 A 
ATOM     14  C   UNL     1     -11.085  -6.981  49.708  1.00  0.00     0.051 A 
ATOM     15  C   UNL     1      -9.917  -6.668  49.009  1.00  0.00     0.157 A 
ATOM     16  C   UNL     1     -10.962  -7.423  46.951  1.00  0.00     0.062 A 
ATOM     17  C   UNL     1      -9.854  -6.886  47.623  1.00  0.00     0.158 A 
BRANCH  15  18
ATOM     18  O   UNL     1      -8.830  -6.139  49.707  1.00  0.00    -0.504 OA
ATOM     19  H   UNL     1      -8.049  -5.701  49.233  1.00  0.00     0.293 HD
ENDBRANCH  15  18
BRANCH  17  20
ATOM     20  O   UNL     1      -8.696  -6.563  46.917  1.00  0.00    -0.504 OA
ATOM     21  H   UNL     1      -8.625  -5.711  46.372  1.00  0.00     0.293 HD
ENDBRANCH  17  20
ENDBRANCH   1  12
BRANCH   2  22
ATOM     22  O   UNL     1     -12.915 -10.542  47.814  1.00  0.00    -0.502 OA
ATOM     23  H   UNL     1     -13.162 -11.518  47.925  1.00  0.00     0.293 HD
ENDBRANCH   2  22
BRANCH   6  24
ATOM     24  O   UNL     1     -17.108 -10.874  44.545  1.00  0.00    -0.507 OA
ATOM     25  H   UNL     1     -17.017 -11.364  43.669  1.00  0.00     0.293 HD
ENDBRANCH   6  24
BRANCH   8  26
ATOM     26  O   UNL     1     -17.809  -6.218  43.602  1.00  0.00    -0.508 OA
ATOM     27  H   UNL     1     -18.732  -5.958  43.930  1.00  0.00     0.293 HD
ENDBRANCH   8  26
TORSDOF 6
ENDMDL
MODEL 5
REMARK VINA RESULT:    -6.858      1.902      6.909
REMARK INTER + INTRA:          -7.982
REMARK INTER:                  -7.896
REMARK INTRA:                  -0.086
REMARK UNBOUND:                 0.279
REMARK SMILES O=c1c(O)c(-c2ccc(O)c(O)c2)oc2cc(O)cc(O)c12
REMARK SMILES IDX 5 1 3 2 2 3 1 4 22 5 20 6 19 7 17 8 16 9 15 10 14 11 6 12
REMARK SMILES IDX 7 13 8 14 9 15 13 16 11 17 10 18 12 20 4 22 21 24 18 26
REMARK H PARENT 10 19 12 21 4 23 21 25 18 27
REMARK Flexibility Score: inf
ROOT
ATOM      1  C   UNL     1     -11.040  -8.240  40.065  1.00  0.00     0.180 A 
ATOM      2  C   UNL     1     -10.952  -8.749  38.759  1.00  0.00     0.208 A 
ATOM      3  C   UNL     1     -11.855  -8.289  37.787  1.00  0.00     0.238 A 
ATOM      4  O   UNL     1     -11.807  -8.789  36.632  1.00  0.00    -0.285 OA
ATOM      5  C   UNL     1     -12.824  -7.315  38.129  1.00  0.00     0.111 A 
ATOM      6  C   UNL     1     -13.762  -6.749  37.216  1.00  0.00     0.134 A 
ATOM      7  C   UNL     1     -14.759  -5.890  37.693  1.00  0.00     0.093 A 
ATOM      8  C   UNL     1     -14.812  -5.526  39.041  1.00  0.00     0.123 A 
ATOM      9  C   UNL     1     -13.864  -6.027  39.929  1.00  0.00     0.094 A 
ATOM     10  C   UNL     1     -12.879  -6.914  39.490  1.00  0.00     0.146 A 
ATOM     11  O   UNL     1     -12.001  -7.377  40.373  1.00  0.00    -0.452 OA
ENDROOT
BRANCH   1  12
ATOM     12  C   UNL     1     -10.108  -8.658  41.137  1.00  0.00     0.025 A 
ATOM     13  C   UNL     1      -9.283  -7.700  41.748  1.00  0.00     0.016 A 
ATOM     14  C   UNL     1      -8.380  -8.076  42.746  1.00  0.00     0.051 A 
ATOM     15  C   UNL     1      -8.277  -9.413  43.138  1.00  0.00     0.157 A 
ATOM     16  C   UNL     1      -9.987 -10.006  41.519  1.00  0.00     0.062 A 
ATOM     17  C   UNL     1      -9.080 -10.385  42.520  1.00  0.00     0.158 A 
BRANCH  15  18
ATOM     18  O   UNL     1      -7.369  -9.758  44.140  1.00  0.00    -0.504 OA
ATOM     19  H   UNL     1      -7.102 -10.719  44.316  1.00  0.00     0.293 HD
ENDBRANCH  15  18
BRANCH  17  20
ATOM     20  O   UNL     1      -8.972 -11.723  42.896  1.00  0.00    -0.504 OA
ATOM     21  H   UNL     1      -8.996 -12.472  42.213  1.00  0.00     0.293 HD
ENDBRANCH  17  20
ENDBRANCH   1  12
BRANCH   2  22
ATOM     22  O   UNL     1     -10.003  -9.727  38.447  1.00  0.00    -0.502 OA
ATOM     23  H   UNL     1      -9.138  -9.829  38.964  1.00  0.00     0.293 HD
ENDBRANCH   2  22
BRANCH   6  24
ATOM     24  O   UNL     1     -13.741  -6.974  35.836  1.00  0.00    -0.507 OA
ATOM     25  H   UNL     1     -13.642  -6.254  35.137  1.00  0.00     0.293 HD
ENDBRANCH   6  24
BRANCH   8  26
ATOM     26  O   UNL     1     -15.798  -4.658  39.505  1.00  0.00    -0.508 OA
ATOM     27  H   UNL     1     -15.630  -4.033  40.284  1.00  0.00     0.293 HD
ENDBRANCH   8  26
TORSDOF 6
ENDMDL
MODEL 6
REMARK VINA RESULT:    -6.812      5.970      9.606
REMARK INTER + INTRA:          -7.927
REMARK INTER:                  -7.603
REMARK INTRA:                  -0.324
REMARK UNBOUND:                 0.279
REMARK SMILES O=c1c(O)c(-c2ccc(O)c(O)c2)oc2cc(O)cc(O)c12
REMARK SMILES IDX 5 1 3 2 2 3 1 4 22 5 20 6 19 7 17 8 16 9 15 10 14 11 6 12
REMARK SMILES IDX 7 13 8 14 9 15 13 16 11 17 10 18 12 20 4 22 21 24 18 26
REMARK H PARENT 10 19 12 21 4 23 21 25 18 27
REMARK Flexibility Score: inf
ROOT
ATOM      1  C   UNL     1     -12.817  -8.967  45.398  1.00  0.00     0.180 A 
ATOM      2  C   UNL     1     -13.397 -10.004  46.148  1.00  0.00     0.208 A 
ATOM      3  C   UNL     1     -14.796 -10.122  46.177  1.00  0.00     0.238 A 
ATOM      4  O   UNL     1     -15.311 -11.020  46.894  1.00  0.00    -0.285 OA
ATOM      5  C   UNL     1     -15.596  -9.214  45.443  1.00  0.00     0.111 A 
ATOM      6  C   UNL     1     -17.020  -9.265  45.368  1.00  0.00     0.134 A 
ATOM      7  C   UNL     1     -17.715  -8.238  44.719  1.00  0.00     0.093 A 
ATOM      8  C   UNL     1     -17.034  -7.195  44.086  1.00  0.00     0.123 A 
ATOM      9  C   UNL     1     -15.642  -7.169  44.103  1.00  0.00     0.094 A 
ATOM     10  C   UNL     1     -14.921  -8.160  44.773  1.00  0.00     0.146 A 
ATOM     11  O   UNL     1     -13.595  -8.090  44.774  1.00  0.00    -0.452 OA
ENDROOT
BRANCH   1  12
ATOM     12  C   UNL     1     -11.350  -8.792  45.299  1.00  0.00     0.025 A 
ATOM     13  C   UNL     1     -10.711  -7.840  46.109  1.00  0.00     0.016 A 
ATOM     14  C   UNL     1      -9.331  -7.643  46.017  1.00  0.00     0.051 A 
ATOM     15  C   UNL     1      -8.571  -8.382  45.107  1.00  0.00     0.157 A 
ATOM     16  C   UNL     1     -10.586  -9.519  44.369  1.00  0.00     0.062 A 
ATOM     17  C   UNL     1      -9.200  -9.322  44.275  1.00  0.00     0.158 A 
BRANCH  15  18
ATOM     18  O   UNL     1      -7.194  -8.166  45.040  1.00  0.00    -0.504 OA
ATOM     19  H   UNL     1      -6.760  -7.705  44.249  1.00  0.00     0.293 HD
ENDBRANCH  15  18
BRANCH  17  20
ATOM     20  O   UNL     1      -8.451 -10.053  43.354  1.00  0.00    -0.504 OA
ATOM     21  H   UNL     1      -8.876 -10.752  42.756  1.00  0.00     0.293 HD
ENDBRANCH  17  20
ENDBRANCH   1  12
BRANCH   2  22
ATOM     22  O   UNL     1     -12.589 -10.876  46.884  1.00  0.00    -0.502 OA
ATOM     23  H   UNL     1     -12.842 -11.843  47.047  1.00  0.00     0.293 HD
ENDBRANCH   2  22
BRANCH   6  24
ATOM     24  O   UNL     1     -17.791 -10.310  45.887  1.00  0.00    -0.507 OA
ATOM     25  H   UNL     1     -17.908 -11.211  45.449  1.00  0.00     0.293 HD
ENDBRANCH   6  24
BRANCH   8  26
ATOM     26  O   UNL     1     -17.733  -6.186  43.429  1.00  0.00    -0.508 OA
ATOM     27  H   UNL     1     -17.664  -6.058  42.427  1.00  0.00     0.293 HD
ENDBRANCH   8  26
TORSDOF 6
ENDMDL
MODEL 7
REMARK VINA RESULT:    -6.788     10.182     11.606
REMARK INTER + INTRA:          -7.898
REMARK INTER:                  -7.587
REMARK INTRA:                  -0.311
REMARK UNBOUND:                 0.279
REMARK SMILES O=c1c(O)c(-c2ccc(O)c(O)c2)oc2cc(O)cc(O)c12
REMARK SMILES IDX 5 1 3 2 2 3 1 4 22 5 20 6 19 7 17 8 16 9 15 10 14 11 6 12
REMARK SMILES IDX 7 13 8 14 9 15 13 16 11 17 10 18 12 20 4 22 21 24 18 26
REMARK H PARENT 10 19 12 21 4 23 21 25 18 27
REMARK Flexibility Score: inf
ROOT
ATOM      1  C   UNL     1     -15.196  -4.990  47.516  1.00  0.00     0.180 A 
ATOM      2  C   UNL     1     -14.999  -5.605  48.765  1.00  0.00     0.208 A 
ATOM      3  C   UNL     1     -15.437  -6.927  48.948  1.00  0.00     0.238 A 
ATOM      4  O   UNL     1     -15.307  -7.454  50.084  1.00  0.00    -0.285 OA
ATOM      5  C   UNL     1     -16.050  -7.622  47.878  1.00  0.00     0.111 A 
ATOM      6  C   UNL     1     -16.495  -8.977  47.940  1.00  0.00     0.134 A 
ATOM      7  C   UNL     1     -17.205  -9.520  46.864  1.00  0.00     0.093 A 
ATOM      8  C   UNL     1     -17.430  -8.779  45.701  1.00  0.00     0.123 A 
ATOM      9  C   UNL     1     -16.948  -7.476  45.608  1.00  0.00     0.094 A 
ATOM     10  C   UNL     1     -16.267  -6.894  46.680  1.00  0.00     0.146 A 
ATOM     11  O   UNL     1     -15.834  -5.644  46.553  1.00  0.00    -0.452 OA
ENDROOT
BRANCH   1  12
ATOM     12  C   UNL     1     -14.741  -3.609  47.240  1.00  0.00     0.025 A 
ATOM     13  C   UNL     1     -13.478  -3.400  46.662  1.00  0.00     0.016 A 
ATOM     14  C   UNL     1     -13.019  -2.105  46.413  1.00  0.00     0.051 A 
ATOM     15  C   UNL     1     -13.805  -0.999  46.749  1.00  0.00     0.157 A 
ATOM     16  C   UNL     1     -15.521  -2.495  47.596  1.00  0.00     0.062 A 
ATOM     17  C   UNL     1     -15.060  -1.193  47.347  1.00  0.00     0.158 A 
BRANCH  15  18
ATOM     18  O   UNL     1     -13.321   0.282  46.484  1.00  0.00    -0.504 OA
ATOM     19  H   UNL     1     -13.679   0.846  45.721  1.00  0.00     0.293 HD
ENDBRANCH  15  18
BRANCH  17  20
ATOM     20  O   UNL     1     -15.844  -0.095  47.698  1.00  0.00    -0.504 OA
ATOM     21  H   UNL     1     -15.459   0.842  47.738  1.00  0.00     0.293 HD
ENDBRANCH  17  20
ENDBRANCH   1  12
BRANCH   2  22
ATOM     22  O   UNL     1     -14.412  -4.894  49.815  1.00  0.00    -0.502 OA
ATOM     23  H   UNL     1     -13.881  -5.347  50.548  1.00  0.00     0.293 HD
ENDBRANCH   2  22
BRANCH   6  24
ATOM     24  O   UNL     1     -16.241  -9.832  49.017  1.00  0.00    -0.507 OA
ATOM     25  H   UNL     1     -15.378 -10.331  49.164  1.00  0.00     0.293 HD
ENDBRANCH   6  24
BRANCH   8  26
ATOM     26  O   UNL     1     -18.125  -9.333  44.628  1.00  0.00    -0.508 OA
ATOM     27  H   UNL     1     -18.220 -10.336  44.520  1.00  0.00     0.293 HD
ENDBRANCH   8  26
TORSDOF 6
ENDMDL
MODEL 8
REMARK VINA RESULT:    -6.746      7.702      9.329
REMARK INTER + INTRA:          -7.848
REMARK INTER:                  -7.518
REMARK INTRA:                  -0.330
REMARK UNBOUND:                 0.279
REMARK SMILES O=c1c(O)c(-c2ccc(O)c(O)c2)oc2cc(O)cc(O)c12
REMARK SMILES IDX 5 1 3 2 2 3 1 4 22 5 20 6 19 7 17 8 16 9 15 10 14 11 6 12
REMARK SMILES IDX 7 13 8 14 9 15 13 16 11 17 10 18 12 20 4 22 21 24 18 26
REMARK H PARENT 10 19 12 21 4 23 21 25 18 27
REMARK Flexibility Score: inf
ROOT
ATOM      1  C   UNL     1     -14.048  -8.379  46.503  1.00  0.00     0.180 A 
ATOM      2  C   UNL     1     -14.251  -8.195  47.881  1.00  0.00     0.208 A 
ATOM      3  C   UNL     1     -13.186  -7.732  48.670  1.00  0.00     0.238 A 
ATOM      4  O   UNL     1     -13.357  -7.621  49.912  1.00  0.00    -0.285 OA
ATOM      5  C   UNL     1     -11.936  -7.445  48.069  1.00  0.00     0.111 A 
ATOM      6  C   UNL     1     -10.800  -6.933  48.765  1.00  0.00     0.134 A 
ATOM      7  C   UNL     1      -9.578  -6.809  48.095  1.00  0.00     0.093 A 
ATOM      8  C   UNL     1      -9.466  -7.117  46.737  1.00  0.00     0.123 A 
ATOM      9  C   UNL     1     -10.584  -7.560  46.035  1.00  0.00     0.094 A 
ATOM     10  C   UNL     1     -11.809  -7.729  46.684  1.00  0.00     0.146 A 
ATOM     11  O   UNL     1     -12.847  -8.164  45.980  1.00  0.00    -0.452 OA
ENDROOT
BRANCH   1  12
ATOM     12  C   UNL     1     -15.130  -8.840  45.603  1.00  0.00     0.025 A 
ATOM     13  C   UNL     1     -15.286 -10.213  45.357  1.00  0.00     0.016 A 
ATOM     14  C   UNL     1     -16.286 -10.669  44.494  1.00  0.00     0.051 A 
ATOM     15  C   UNL     1     -17.133  -9.762  43.853  1.00  0.00     0.157 A 
ATOM     16  C   UNL     1     -15.970  -7.928  44.940  1.00  0.00     0.062 A 
ATOM     17  C   UNL     1     -16.974  -8.384  44.072  1.00  0.00     0.158 A 
BRANCH  15  18
ATOM     18  O   UNL     1     -18.125 -10.246  43.000  1.00  0.00    -0.504 OA
ATOM     19  H   UNL     1     -18.875 -10.843  43.330  1.00  0.00     0.293 HD
ENDBRANCH  15  18
BRANCH  17  20
ATOM     20  O   UNL     1     -17.807  -7.472  43.425  1.00  0.00    -0.504 OA
ATOM     21  H   UNL     1     -17.495  -6.534  43.198  1.00  0.00     0.293 HD
ENDBRANCH  17  20
ENDBRANCH   1  12
BRANCH   2  22
ATOM     22  O   UNL     1     -15.486  -8.506  48.458  1.00  0.00    -0.502 OA
ATOM     23  H   UNL     1     -15.594  -9.240  49.148  1.00  0.00     0.293 HD
ENDBRANCH   2  22
BRANCH   6  24
ATOM     24  O   UNL     1     -10.828  -6.509  50.098  1.00  0.00    -0.507 OA
ATOM     25  H   UNL     1     -11.290  -7.001  50.848  1.00  0.00     0.293 HD
ENDBRANCH   6  24
BRANCH   8  26
ATOM     26  O   UNL     1      -8.249  -6.976  46.074  1.00  0.00    -0.508 OA
ATOM     27  H   UNL     1      -7.983  -7.593  45.316  1.00  0.00     0.293 HD
ENDBRANCH   8  26
TORSDOF 6
ENDMDL
MODEL 9
REMARK VINA RESULT:    -6.696      2.887      7.192
REMARK INTER + INTRA:          -7.787
REMARK INTER:                  -7.475
REMARK INTRA:                  -0.312
REMARK UNBOUND:                 0.279
REMARK SMILES O=c1c(O)c(-c2ccc(O)c(O)c2)oc2cc(O)cc(O)c12
REMARK SMILES IDX 5 1 3 2 2 3 1 4 22 5 20 6 19 7 17 8 16 9 15 10 14 11 6 12
REMARK SMILES IDX 7 13 8 14 9 15 13 16 11 17 10 18 12 20 4 22 21 24 18 26
REMARK H PARENT 10 19 12 21 4 23 21 25 18 27
REMARK Flexibility Score: inf
ROOT
ATOM      1  C   UNL     1     -11.659  -7.353  40.781  1.00  0.00     0.180 A 
ATOM      2  C   UNL     1     -11.239  -7.843  39.532  1.00  0.00     0.208 A 
ATOM      3  C   UNL     1     -12.044  -7.613  38.405  1.00  0.00     0.238 A 
ATOM      4  O   UNL     1     -11.690  -8.101  37.300  1.00  0.00    -0.285 OA
ATOM      5  C   UNL     1     -13.249  -6.882  38.537  1.00  0.00     0.111 A 
ATOM      6  C   UNL     1     -14.122  -6.555  37.456  1.00  0.00     0.134 A 
ATOM      7  C   UNL     1     -15.351  -5.942  37.722  1.00  0.00     0.093 A 
ATOM      8  C   UNL     1     -15.712  -5.584  39.024  1.00  0.00     0.123 A 
ATOM      9  C   UNL     1     -14.841  -5.846  40.078  1.00  0.00     0.094 A 
ATOM     10  C   UNL     1     -13.623  -6.489  39.849  1.00  0.00     0.146 A 
ATOM     11  O   UNL     1     -12.827  -6.730  40.884  1.00  0.00    -0.452 OA
ENDROOT
BRANCH   1  12
ATOM     12  C   UNL     1     -10.853  -7.535  42.009  1.00  0.00     0.025 A 
ATOM     13  C   UNL     1      -9.943  -6.537  42.393  1.00  0.00     0.016 A 
ATOM     14  C   UNL     1      -9.156  -6.698  43.536  1.00  0.00     0.051 A 
ATOM     15  C   UNL     1      -9.254  -7.861  44.304  1.00  0.00     0.157 A 
ATOM     16  C   UNL     1     -10.935  -8.714  42.772  1.00  0.00     0.062 A 
ATOM     17  C   UNL     1     -10.145  -8.877  43.919  1.00  0.00     0.158 A 
BRANCH  15  18
ATOM     18  O   UNL     1      -8.459  -7.992  45.442  1.00  0.00    -0.504 OA
ATOM     19  H   UNL     1      -8.391  -8.863  45.955  1.00  0.00     0.293 HD
ENDBRANCH  15  18
BRANCH  17  20
ATOM     20  O   UNL     1     -10.238 -10.047  44.672  1.00  0.00    -0.504 OA
ATOM     21  H   UNL     1      -9.444 -10.665  44.796  1.00  0.00     0.293 HD
ENDBRANCH  17  20
ENDBRANCH   1  12
BRANCH   2  22
ATOM     22  O   UNL     1     -10.057  -8.582  39.428  1.00  0.00    -0.502 OA
ATOM     23  H   UNL     1      -9.569  -8.705  38.550  1.00  0.00     0.293 HD
ENDBRANCH   2  22
BRANCH   6  24
ATOM     24  O   UNL     1     -13.816  -6.785  36.110  1.00  0.00    -0.507 OA
ATOM     25  H   UNL     1     -13.876  -7.681  35.652  1.00  0.00     0.293 HD
ENDBRANCH   6  24
BRANCH   8  26
ATOM     26  O   UNL     1     -16.931  -4.960  39.277  1.00  0.00    -0.508 OA
ATOM     27  H   UNL     1     -16.980  -4.062  39.743  1.00  0.00     0.293 HD
ENDBRANCH   8  26
TORSDOF 6
ENDMDL
