MODEL 1
REMARK VINA RESULT:    -2.418      0.000      0.000
REMARK INTER + INTRA:          -2.418
REMARK INTER:                  -2.418
REMARK INTRA:                   0.000
REMARK UNBOUND:                 0.000
REMARK SMILES CC(=O)[O-]
REMARK SMILES IDX 1 1 2 2 3 3 4 4
REMARK H PARENT
REMARK Flexibility Score: inf
ROOT
ATOM      1  C   UNL     1       6.518 -21.961  26.955  1.00  0.00     0.063 C 
ATOM      2  C   UNL     1       6.446 -20.503  27.258  1.00  0.00     0.038 C 
ATOM      3  O   UNL     1       5.375 -19.871  27.069  1.00  0.00    -0.550 OA
ATOM      4  O   UNL     1       7.546 -19.850  27.801  1.00  0.00    -0.550 OA
ENDROOT
TORSDOF 0
ENDMDL
MODEL 2
REMARK VINA RESULT:    -2.370     16.067     16.627
REMARK INTER + INTRA:          -2.370
REMARK INTER:                  -2.370
REMARK INTRA:                   0.000
REMARK UNBOUND:                 0.000
REMARK SMILES CC(=O)[O-]
REMARK SMILES IDX 1 1 2 2 3 3 4 4
REMARK H PARENT
REMARK Flexibility Score: inf
ROOT
ATOM      1  C   UNL     1      13.225 -10.462  37.607  1.00  0.00     0.063 C 
ATOM      2  C   UNL     1      12.582 -10.470  38.952  1.00  0.00     0.038 C 
ATOM      3  O   UNL     1      11.354 -10.722  39.063  1.00  0.00    -0.550 OA
ATOM      4  O   UNL     1      13.348 -10.252  40.091  1.00  0.00    -0.550 OA
ENDROOT
TORSDOF 0
ENDMDL
MODEL 3
REMARK VINA RESULT:    -2.338     14.351     14.848
REMARK INTER + INTRA:          -2.338
REMARK INTER:                  -2.338
REMARK INTRA:                   0.000
REMARK UNBOUND:                 0.000
REMARK SMILES CC(=O)[O-]
REMARK SMILES IDX 1 1 2 2 3 3 4 4
REMARK H PARENT
REMARK Flexibility Score: inf
ROOT
ATOM      1  C   UNL     1      14.233 -11.157  34.600  1.00  0.00     0.063 C 
ATOM      2  C   UNL     1      13.613 -10.886  35.929  1.00  0.00     0.038 C 
ATOM      3  O   UNL     1      13.518  -9.705  36.352  1.00  0.00    -0.550 OA
ATOM      4  O   UNL     1      13.090 -11.932  36.680  1.00  0.00    -0.550 OA
ENDROOT
TORSDOF 0
ENDMDL
MODEL 4
REMARK VINA RESULT:    -2.332     12.517     12.818
REMARK INTER + INTRA:          -2.332
REMARK INTER:                  -2.332
REMARK INTRA:                   0.000
REMARK UNBOUND:                 0.000
REMARK SMILES CC(=O)[O-]
REMARK SMILES IDX 1 1 2 2 3 3 4 4
REMARK H PARENT
REMARK Flexibility Score: inf
ROOT
ATOM      1  C   UNL     1       7.302 -13.504  36.637  1.00  0.00     0.063 C 
ATOM      2  C   UNL     1       7.899 -13.730  37.985  1.00  0.00     0.038 C 
ATOM      3  O   UNL     1       7.287 -14.423  38.838  1.00  0.00    -0.550 OA
ATOM      4  O   UNL     1       9.157 -13.220  38.283  1.00  0.00    -0.550 OA
ENDROOT
TORSDOF 0
ENDMDL
MODEL 5
REMARK VINA RESULT:    -2.327     12.443     12.797
REMARK INTER + INTRA:          -2.327
REMARK INTER:                  -2.327
REMARK INTRA:                   0.000
REMARK UNBOUND:                 0.000
REMARK SMILES CC(=O)[O-]
REMARK SMILES IDX 1 1 2 2 3 3 4 4
REMARK H PARENT
REMARK Flexibility Score: inf
ROOT
ATOM      1  C   UNL     1      10.742 -15.279  36.730  1.00  0.00     0.063 C 
ATOM      2  C   UNL     1      10.181 -14.684  37.977  1.00  0.00     0.038 C 
ATOM      3  O   UNL     1      10.167 -13.435  38.130  1.00  0.00    -0.550 OA
ATOM      4  O   UNL     1       9.623 -15.504  38.950  1.00  0.00    -0.550 OA
ENDROOT
TORSDOF 0
ENDMDL
MODEL 6
REMARK VINA RESULT:    -2.309     11.265     11.752
REMARK INTER + INTRA:          -2.309
REMARK INTER:                  -2.309
REMARK INTRA:                   0.000
REMARK UNBOUND:                 0.000
REMARK SMILES CC(=O)[O-]
REMARK SMILES IDX 1 1 2 2 3 3 4 4
REMARK H PARENT
REMARK Flexibility Score: inf
ROOT
ATOM      1  C   UNL     1       7.773 -13.142  34.551  1.00  0.00     0.063 C 
ATOM      2  C   UNL     1       7.234 -12.686  35.864  1.00  0.00     0.038 C 
ATOM      3  O   UNL     1       7.146 -13.492  36.826  1.00  0.00    -0.550 OA
ATOM      4  O   UNL     1       6.879 -11.354  36.046  1.00  0.00    -0.550 OA
ENDROOT
TORSDOF 0
ENDMDL
MODEL 7
REMARK VINA RESULT:    -2.300     11.289     11.713
REMARK INTER + INTRA:          -2.300
REMARK INTER:                  -2.300
REMARK INTRA:                   0.000
REMARK UNBOUND:                 0.000
REMARK SMILES CC(=O)[O-]
REMARK SMILES IDX 1 1 2 2 3 3 4 4
REMARK H PARENT
REMARK Flexibility Score: inf
ROOT
ATOM      1  C   UNL     1       7.772 -13.145  34.530  1.00  0.00     0.063 C 
ATOM      2  C   UNL     1       7.271 -12.642  35.841  1.00  0.00     0.038 C 
ATOM      3  O   UNL     1       6.904 -11.444  35.960  1.00  0.00    -0.550 OA
ATOM      4  O   UNL     1       7.155 -13.508  36.921  1.00  0.00    -0.550 OA
ENDROOT
TORSDOF 0
ENDMDL
MODEL 8
REMARK VINA RESULT:    -2.285     14.077     14.550
REMARK INTER + INTRA:          -2.285
REMARK INTER:                  -2.285
REMARK INTRA:                   0.000
REMARK UNBOUND:                 0.000
REMARK SMILES CC(=O)[O-]
REMARK SMILES IDX 1 1 2 2 3 3 4 4
REMARK H PARENT
REMARK Flexibility Score: inf
ROOT
ATOM      1  C   UNL     1      13.634 -10.372  36.667  1.00  0.00     0.063 C 
ATOM      2  C   UNL     1      13.432 -10.749  35.238  1.00  0.00     0.038 C 
ATOM      3  O   UNL     1      12.275 -10.754  34.744  1.00  0.00    -0.550 OA
ATOM      4  O   UNL     1      14.527 -11.044  34.435  1.00  0.00    -0.550 OA
ENDROOT
TORSDOF 0
ENDMDL
MODEL 9
REMARK VINA RESULT:    -2.282     12.553     12.884
REMARK INTER + INTRA:          -2.282
REMARK INTER:                  -2.282
REMARK INTRA:                   0.000
REMARK UNBOUND:                 0.000
REMARK SMILES CC(=O)[O-]
REMARK SMILES IDX 1 1 2 2 3 3 4 4
REMARK H PARENT
REMARK Flexibility Score: inf
ROOT
ATOM      1  C   UNL     1      10.992 -15.356  36.660  1.00  0.00     0.063 C 
ATOM      2  C   UNL     1      11.865 -14.241  37.127  1.00  0.00     0.038 C 
ATOM      3  O   UNL     1      11.387 -13.087  37.282  1.00  0.00    -0.550 OA
ATOM      4  O   UNL     1      13.196 -14.485  37.445  1.00  0.00    -0.550 OA
ENDROOT
TORSDOF 0
ENDMDL
