MODEL 1
REMARK VINA RESULT:    -4.099      0.000      0.000
REMARK INTER + INTRA:          -6.435
REMARK INTER:                  -6.256
REMARK INTRA:                  -0.179
REMARK UNBOUND:                -0.179
REMARK SMILES CC1=CCC[C@@H](C)C(=O)C[C@@H](C(C)C)C(=O)C1
REMARK SMILES IDX 8 1 9 2 6 3 7 4 5 5 4 6 3 7 2 8 1 9 10 11 11 12 15 13 16 14
REMARK SMILES IDX 17 15 12 17 13 18 14 19
REMARK H PARENT
REMARK Flexibility Score: 70.00
ROOT
ATOM      1  C   UNL     1      -4.337  -2.266  -1.481  1.00  0.00     0.136 C 
ATOM      2  O   UNL     1      -4.421  -3.330  -2.078  1.00  0.00    -0.299 OA
ENDROOT
BRANCH   1   3
ATOM      3  C   UNL     1      -5.470  -1.813  -0.573  1.00  0.00     0.053 C 
ATOM      4  C   UNL     1      -6.776  -2.527  -0.947  1.00  0.00     0.016 C 
BRANCH   3   5
ATOM      5  C   UNL     1      -5.630  -0.266  -0.631  1.00  0.00     0.015 C 
BRANCH   5   6
ATOM      6  C   UNL     1      -5.287   0.478   0.678  1.00  0.00     0.028 C 
BRANCH   6   7
ATOM      7  C   UNL     1      -4.490  -0.302   1.703  1.00  0.00    -0.028 C 
ATOM      8  C   UNL     1      -3.143  -0.433   1.742  1.00  0.00    -0.070 CG0
ATOM      9  C   UNL     1      -2.536  -1.143   2.928  1.00  0.00     0.039 C 
ATOM     10  G   UNL     1      -2.223   0.080   0.654  1.00  0.00     0.000 G0
ENDBRANCH   6   7
ENDBRANCH   5   6
ENDBRANCH   3   5
ENDBRANCH   1   3
BRANCH   1  11
ATOM     11  C   UNL     1      -3.119  -1.399  -1.687  1.00  0.00     0.087 C 
BRANCH  11  12
ATOM     12  C   UNL     1      -1.824  -1.963  -1.024  1.00  0.00     0.066 C 
BRANCH  12  13
ATOM     13  C   UNL     1      -1.332  -1.022   0.076  1.00  0.00     0.140 C 
ATOM     14  O   UNL     1      -0.207  -1.169   0.535  1.00  0.00    -0.299 OA
BRANCH  13  15
ATOM     15  C   UNL     1      -2.198   0.074   0.649  1.00  0.00     0.106 CG0
ATOM     16  G   UNL     1      -3.132  -0.431   1.729  1.00  0.00     0.000 G0
ENDBRANCH  13  15
ENDBRANCH  12  13
BRANCH  12  17
ATOM     17  C   UNL     1      -0.682  -2.310  -2.040  1.00  0.00    -0.006 C 
ATOM     18  C   UNL     1      -0.570  -3.834  -2.239  1.00  0.00     0.008 C 
ATOM     19  C   UNL     1      -0.888  -1.652  -3.417  1.00  0.00     0.008 C 
ENDBRANCH  12  17
ENDBRANCH  11  12
ENDBRANCH   1  11
TORSDOF 1
ENDMDL
MODEL 2
REMARK VINA RESULT:    -4.065      1.601      3.998
REMARK INTER + INTRA:          -6.383
REMARK INTER:                  -6.448
REMARK INTRA:                   0.065
REMARK UNBOUND:                -0.179
REMARK SMILES CC1=CCC[C@@H](C)C(=O)C[C@@H](C(C)C)C(=O)C1
REMARK SMILES IDX 8 1 9 2 6 3 7 4 5 5 4 6 3 7 2 8 1 9 10 11 11 12 15 13 16 14
REMARK SMILES IDX 17 15 12 17 13 18 14 19
REMARK H PARENT
REMARK Flexibility Score: 70.00
ROOT
ATOM      1  C   UNL     1      -5.163  -2.517  -0.579  1.00  0.00     0.136 C 
ATOM      2  O   UNL     1      -6.332  -2.870  -0.638  1.00  0.00    -0.299 OA
ENDROOT
BRANCH   1   3
ATOM      3  C   UNL     1      -4.343  -2.384  -1.852  1.00  0.00     0.053 C 
ATOM      4  C   UNL     1      -4.977  -3.201  -2.987  1.00  0.00     0.016 C 
BRANCH   3   5
ATOM      5  C   UNL     1      -2.868  -2.810  -1.599  1.00  0.00     0.015 C 
BRANCH   5   6
ATOM      6  C   UNL     1      -1.842  -1.656  -1.601  1.00  0.00     0.028 C 
BRANCH   6   7
ATOM      7  C   UNL     1      -0.706  -1.767  -0.606  1.00  0.00    -0.028 C 
ATOM      8  C   UNL     1      -0.613  -1.124   0.582  1.00  0.00    -0.070 CG0
ATOM      9  C   UNL     1       0.541  -1.477   1.489  1.00  0.00     0.039 C 
ATOM     10  G   UNL     1      -1.596  -0.065   1.036  1.00  0.00     0.000 G0
ENDBRANCH   6   7
ENDBRANCH   5   6
ENDBRANCH   3   5
ENDBRANCH   1   3
BRANCH   1  11
ATOM     11  C   UNL     1      -4.541  -2.255   0.772  1.00  0.00     0.087 C 
BRANCH  11  12
ATOM     12  C   UNL     1      -4.181  -0.757   1.021  1.00  0.00     0.066 C 
BRANCH  12  13
ATOM     13  C   UNL     1      -2.830  -0.640   1.725  1.00  0.00     0.140 C 
ATOM     14  O   UNL     1      -2.725  -1.002   2.890  1.00  0.00    -0.299 OA
BRANCH  13  15
ATOM     15  C   UNL     1      -1.612  -0.062   1.046  1.00  0.00     0.106 CG0
ATOM     16  G   UNL     1      -0.642  -1.131   0.588  1.00  0.00     0.000 G0
ENDBRANCH  13  15
ENDBRANCH  12  13
BRANCH  12  17
ATOM     17  C   UNL     1      -5.294   0.054   1.769  1.00  0.00    -0.006 C 
ATOM     18  C   UNL     1      -4.733   1.382   2.313  1.00  0.00     0.008 C 
ATOM     19  C   UNL     1      -6.508   0.368   0.873  1.00  0.00     0.008 C 
ENDBRANCH  12  17
ENDBRANCH  11  12
ENDBRANCH   1  11
TORSDOF 1
ENDMDL
MODEL 3
REMARK VINA RESULT:    -4.016      1.550      3.988
REMARK INTER + INTRA:          -6.308
REMARK INTER:                  -6.310
REMARK INTRA:                   0.003
REMARK UNBOUND:                -0.179
REMARK SMILES CC1=CCC[C@@H](C)C(=O)C[C@@H](C(C)C)C(=O)C1
REMARK SMILES IDX 8 1 9 2 6 3 7 4 5 5 4 6 3 7 2 8 1 9 10 11 11 12 15 13 16 14
REMARK SMILES IDX 17 15 12 17 13 18 14 19
REMARK H PARENT
REMARK Flexibility Score: 70.00
ROOT
ATOM      1  C   UNL     1      -2.512  -2.054  -1.807  1.00  0.00     0.136 C 
ATOM      2  O   UNL     1      -1.886  -3.104  -1.767  1.00  0.00    -0.299 OA
ENDROOT
BRANCH   1   3
ATOM      3  C   UNL     1      -1.796  -0.754  -2.138  1.00  0.00     0.053 C 
ATOM      4  C   UNL     1      -1.500  -0.672  -3.642  1.00  0.00     0.016 C 
BRANCH   3   5
ATOM      5  C   UNL     1      -0.497  -0.616  -1.293  1.00  0.00     0.015 C 
BRANCH   5   6
ATOM      6  C   UNL     1      -0.596   0.347  -0.090  1.00  0.00     0.028 C 
BRANCH   6   7
ATOM      7  C   UNL     1      -0.613  -0.295   1.282  1.00  0.00    -0.028 C 
ATOM      8  C   UNL     1      -1.710  -0.566   2.028  1.00  0.00    -0.070 CG0
ATOM      9  C   UNL     1      -1.519  -1.333   3.314  1.00  0.00     0.039 C 
ATOM     10  G   UNL     1      -3.109  -0.128   1.644  1.00  0.00     0.000 G0
ENDBRANCH   6   7
ENDBRANCH   5   6
ENDBRANCH   3   5
ENDBRANCH   1   3
BRANCH   1  11
ATOM     11  C   UNL     1      -3.987  -2.064  -1.488  1.00  0.00     0.087 C 
BRANCH  11  12
ATOM     12  C   UNL     1      -4.431  -0.925  -0.518  1.00  0.00     0.066 C 
BRANCH  12  13
ATOM     13  C   UNL     1      -3.892  -1.179   0.889  1.00  0.00     0.140 C 
ATOM     14  O   UNL     1      -4.104  -2.257   1.429  1.00  0.00    -0.299 OA
BRANCH  13  15
ATOM     15  C   UNL     1      -3.128  -0.132   1.663  1.00  0.00     0.106 CG0
ATOM     16  G   UNL     1      -1.727  -0.583   2.020  1.00  0.00     0.000 G0
ENDBRANCH  13  15
ENDBRANCH  12  13
BRANCH  12  17
ATOM     17  C   UNL     1      -5.975  -0.659  -0.506  1.00  0.00    -0.006 C 
ATOM     18  C   UNL     1      -6.761  -1.982  -0.606  1.00  0.00     0.008 C 
ATOM     19  C   UNL     1      -6.442   0.092   0.755  1.00  0.00     0.008 C 
ENDBRANCH  12  17
ENDBRANCH  11  12
ENDBRANCH   1  11
TORSDOF 1
ENDMDL
MODEL 4
REMARK VINA RESULT:    -3.994      1.938      3.962
REMARK INTER + INTRA:          -6.274
REMARK INTER:                  -6.375
REMARK INTRA:                   0.101
REMARK UNBOUND:                -0.179
REMARK SMILES CC1=CCC[C@@H](C)C(=O)C[C@@H](C(C)C)C(=O)C1
REMARK SMILES IDX 8 1 9 2 6 3 7 4 5 5 4 6 3 7 2 8 1 9 10 11 11 12 15 13 16 14
REMARK SMILES IDX 17 15 12 17 13 18 14 19
REMARK H PARENT
REMARK Flexibility Score: 70.00
ROOT
ATOM      1  C   UNL     1      -4.240  -0.426   1.545  1.00  0.00     0.136 C 
ATOM      2  O   UNL     1      -4.261   0.586   2.231  1.00  0.00    -0.299 OA
ENDROOT
BRANCH   1   3
ATOM      3  C   UNL     1      -5.323  -0.662   0.504  1.00  0.00     0.053 C 
ATOM      4  C   UNL     1      -6.584   0.142   0.849  1.00  0.00     0.016 C 
BRANCH   3   5
ATOM      5  C   UNL     1      -5.634  -2.181   0.373  1.00  0.00     0.015 C 
BRANCH   5   6
ATOM      6  C   UNL     1      -5.084  -2.855  -0.903  1.00  0.00     0.028 C 
BRANCH   6   7
ATOM      7  C   UNL     1      -4.278  -1.974  -1.834  1.00  0.00    -0.028 C 
ATOM      8  C   UNL     1      -2.935  -1.804  -1.816  1.00  0.00    -0.070 CG0
ATOM      9  C   UNL     1      -2.312  -0.983  -2.919  1.00  0.00     0.039 C 
ATOM     10  G   UNL     1      -2.036  -2.381  -0.743  1.00  0.00     0.000 G0
ENDBRANCH   6   7
ENDBRANCH   5   6
ENDBRANCH   3   5
ENDBRANCH   1   3
BRANCH   1  11
ATOM     11  C   UNL     1      -3.153  -1.448   1.774  1.00  0.00     0.087 C 
BRANCH  11  12
ATOM     12  C   UNL     1      -1.717  -0.923   1.463  1.00  0.00     0.066 C 
BRANCH  12  13
ATOM     13  C   UNL     1      -1.304  -1.302   0.041  1.00  0.00     0.140 C 
ATOM     14  O   UNL     1      -0.376  -0.710  -0.494  1.00  0.00    -0.299 OA
BRANCH  13  15
ATOM     15  C   UNL     1      -2.021  -2.367  -0.753  1.00  0.00     0.106 CG0
ATOM     16  G   UNL     1      -2.939  -1.784  -1.807  1.00  0.00     0.000 G0
ENDBRANCH  13  15
ENDBRANCH  12  13
BRANCH  12  17
ATOM     17  C   UNL     1      -0.636  -1.352   2.513  1.00  0.00    -0.006 C 
ATOM     18  C   UNL     1      -1.055  -0.932   3.935  1.00  0.00     0.008 C 
ATOM     19  C   UNL     1      -0.372  -2.870   2.511  1.00  0.00     0.008 C 
ENDBRANCH  12  17
ENDBRANCH  11  12
ENDBRANCH   1  11
TORSDOF 1
ENDMDL
MODEL 5
REMARK VINA RESULT:    -3.834      1.899      4.041
REMARK INTER + INTRA:          -6.030
REMARK INTER:                  -5.627
REMARK INTRA:                  -0.403
REMARK UNBOUND:                -0.179
REMARK SMILES CC1=CCC[C@@H](C)C(=O)C[C@@H](C(C)C)C(=O)C1
REMARK SMILES IDX 8 1 9 2 6 3 7 4 5 5 4 6 3 7 2 8 1 9 10 11 11 12 15 13 16 14
REMARK SMILES IDX 17 15 12 17 13 18 14 19
REMARK H PARENT
REMARK Flexibility Score: 70.00
ROOT
ATOM      1  C   UNL     1      -1.413  -0.766  -1.199  1.00  0.00     0.136 C 
ATOM      2  O   UNL     1      -1.249   0.115  -2.030  1.00  0.00    -0.299 OA
ENDROOT
BRANCH   1   3
ATOM      3  C   UNL     1      -1.661  -2.198  -1.647  1.00  0.00     0.053 C 
ATOM      4  C   UNL     1      -0.474  -2.714  -2.473  1.00  0.00     0.016 C 
BRANCH   3   5
ATOM      5  C   UNL     1      -2.994  -2.299  -2.442  1.00  0.00     0.015 C 
BRANCH   5   6
ATOM      6  C   UNL     1      -4.189  -2.871  -1.649  1.00  0.00     0.028 C 
BRANCH   6   7
ATOM      7  C   UNL     1      -5.220  -1.868  -1.173  1.00  0.00    -0.028 C 
ATOM      8  C   UNL     1      -5.375  -1.417   0.094  1.00  0.00    -0.070 CG0
ATOM      9  C   UNL     1      -6.378  -0.314   0.334  1.00  0.00     0.039 C 
ATOM     10  G   UNL     1      -4.609  -1.971   1.277  1.00  0.00     0.000 G0
ENDBRANCH   6   7
ENDBRANCH   5   6
ENDBRANCH   3   5
ENDBRANCH   1   3
BRANCH   1  11
ATOM     11  C   UNL     1      -1.405  -0.407   0.267  1.00  0.00     0.087 C 
BRANCH  11  12
ATOM     12  C   UNL     1      -1.985  -1.520   1.194  1.00  0.00     0.066 C 
BRANCH  12  13
ATOM     13  C   UNL     1      -3.394  -1.152   1.657  1.00  0.00     0.140 C 
ATOM     14  O   UNL     1      -3.555  -0.171   2.371  1.00  0.00    -0.299 OA
BRANCH  13  15
ATOM     15  C   UNL     1      -4.606  -1.975   1.294  1.00  0.00     0.106 CG0
ATOM     16  G   UNL     1      -5.367  -1.398   0.118  1.00  0.00     0.000 G0
ENDBRANCH  13  15
ENDBRANCH  12  13
BRANCH  12  17
ATOM     17  C   UNL     1      -1.060  -1.897   2.401  1.00  0.00    -0.006 C 
ATOM     18  C   UNL     1      -0.056  -2.996   2.001  1.00  0.00     0.008 C 
ATOM     19  C   UNL     1      -0.271  -0.691   2.947  1.00  0.00     0.008 C 
ENDBRANCH  12  17
ENDBRANCH  11  12
ENDBRANCH   1  11
TORSDOF 1
ENDMDL
MODEL 6
REMARK VINA RESULT:    -3.767      1.467      3.888
REMARK INTER + INTRA:          -5.928
REMARK INTER:                  -5.410
REMARK INTRA:                  -0.517
REMARK UNBOUND:                -0.179
REMARK SMILES CC1=CCC[C@@H](C)C(=O)C[C@@H](C(C)C)C(=O)C1
REMARK SMILES IDX 8 1 9 2 6 3 7 4 5 5 4 6 3 7 2 8 1 9 10 11 11 12 15 13 16 14
REMARK SMILES IDX 17 15 12 17 13 18 14 19
REMARK H PARENT
REMARK Flexibility Score: 70.00
ROOT
ATOM      1  C   UNL     1      -0.797  -1.549   0.857  1.00  0.00     0.136 C 
ATOM      2  O   UNL     1      -0.154  -2.230   1.644  1.00  0.00    -0.299 OA
ENDROOT
BRANCH   1   3
ATOM      3  C   UNL     1      -1.220  -0.140   1.239  1.00  0.00     0.053 C 
ATOM      4  C   UNL     1       0.005   0.781   1.333  1.00  0.00     0.016 C 
BRANCH   3   5
ATOM      5  C   UNL     1      -2.025  -0.153   2.570  1.00  0.00     0.015 C 
BRANCH   5   6
ATOM      6  C   UNL     1      -3.356  -0.934   2.524  1.00  0.00     0.028 C 
BRANCH   6   7
ATOM      7  C   UNL     1      -4.435  -0.369   1.623  1.00  0.00    -0.028 C 
ATOM      8  C   UNL     1      -4.941  -0.956   0.513  1.00  0.00    -0.070 CG0
ATOM      9  C   UNL     1      -6.109  -0.285  -0.171  1.00  0.00     0.039 C 
ATOM     10  G   UNL     1      -4.388  -2.234  -0.081  1.00  0.00     0.000 G0
ENDBRANCH   6   7
ENDBRANCH   5   6
ENDBRANCH   3   5
ENDBRANCH   1   3
BRANCH   1  11
ATOM     11  C   UNL     1      -1.194  -2.140  -0.474  1.00  0.00     0.087 C 
BRANCH  11  12
ATOM     12  C   UNL     1      -2.215  -1.271  -1.272  1.00  0.00     0.066 C 
BRANCH  12  13
ATOM     13  C   UNL     1      -3.573  -1.970  -1.343  1.00  0.00     0.140 C 
ATOM     14  O   UNL     1      -4.018  -2.309  -2.431  1.00  0.00    -0.299 OA
BRANCH  13  15
ATOM     15  C   UNL     1      -4.412  -2.233  -0.116  1.00  0.00     0.106 CG0
ATOM     16  G   UNL     1      -4.951  -0.960   0.501  1.00  0.00     0.000 G0
ENDBRANCH  13  15
ENDBRANCH  12  13
BRANCH  12  17
ATOM     17  C   UNL     1      -1.715  -0.835  -2.691  1.00  0.00    -0.006 C 
ATOM     18  C   UNL     1      -1.001   0.530  -2.625  1.00  0.00     0.008 C 
ATOM     19  C   UNL     1      -0.753  -1.857  -3.326  1.00  0.00     0.008 C 
ENDBRANCH  12  17
ENDBRANCH  11  12
ENDBRANCH   1  11
TORSDOF 1
ENDMDL
MODEL 7
REMARK VINA RESULT:    -3.726      1.851      4.957
REMARK INTER + INTRA:          -5.866
REMARK INTER:                  -5.691
REMARK INTRA:                  -0.175
REMARK UNBOUND:                -0.179
REMARK SMILES CC1=CCC[C@@H](C)C(=O)C[C@@H](C(C)C)C(=O)C1
REMARK SMILES IDX 8 1 9 2 6 3 7 4 5 5 4 6 3 7 2 8 1 9 10 11 11 12 15 13 16 14
REMARK SMILES IDX 17 15 12 17 13 18 14 19
REMARK H PARENT
REMARK Flexibility Score: 70.00
ROOT
ATOM      1  C   UNL     1      -2.421  -0.865   2.103  1.00  0.00     0.136 C 
ATOM      2  O   UNL     1      -3.098  -1.387   2.978  1.00  0.00    -0.299 OA
ENDROOT
BRANCH   1   3
ATOM      3  C   UNL     1      -0.909  -0.802   2.247  1.00  0.00     0.053 C 
ATOM      4  C   UNL     1      -0.518  -0.603   3.718  1.00  0.00     0.016 C 
BRANCH   3   5
ATOM      5  C   UNL     1      -0.320   0.321   1.345  1.00  0.00     0.015 C 
BRANCH   5   6
ATOM      6  C   UNL     1       0.671  -0.160   0.263  1.00  0.00     0.028 C 
BRANCH   6   7
ATOM      7  C   UNL     1       0.356  -1.488  -0.393  1.00  0.00    -0.028 C 
ATOM      8  C   UNL     1      -0.638  -1.730  -1.279  1.00  0.00    -0.070 CG0
ATOM      9  C   UNL     1      -0.698  -3.096  -1.919  1.00  0.00     0.039 C 
ATOM     10  G   UNL     1      -1.694  -0.709  -1.647  1.00  0.00     0.000 G0
ENDBRANCH   6   7
ENDBRANCH   5   6
ENDBRANCH   3   5
ENDBRANCH   1   3
BRANCH   1  11
ATOM     11  C   UNL     1      -3.109  -0.255   0.906  1.00  0.00     0.087 C 
BRANCH  11  12
ATOM     12  C   UNL     1      -3.749  -1.304  -0.057  1.00  0.00     0.066 C 
BRANCH  12  13
ATOM     13  C   UNL     1      -3.109  -1.221  -1.442  1.00  0.00     0.140 C 
ATOM     14  O   UNL     1      -3.735  -1.611  -2.418  1.00  0.00    -0.299 OA
BRANCH  13  15
ATOM     15  C   UNL     1      -1.708  -0.701  -1.655  1.00  0.00     0.106 CG0
ATOM     16  G   UNL     1      -0.650  -1.720  -1.286  1.00  0.00     0.000 G0
ENDBRANCH  13  15
ENDBRANCH  12  13
BRANCH  12  17
ATOM     17  C   UNL     1      -5.312  -1.229  -0.137  1.00  0.00    -0.006 C 
ATOM     18  C   UNL     1      -5.953  -2.501   0.453  1.00  0.00     0.008 C 
ATOM     19  C   UNL     1      -5.890  -0.006   0.598  1.00  0.00     0.008 C 
ENDBRANCH  12  17
ENDBRANCH  11  12
ENDBRANCH   1  11
TORSDOF 1
ENDMDL
MODEL 8
REMARK VINA RESULT:    -3.666      1.917      4.116
REMARK INTER + INTRA:          -5.773
REMARK INTER:                  -5.454
REMARK INTRA:                  -0.319
REMARK UNBOUND:                -0.179
REMARK SMILES CC1=CCC[C@@H](C)C(=O)C[C@@H](C(C)C)C(=O)C1
REMARK SMILES IDX 8 1 9 2 6 3 7 4 5 5 4 6 3 7 2 8 1 9 10 11 11 12 15 13 16 14
REMARK SMILES IDX 17 15 12 17 13 18 14 19
REMARK H PARENT
REMARK Flexibility Score: 70.00
ROOT
ATOM      1  C   UNL     1      -3.659  -1.179   1.308  1.00  0.00     0.136 C 
ATOM      2  O   UNL     1      -4.054  -2.328   1.174  1.00  0.00    -0.299 OA
ENDROOT
BRANCH   1   3
ATOM      3  C   UNL     1      -4.354  -0.044   0.572  1.00  0.00     0.053 C 
ATOM      4  C   UNL     1      -5.750   0.201   1.162  1.00  0.00     0.016 C 
BRANCH   3   5
ATOM      5  C   UNL     1      -4.425  -0.344  -0.953  1.00  0.00     0.015 C 
BRANCH   5   6
ATOM      6  C   UNL     1      -3.075  -0.275  -1.698  1.00  0.00     0.028 C 
BRANCH   6   7
ATOM      7  C   UNL     1      -2.494  -1.596  -2.159  1.00  0.00    -0.028 C 
ATOM      8  C   UNL     1      -1.311  -2.129  -1.776  1.00  0.00    -0.070 CG0
ATOM      9  C   UNL     1      -0.977  -3.523  -2.250  1.00  0.00     0.039 C 
ATOM     10  G   UNL     1      -0.306  -1.396  -0.912  1.00  0.00     0.000 G0
ENDBRANCH   6   7
ENDBRANCH   5   6
ENDBRANCH   3   5
ENDBRANCH   1   3
BRANCH   1  11
ATOM     11  C   UNL     1      -2.455  -0.911   2.179  1.00  0.00     0.087 C 
BRANCH  11  12
ATOM     12  C   UNL     1      -1.210  -0.395   1.394  1.00  0.00     0.066 C 
BRANCH  12  13
ATOM     13  C   UNL     1      -0.586  -1.526   0.576  1.00  0.00     0.140 C 
ATOM     14  O   UNL     1      -0.277  -2.571   1.132  1.00  0.00    -0.299 OA
BRANCH  13  15
ATOM     15  C   UNL     1      -0.303  -1.394  -0.901  1.00  0.00     0.106 CG0
ATOM     16  G   UNL     1      -1.310  -2.139  -1.753  1.00  0.00     0.000 G0
ENDBRANCH  13  15
ENDBRANCH  12  13
BRANCH  12  17
ATOM     17  C   UNL     1      -0.143   0.328   2.286  1.00  0.00    -0.006 C 
ATOM     18  C   UNL     1      -0.358   1.854   2.269  1.00  0.00     0.008 C 
ATOM     19  C   UNL     1      -0.166  -0.152   3.750  1.00  0.00     0.008 C 
ENDBRANCH  12  17
ENDBRANCH  11  12
ENDBRANCH   1  11
TORSDOF 1
ENDMDL
MODEL 9
REMARK VINA RESULT:    -3.232      5.114      6.824
REMARK INTER + INTRA:          -5.112
REMARK INTER:                  -4.840
REMARK INTRA:                  -0.272
REMARK UNBOUND:                -0.179
REMARK SMILES CC1=CCC[C@@H](C)C(=O)C[C@@H](C(C)C)C(=O)C1
REMARK SMILES IDX 8 1 9 2 6 3 7 4 5 5 4 6 3 7 2 8 1 9 10 11 11 12 15 13 16 14
REMARK SMILES IDX 17 15 12 17 13 18 14 19
REMARK H PARENT
REMARK Flexibility Score: 70.00
ROOT
ATOM      1  C   UNL     1      -0.784  -0.962   3.453  1.00  0.00     0.136 C 
ATOM      2  O   UNL     1      -1.957  -1.302   3.499  1.00  0.00    -0.299 OA
ENDROOT
BRANCH   1   3
ATOM      3  C   UNL     1       0.303  -1.913   3.930  1.00  0.00     0.053 C 
ATOM      4  C   UNL     1      -0.005  -3.348   3.481  1.00  0.00     0.016 C 
BRANCH   3   5
ATOM      5  C   UNL     1       0.468  -1.823   5.474  1.00  0.00     0.015 C 
BRANCH   5   6
ATOM      6  C   UNL     1       1.862  -1.367   5.959  1.00  0.00     0.028 C 
BRANCH   6   7
ATOM      7  C   UNL     1       1.903  -0.096   6.780  1.00  0.00    -0.028 C 
ATOM      8  C   UNL     1       2.191   1.146   6.323  1.00  0.00    -0.070 CG0
ATOM      9  C   UNL     1       2.047   2.303   7.282  1.00  0.00     0.039 C 
ATOM     10  G   UNL     1       2.661   1.427   4.912  1.00  0.00     0.000 G0
ENDBRANCH   6   7
ENDBRANCH   5   6
ENDBRANCH   3   5
ENDBRANCH   1   3
BRANCH   1  11
ATOM     11  C   UNL     1      -0.436   0.420   2.955  1.00  0.00     0.087 C 
BRANCH  11  12
ATOM     12  C   UNL     1       1.097   0.696   2.876  1.00  0.00     0.066 C 
BRANCH  12  13
ATOM     13  C   UNL     1       1.517   1.699   3.950  1.00  0.00     0.140 C 
ATOM     14  O   UNL     1       0.933   2.771   4.034  1.00  0.00    -0.299 OA
BRANCH  13  15
ATOM     15  C   UNL     1       2.657   1.433   4.904  1.00  0.00     0.106 CG0
ATOM     16  G   UNL     1       2.180   1.155   6.314  1.00  0.00     0.000 G0
ENDBRANCH  13  15
ENDBRANCH  12  13
BRANCH  12  17
ATOM     17  C   UNL     1       1.600   1.126   1.456  1.00  0.00    -0.006 C 
ATOM     18  C   UNL     1       2.967   0.489   1.141  1.00  0.00     0.008 C 
ATOM     19  C   UNL     1       0.614   0.747   0.334  1.00  0.00     0.008 C 
ENDBRANCH  12  17
ENDBRANCH  11  12
ENDBRANCH   1  11
TORSDOF 1
ENDMDL
