MODEL 1
REMARK VINA RESULT:    -3.880      0.000      0.000
REMARK INTER + INTRA:          -6.214
REMARK INTER:                  -5.695
REMARK INTRA:                  -0.519
REMARK UNBOUND:                -0.519
REMARK SMILES O=C([O-])CCCCCCCC(=O)[O-]
REMARK SMILES IDX 7 1 6 2 5 3 4 4 2 5 1 6 3 7 8 8 9 9 10 10 11 11 12 12 13 13
REMARK H PARENT
REMARK Flexibility Score: inf
ROOT
ATOM      1  C   UNL     1      -8.129  15.342 -15.980  1.00  0.00     0.000 C 
ENDROOT
BRANCH   1   2
ATOM      2  C   UNL     1      -7.596  16.786 -15.924  1.00  0.00     0.000 C 
BRANCH   2   3
ATOM      3  C   UNL     1      -7.350  17.268 -14.485  1.00  0.00     0.006 C 
BRANCH   3   4
ATOM      4  C   UNL     1      -8.551  18.024 -13.904  1.00  0.00     0.053 C 
BRANCH   4   5
ATOM      5  C   UNL     1      -9.188  17.229 -12.808  1.00  0.00     0.041 C 
ATOM      6  O   UNL     1      -8.743  17.302 -11.632  1.00  0.00    -0.550 OA
ATOM      7  O   UNL     1     -10.303  16.445 -13.075  1.00  0.00    -0.550 OA
ENDBRANCH   4   5
ENDBRANCH   3   4
ENDBRANCH   2   3
ENDBRANCH   1   2
BRANCH   1   8
ATOM      8  C   UNL     1      -7.006  14.296 -15.901  1.00  0.00     0.000 C 
BRANCH   8   9
ATOM      9  C   UNL     1      -7.524  12.904 -15.499  1.00  0.00     0.006 C 
BRANCH   9  10
ATOM     10  C   UNL     1      -8.132  12.898 -14.090  1.00  0.00     0.053 C 
BRANCH  10  11
ATOM     11  C   UNL     1      -7.134  13.312 -13.054  1.00  0.00     0.041 C 
ATOM     12  O   UNL     1      -5.962  12.848 -13.080  1.00  0.00    -0.550 OA
ATOM     13  O   UNL     1      -7.506  14.184 -12.038  1.00  0.00    -0.550 OA
ENDBRANCH  10  11
ENDBRANCH   9  10
ENDBRANCH   8   9
ENDBRANCH   1   8
TORSDOF 8
ENDMDL
MODEL 2
REMARK VINA RESULT:    -3.873      2.647      5.381
REMARK INTER + INTRA:          -6.203
REMARK INTER:                  -5.729
REMARK INTRA:                  -0.474
REMARK UNBOUND:                -0.519
REMARK SMILES O=C([O-])CCCCCCCC(=O)[O-]
REMARK SMILES IDX 7 1 6 2 5 3 4 4 2 5 1 6 3 7 8 8 9 9 10 10 11 11 12 12 13 13
REMARK H PARENT
REMARK Flexibility Score: inf
ROOT
ATOM      1  C   UNL     1      -9.500  16.298 -12.708  1.00  0.00     0.000 C 
ENDROOT
BRANCH   1   2
ATOM      2  C   UNL     1      -8.337  15.363 -12.328  1.00  0.00     0.000 C 
BRANCH   2   3
ATOM      3  C   UNL     1      -7.689  14.699 -13.553  1.00  0.00     0.006 C 
BRANCH   3   4
ATOM      4  C   UNL     1      -8.378  13.386 -13.945  1.00  0.00     0.053 C 
BRANCH   4   5
ATOM      5  C   UNL     1      -9.233  13.586 -15.155  1.00  0.00     0.041 C 
ATOM      6  O   UNL     1     -10.104  12.730 -15.465  1.00  0.00    -0.550 OA
ATOM      7  O   UNL     1      -9.105  14.742 -15.915  1.00  0.00    -0.550 OA
ENDBRANCH   4   5
ENDBRANCH   3   4
ENDBRANCH   2   3
ENDBRANCH   1   2
BRANCH   1   8
ATOM      8  C   UNL     1      -9.059  17.765 -12.834  1.00  0.00     0.000 C 
BRANCH   8   9
ATOM      9  C   UNL     1      -8.432  18.076 -14.204  1.00  0.00     0.006 C 
BRANCH   9  10
ATOM     10  C   UNL     1      -7.069  18.771 -14.072  1.00  0.00     0.053 C 
BRANCH  10  11
ATOM     11  C   UNL     1      -7.206  20.159 -13.529  1.00  0.00     0.041 C 
ATOM     12  O   UNL     1      -6.723  20.450 -12.402  1.00  0.00    -0.550 OA
ATOM     13  O   UNL     1      -7.896  21.125 -14.252  1.00  0.00    -0.550 OA
ENDBRANCH  10  11
ENDBRANCH   9  10
ENDBRANCH   8   9
ENDBRANCH   1   8
TORSDOF 8
ENDMDL
MODEL 3
REMARK VINA RESULT:    -3.784      1.602      4.224
REMARK INTER + INTRA:          -6.074
REMARK INTER:                  -5.405
REMARK INTRA:                  -0.668
REMARK UNBOUND:                -0.519
REMARK SMILES O=C([O-])CCCCCCCC(=O)[O-]
REMARK SMILES IDX 7 1 6 2 5 3 4 4 2 5 1 6 3 7 8 8 9 9 10 10 11 11 12 12 13 13
REMARK H PARENT
REMARK Flexibility Score: inf
ROOT
ATOM      1  C   UNL     1      -8.154  16.141 -15.945  1.00  0.00     0.000 C 
ENDROOT
BRANCH   1   2
ATOM      2  C   UNL     1      -8.204  14.603 -15.995  1.00  0.00     0.000 C 
BRANCH   2   3
ATOM      3  C   UNL     1      -8.527  13.979 -14.628  1.00  0.00     0.006 C 
BRANCH   3   4
ATOM      4  C   UNL     1      -8.869  15.032 -13.566  1.00  0.00     0.053 C 
BRANCH   4   5
ATOM      5  C   UNL     1      -7.921  14.938 -12.413  1.00  0.00     0.041 C 
ATOM      6  O   UNL     1      -7.704  15.944 -11.687  1.00  0.00    -0.550 OA
ATOM      7  O   UNL     1      -7.313  13.726 -12.109  1.00  0.00    -0.550 OA
ENDBRANCH   4   5
ENDBRANCH   3   4
ENDBRANCH   2   3
ENDBRANCH   1   2
BRANCH   1   8
ATOM      8  C   UNL     1      -6.719  16.681 -15.842  1.00  0.00     0.000 C 
BRANCH   8   9
ATOM      9  C   UNL     1      -6.636  17.989 -15.036  1.00  0.00     0.006 C 
BRANCH   9  10
ATOM     10  C   UNL     1      -8.011  18.647 -14.858  1.00  0.00     0.053 C 
BRANCH  10  11
ATOM     11  C   UNL     1      -8.260  19.031 -13.432  1.00  0.00     0.041 C 
ATOM     12  O   UNL     1      -9.235  18.540 -12.804  1.00  0.00    -0.550 OA
ATOM     13  O   UNL     1      -7.435  19.958 -12.807  1.00  0.00    -0.550 OA
ENDBRANCH  10  11
ENDBRANCH   9  10
ENDBRANCH   8   9
ENDBRANCH   1   8
TORSDOF 8
ENDMDL
MODEL 4
REMARK VINA RESULT:    -3.771      2.226      4.988
REMARK INTER + INTRA:          -6.053
REMARK INTER:                  -5.640
REMARK INTRA:                  -0.414
REMARK UNBOUND:                -0.519
REMARK SMILES O=C([O-])CCCCCCCC(=O)[O-]
REMARK SMILES IDX 7 1 6 2 5 3 4 4 2 5 1 6 3 7 8 8 9 9 10 10 11 11 12 12 13 13
REMARK H PARENT
REMARK Flexibility Score: inf
ROOT
ATOM      1  C   UNL     1      -8.440  17.788 -16.099  1.00  0.00     0.000 C 
ENDROOT
BRANCH   1   2
ATOM      2  C   UNL     1      -7.676  16.655 -15.390  1.00  0.00     0.000 C 
BRANCH   2   3
ATOM      3  C   UNL     1      -8.483  15.349 -15.325  1.00  0.00     0.006 C 
BRANCH   3   4
ATOM      4  C   UNL     1      -8.522  14.749 -13.914  1.00  0.00     0.053 C 
BRANCH   4   5
ATOM      5  C   UNL     1      -8.820  15.811 -12.904  1.00  0.00     0.041 C 
ATOM      6  O   UNL     1      -9.951  16.366 -12.883  1.00  0.00    -0.550 OA
ATOM      7  O   UNL     1      -7.867  16.154 -11.952  1.00  0.00    -0.550 OA
ENDBRANCH   4   5
ENDBRANCH   3   4
ENDBRANCH   2   3
ENDBRANCH   1   2
BRANCH   1   8
ATOM      8  C   UNL     1      -7.688  19.127 -16.050  1.00  0.00     0.000 C 
BRANCH   8   9
ATOM      9  C   UNL     1      -8.524  20.250 -15.411  1.00  0.00     0.006 C 
BRANCH   9  10
ATOM     10  C   UNL     1      -7.708  21.083 -14.413  1.00  0.00     0.053 C 
BRANCH  10  11
ATOM     11  C   UNL     1      -7.462  20.336 -13.139  1.00  0.00     0.041 C 
ATOM     12  O   UNL     1      -8.220  19.387 -12.803  1.00  0.00    -0.550 OA
ATOM     13  O   UNL     1      -6.415  20.709 -12.305  1.00  0.00    -0.550 OA
ENDBRANCH  10  11
ENDBRANCH   9  10
ENDBRANCH   8   9
ENDBRANCH   1   8
TORSDOF 8
ENDMDL
MODEL 5
REMARK VINA RESULT:    -3.769      1.526      2.283
REMARK INTER + INTRA:          -6.051
REMARK INTER:                  -5.145
REMARK INTRA:                  -0.907
REMARK UNBOUND:                -0.519
REMARK SMILES O=C([O-])CCCCCCCC(=O)[O-]
REMARK SMILES IDX 7 1 6 2 5 3 4 4 2 5 1 6 3 7 8 8 9 9 10 10 11 11 12 12 13 13
REMARK H PARENT
REMARK Flexibility Score: inf
ROOT
ATOM      1  C   UNL     1      -7.528  17.271 -16.112  1.00  0.00     0.000 C 
ENDROOT
BRANCH   1   2
ATOM      2  C   UNL     1      -8.148  18.472 -15.374  1.00  0.00     0.000 C 
BRANCH   2   3
ATOM      3  C   UNL     1      -7.686  18.568 -13.911  1.00  0.00     0.006 C 
BRANCH   3   4
ATOM      4  C   UNL     1      -8.837  18.375 -12.916  1.00  0.00     0.053 C 
BRANCH   4   5
ATOM      5  C   UNL     1      -9.062  16.920 -12.653  1.00  0.00     0.041 C 
ATOM      6  O   UNL     1     -10.166  16.387 -12.942  1.00  0.00    -0.550 OA
ATOM      7  O   UNL     1      -8.035  16.141 -12.134  1.00  0.00    -0.550 OA
ENDBRANCH   4   5
ENDBRANCH   3   4
ENDBRANCH   2   3
ENDBRANCH   1   2
BRANCH   1   8
ATOM      8  C   UNL     1      -6.476  16.538 -15.265  1.00  0.00     0.000 C 
BRANCH   8   9
ATOM      9  C   UNL     1      -6.707  15.018 -15.223  1.00  0.00     0.006 C 
BRANCH   9  10
ATOM     10  C   UNL     1      -8.121  14.634 -15.682  1.00  0.00     0.053 C 
BRANCH  10  11
ATOM     11  C   UNL     1      -8.733  13.603 -14.785  1.00  0.00     0.041 C 
ATOM     12  O   UNL     1      -9.938  13.267 -14.935  1.00  0.00    -0.550 OA
ATOM     13  O   UNL     1      -7.982  13.036 -13.763  1.00  0.00    -0.550 OA
ENDBRANCH  10  11
ENDBRANCH   9  10
ENDBRANCH   8   9
ENDBRANCH   1   8
TORSDOF 8
ENDMDL
MODEL 6
REMARK VINA RESULT:    -3.765      1.597      2.162
REMARK INTER + INTRA:          -6.045
REMARK INTER:                  -5.469
REMARK INTRA:                  -0.576
REMARK UNBOUND:                -0.519
REMARK SMILES O=C([O-])CCCCCCCC(=O)[O-]
REMARK SMILES IDX 7 1 6 2 5 3 4 4 2 5 1 6 3 7 8 8 9 9 10 10 11 11 12 12 13 13
REMARK H PARENT
REMARK Flexibility Score: inf
ROOT
ATOM      1  C   UNL     1      -8.177  16.187 -15.831  1.00  0.00     0.000 C 
ENDROOT
BRANCH   1   2
ATOM      2  C   UNL     1      -6.714  16.661 -15.757  1.00  0.00     0.000 C 
BRANCH   2   3
ATOM      3  C   UNL     1      -6.580  18.071 -15.158  1.00  0.00     0.006 C 
BRANCH   3   4
ATOM      4  C   UNL     1      -7.940  18.723 -14.880  1.00  0.00     0.053 C 
BRANCH   4   5
ATOM      5  C   UNL     1      -8.079  19.040 -13.425  1.00  0.00     0.041 C 
ATOM      6  O   UNL     1      -8.863  18.369 -12.702  1.00  0.00    -0.550 OA
ATOM      7  O   UNL     1      -7.305  20.044 -12.854  1.00  0.00    -0.550 OA
ENDBRANCH   4   5
ENDBRANCH   3   4
ENDBRANCH   2   3
ENDBRANCH   1   2
BRANCH   1   8
ATOM      8  C   UNL     1      -8.295  14.665 -16.001  1.00  0.00     0.000 C 
BRANCH   8   9
ATOM      9  C   UNL     1      -8.669  13.952 -14.690  1.00  0.00     0.006 C 
BRANCH   9  10
ATOM     10  C   UNL     1      -8.881  14.939 -13.534  1.00  0.00     0.053 C 
BRANCH  10  11
ATOM     11  C   UNL     1      -7.874  14.740 -12.444  1.00  0.00     0.041 C 
ATOM     12  O   UNL     1      -7.692  15.635 -11.577  1.00  0.00    -0.550 OA
ATOM     13  O   UNL     1      -7.111  13.579 -12.406  1.00  0.00    -0.550 OA
ENDBRANCH  10  11
ENDBRANCH   9  10
ENDBRANCH   8   9
ENDBRANCH   1   8
TORSDOF 8
ENDMDL
MODEL 7
REMARK VINA RESULT:    -3.739      0.831      4.237
REMARK INTER + INTRA:          -6.007
REMARK INTER:                  -5.434
REMARK INTRA:                  -0.573
REMARK UNBOUND:                -0.519
REMARK SMILES O=C([O-])CCCCCCCC(=O)[O-]
REMARK SMILES IDX 7 1 6 2 5 3 4 4 2 5 1 6 3 7 8 8 9 9 10 10 11 11 12 12 13 13
REMARK H PARENT
REMARK Flexibility Score: inf
ROOT
ATOM      1  C   UNL     1      -6.195  15.664 -15.472  1.00  0.00     0.000 C 
ENDROOT
BRANCH   1   2
ATOM      2  C   UNL     1      -7.286  14.772 -16.093  1.00  0.00     0.000 C 
BRANCH   2   3
ATOM      3  C   UNL     1      -7.432  13.427 -15.364  1.00  0.00     0.006 C 
BRANCH   3   4
ATOM      4  C   UNL     1      -8.215  13.550 -14.050  1.00  0.00     0.053 C 
BRANCH   4   5
ATOM      5  C   UNL     1      -7.278  13.562 -12.885  1.00  0.00     0.041 C 
ATOM      6  O   UNL     1      -6.124  13.069 -12.993  1.00  0.00    -0.550 OA
ATOM      7  O   UNL     1      -7.659  14.163 -11.691  1.00  0.00    -0.550 OA
ENDBRANCH   4   5
ENDBRANCH   3   4
ENDBRANCH   2   3
ENDBRANCH   1   2
BRANCH   1   8
ATOM      8  C   UNL     1      -6.507  17.162 -15.615  1.00  0.00     0.000 C 
BRANCH   8   9
ATOM      9  C   UNL     1      -6.578  17.882 -14.257  1.00  0.00     0.006 C 
BRANCH   9  10
ATOM     10  C   UNL     1      -7.973  18.460 -13.981  1.00  0.00     0.053 C 
BRANCH  10  11
ATOM     11  C   UNL     1      -8.851  17.475 -13.274  1.00  0.00     0.041 C 
ATOM     12  O   UNL     1      -8.836  17.400 -12.016  1.00  0.00    -0.550 OA
ATOM     13  O   UNL     1      -9.661  16.615 -14.005  1.00  0.00    -0.550 OA
ENDBRANCH  10  11
ENDBRANCH   9  10
ENDBRANCH   8   9
ENDBRANCH   1   8
TORSDOF 8
ENDMDL
MODEL 8
REMARK VINA RESULT:    -3.671      2.243      3.322
REMARK INTER + INTRA:          -5.907
REMARK INTER:                  -5.255
REMARK INTRA:                  -0.652
REMARK UNBOUND:                -0.519
REMARK SMILES O=C([O-])CCCCCCCC(=O)[O-]
REMARK SMILES IDX 7 1 6 2 5 3 4 4 2 5 1 6 3 7 8 8 9 9 10 10 11 11 12 12 13 13
REMARK H PARENT
REMARK Flexibility Score: inf
ROOT
ATOM      1  C   UNL     1      -6.733  17.800 -15.851  1.00  0.00     0.000 C 
ENDROOT
BRANCH   1   2
ATOM      2  C   UNL     1      -6.615  19.332 -15.940  1.00  0.00     0.000 C 
BRANCH   2   3
ATOM      3  C   UNL     1      -7.933  20.046 -15.604  1.00  0.00     0.006 C 
BRANCH   3   4
ATOM      4  C   UNL     1      -7.792  21.023 -14.430  1.00  0.00     0.053 C 
BRANCH   4   5
ATOM      5  C   UNL     1      -7.513  20.279 -13.163  1.00  0.00     0.041 C 
ATOM      6  O   UNL     1      -8.211  19.278 -12.849  1.00  0.00    -0.550 OA
ATOM      7  O   UNL     1      -6.451  20.659 -12.352  1.00  0.00    -0.550 OA
ENDBRANCH   4   5
ENDBRANCH   3   4
ENDBRANCH   2   3
ENDBRANCH   1   2
BRANCH   1   8
ATOM      8  C   UNL     1      -8.192  17.318 -15.893  1.00  0.00     0.000 C 
BRANCH   8   9
ATOM      9  C   UNL     1      -8.360  15.896 -15.330  1.00  0.00     0.006 C 
BRANCH   9  10
ATOM     10  C   UNL     1      -7.498  15.662 -14.082  1.00  0.00     0.053 C 
BRANCH  10  11
ATOM     11  C   UNL     1      -8.295  15.807 -12.823  1.00  0.00     0.041 C 
ATOM     12  O   UNL     1      -7.736  15.689 -11.700  1.00  0.00    -0.550 OA
ATOM     13  O   UNL     1      -9.664  16.041 -12.889  1.00  0.00    -0.550 OA
ENDBRANCH  10  11
ENDBRANCH   9  10
ENDBRANCH   8   9
ENDBRANCH   1   8
TORSDOF 8
ENDMDL
