MODEL 1
REMARK VINA RESULT:    -6.926      0.000      0.000
REMARK INTER + INTRA:          -9.542
REMARK INTER:                  -8.546
REMARK INTRA:                  -0.996
REMARK UNBOUND:                -0.996
REMARK SMILES CC(C)=CCC[C@H](C)c1ccc(C)cc1
REMARK SMILES IDX 6 1 7 2 8 3 9 4 13 5 12 6 11 7 14 8 10 9 15 10 5 11 4 12
REMARK SMILES IDX 2 13 1 14 3 15
REMARK H PARENT
REMARK Flexibility Score: inf
ROOT
ATOM      1  C   UNL     1      -4.106 -32.689 -51.410  1.00  0.00     0.012 C 
ENDROOT
BRANCH   1   2
ATOM      2  C   UNL     1      -5.384 -31.998 -51.941  1.00  0.00     0.016 C 
ATOM      3  C   UNL     1      -5.277 -31.645 -53.433  1.00  0.00     0.013 C 
BRANCH   2   4
ATOM      4  C   UNL     1      -5.690 -30.755 -51.127  1.00  0.00    -0.045 A 
ATOM      5  C   UNL     1      -6.528 -27.200 -48.820  1.00  0.00     0.044 C 
ATOM      6  C   UNL     1      -6.264 -28.431 -49.635  1.00  0.00    -0.051 A 
ATOM      7  C   UNL     1      -6.633 -29.693 -49.147  1.00  0.00     0.004 A 
ATOM      8  C   UNL     1      -5.586 -28.337 -50.858  1.00  0.00     0.004 A 
ATOM      9  C   UNL     1      -6.355 -30.844 -49.888  1.00  0.00     0.004 A 
ATOM     10  C   UNL     1      -5.307 -29.489 -51.602  1.00  0.00     0.004 A 
ENDBRANCH   2   4
ENDBRANCH   1   2
BRANCH   1  11
ATOM     11  C   UNL     1      -2.970 -32.705 -52.444  1.00  0.00     0.028 C 
BRANCH  11  12
ATOM     12  C   UNL     1      -1.693 -32.177 -51.838  1.00  0.00    -0.028 C 
ATOM     13  C   UNL     1      -1.287 -30.890 -51.913  1.00  0.00    -0.080 C 
ATOM     14  C   UNL     1      -2.067 -29.847 -52.677  1.00  0.00     0.039 C 
ATOM     15  C   UNL     1      -0.004 -30.501 -51.224  1.00  0.00     0.039 C 
ENDBRANCH  11  12
ENDBRANCH   1  11
TORSDOF 4
ENDMDL
MODEL 2
REMARK VINA RESULT:    -6.794      1.273      2.716
REMARK INTER + INTRA:          -9.378
REMARK INTER:                  -8.281
REMARK INTRA:                  -1.097
REMARK UNBOUND:                -0.996
REMARK SMILES CC(C)=CCC[C@H](C)c1ccc(C)cc1
REMARK SMILES IDX 6 1 7 2 8 3 9 4 13 5 12 6 11 7 14 8 10 9 15 10 5 11 4 12
REMARK SMILES IDX 2 13 1 14 3 15
REMARK H PARENT
REMARK Flexibility Score: inf
ROOT
ATOM      1  C   UNL     1      -2.810 -29.239 -52.342  1.00  0.00     0.012 C 
ENDROOT
BRANCH   1   2
ATOM      2  C   UNL     1      -4.150 -29.769 -52.903  1.00  0.00     0.016 C 
ATOM      3  C   UNL     1      -4.755 -28.825 -53.954  1.00  0.00     0.013 C 
BRANCH   2   4
ATOM      4  C   UNL     1      -5.138 -30.004 -51.776  1.00  0.00    -0.045 A 
ATOM      5  C   UNL     1      -7.970 -30.702 -48.589  1.00  0.00     0.044 C 
ATOM      6  C   UNL     1      -6.964 -30.464 -49.676  1.00  0.00    -0.051 A 
ATOM      7  C   UNL     1      -6.523 -29.162 -49.957  1.00  0.00     0.004 A 
ATOM      8  C   UNL     1      -6.509 -31.530 -50.464  1.00  0.00     0.004 A 
ATOM      9  C   UNL     1      -5.614 -28.934 -50.993  1.00  0.00     0.004 A 
ATOM     10  C   UNL     1      -5.598 -31.303 -51.501  1.00  0.00     0.004 A 
ENDBRANCH   2   4
ENDBRANCH   1   2
BRANCH   1  11
ATOM     11  C   UNL     1      -1.666 -30.254 -52.483  1.00  0.00     0.028 C 
BRANCH  11  12
ATOM     12  C   UNL     1      -1.877 -31.425 -51.554  1.00  0.00    -0.028 C 
ATOM     13  C   UNL     1      -2.089 -32.696 -51.962  1.00  0.00    -0.080 C 
ATOM     14  C   UNL     1      -2.190 -33.062 -53.424  1.00  0.00     0.039 C 
ATOM     15  C   UNL     1      -2.245 -33.769 -50.915  1.00  0.00     0.039 C 
ENDBRANCH  11  12
ENDBRANCH   1  11
TORSDOF 4
ENDMDL
MODEL 3
REMARK VINA RESULT:    -6.686      2.013      4.457
REMARK INTER + INTRA:          -9.245
REMARK INTER:                  -8.097
REMARK INTRA:                  -1.148
REMARK UNBOUND:                -0.996
REMARK SMILES CC(C)=CCC[C@H](C)c1ccc(C)cc1
REMARK SMILES IDX 6 1 7 2 8 3 9 4 13 5 12 6 11 7 14 8 10 9 15 10 5 11 4 12
REMARK SMILES IDX 2 13 1 14 3 15
REMARK H PARENT
REMARK Flexibility Score: inf
ROOT
ATOM      1  C   UNL     1      -5.400 -32.209 -52.297  1.00  0.00     0.012 C 
ENDROOT
BRANCH   1   2
ATOM      2  C   UNL     1      -4.357 -31.726 -53.331  1.00  0.00     0.016 C 
ATOM      3  C   UNL     1      -2.922 -32.090 -52.924  1.00  0.00     0.013 C 
BRANCH   2   4
ATOM      4  C   UNL     1      -4.479 -30.228 -53.545  1.00  0.00    -0.045 A 
ATOM      5  C   UNL     1      -4.837 -25.971 -54.189  1.00  0.00     0.044 C 
ATOM      6  C   UNL     1      -4.731 -27.447 -53.940  1.00  0.00    -0.051 A 
ATOM      7  C   UNL     1      -3.683 -27.958 -53.160  1.00  0.00     0.004 A 
ATOM      8  C   UNL     1      -5.636 -28.332 -54.541  1.00  0.00     0.004 A 
ATOM      9  C   UNL     1      -3.561 -29.335 -52.959  1.00  0.00     0.004 A 
ATOM     10  C   UNL     1      -5.516 -29.710 -54.340  1.00  0.00     0.004 A 
ENDBRANCH   2   4
ENDBRANCH   1   2
BRANCH   1  11
ATOM     11  C   UNL     1      -4.968 -31.933 -50.848  1.00  0.00     0.028 C 
BRANCH  11  12
ATOM     12  C   UNL     1      -6.171 -31.663 -49.977  1.00  0.00    -0.028 C 
ATOM     13  C   UNL     1      -6.689 -30.436 -49.751  1.00  0.00    -0.080 C 
ATOM     14  C   UNL     1      -6.064 -29.184 -50.319  1.00  0.00     0.039 C 
ATOM     15  C   UNL     1      -7.920 -30.325 -48.887  1.00  0.00     0.039 C 
ENDBRANCH  11  12
ENDBRANCH   1  11
TORSDOF 4
ENDMDL
MODEL 4
REMARK VINA RESULT:    -6.553      1.272      5.576
REMARK INTER + INTRA:          -9.081
REMARK INTER:                  -8.364
REMARK INTRA:                  -0.717
REMARK UNBOUND:                -0.996
REMARK SMILES CC(C)=CCC[C@H](C)c1ccc(C)cc1
REMARK SMILES IDX 6 1 7 2 8 3 9 4 13 5 12 6 11 7 14 8 10 9 15 10 5 11 4 12
REMARK SMILES IDX 2 13 1 14 3 15
REMARK H PARENT
REMARK Flexibility Score: inf
ROOT
ATOM      1  C   UNL     1      -5.278 -32.277 -52.017  1.00  0.00     0.012 C 
ENDROOT
BRANCH   1   2
ATOM      2  C   UNL     1      -4.675 -30.966 -52.573  1.00  0.00     0.016 C 
ATOM      3  C   UNL     1      -5.284 -30.575 -53.928  1.00  0.00     0.013 C 
BRANCH   2   4
ATOM      4  C   UNL     1      -3.167 -31.085 -52.688  1.00  0.00    -0.045 A 
ATOM      5  C   UNL     1       1.125 -31.460 -53.005  1.00  0.00     0.044 C 
ATOM      6  C   UNL     1      -0.366 -31.320 -52.924  1.00  0.00    -0.051 A 
ATOM      7  C   UNL     1      -0.939 -30.123 -52.471  1.00  0.00     0.004 A 
ATOM      8  C   UNL     1      -1.196 -32.406 -53.235  1.00  0.00     0.004 A 
ATOM      9  C   UNL     1      -2.327 -30.003 -52.359  1.00  0.00     0.004 A 
ATOM     10  C   UNL     1      -2.585 -32.288 -53.125  1.00  0.00     0.004 A 
ENDBRANCH   2   4
ENDBRANCH   1   2
BRANCH   1  11
ATOM     11  C   UNL     1      -6.264 -32.034 -50.864  1.00  0.00     0.028 C 
BRANCH  11  12
ATOM     12  C   UNL     1      -6.045 -30.669 -50.258  1.00  0.00    -0.028 C 
ATOM     13  C   UNL     1      -6.811 -30.136 -49.279  1.00  0.00    -0.080 C 
ATOM     14  C   UNL     1      -8.019 -30.854 -48.727  1.00  0.00     0.039 C 
ATOM     15  C   UNL     1      -6.447 -28.775 -48.745  1.00  0.00     0.039 C 
ENDBRANCH  11  12
ENDBRANCH   1  11
TORSDOF 4
ENDMDL
MODEL 5
REMARK VINA RESULT:    -6.540      1.690      3.041
REMARK INTER + INTRA:          -9.065
REMARK INTER:                  -8.028
REMARK INTRA:                  -1.037
REMARK UNBOUND:                -0.996
REMARK SMILES CC(C)=CCC[C@H](C)c1ccc(C)cc1
REMARK SMILES IDX 6 1 7 2 8 3 9 4 13 5 12 6 11 7 14 8 10 9 15 10 5 11 4 12
REMARK SMILES IDX 2 13 1 14 3 15
REMARK H PARENT
REMARK Flexibility Score: inf
ROOT
ATOM      1  C   UNL     1      -4.842 -32.586 -51.465  1.00  0.00     0.012 C 
ENDROOT
BRANCH   1   2
ATOM      2  C   UNL     1      -5.231 -31.219 -50.854  1.00  0.00     0.016 C 
ATOM      3  C   UNL     1      -6.586 -31.269 -50.133  1.00  0.00     0.013 C 
BRANCH   2   4
ATOM      4  C   UNL     1      -5.245 -30.146 -51.927  1.00  0.00    -0.045 A 
ATOM      5  C   UNL     1      -5.260 -27.112 -55.002  1.00  0.00     0.044 C 
ATOM      6  C   UNL     1      -5.285 -28.165 -53.934  1.00  0.00    -0.051 A 
ATOM      7  C   UNL     1      -5.266 -27.799 -52.581  1.00  0.00     0.004 A 
ATOM      8  C   UNL     1      -5.259 -29.523 -54.280  1.00  0.00     0.004 A 
ATOM      9  C   UNL     1      -5.252 -28.779 -51.585  1.00  0.00     0.004 A 
ATOM     10  C   UNL     1      -5.246 -30.506 -53.285  1.00  0.00     0.004 A 
ENDBRANCH   2   4
ENDBRANCH   1   2
BRANCH   1  11
ATOM     11  C   UNL     1      -3.504 -33.115 -50.927  1.00  0.00     0.028 C 
BRANCH  11  12
ATOM     12  C   UNL     1      -2.508 -33.279 -52.048  1.00  0.00    -0.028 C 
ATOM     13  C   UNL     1      -1.564 -32.368 -52.371  1.00  0.00    -0.080 C 
ATOM     14  C   UNL     1      -1.451 -31.043 -51.654  1.00  0.00     0.039 C 
ATOM     15  C   UNL     1      -0.612 -32.688 -53.495  1.00  0.00     0.039 C 
ENDBRANCH  11  12
ENDBRANCH   1  11
TORSDOF 4
ENDMDL
MODEL 6
REMARK VINA RESULT:    -6.483      1.293      5.010
REMARK INTER + INTRA:          -8.994
REMARK INTER:                  -8.279
REMARK INTRA:                  -0.715
REMARK UNBOUND:                -0.996
REMARK SMILES CC(C)=CCC[C@H](C)c1ccc(C)cc1
REMARK SMILES IDX 6 1 7 2 8 3 9 4 13 5 12 6 11 7 14 8 10 9 15 10 5 11 4 12
REMARK SMILES IDX 2 13 1 14 3 15
REMARK H PARENT
REMARK Flexibility Score: inf
ROOT
ATOM      1  C   UNL     1      -5.125 -31.957 -52.392  1.00  0.00     0.012 C 
ENDROOT
BRANCH   1   2
ATOM      2  C   UNL     1      -3.632 -32.318 -52.221  1.00  0.00     0.016 C 
ATOM      3  C   UNL     1      -3.373 -33.130 -50.942  1.00  0.00     0.013 C 
BRANCH   2   4
ATOM      4  C   UNL     1      -2.780 -31.063 -52.228  1.00  0.00    -0.045 A 
ATOM      5  C   UNL     1      -0.341 -27.497 -52.216  1.00  0.00     0.044 C 
ATOM      6  C   UNL     1      -1.176 -28.742 -52.248  1.00  0.00    -0.051 A 
ATOM      7  C   UNL     1      -2.480 -28.704 -52.762  1.00  0.00     0.004 A 
ATOM      8  C   UNL     1      -0.687 -29.937 -51.701  1.00  0.00     0.004 A 
ATOM      9  C   UNL     1      -3.273 -29.854 -52.759  1.00  0.00     0.004 A 
ATOM     10  C   UNL     1      -1.479 -31.089 -51.698  1.00  0.00     0.004 A 
ENDBRANCH   2   4
ENDBRANCH   1   2
BRANCH   1  11
ATOM     11  C   UNL     1      -5.905 -32.019 -51.069  1.00  0.00     0.028 C 
BRANCH  11  12
ATOM     12  C   UNL     1      -5.922 -30.667 -50.399  1.00  0.00    -0.028 C 
ATOM     13  C   UNL     1      -6.765 -30.318 -49.402  1.00  0.00    -0.080 C 
ATOM     14  C   UNL     1      -7.832 -31.257 -48.891  1.00  0.00     0.039 C 
ATOM     15  C   UNL     1      -6.638 -28.941 -48.803  1.00  0.00     0.039 C 
ENDBRANCH  11  12
ENDBRANCH   1  11
TORSDOF 4
ENDMDL
MODEL 7
REMARK VINA RESULT:    -6.461      1.518      5.425
REMARK INTER + INTRA:          -8.968
REMARK INTER:                  -8.025
REMARK INTRA:                  -0.943
REMARK UNBOUND:                -0.996
REMARK SMILES CC(C)=CCC[C@H](C)c1ccc(C)cc1
REMARK SMILES IDX 6 1 7 2 8 3 9 4 13 5 12 6 11 7 14 8 10 9 15 10 5 11 4 12
REMARK SMILES IDX 2 13 1 14 3 15
REMARK H PARENT
REMARK Flexibility Score: inf
ROOT
ATOM      1  C   UNL     1      -6.191 -27.498 -51.595  1.00  0.00     0.012 C 
ENDROOT
BRANCH   1   2
ATOM      2  C   UNL     1      -5.254 -27.568 -52.822  1.00  0.00     0.016 C 
ATOM      3  C   UNL     1      -5.993 -27.269 -54.136  1.00  0.00     0.013 C 
BRANCH   2   4
ATOM      4  C   UNL     1      -4.579 -28.925 -52.896  1.00  0.00    -0.045 A 
ATOM      5  C   UNL     1      -2.624 -32.771 -53.111  1.00  0.00     0.044 C 
ATOM      6  C   UNL     1      -3.315 -31.444 -53.010  1.00  0.00    -0.051 A 
ATOM      7  C   UNL     1      -4.600 -31.274 -53.543  1.00  0.00     0.004 A 
ATOM      8  C   UNL     1      -2.655 -30.345 -52.442  1.00  0.00     0.004 A 
ATOM      9  C   UNL     1      -5.230 -30.028 -53.482  1.00  0.00     0.004 A 
ATOM     10  C   UNL     1      -3.284 -29.098 -52.379  1.00  0.00     0.004 A 
ENDBRANCH   2   4
ENDBRANCH   1   2
BRANCH   1  11
ATOM     11  C   UNL     1      -5.665 -28.310 -50.401  1.00  0.00     0.028 C 
BRANCH  11  12
ATOM     12  C   UNL     1      -6.805 -28.955 -49.653  1.00  0.00    -0.028 C 
ATOM     13  C   UNL     1      -6.970 -30.289 -49.514  1.00  0.00    -0.080 C 
ATOM     14  C   UNL     1      -6.033 -31.284 -50.158  1.00  0.00     0.039 C 
ATOM     15  C   UNL     1      -8.140 -30.787 -48.705  1.00  0.00     0.039 C 
ENDBRANCH  11  12
ENDBRANCH   1  11
TORSDOF 4
ENDMDL
MODEL 8
REMARK VINA RESULT:    -6.383      1.399      5.267
REMARK INTER + INTRA:          -8.872
REMARK INTER:                  -7.865
REMARK INTRA:                  -1.006
REMARK UNBOUND:                -0.996
REMARK SMILES CC(C)=CCC[C@H](C)c1ccc(C)cc1
REMARK SMILES IDX 6 1 7 2 8 3 9 4 13 5 12 6 11 7 14 8 10 9 15 10 5 11 4 12
REMARK SMILES IDX 2 13 1 14 3 15
REMARK H PARENT
REMARK Flexibility Score: inf
ROOT
ATOM      1  C   UNL     1      -4.489 -28.131 -52.380  1.00  0.00     0.012 C 
ENDROOT
BRANCH   1   2
ATOM      2  C   UNL     1      -4.180 -29.255 -53.394  1.00  0.00     0.016 C 
ATOM      3  C   UNL     1      -5.382 -29.571 -54.297  1.00  0.00     0.013 C 
BRANCH   2   4
ATOM      4  C   UNL     1      -3.722 -30.509 -52.672  1.00  0.00    -0.045 A 
ATOM      5  C   UNL     1      -2.452 -34.078 -50.595  1.00  0.00     0.044 C 
ATOM      6  C   UNL     1      -2.885 -32.852 -51.342  1.00  0.00    -0.051 A 
ATOM      7  C   UNL     1      -1.977 -31.808 -51.575  1.00  0.00     0.004 A 
ATOM      8  C   UNL     1      -4.217 -32.709 -51.754  1.00  0.00     0.004 A 
ATOM      9  C   UNL     1      -2.389 -30.650 -52.238  1.00  0.00     0.004 A 
ATOM     10  C   UNL     1      -4.631 -31.550 -52.419  1.00  0.00     0.004 A 
ENDBRANCH   2   4
ENDBRANCH   1   2
BRANCH   1  11
ATOM     11  C   UNL     1      -5.957 -28.130 -51.926  1.00  0.00     0.028 C 
BRANCH  11  12
ATOM     12  C   UNL     1      -6.056 -27.850 -50.446  1.00  0.00    -0.028 C 
ATOM     13  C   UNL     1      -6.358 -28.778 -49.511  1.00  0.00    -0.080 C 
ATOM     14  C   UNL     1      -6.686 -30.206 -49.876  1.00  0.00     0.039 C 
ATOM     15  C   UNL     1      -6.382 -28.356 -48.064  1.00  0.00     0.039 C 
ENDBRANCH  11  12
ENDBRANCH   1  11
TORSDOF 4
ENDMDL
MODEL 9
REMARK VINA RESULT:    -6.356      2.602      3.389
REMARK INTER + INTRA:          -8.837
REMARK INTER:                  -7.664
REMARK INTRA:                  -1.173
REMARK UNBOUND:                -0.996
REMARK SMILES CC(C)=CCC[C@H](C)c1ccc(C)cc1
REMARK SMILES IDX 6 1 7 2 8 3 9 4 13 5 12 6 11 7 14 8 10 9 15 10 5 11 4 12
REMARK SMILES IDX 2 13 1 14 3 15
REMARK H PARENT
REMARK Flexibility Score: inf
ROOT
ATOM      1  C   UNL     1      -2.451 -33.040 -52.857  1.00  0.00     0.012 C 
ENDROOT
BRANCH   1   2
ATOM      2  C   UNL     1      -3.108 -32.053 -51.865  1.00  0.00     0.016 C 
ATOM      3  C   UNL     1      -4.128 -32.743 -50.947  1.00  0.00     0.013 C 
BRANCH   2   4
ATOM      4  C   UNL     1      -3.765 -30.909 -52.616  1.00  0.00    -0.045 A 
ATOM      5  C   UNL     1      -5.639 -27.676 -54.783  1.00  0.00     0.044 C 
ATOM      6  C   UNL     1      -5.009 -28.795 -54.008  1.00  0.00    -0.051 A 
ATOM      7  C   UNL     1      -3.964 -28.532 -53.111  1.00  0.00     0.004 A 
ATOM      8  C   UNL     1      -5.412 -30.120 -54.225  1.00  0.00     0.004 A 
ATOM      9  C   UNL     1      -3.351 -29.577 -52.416  1.00  0.00     0.004 A 
ATOM     10  C   UNL     1      -4.800 -31.168 -53.530  1.00  0.00     0.004 A 
ENDBRANCH   2   4
ENDBRANCH   1   2
BRANCH   1  11
ATOM     11  C   UNL     1      -0.916 -33.030 -52.774  1.00  0.00     0.028 C 
BRANCH  11  12
ATOM     12  C   UNL     1      -0.351 -31.855 -53.534  1.00  0.00    -0.028 C 
ATOM     13  C   UNL     1       0.167 -30.749 -52.955  1.00  0.00    -0.080 C 
ATOM     14  C   UNL     1       0.179 -30.559 -51.457  1.00  0.00     0.039 C 
ATOM     15  C   UNL     1       0.731 -29.671 -53.845  1.00  0.00     0.039 C 
ENDBRANCH  11  12
ENDBRANCH   1  11
TORSDOF 4
ENDMDL
