MODEL 1
REMARK VINA RESULT:    -2.222      0.000      0.000
REMARK INTER + INTRA:          -5.887
REMARK INTER:                  -3.911
REMARK INTRA:                  -1.976
REMARK UNBOUND:                -1.976
REMARK SMILES CCCCCCCCCCCCCCC(=O)[O-]
REMARK SMILES IDX 9 1 10 2 11 3 12 4 13 5 14 6 15 7 16 8 17 9 8 10 7 11 6 12
REMARK SMILES IDX 5 13 4 14 3 15 2 16 1 17
REMARK H PARENT
REMARK Flexibility Score: inf
ROOT
ATOM      1  C   UNL     1     177.746 204.705 201.206  1.00  0.00     0.000 C 
ENDROOT
BRANCH   1   2
ATOM      2  C   UNL     1     177.620 205.757 202.322  1.00  0.00     0.000 C 
BRANCH   2   3
ATOM      3  C   UNL     1     176.304 206.549 202.239  1.00  0.00     0.000 C 
BRANCH   3   4
ATOM      4  C   UNL     1     176.484 207.920 201.565  1.00  0.00     0.000 C 
BRANCH   4   5
ATOM      5  C   UNL     1     175.545 208.118 200.365  1.00  0.00     0.006 C 
BRANCH   5   6
ATOM      6  C   UNL     1     176.098 207.503 199.072  1.00  0.00     0.053 C 
BRANCH   6   7
ATOM      7  C   UNL     1     175.284 206.314 198.670  1.00  0.00     0.041 C 
ATOM      8  O   UNL     1     175.555 205.689 197.611  1.00  0.00    -0.550 OA
ATOM      9  O   UNL     1     174.196 205.924 199.439  1.00  0.00    -0.550 OA
ENDBRANCH   6   7
ENDBRANCH   5   6
ENDBRANCH   4   5
ENDBRANCH   3   4
ENDBRANCH   2   3
ENDBRANCH   1   2
BRANCH   1  10
ATOM     10  C   UNL     1     178.803 205.075 200.150  1.00  0.00     0.000 C 
BRANCH  10  11
ATOM     11  C   UNL     1     179.710 206.265 200.516  1.00  0.00    -0.000 C 
BRANCH  11  12
ATOM     12  C   UNL     1     179.819 207.304 199.387  1.00  0.00    -0.000 C 
BRANCH  12  13
ATOM     13  C   UNL     1     180.840 206.899 198.311  1.00  0.00    -0.000 C 
BRANCH  13  14
ATOM     14  C   UNL     1     180.297 207.076 196.881  1.00  0.00    -0.000 C 
BRANCH  14  15
ATOM     15  C   UNL     1     178.819 206.671 196.750  1.00  0.00    -0.000 C 
BRANCH  15  16
ATOM     16  C   UNL     1     178.170 207.031 195.402  1.00  0.00    -0.003 C 
ATOM     17  C   UNL     1     177.106 208.122 195.523  1.00  0.00     0.004 C 
ENDBRANCH  15  16
ENDBRANCH  14  15
ENDBRANCH  13  14
ENDBRANCH  12  13
ENDBRANCH  11  12
ENDBRANCH  10  11
ENDBRANCH   1  10
TORSDOF 13
ENDMDL
MODEL 2
REMARK VINA RESULT:    -2.199      2.345      4.985
REMARK INTER + INTRA:          -5.846
REMARK INTER:                  -3.626
REMARK INTRA:                  -2.220
REMARK UNBOUND:                -1.976
REMARK SMILES CCCCCCCCCCCCCCC(=O)[O-]
REMARK SMILES IDX 9 1 10 2 11 3 12 4 13 5 14 6 15 7 16 8 17 9 8 10 7 11 6 12
REMARK SMILES IDX 5 13 4 14 3 15 2 16 1 17
REMARK H PARENT
REMARK Flexibility Score: inf
ROOT
ATOM      1  C   UNL     1     175.069 204.770 202.042  1.00  0.00     0.000 C 
ENDROOT
BRANCH   1   2
ATOM      2  C   UNL     1     176.146 205.538 202.828  1.00  0.00     0.000 C 
BRANCH   2   3
ATOM      3  C   UNL     1     177.101 206.320 201.910  1.00  0.00     0.000 C 
BRANCH   3   4
ATOM      4  C   UNL     1     176.519 207.675 201.474  1.00  0.00     0.000 C 
BRANCH   4   5
ATOM      5  C   UNL     1     177.034 208.125 200.097  1.00  0.00     0.006 C 
BRANCH   5   6
ATOM      6  C   UNL     1     178.491 207.714 199.847  1.00  0.00     0.053 C 
BRANCH   6   7
ATOM      7  C   UNL     1     178.577 206.782 198.679  1.00  0.00     0.041 C 
ATOM      8  O   UNL     1     178.650 205.539 198.864  1.00  0.00    -0.550 OA
ATOM      9  O   UNL     1     178.626 207.289 197.387  1.00  0.00    -0.550 OA
ENDBRANCH   6   7
ENDBRANCH   5   6
ENDBRANCH   4   5
ENDBRANCH   3   4
ENDBRANCH   2   3
ENDBRANCH   1   2
BRANCH   1  10
ATOM     10  C   UNL     1     175.609 204.137 200.747  1.00  0.00     0.000 C 
BRANCH  10  11
ATOM     11  C   UNL     1     174.696 204.282 199.515  1.00  0.00    -0.000 C 
BRANCH  11  12
ATOM     12  C   UNL     1     175.044 205.508 198.653  1.00  0.00    -0.000 C 
BRANCH  12  13
ATOM     13  C   UNL     1     173.794 206.223 198.115  1.00  0.00    -0.000 C 
BRANCH  13  14
ATOM     14  C   UNL     1     172.826 206.650 199.233  1.00  0.00    -0.000 C 
BRANCH  14  15
ATOM     15  C   UNL     1     173.218 207.988 199.884  1.00  0.00    -0.000 C 
BRANCH  15  16
ATOM     16  C   UNL     1     172.820 208.125 201.364  1.00  0.00    -0.003 C 
ATOM     17  C   UNL     1     172.230 206.841 201.946  1.00  0.00     0.004 C 
ENDBRANCH  15  16
ENDBRANCH  14  15
ENDBRANCH  13  14
ENDBRANCH  12  13
ENDBRANCH  11  12
ENDBRANCH  10  11
ENDBRANCH   1  10
TORSDOF 13
ENDMDL
MODEL 3
REMARK VINA RESULT:    -2.148      2.092      5.124
REMARK INTER + INTRA:          -5.757
REMARK INTER:                  -3.810
REMARK INTRA:                  -1.947
REMARK UNBOUND:                -1.976
REMARK SMILES CCCCCCCCCCCCCCC(=O)[O-]
REMARK SMILES IDX 9 1 10 2 11 3 12 4 13 5 14 6 15 7 16 8 17 9 8 10 7 11 6 12
REMARK SMILES IDX 5 13 4 14 3 15 2 16 1 17
REMARK H PARENT
REMARK Flexibility Score: inf
ROOT
ATOM      1  C   UNL     1     177.898 204.722 201.177  1.00  0.00     0.000 C 
ENDROOT
BRANCH   1   2
ATOM      2  C   UNL     1     179.130 205.540 201.600  1.00  0.00     0.000 C 
BRANCH   2   3
ATOM      3  C   UNL     1     179.907 206.100 200.398  1.00  0.00     0.000 C 
BRANCH   3   4
ATOM      4  C   UNL     1     179.249 207.360 199.808  1.00  0.00     0.000 C 
BRANCH   4   5
ATOM      5  C   UNL     1     178.940 207.219 198.309  1.00  0.00     0.006 C 
BRANCH   5   6
ATOM      6  C   UNL     1     177.445 207.015 198.029  1.00  0.00     0.053 C 
BRANCH   6   7
ATOM      7  C   UNL     1     177.153 205.566 197.793  1.00  0.00     0.041 C 
ATOM      8  O   UNL     1     176.002 205.107 198.019  1.00  0.00    -0.550 OA
ATOM      9  O   UNL     1     178.163 204.712 197.369  1.00  0.00    -0.550 OA
ENDBRANCH   6   7
ENDBRANCH   5   6
ENDBRANCH   4   5
ENDBRANCH   3   4
ENDBRANCH   2   3
ENDBRANCH   1   2
BRANCH   1  10
ATOM     10  C   UNL     1     176.576 205.312 201.700  1.00  0.00     0.000 C 
BRANCH  10  11
ATOM     11  C   UNL     1     176.691 206.701 202.355  1.00  0.00    -0.000 C 
BRANCH  11  12
ATOM     12  C   UNL     1     176.030 207.812 201.522  1.00  0.00    -0.000 C 
BRANCH  12  13
ATOM     13  C   UNL     1     174.878 207.288 200.649  1.00  0.00    -0.000 C 
BRANCH  13  14
ATOM     14  C   UNL     1     173.592 208.120 200.798  1.00  0.00    -0.000 C 
BRANCH  14  15
ATOM     15  C   UNL     1     172.526 207.421 201.658  1.00  0.00    -0.000 C 
BRANCH  15  16
ATOM     16  C   UNL     1     172.908 206.008 202.134  1.00  0.00    -0.003 C 
ATOM     17  C   UNL     1     171.726 205.234 202.717  1.00  0.00     0.004 C 
ENDBRANCH  15  16
ENDBRANCH  14  15
ENDBRANCH  13  14
ENDBRANCH  12  13
ENDBRANCH  11  12
ENDBRANCH  10  11
ENDBRANCH   1  10
TORSDOF 13
ENDMDL
MODEL 4
REMARK VINA RESULT:    -2.129      2.667      4.786
REMARK INTER + INTRA:          -5.723
REMARK INTER:                  -3.725
REMARK INTRA:                  -1.998
REMARK UNBOUND:                -1.976
REMARK SMILES CCCCCCCCCCCCCCC(=O)[O-]
REMARK SMILES IDX 9 1 10 2 11 3 12 4 13 5 14 6 15 7 16 8 17 9 8 10 7 11 6 12
REMARK SMILES IDX 5 13 4 14 3 15 2 16 1 17
REMARK H PARENT
REMARK Flexibility Score: inf
ROOT
ATOM      1  C   UNL     1     174.212 206.725 201.284  1.00  0.00     0.000 C 
ENDROOT
BRANCH   1   2
ATOM      2  C   UNL     1     175.749 206.720 201.348  1.00  0.00     0.000 C 
BRANCH   2   3
ATOM      3  C   UNL     1     176.350 208.124 201.168  1.00  0.00     0.000 C 
BRANCH   3   4
ATOM      4  C   UNL     1     177.583 208.123 200.249  1.00  0.00     0.000 C 
BRANCH   4   5
ATOM      5  C   UNL     1     178.316 206.772 200.245  1.00  0.00     0.006 C 
BRANCH   5   6
ATOM      6  C   UNL     1     179.797 206.902 199.866  1.00  0.00     0.053 C 
BRANCH   6   7
ATOM      7  C   UNL     1     180.603 205.837 200.542  1.00  0.00     0.041 C 
ATOM      8  O   UNL     1     180.836 204.749 199.953  1.00  0.00    -0.550 OA
ATOM      9  O   UNL     1     181.058 206.027 201.840  1.00  0.00    -0.550 OA
ENDBRANCH   6   7
ENDBRANCH   5   6
ENDBRANCH   4   5
ENDBRANCH   3   4
ENDBRANCH   2   3
ENDBRANCH   1   2
BRANCH   1  10
ATOM     10  C   UNL     1     173.637 208.048 200.747  1.00  0.00     0.000 C 
BRANCH  10  11
ATOM     11  C   UNL     1     173.124 208.000 199.295  1.00  0.00    -0.000 C 
BRANCH  11  12
ATOM     12  C   UNL     1     173.157 206.585 198.694  1.00  0.00    -0.000 C 
BRANCH  12  13
ATOM     13  C   UNL     1     173.972 206.518 197.391  1.00  0.00    -0.000 C 
BRANCH  13  14
ATOM     14  C   UNL     1     175.491 206.552 197.638  1.00  0.00    -0.000 C 
BRANCH  14  15
ATOM     15  C   UNL     1     176.186 207.720 196.917  1.00  0.00    -0.000 C 
BRANCH  15  16
ATOM     16  C   UNL     1     177.661 207.468 196.557  1.00  0.00    -0.003 C 
ATOM     17  C   UNL     1     178.030 205.985 196.553  1.00  0.00     0.004 C 
ENDBRANCH  15  16
ENDBRANCH  14  15
ENDBRANCH  13  14
ENDBRANCH  12  13
ENDBRANCH  11  12
ENDBRANCH  10  11
ENDBRANCH   1  10
TORSDOF 13
ENDMDL
MODEL 5
REMARK VINA RESULT:    -2.120      2.313      5.636
REMARK INTER + INTRA:          -5.707
REMARK INTER:                  -3.680
REMARK INTRA:                  -2.028
REMARK UNBOUND:                -1.976
REMARK SMILES CCCCCCCCCCCCCCC(=O)[O-]
REMARK SMILES IDX 9 1 10 2 11 3 12 4 13 5 14 6 15 7 16 8 17 9 8 10 7 11 6 12
REMARK SMILES IDX 5 13 4 14 3 15 2 16 1 17
REMARK H PARENT
REMARK Flexibility Score: inf
ROOT
ATOM      1  C   UNL     1     175.519 205.728 198.463  1.00  0.00     0.000 C 
ENDROOT
BRANCH   1   2
ATOM      2  C   UNL     1     175.870 206.160 197.029  1.00  0.00     0.000 C 
BRANCH   2   3
ATOM      3  C   UNL     1     177.024 207.176 196.985  1.00  0.00     0.000 C 
BRANCH   3   4
ATOM      4  C   UNL     1     177.681 207.380 198.361  1.00  0.00     0.000 C 
BRANCH   4   5
ATOM      5  C   UNL     1     179.166 206.983 198.372  1.00  0.00     0.006 C 
BRANCH   5   6
ATOM      6  C   UNL     1     179.839 207.245 199.726  1.00  0.00     0.053 C 
BRANCH   6   7
ATOM      7  C   UNL     1     180.013 205.964 200.479  1.00  0.00     0.041 C 
ATOM      8  O   UNL     1     179.444 204.913 200.081  1.00  0.00    -0.550 OA
ATOM      9  O   UNL     1     180.763 205.939 201.647  1.00  0.00    -0.550 OA
ENDBRANCH   6   7
ENDBRANCH   5   6
ENDBRANCH   4   5
ENDBRANCH   3   4
ENDBRANCH   2   3
ENDBRANCH   1   2
BRANCH   1  10
ATOM     10  C   UNL     1     174.007 205.758 198.746  1.00  0.00     0.000 C 
BRANCH  10  11
ATOM     11  C   UNL     1     173.421 207.152 199.043  1.00  0.00    -0.000 C 
BRANCH  11  12
ATOM     12  C   UNL     1     174.457 208.123 199.633  1.00  0.00    -0.000 C 
BRANCH  12  13
ATOM     13  C   UNL     1     174.635 207.946 201.149  1.00  0.00    -0.000 C 
BRANCH  13  14
ATOM     14  C   UNL     1     176.106 208.045 201.590  1.00  0.00    -0.000 C 
BRANCH  14  15
ATOM     15  C   UNL     1     176.724 206.675 201.919  1.00  0.00    -0.000 C 
BRANCH  15  16
ATOM     16  C   UNL     1     175.701 205.549 202.163  1.00  0.00    -0.003 C 
ATOM     17  C   UNL     1     176.228 204.169 201.770  1.00  0.00     0.004 C 
ENDBRANCH  15  16
ENDBRANCH  14  15
ENDBRANCH  13  14
ENDBRANCH  12  13
ENDBRANCH  11  12
ENDBRANCH  10  11
ENDBRANCH   1  10
TORSDOF 13
ENDMDL
MODEL 6
REMARK VINA RESULT:    -2.057      1.731      2.508
REMARK INTER + INTRA:          -5.596
REMARK INTER:                  -3.336
REMARK INTRA:                  -2.260
REMARK UNBOUND:                -1.976
REMARK SMILES CCCCCCCCCCCCCCC(=O)[O-]
REMARK SMILES IDX 9 1 10 2 11 3 12 4 13 5 14 6 15 7 16 8 17 9 8 10 7 11 6 12
REMARK SMILES IDX 5 13 4 14 3 15 2 16 1 17
REMARK H PARENT
REMARK Flexibility Score: inf
ROOT
ATOM      1  C   UNL     1     177.165 204.160 199.960  1.00  0.00     0.000 C 
ENDROOT
BRANCH   1   2
ATOM      2  C   UNL     1     176.143 205.239 200.357  1.00  0.00     0.000 C 
BRANCH   2   3
ATOM      3  C   UNL     1     176.536 205.976 201.648  1.00  0.00     0.000 C 
BRANCH   3   4
ATOM      4  C   UNL     1     176.359 207.500 201.532  1.00  0.00     0.000 C 
BRANCH   4   5
ATOM      5  C   UNL     1     175.222 207.892 200.575  1.00  0.00     0.006 C 
BRANCH   5   6
ATOM      6  C   UNL     1     173.890 208.123 201.302  1.00  0.00     0.053 C 
BRANCH   6   7
ATOM      7  C   UNL     1     173.018 206.911 201.189  1.00  0.00     0.041 C 
ATOM      8  O   UNL     1     172.969 206.077 202.130  1.00  0.00    -0.550 OA
ATOM      9  O   UNL     1     172.298 206.679 200.024  1.00  0.00    -0.550 OA
ENDBRANCH   6   7
ENDBRANCH   5   6
ENDBRANCH   4   5
ENDBRANCH   3   4
ENDBRANCH   2   3
ENDBRANCH   1   2
BRANCH   1  10
ATOM     10  C   UNL     1     178.244 203.932 201.034  1.00  0.00     0.000 C 
BRANCH  10  11
ATOM     11  C   UNL     1     179.676 204.324 200.622  1.00  0.00    -0.000 C 
BRANCH  11  12
ATOM     12  C   UNL     1     180.247 205.476 201.465  1.00  0.00    -0.000 C 
BRANCH  12  13
ATOM     13  C   UNL     1     180.493 206.747 200.636  1.00  0.00    -0.000 C 
BRANCH  13  14
ATOM     14  C   UNL     1     179.994 206.616 199.185  1.00  0.00    -0.000 C 
BRANCH  14  15
ATOM     15  C   UNL     1     178.788 207.523 198.886  1.00  0.00    -0.000 C 
BRANCH  15  16
ATOM     16  C   UNL     1     177.918 207.068 197.700  1.00  0.00    -0.003 C 
ATOM     17  C   UNL     1     178.676 206.187 196.708  1.00  0.00     0.004 C 
ENDBRANCH  15  16
ENDBRANCH  14  15
ENDBRANCH  13  14
ENDBRANCH  12  13
ENDBRANCH  11  12
ENDBRANCH  10  11
ENDBRANCH   1  10
TORSDOF 13
ENDMDL
MODEL 7
REMARK VINA RESULT:    -2.053      2.287      3.629
REMARK INTER + INTRA:          -5.590
REMARK INTER:                  -3.314
REMARK INTRA:                  -2.276
REMARK UNBOUND:                -1.976
REMARK SMILES CCCCCCCCCCCCCCC(=O)[O-]
REMARK SMILES IDX 9 1 10 2 11 3 12 4 13 5 14 6 15 7 16 8 17 9 8 10 7 11 6 12
REMARK SMILES IDX 5 13 4 14 3 15 2 16 1 17
REMARK H PARENT
REMARK Flexibility Score: inf
ROOT
ATOM      1  C   UNL     1     177.073 207.275 200.880  1.00  0.00     0.000 C 
ENDROOT
BRANCH   1   2
ATOM      2  C   UNL     1     175.798 208.122 201.035  1.00  0.00     0.000 C 
BRANCH   2   3
ATOM      3  C   UNL     1     174.883 208.040 199.802  1.00  0.00     0.000 C 
BRANCH   3   4
ATOM      4  C   UNL     1     173.546 207.343 200.107  1.00  0.00     0.000 C 
BRANCH   4   5
ATOM      5  C   UNL     1     173.449 206.861 201.564  1.00  0.00     0.006 C 
BRANCH   5   6
ATOM      6  C   UNL     1     173.041 205.386 201.674  1.00  0.00     0.053 C 
BRANCH   6   7
ATOM      7  C   UNL     1     174.130 204.590 202.321  1.00  0.00     0.041 C 
ATOM      8  O   UNL     1     175.043 205.172 202.964  1.00  0.00    -0.550 OA
ATOM      9  O   UNL     1     174.165 203.210 202.173  1.00  0.00    -0.550 OA
ENDBRANCH   6   7
ENDBRANCH   5   6
ENDBRANCH   4   5
ENDBRANCH   3   4
ENDBRANCH   2   3
ENDBRANCH   1   2
BRANCH   1  10
ATOM     10  C   UNL     1     178.119 207.929 199.959  1.00  0.00     0.000 C 
BRANCH  10  11
ATOM     11  C   UNL     1     179.056 206.948 199.228  1.00  0.00    -0.000 C 
BRANCH  11  12
ATOM     12  C   UNL     1     178.889 206.987 197.700  1.00  0.00    -0.000 C 
BRANCH  12  13
ATOM     13  C   UNL     1     177.539 207.585 197.270  1.00  0.00    -0.000 C 
BRANCH  13  14
ATOM     14  C   UNL     1     176.724 206.633 196.377  1.00  0.00    -0.000 C 
BRANCH  14  15
ATOM     15  C   UNL     1     176.660 205.201 196.935  1.00  0.00    -0.000 C 
BRANCH  15  16
ATOM     16  C   UNL     1     175.560 204.970 197.987  1.00  0.00    -0.003 C 
ATOM     17  C   UNL     1     176.067 204.239 199.230  1.00  0.00     0.004 C 
ENDBRANCH  15  16
ENDBRANCH  14  15
ENDBRANCH  13  14
ENDBRANCH  12  13
ENDBRANCH  11  12
ENDBRANCH  10  11
ENDBRANCH   1  10
TORSDOF 13
ENDMDL
MODEL 8
REMARK VINA RESULT:    -2.033      2.001      3.079
REMARK INTER + INTRA:          -5.555
REMARK INTER:                  -3.821
REMARK INTRA:                  -1.734
REMARK UNBOUND:                -1.976
REMARK SMILES CCCCCCCCCCCCCCC(=O)[O-]
REMARK SMILES IDX 9 1 10 2 11 3 12 4 13 5 14 6 15 7 16 8 17 9 8 10 7 11 6 12
REMARK SMILES IDX 5 13 4 14 3 15 2 16 1 17
REMARK H PARENT
REMARK Flexibility Score: inf
ROOT
ATOM      1  C   UNL     1     176.784 208.051 200.034  1.00  0.00     0.000 C 
ENDROOT
BRANCH   1   2
ATOM      2  C   UNL     1     176.379 208.072 201.518  1.00  0.00     0.000 C 
BRANCH   2   3
ATOM      3  C   UNL     1     176.083 206.666 202.067  1.00  0.00     0.000 C 
BRANCH   3   4
ATOM      4  C   UNL     1     175.678 205.676 200.961  1.00  0.00     0.000 C 
BRANCH   4   5
ATOM      5  C   UNL     1     174.164 205.410 200.931  1.00  0.00     0.006 C 
BRANCH   5   6
ATOM      6  C   UNL     1     173.408 206.165 202.033  1.00  0.00     0.053 C 
BRANCH   6   7
ATOM      7  C   UNL     1     172.671 207.331 201.454  1.00  0.00     0.041 C 
ATOM      8  O   UNL     1     173.052 207.847 200.371  1.00  0.00    -0.550 OA
ATOM      9  O   UNL     1     171.592 207.880 202.135  1.00  0.00    -0.550 OA
ENDBRANCH   6   7
ENDBRANCH   5   6
ENDBRANCH   4   5
ENDBRANCH   3   4
ENDBRANCH   2   3
ENDBRANCH   1   2
BRANCH   1  10
ATOM     10  C   UNL     1     178.307 207.955 199.828  1.00  0.00     0.000 C 
BRANCH  10  11
ATOM     11  C   UNL     1     178.793 206.687 199.102  1.00  0.00    -0.000 C 
BRANCH  11  12
ATOM     12  C   UNL     1     179.538 206.995 197.792  1.00  0.00    -0.000 C 
BRANCH  12  13
ATOM     13  C   UNL     1     178.780 206.494 196.552  1.00  0.00    -0.000 C 
BRANCH  13  14
ATOM     14  C   UNL     1     177.964 207.604 195.866  1.00  0.00    -0.000 C 
BRANCH  14  15
ATOM     15  C   UNL     1     176.476 207.243 195.716  1.00  0.00    -0.000 C 
BRANCH  15  16
ATOM     16  C   UNL     1     175.964 206.192 196.718  1.00  0.00    -0.003 C 
ATOM     17  C   UNL     1     174.694 206.631 197.446  1.00  0.00     0.004 C 
ENDBRANCH  15  16
ENDBRANCH  14  15
ENDBRANCH  13  14
ENDBRANCH  12  13
ENDBRANCH  11  12
ENDBRANCH  10  11
ENDBRANCH   1  10
TORSDOF 13
ENDMDL
MODEL 9
REMARK VINA RESULT:    -1.985      1.739      3.472
REMARK INTER + INTRA:          -5.469
REMARK INTER:                  -3.255
REMARK INTRA:                  -2.214
REMARK UNBOUND:                -1.976
REMARK SMILES CCCCCCCCCCCCCCC(=O)[O-]
REMARK SMILES IDX 9 1 10 2 11 3 12 4 13 5 14 6 15 7 16 8 17 9 8 10 7 11 6 12
REMARK SMILES IDX 5 13 4 14 3 15 2 16 1 17
REMARK H PARENT
REMARK Flexibility Score: inf
ROOT
ATOM      1  C   UNL     1     179.656 205.763 198.307  1.00  0.00     0.000 C 
ENDROOT
BRANCH   1   2
ATOM      2  C   UNL     1     178.726 206.184 199.458  1.00  0.00     0.000 C 
BRANCH   2   3
ATOM      3  C   UNL     1     178.578 207.711 199.568  1.00  0.00     0.000 C 
BRANCH   3   4
ATOM      4  C   UNL     1     177.355 208.125 200.404  1.00  0.00     0.000 C 
BRANCH   4   5
ATOM      5  C   UNL     1     176.290 207.019 200.481  1.00  0.00     0.006 C 
BRANCH   5   6
ATOM      6  C   UNL     1     174.867 207.549 200.259  1.00  0.00     0.053 C 
BRANCH   6   7
ATOM      7  C   UNL     1     173.861 206.587 200.805  1.00  0.00     0.041 C 
ATOM      8  O   UNL     1     174.104 205.947 201.862  1.00  0.00    -0.550 OA
ATOM      9  O   UNL     1     172.674 206.359 200.121  1.00  0.00    -0.550 OA
ENDBRANCH   6   7
ENDBRANCH   5   6
ENDBRANCH   4   5
ENDBRANCH   3   4
ENDBRANCH   2   3
ENDBRANCH   1   2
BRANCH   1  10
ATOM     10  C   UNL     1     180.370 206.956 197.646  1.00  0.00     0.000 C 
BRANCH  10  11
ATOM     11  C   UNL     1     179.962 207.240 196.188  1.00  0.00    -0.000 C 
BRANCH  11  12
ATOM     12  C   UNL     1     178.558 206.713 195.845  1.00  0.00    -0.000 C 
BRANCH  12  13
ATOM     13  C   UNL     1     177.483 207.810 195.913  1.00  0.00    -0.000 C 
BRANCH  13  14
ATOM     14  C   UNL     1     176.260 207.392 196.748  1.00  0.00    -0.000 C 
BRANCH  14  15
ATOM     15  C   UNL     1     175.746 205.987 196.390  1.00  0.00    -0.000 C 
BRANCH  15  16
ATOM     16  C   UNL     1     175.861 204.951 197.523  1.00  0.00    -0.003 C 
ATOM     17  C   UNL     1     174.526 204.291 197.868  1.00  0.00     0.004 C 
ENDBRANCH  15  16
ENDBRANCH  14  15
ENDBRANCH  13  14
ENDBRANCH  12  13
ENDBRANCH  11  12
ENDBRANCH  10  11
ENDBRANCH   1  10
TORSDOF 13
ENDMDL
