MODEL 1
REMARK VINA RESULT:    -4.112      0.000      0.000
REMARK INTER + INTRA:          -5.398
REMARK INTER:                  -5.315
REMARK INTRA:                  -0.083
REMARK UNBOUND:                -0.083
REMARK SMILES CCCCCCC(C)=O
REMARK SMILES IDX 4 1 3 2 2 3 1 4 5 5 6 6 7 7 9 8 8 9
REMARK H PARENT
REMARK Flexibility Score: inf
ROOT
ATOM      1  C   UNL     1      25.890  58.218  -9.846  1.00  0.00     0.000 C 
ENDROOT
BRANCH   1   2
ATOM      2  C   UNL     1      27.053  58.364 -10.850  1.00  0.00    -0.000 C 
BRANCH   2   3
ATOM      3  C   UNL     1      27.941  59.578 -10.537  1.00  0.00    -0.003 C 
ATOM      4  C   UNL     1      29.268  59.500 -11.288  1.00  0.00     0.004 C 
ENDBRANCH   2   3
ENDBRANCH   1   2
BRANCH   1   5
ATOM      5  C   UNL     1      25.714  56.787  -9.310  1.00  0.00     0.008 C 
BRANCH   5   6
ATOM      6  C   UNL     1      24.243  56.361  -9.220  1.00  0.00     0.075 C 
BRANCH   6   7
ATOM      7  C   UNL     1      24.108  55.077  -8.442  1.00  0.00     0.129 C 
ATOM      8  O   UNL     1      25.106  54.421  -8.186  1.00  0.00    -0.300 OA
ATOM      9  C   UNL     1      22.770  54.578  -7.983  1.00  0.00     0.087 C 
ENDBRANCH   6   7
ENDBRANCH   5   6
ENDBRANCH   1   5
TORSDOF 5
ENDMDL
MODEL 2
REMARK VINA RESULT:    -4.070      2.357      5.523
REMARK INTER + INTRA:          -5.342
REMARK INTER:                  -5.172
REMARK INTRA:                  -0.170
REMARK UNBOUND:                -0.083
REMARK SMILES CCCCCCC(C)=O
REMARK SMILES IDX 4 1 3 2 2 3 1 4 5 5 6 6 7 7 9 8 8 9
REMARK H PARENT
REMARK Flexibility Score: inf
ROOT
ATOM      1  C   UNL     1      24.942  57.541  -9.365  1.00  0.00     0.000 C 
ENDROOT
BRANCH   1   2
ATOM      2  C   UNL     1      25.499  56.102  -9.394  1.00  0.00    -0.000 C 
BRANCH   2   3
ATOM      3  C   UNL     1      24.945  55.242  -8.248  1.00  0.00    -0.003 C 
ATOM      4  C   UNL     1      23.514  54.796  -8.535  1.00  0.00     0.004 C 
ENDBRANCH   2   3
ENDBRANCH   1   2
BRANCH   1   5
ATOM      5  C   UNL     1      25.977  58.612  -9.753  1.00  0.00     0.008 C 
BRANCH   5   6
ATOM      6  C   UNL     1      26.970  58.124 -10.815  1.00  0.00     0.075 C 
BRANCH   6   7
ATOM      7  C   UNL     1      28.180  59.020 -10.863  1.00  0.00     0.129 C 
ATOM      8  O   UNL     1      29.233  58.588 -11.307  1.00  0.00    -0.300 OA
ATOM      9  C   UNL     1      28.126  60.434 -10.363  1.00  0.00     0.087 C 
ENDBRANCH   6   7
ENDBRANCH   5   6
ENDBRANCH   1   5
TORSDOF 5
ENDMDL
MODEL 3
REMARK VINA RESULT:    -3.926      2.414      5.727
REMARK INTER + INTRA:          -5.156
REMARK INTER:                  -5.004
REMARK INTRA:                  -0.152
REMARK UNBOUND:                -0.083
REMARK SMILES CCCCCCC(C)=O
REMARK SMILES IDX 4 1 3 2 2 3 1 4 5 5 6 6 7 7 9 8 8 9
REMARK H PARENT
REMARK Flexibility Score: inf
ROOT
ATOM      1  C   UNL     1      26.407  57.906 -10.178  1.00  0.00     0.000 C 
ENDROOT
BRANCH   1   2
ATOM      2  C   UNL     1      25.217  57.438  -9.315  1.00  0.00    -0.000 C 
BRANCH   2   3
ATOM      3  C   UNL     1      25.364  55.976  -8.867  1.00  0.00    -0.003 C 
ATOM      4  C   UNL     1      24.029  55.240  -8.942  1.00  0.00     0.004 C 
ENDBRANCH   2   3
ENDBRANCH   1   2
BRANCH   1   5
ATOM      5  C   UNL     1      26.809  59.371  -9.934  1.00  0.00     0.008 C 
BRANCH   5   6
ATOM      6  C   UNL     1      27.825  59.890 -10.959  1.00  0.00     0.075 C 
BRANCH   6   7
ATOM      7  C   UNL     1      29.174  59.257 -10.738  1.00  0.00     0.129 C 
ATOM      8  O   UNL     1      29.620  59.171  -9.604  1.00  0.00    -0.300 OA
ATOM      9  C   UNL     1      29.992  58.739 -11.884  1.00  0.00     0.087 C 
ENDBRANCH   6   7
ENDBRANCH   5   6
ENDBRANCH   1   5
TORSDOF 5
ENDMDL
MODEL 4
REMARK VINA RESULT:    -3.795     16.706     18.874
REMARK INTER + INTRA:          -4.988
REMARK INTER:                  -4.513
REMARK INTRA:                  -0.474
REMARK UNBOUND:                -0.083
REMARK SMILES CCCCCCC(C)=O
REMARK SMILES IDX 4 1 3 2 2 3 1 4 5 5 6 6 7 7 9 8 8 9
REMARK H PARENT
REMARK Flexibility Score: inf
ROOT
ATOM      1  C   UNL     1      15.872  42.782   0.718  1.00  0.00     0.000 C 
ENDROOT
BRANCH   1   2
ATOM      2  C   UNL     1      15.629  44.256   1.105  1.00  0.00    -0.000 C 
BRANCH   2   3
ATOM      3  C   UNL     1      14.841  45.017   0.028  1.00  0.00    -0.003 C 
ATOM      4  C   UNL     1      15.706  45.286  -1.201  1.00  0.00     0.004 C 
ENDBRANCH   2   3
ENDBRANCH   1   2
BRANCH   1   5
ATOM      5  C   UNL     1      17.353  42.367   0.769  1.00  0.00     0.008 C 
BRANCH   5   6
ATOM      6  C   UNL     1      18.264  43.473   1.318  1.00  0.00     0.075 C 
BRANCH   6   7
ATOM      7  C   UNL     1      19.349  43.807   0.328  1.00  0.00     0.129 C 
ATOM      8  O   UNL     1      20.300  43.051   0.199  1.00  0.00    -0.300 OA
ATOM      9  C   UNL     1      19.297  45.058  -0.499  1.00  0.00     0.087 C 
ENDBRANCH   6   7
ENDBRANCH   5   6
ENDBRANCH   1   5
TORSDOF 5
ENDMDL
MODEL 5
REMARK VINA RESULT:    -3.667     17.011     18.819
REMARK INTER + INTRA:          -4.822
REMARK INTER:                  -4.384
REMARK INTRA:                  -0.438
REMARK UNBOUND:                -0.083
REMARK SMILES CCCCCCC(C)=O
REMARK SMILES IDX 4 1 3 2 2 3 1 4 5 5 6 6 7 7 9 8 8 9
REMARK H PARENT
REMARK Flexibility Score: inf
ROOT
ATOM      1  C   UNL     1      17.499  42.493   0.679  1.00  0.00     0.000 C 
ENDROOT
BRANCH   1   2
ATOM      2  C   UNL     1      18.307  43.552   1.458  1.00  0.00    -0.000 C 
BRANCH   2   3
ATOM      3  C   UNL     1      19.556  44.009   0.690  1.00  0.00    -0.003 C 
ATOM      4  C   UNL     1      19.186  44.936  -0.464  1.00  0.00     0.004 C 
ENDBRANCH   2   3
ENDBRANCH   1   2
BRANCH   1   5
ATOM      5  C   UNL     1      15.983  42.757   0.668  1.00  0.00     0.008 C 
BRANCH   5   6
ATOM      6  C   UNL     1      15.611  44.121   1.263  1.00  0.00     0.075 C 
BRANCH   6   7
ATOM      7  C   UNL     1      15.048  45.029   0.200  1.00  0.00     0.129 C 
ATOM      8  O   UNL     1      14.012  45.639   0.417  1.00  0.00    -0.300 OA
ATOM      9  C   UNL     1      15.725  45.191  -1.129  1.00  0.00     0.087 C 
ENDBRANCH   6   7
ENDBRANCH   5   6
ENDBRANCH   1   5
TORSDOF 5
ENDMDL
MODEL 6
REMARK VINA RESULT:    -3.570     16.776     18.638
REMARK INTER + INTRA:          -4.696
REMARK INTER:                  -4.169
REMARK INTRA:                  -0.527
REMARK UNBOUND:                -0.083
REMARK SMILES CCCCCCC(C)=O
REMARK SMILES IDX 4 1 3 2 2 3 1 4 5 5 6 6 7 7 9 8 8 9
REMARK H PARENT
REMARK Flexibility Score: inf
ROOT
ATOM      1  C   UNL     1      18.782  42.136  -0.214  1.00  0.00     0.000 C 
ENDROOT
BRANCH   1   2
ATOM      2  C   UNL     1      19.739  42.768   0.818  1.00  0.00    -0.000 C 
BRANCH   2   3
ATOM      3  C   UNL     1      19.515  44.281   0.966  1.00  0.00    -0.003 C 
ATOM      4  C   UNL     1      19.436  44.963  -0.397  1.00  0.00     0.004 C 
ENDBRANCH   2   3
ENDBRANCH   1   2
BRANCH   1   5
ATOM      5  C   UNL     1      17.328  42.027   0.278  1.00  0.00     0.008 C 
BRANCH   5   6
ATOM      6  C   UNL     1      16.322  42.671  -0.686  1.00  0.00     0.075 C 
BRANCH   6   7
ATOM      7  C   UNL     1      15.927  44.042  -0.204  1.00  0.00     0.129 C 
ATOM      8  O   UNL     1      15.965  44.986  -0.978  1.00  0.00    -0.300 OA
ATOM      9  C   UNL     1      15.498  44.279   1.214  1.00  0.00     0.087 C 
ENDBRANCH   6   7
ENDBRANCH   5   6
ENDBRANCH   1   5
TORSDOF 5
ENDMDL
MODEL 7
REMARK VINA RESULT:    -3.539      4.032      6.746
REMARK INTER + INTRA:          -4.656
REMARK INTER:                  -4.505
REMARK INTRA:                  -0.151
REMARK UNBOUND:                -0.083
REMARK SMILES CCCCCCC(C)=O
REMARK SMILES IDX 4 1 3 2 2 3 1 4 5 5 6 6 7 7 9 8 8 9
REMARK H PARENT
REMARK Flexibility Score: inf
ROOT
ATOM      1  C   UNL     1      29.394  59.011 -10.582  1.00  0.00     0.000 C 
ENDROOT
BRANCH   1   2
ATOM      2  C   UNL     1      27.895  59.377 -10.558  1.00  0.00    -0.000 C 
BRANCH   2   3
ATOM      3  C   UNL     1      27.000  58.182 -10.921  1.00  0.00    -0.003 C 
ATOM      4  C   UNL     1      26.013  57.872  -9.799  1.00  0.00     0.004 C 
ENDBRANCH   2   3
ENDBRANCH   1   2
BRANCH   1   5
ATOM      5  C   UNL     1      29.980  58.901 -12.001  1.00  0.00     0.008 C 
BRANCH   5   6
ATOM      6  C   UNL     1      31.325  58.165 -12.036  1.00  0.00     0.075 C 
BRANCH   6   7
ATOM      7  C   UNL     1      31.521  57.480 -13.364  1.00  0.00     0.129 C 
ATOM      8  O   UNL     1      32.303  57.952 -14.175  1.00  0.00    -0.300 OA
ATOM      9  C   UNL     1      30.766  56.233 -13.720  1.00  0.00     0.087 C 
ENDBRANCH   6   7
ENDBRANCH   5   6
ENDBRANCH   1   5
TORSDOF 5
ENDMDL
MODEL 8
REMARK VINA RESULT:    -3.538      4.421      6.488
REMARK INTER + INTRA:          -4.656
REMARK INTER:                  -4.378
REMARK INTRA:                  -0.277
REMARK UNBOUND:                -0.083
REMARK SMILES CCCCCCC(C)=O
REMARK SMILES IDX 4 1 3 2 2 3 1 4 5 5 6 6 7 7 9 8 8 9
REMARK H PARENT
REMARK Flexibility Score: inf
ROOT
ATOM      1  C   UNL     1      30.012  57.011 -13.466  1.00  0.00     0.000 C 
ENDROOT
BRANCH   1   2
ATOM      2  C   UNL     1      31.246  56.203 -13.920  1.00  0.00    -0.000 C 
BRANCH   2   3
ATOM      3  C   UNL     1      32.471  57.099 -14.157  1.00  0.00    -0.003 C 
ATOM      4  C   UNL     1      33.739  56.458 -13.598  1.00  0.00     0.004 C 
ENDBRANCH   2   3
ENDBRANCH   1   2
BRANCH   1   5
ATOM      5  C   UNL     1      30.347  58.438 -12.997  1.00  0.00     0.008 C 
BRANCH   5   6
ATOM      6  C   UNL     1      30.288  58.594 -11.472  1.00  0.00     0.075 C 
BRANCH   6   7
ATOM      7  C   UNL     1      29.019  59.291 -11.058  1.00  0.00     0.129 C 
ATOM      8  O   UNL     1      29.046  60.482 -10.788  1.00  0.00    -0.300 OA
ATOM      9  C   UNL     1      27.717  58.551 -10.956  1.00  0.00     0.087 C 
ENDBRANCH   6   7
ENDBRANCH   5   6
ENDBRANCH   1   5
TORSDOF 5
ENDMDL
MODEL 9
REMARK VINA RESULT:    -3.516      5.934      7.450
REMARK INTER + INTRA:          -4.627
REMARK INTER:                  -4.153
REMARK INTRA:                  -0.474
REMARK UNBOUND:                -0.083
REMARK SMILES CCCCCCC(C)=O
REMARK SMILES IDX 4 1 3 2 2 3 1 4 5 5 6 6 7 7 9 8 8 9
REMARK H PARENT
REMARK Flexibility Score: inf
ROOT
ATOM      1  C   UNL     1      31.665  56.288 -14.014  1.00  0.00     0.000 C 
ENDROOT
BRANCH   1   2
ATOM      2  C   UNL     1      32.709  57.359 -14.396  1.00  0.00    -0.000 C 
BRANCH   2   3
ATOM      3  C   UNL     1      34.125  56.979 -13.936  1.00  0.00    -0.003 C 
ATOM      4  C   UNL     1      34.087  56.175 -12.639  1.00  0.00     0.004 C 
ENDBRANCH   2   3
ENDBRANCH   1   2
BRANCH   1   5
ATOM      5  C   UNL     1      30.310  56.874 -13.582  1.00  0.00     0.008 C 
BRANCH   5   6
ATOM      6  C   UNL     1      30.374  58.379 -13.295  1.00  0.00     0.075 C 
BRANCH   6   7
ATOM      7  C   UNL     1      30.259  58.644 -11.816  1.00  0.00     0.129 C 
ATOM      8  O   UNL     1      29.153  58.746 -11.307  1.00  0.00    -0.300 OA
ATOM      9  C   UNL     1      31.476  58.798 -10.952  1.00  0.00     0.087 C 
ENDBRANCH   6   7
ENDBRANCH   5   6
ENDBRANCH   1   5
TORSDOF 5
ENDMDL
