MODEL 1
REMARK VINA RESULT:     2.615      0.000      0.000
REMARK INTER + INTRA:           2.845
REMARK INTER:                   2.845
REMARK INTRA:                   0.000
REMARK UNBOUND:                 0.000
REMARK SMILES Cc1cc(O)c2c(c1)C(=O)c1cc(O)cc(O)c1C2=O
REMARK SMILES IDX 1 1 2 2 8 3 7 4 6 5 4 6 3 7 19 8 20 9 18 10 11 11 9 12 10 13
REMARK SMILES IDX 12 14 13 15 15 16 16 17 5 18 17 20 14 22
REMARK H PARENT 5 19 17 21 14 23
REMARK Flexibility Score: inf
ROOT
ATOM      1  C   UNL     1      10.662  18.880  -4.122  1.00  0.00     0.044 C 
ATOM      2  C   UNL     1      11.503  19.578  -3.094  1.00  0.00    -0.047 A 
ATOM      3  C   UNL     1      11.968  20.877  -3.328  1.00  0.00     0.016 A 
ATOM      4  C   UNL     1      12.719  21.556  -2.355  1.00  0.00     0.038 A 
ATOM      5  C   UNL     1      12.989  20.935  -1.115  1.00  0.00     0.076 A 
ATOM      6  C   UNL     1      12.555  19.601  -0.900  1.00  0.00     0.127 A 
ATOM      7  C   UNL     1      11.792  18.954  -1.877  1.00  0.00     0.050 A 
ATOM      8  C   UNL     1      13.657  21.738  -0.058  1.00  0.00     0.201 C 
ATOM      9  O   UNL     1      13.421  21.498   1.156  1.00  0.00    -0.288 OA
ATOM     10  C   UNL     1      14.450  22.938  -0.434  1.00  0.00     0.076 A 
ATOM     11  C   UNL     1      14.177  23.555  -1.675  1.00  0.00     0.041 A 
ATOM     12  C   UNL     1      13.235  22.920  -2.625  1.00  0.00     0.194 C 
ATOM     13  O   UNL     1      12.889  23.529  -3.675  1.00  0.00    -0.289 OA
ATOM     14  C   UNL     1      14.807  24.768  -2.005  1.00  0.00     0.059 A 
ATOM     15  C   UNL     1      15.712  25.361  -1.121  1.00  0.00     0.120 A 
ATOM     16  C   UNL     1      16.014  24.734   0.087  1.00  0.00     0.093 A 
ATOM     17  C   UNL     1      15.417  23.516   0.431  1.00  0.00     0.131 A 
ENDROOT
BRANCH   6  18
ATOM     18  O   UNL     1      12.885  18.875   0.246  1.00  0.00    -0.507 OA
ATOM     19  H   UNL     1      12.200  18.509   0.893  1.00  0.00     0.293 HD
ENDBRANCH   6  18
BRANCH  17  20
ATOM     20  O   UNL     1      15.836  22.903   1.613  1.00  0.00    -0.507 OA
ATOM     21  H   UNL     1      16.099  23.413   2.445  1.00  0.00     0.293 HD
ENDBRANCH  17  20
BRANCH  15  22
ATOM     22  O   UNL     1      16.327  26.569  -1.439  1.00  0.00    -0.508 OA
ATOM     23  H   UNL     1      15.793  27.366  -1.767  1.00  0.00     0.293 HD
ENDBRANCH  15  22
TORSDOF 3
ENDMDL
MODEL 2
REMARK VINA RESULT:     3.311      2.193      2.471
REMARK INTER + INTRA:           3.601
REMARK INTER:                   3.601
REMARK INTRA:                   0.000
REMARK UNBOUND:                 0.000
REMARK SMILES Cc1cc(O)c2c(c1)C(=O)c1cc(O)cc(O)c1C2=O
REMARK SMILES IDX 1 1 2 2 8 3 7 4 6 5 4 6 3 7 19 8 20 9 18 10 11 11 9 12 10 13
REMARK SMILES IDX 12 14 13 15 15 16 16 17 5 18 17 20 14 22
REMARK H PARENT 5 19 17 21 14 23
REMARK Flexibility Score: inf
ROOT
ATOM      1  C   UNL     1       9.851  18.875  -3.377  1.00  0.00     0.044 C 
ATOM      2  C   UNL     1      11.042  19.740  -3.084  1.00  0.00    -0.047 A 
ATOM      3  C   UNL     1      10.914  20.857  -2.251  1.00  0.00     0.016 A 
ATOM      4  C   UNL     1      12.030  21.649  -1.935  1.00  0.00     0.038 A 
ATOM      5  C   UNL     1      13.303  21.302  -2.441  1.00  0.00     0.076 A 
ATOM      6  C   UNL     1      13.420  20.196  -3.323  1.00  0.00     0.127 A 
ATOM      7  C   UNL     1      12.297  19.413  -3.606  1.00  0.00     0.050 A 
ATOM      8  C   UNL     1      14.481  22.075  -1.968  1.00  0.00     0.201 C 
ATOM      9  O   UNL     1      15.609  21.518  -1.894  1.00  0.00    -0.288 OA
ATOM     10  C   UNL     1      14.292  23.437  -1.405  1.00  0.00     0.076 A 
ATOM     11  C   UNL     1      13.017  23.779  -0.901  1.00  0.00     0.041 A 
ATOM     12  C   UNL     1      11.879  22.848  -1.078  1.00  0.00     0.194 C 
ATOM     13  O   UNL     1      10.773  23.089  -0.518  1.00  0.00    -0.289 OA
ATOM     14  C   UNL     1      12.834  25.005  -0.237  1.00  0.00     0.059 A 
ATOM     15  C   UNL     1      13.901  25.896  -0.086  1.00  0.00     0.120 A 
ATOM     16  C   UNL     1      15.150  25.578  -0.618  1.00  0.00     0.093 A 
ATOM     17  C   UNL     1      15.353  24.375  -1.300  1.00  0.00     0.131 A 
ENDROOT
BRANCH   6  18
ATOM     18  O   UNL     1      14.616  19.863  -3.961  1.00  0.00    -0.507 OA
ATOM     19  H   UNL     1      14.683  19.179  -4.703  1.00  0.00     0.293 HD
ENDBRANCH   6  18
BRANCH  17  20
ATOM     20  O   UNL     1      16.605  24.167  -1.884  1.00  0.00    -0.507 OA
ATOM     21  H   UNL     1      17.019  24.796  -2.558  1.00  0.00     0.293 HD
ENDBRANCH  17  20
BRANCH  15  22
ATOM     22  O   UNL     1      13.727  27.104   0.583  1.00  0.00    -0.508 OA
ATOM     23  H   UNL     1      13.543  27.967   0.081  1.00  0.00     0.293 HD
ENDBRANCH  15  22
TORSDOF 3
ENDMDL
MODEL 3
REMARK VINA RESULT:     4.459      1.284      5.489
REMARK INTER + INTRA:           4.850
REMARK INTER:                   4.850
REMARK INTRA:                   0.000
REMARK UNBOUND:                 0.000
REMARK SMILES Cc1cc(O)c2c(c1)C(=O)c1cc(O)cc(O)c1C2=O
REMARK SMILES IDX 1 1 2 2 8 3 7 4 6 5 4 6 3 7 19 8 20 9 18 10 11 11 9 12 10 13
REMARK SMILES IDX 12 14 13 15 15 16 16 17 5 18 17 20 14 22
REMARK H PARENT 5 19 17 21 14 23
REMARK Flexibility Score: inf
ROOT
ATOM      1  C   UNL     1      15.820  26.804  -1.125  1.00  0.00     0.044 C 
ATOM      2  C   UNL     1      15.310  25.415  -0.876  1.00  0.00    -0.047 A 
ATOM      3  C   UNL     1      14.669  24.707  -1.897  1.00  0.00     0.016 A 
ATOM      4  C   UNL     1      14.226  23.390  -1.688  1.00  0.00     0.038 A 
ATOM      5  C   UNL     1      14.452  22.761  -0.443  1.00  0.00     0.076 A 
ATOM      6  C   UNL     1      15.061  23.500   0.604  1.00  0.00     0.127 A 
ATOM      7  C   UNL     1      15.510  24.803   0.365  1.00  0.00     0.050 A 
ATOM      8  C   UNL     1      14.103  21.323  -0.308  1.00  0.00     0.201 C 
ATOM      9  O   UNL     1      14.756  20.590   0.481  1.00  0.00    -0.288 OA
ATOM     10  C   UNL     1      13.117  20.713  -1.238  1.00  0.00     0.076 A 
ATOM     11  C   UNL     1      12.894  21.345  -2.482  1.00  0.00     0.041 A 
ATOM     12  C   UNL     1      13.519  22.658  -2.766  1.00  0.00     0.194 C 
ATOM     13  O   UNL     1      13.429  23.164  -3.919  1.00  0.00    -0.289 OA
ATOM     14  C   UNL     1      12.074  20.727  -3.443  1.00  0.00     0.059 A 
ATOM     15  C   UNL     1      11.466  19.499  -3.171  1.00  0.00     0.120 A 
ATOM     16  C   UNL     1      11.652  18.892  -1.929  1.00  0.00     0.093 A 
ATOM     17  C   UNL     1      12.445  19.496  -0.949  1.00  0.00     0.131 A 
ENDROOT
BRANCH   6  18
ATOM     18  O   UNL     1      15.209  22.995   1.898  1.00  0.00    -0.507 OA
ATOM     19  H   UNL     1      15.001  23.525   2.733  1.00  0.00     0.293 HD
ENDBRANCH   6  18
BRANCH  17  20
ATOM     20  O   UNL     1      12.511  18.875   0.301  1.00  0.00    -0.507 OA
ATOM     21  H   UNL     1      11.855  19.053   1.049  1.00  0.00     0.293 HD
ENDBRANCH  17  20
BRANCH  15  22
ATOM     22  O   UNL     1      10.665  18.877  -4.125  1.00  0.00    -0.508 OA
ATOM     23  H   UNL     1      10.215  17.987  -3.942  1.00  0.00     0.293 HD
ENDBRANCH  15  22
TORSDOF 3
ENDMDL
MODEL 4
REMARK VINA RESULT:     5.399     13.338     16.158
REMARK INTER + INTRA:           5.872
REMARK INTER:                   5.872
REMARK INTRA:                   0.000
REMARK UNBOUND:                 0.000
REMARK SMILES Cc1cc(O)c2c(c1)C(=O)c1cc(O)cc(O)c1C2=O
REMARK SMILES IDX 1 1 2 2 8 3 7 4 6 5 4 6 3 7 19 8 20 9 18 10 11 11 9 12 10 13
REMARK SMILES IDX 12 14 13 15 15 16 16 17 5 18 17 20 14 22
REMARK H PARENT 5 19 17 21 14 23
REMARK Flexibility Score: inf
ROOT
ATOM      1  C   UNL     1      21.083  19.388  15.814  1.00  0.00     0.044 C 
ATOM      2  C   UNL     1      21.031  20.731  15.145  1.00  0.00    -0.047 A 
ATOM      3  C   UNL     1      20.914  20.821  13.754  1.00  0.00     0.016 A 
ATOM      4  C   UNL     1      20.822  22.071  13.121  1.00  0.00     0.038 A 
ATOM      5  C   UNL     1      20.819  23.253  13.897  1.00  0.00     0.076 A 
ATOM      6  C   UNL     1      20.985  23.158  15.303  1.00  0.00     0.127 A 
ATOM      7  C   UNL     1      21.056  21.901  15.911  1.00  0.00     0.050 A 
ATOM      8  C   UNL     1      20.572  24.545  13.206  1.00  0.00     0.201 C 
ATOM      9  O   UNL     1      20.005  25.487  13.822  1.00  0.00    -0.288 OA
ATOM     10  C   UNL     1      20.817  24.660  11.745  1.00  0.00     0.076 A 
ATOM     11  C   UNL     1      20.819  23.476  10.974  1.00  0.00     0.041 A 
ATOM     12  C   UNL     1      20.730  22.158  11.645  1.00  0.00     0.194 C 
ATOM     13  O   UNL     1      20.601  21.107  10.957  1.00  0.00    -0.289 OA
ATOM     14  C   UNL     1      20.910  23.554   9.573  1.00  0.00     0.059 A 
ATOM     15  C   UNL     1      21.015  24.794   8.938  1.00  0.00     0.120 A 
ATOM     16  C   UNL     1      21.055  25.962   9.698  1.00  0.00     0.093 A 
ATOM     17  C   UNL     1      20.986  25.911  11.094  1.00  0.00     0.131 A 
ENDROOT
BRANCH   6  18
ATOM     18  O   UNL     1      21.116  24.279  16.125  1.00  0.00    -0.507 OA
ATOM     19  H   UNL     1      21.058  24.244  17.133  1.00  0.00     0.293 HD
ENDBRANCH   6  18
BRANCH  17  20
ATOM     20  O   UNL     1      21.124  27.113  11.792  1.00  0.00    -0.507 OA
ATOM     21  H   UNL     1      21.791  27.253  12.537  1.00  0.00     0.293 HD
ENDBRANCH  17  20
BRANCH  15  22
ATOM     22  O   UNL     1      21.092  24.877   7.550  1.00  0.00    -0.508 OA
ATOM     23  H   UNL     1      20.259  24.945   6.975  1.00  0.00     0.293 HD
ENDBRANCH  15  22
TORSDOF 3
ENDMDL
