MODEL 1
REMARK VINA RESULT:    -4.290      0.000      0.000
REMARK INTER + INTRA:          -6.074
REMARK INTER:                  -5.795
REMARK INTRA:                  -0.279
REMARK UNBOUND:                -0.279
REMARK SMILES CCCCCCCC(=O)[O-]
REMARK SMILES IDX 5 1 6 2 7 3 8 4 9 5 10 6 4 7 3 8 2 9 1 10
REMARK H PARENT
REMARK Flexibility Score: inf
ROOT
ATOM      1  C   UNL     1       7.980  20.577  29.456  1.00  0.00     0.000 C 
ENDROOT
BRANCH   1   2
ATOM      2  C   UNL     1       7.896  22.036  29.927  1.00  0.00     0.006 C 
BRANCH   2   3
ATOM      3  C   UNL     1       7.875  22.152  31.457  1.00  0.00     0.053 C 
BRANCH   3   4
ATOM      4  C   UNL     1       8.915  23.109  31.955  1.00  0.00     0.041 C 
ATOM      5  O   UNL     1       9.893  23.420  31.227  1.00  0.00    -0.550 OA
ATOM      6  O   UNL     1       8.818  23.634  33.238  1.00  0.00    -0.550 OA
ENDBRANCH   3   4
ENDBRANCH   2   3
ENDBRANCH   1   2
BRANCH   1   7
ATOM      7  C   UNL     1       8.558  19.677  30.559  1.00  0.00     0.000 C 
BRANCH   7   8
ATOM      8  C   UNL     1       9.387  18.511  29.998  1.00  0.00    -0.000 C 
BRANCH   8   9
ATOM      9  C   UNL     1       9.858  17.540  31.090  1.00  0.00    -0.003 C 
ATOM     10  C   UNL     1      10.207  18.286  32.375  1.00  0.00     0.004 C 
ENDBRANCH   8   9
ENDBRANCH   7   8
ENDBRANCH   1   7
TORSDOF 6
ENDMDL
MODEL 2
REMARK VINA RESULT:    -4.284      3.068      4.875
REMARK INTER + INTRA:          -6.066
REMARK INTER:                  -5.807
REMARK INTRA:                  -0.259
REMARK UNBOUND:                -0.279
REMARK SMILES CCCCCCCC(=O)[O-]
REMARK SMILES IDX 5 1 6 2 7 3 8 4 9 5 10 6 4 7 3 8 2 9 1 10
REMARK H PARENT
REMARK Flexibility Score: inf
ROOT
ATOM      1  C   UNL     1       9.628  18.454  30.295  1.00  0.00     0.000 C 
ENDROOT
BRANCH   1   2
ATOM      2  C   UNL     1       9.805  17.528  31.507  1.00  0.00     0.006 C 
BRANCH   2   3
ATOM      3  C   UNL     1       9.246  18.146  32.796  1.00  0.00     0.053 C 
BRANCH   3   4
ATOM      4  C   UNL     1       9.896  17.568  34.016  1.00  0.00     0.041 C 
ATOM      5  O   UNL     1       9.254  16.792  34.771  1.00  0.00    -0.550 OA
ATOM      6  O   UNL     1      11.204  17.913  34.335  1.00  0.00    -0.550 OA
ENDBRANCH   3   4
ENDBRANCH   2   3
ENDBRANCH   1   2
BRANCH   1   7
ATOM      7  C   UNL     1       8.608  19.562  30.596  1.00  0.00     0.000 C 
BRANCH   7   8
ATOM      8  C   UNL     1       8.173  20.325  29.335  1.00  0.00    -0.000 C 
BRANCH   8   9
ATOM      9  C   UNL     1       7.876  21.806  29.611  1.00  0.00    -0.003 C 
ATOM     10  C   UNL     1       7.876  22.096  31.109  1.00  0.00     0.004 C 
ENDBRANCH   8   9
ENDBRANCH   7   8
ENDBRANCH   1   7
TORSDOF 6
ENDMDL
MODEL 3
REMARK VINA RESULT:    -4.149      1.409      1.990
REMARK INTER + INTRA:          -5.884
REMARK INTER:                  -5.482
REMARK INTRA:                  -0.402
REMARK UNBOUND:                -0.279
REMARK SMILES CCCCCCCC(=O)[O-]
REMARK SMILES IDX 5 1 6 2 7 3 8 4 9 5 10 6 4 7 3 8 2 9 1 10
REMARK H PARENT
REMARK Flexibility Score: inf
ROOT
ATOM      1  C   UNL     1       8.174  21.678  30.044  1.00  0.00     0.000 C 
ENDROOT
BRANCH   1   2
ATOM      2  C   UNL     1       8.508  22.265  31.424  1.00  0.00     0.006 C 
BRANCH   2   3
ATOM      3  C   UNL     1       9.701  23.229  31.371  1.00  0.00     0.053 C 
BRANCH   3   4
ATOM      4  C   UNL     1      10.719  22.909  32.423  1.00  0.00     0.041 C 
ATOM      5  O   UNL     1      11.024  23.767  33.293  1.00  0.00    -0.550 OA
ATOM      6  O   UNL     1      11.352  21.673  32.424  1.00  0.00    -0.550 OA
ENDBRANCH   3   4
ENDBRANCH   2   3
ENDBRANCH   1   2
BRANCH   1   7
ATOM      7  C   UNL     1       8.315  20.148  30.050  1.00  0.00     0.000 C 
BRANCH   7   8
ATOM      8  C   UNL     1       8.637  19.589  31.445  1.00  0.00    -0.000 C 
BRANCH   8   9
ATOM      9  C   UNL     1       9.890  18.702  31.452  1.00  0.00    -0.003 C 
ATOM     10  C   UNL     1       9.904  17.760  30.252  1.00  0.00     0.004 C 
ENDBRANCH   8   9
ENDBRANCH   7   8
ENDBRANCH   1   7
TORSDOF 6
ENDMDL
MODEL 4
REMARK VINA RESULT:    -4.105      4.150      5.667
REMARK INTER + INTRA:          -5.825
REMARK INTER:                  -5.569
REMARK INTRA:                  -0.256
REMARK UNBOUND:                -0.279
REMARK SMILES CCCCCCCC(=O)[O-]
REMARK SMILES IDX 5 1 6 2 7 3 8 4 9 5 10 6 4 7 3 8 2 9 1 10
REMARK H PARENT
REMARK Flexibility Score: inf
ROOT
ATOM      1  C   UNL     1       8.102  19.127  34.459  1.00  0.00     0.000 C 
ENDROOT
BRANCH   1   2
ATOM      2  C   UNL     1       7.914  18.074  35.561  1.00  0.00     0.006 C 
BRANCH   2   3
ATOM      3  C   UNL     1       8.834  16.861  35.368  1.00  0.00     0.053 C 
BRANCH   3   4
ATOM      4  C   UNL     1      10.170  17.071  36.012  1.00  0.00     0.041 C 
ATOM      5  O   UNL     1      10.258  17.226  37.258  1.00  0.00    -0.550 OA
ATOM      6  O   UNL     1      11.317  17.127  35.230  1.00  0.00    -0.550 OA
ENDBRANCH   3   4
ENDBRANCH   2   3
ENDBRANCH   1   2
BRANCH   1   7
ATOM      7  C   UNL     1       8.308  18.458  33.091  1.00  0.00     0.000 C 
BRANCH   7   8
ATOM      8  C   UNL     1       9.083  19.348  32.107  1.00  0.00    -0.000 C 
BRANCH   8   9
ATOM      9  C   UNL     1       8.956  18.874  30.653  1.00  0.00    -0.003 C 
ATOM     10  C   UNL     1       9.875  17.686  30.379  1.00  0.00     0.004 C 
ENDBRANCH   8   9
ENDBRANCH   7   8
ENDBRANCH   1   7
TORSDOF 6
ENDMDL
MODEL 5
REMARK VINA RESULT:    -4.065      2.738      4.398
REMARK INTER + INTRA:          -5.771
REMARK INTER:                  -5.434
REMARK INTRA:                  -0.336
REMARK UNBOUND:                -0.279
REMARK SMILES CCCCCCCC(=O)[O-]
REMARK SMILES IDX 5 1 6 2 7 3 8 4 9 5 10 6 4 7 3 8 2 9 1 10
REMARK H PARENT
REMARK Flexibility Score: inf
ROOT
ATOM      1  C   UNL     1      10.040  18.824  31.774  1.00  0.00     0.000 C 
ENDROOT
BRANCH   1   2
ATOM      2  C   UNL     1       9.574  17.975  32.966  1.00  0.00     0.006 C 
BRANCH   2   3
ATOM      3  C   UNL     1       8.192  18.403  33.479  1.00  0.00     0.053 C 
BRANCH   3   4
ATOM      4  C   UNL     1       8.254  18.904  34.889  1.00  0.00     0.041 C 
ATOM      5  O   UNL     1       8.674  20.065  35.133  1.00  0.00    -0.550 OA
ATOM      6  O   UNL     1       7.876  18.075  35.938  1.00  0.00    -0.550 OA
ENDBRANCH   3   4
ENDBRANCH   2   3
ENDBRANCH   1   2
BRANCH   1   7
ATOM      7  C   UNL     1       9.474  18.275  30.456  1.00  0.00     0.000 C 
BRANCH   7   8
ATOM      8  C   UNL     1       8.683  19.329  29.667  1.00  0.00    -0.000 C 
BRANCH   8   9
ATOM      9  C   UNL     1       8.289  20.540  30.526  1.00  0.00    -0.003 C 
ATOM     10  C   UNL     1       8.036  21.770  29.659  1.00  0.00     0.004 C 
ENDBRANCH   8   9
ENDBRANCH   7   8
ENDBRANCH   1   7
TORSDOF 6
ENDMDL
MODEL 6
REMARK VINA RESULT:    -4.030      3.900      5.389
REMARK INTER + INTRA:          -5.724
REMARK INTER:                  -5.446
REMARK INTRA:                  -0.278
REMARK UNBOUND:                -0.279
REMARK SMILES CCCCCCCC(=O)[O-]
REMARK SMILES IDX 5 1 6 2 7 3 8 4 9 5 10 6 4 7 3 8 2 9 1 10
REMARK H PARENT
REMARK Flexibility Score: inf
ROOT
ATOM      1  C   UNL     1       9.286  17.624  34.434  1.00  0.00     0.000 C 
ENDROOT
BRANCH   1   2
ATOM      2  C   UNL     1       9.049  17.672  35.950  1.00  0.00     0.006 C 
BRANCH   2   3
ATOM      3  C   UNL     1       7.881  18.593  36.327  1.00  0.00     0.053 C 
BRANCH   3   4
ATOM      4  C   UNL     1       8.266  19.568  37.397  1.00  0.00     0.041 C 
ATOM      5  O   UNL     1       8.173  19.247  38.611  1.00  0.00    -0.550 OA
ATOM      6  O   UNL     1       8.699  20.842  37.053  1.00  0.00    -0.550 OA
ENDBRANCH   3   4
ENDBRANCH   2   3
ENDBRANCH   1   2
BRANCH   1   7
ATOM      7  C   UNL     1       8.266  18.501  33.692  1.00  0.00     0.000 C 
BRANCH   7   8
ATOM      8  C   UNL     1       8.677  18.787  32.239  1.00  0.00    -0.000 C 
BRANCH   8   9
ATOM      9  C   UNL     1       9.796  17.859  31.746  1.00  0.00    -0.003 C 
ATOM     10  C   UNL     1       9.878  17.858  30.222  1.00  0.00     0.004 C 
ENDBRANCH   8   9
ENDBRANCH   7   8
ENDBRANCH   1   7
TORSDOF 6
ENDMDL
MODEL 7
REMARK VINA RESULT:    -4.015      2.757      4.799
REMARK INTER + INTRA:          -5.703
REMARK INTER:                  -5.559
REMARK INTRA:                  -0.145
REMARK UNBOUND:                -0.279
REMARK SMILES CCCCCCCC(=O)[O-]
REMARK SMILES IDX 5 1 6 2 7 3 8 4 9 5 10 6 4 7 3 8 2 9 1 10
REMARK H PARENT
REMARK Flexibility Score: inf
ROOT
ATOM      1  C   UNL     1       8.002  21.564  29.657  1.00  0.00     0.000 C 
ENDROOT
BRANCH   1   2
ATOM      2  C   UNL     1       8.272  20.055  29.752  1.00  0.00     0.006 C 
BRANCH   2   3
ATOM      3  C   UNL     1       8.672  19.624  31.169  1.00  0.00     0.053 C 
BRANCH   3   4
ATOM      4  C   UNL     1       9.406  18.318  31.166  1.00  0.00     0.041 C 
ATOM      5  O   UNL     1       9.562  17.674  32.236  1.00  0.00    -0.550 OA
ATOM      6  O   UNL     1       9.945  17.827  29.983  1.00  0.00    -0.550 OA
ENDBRANCH   3   4
ENDBRANCH   2   3
ENDBRANCH   1   2
BRANCH   1   7
ATOM      7  C   UNL     1       7.974  22.204  31.054  1.00  0.00     0.000 C 
BRANCH   7   8
ATOM      8  C   UNL     1       9.219  23.059  31.338  1.00  0.00    -0.000 C 
BRANCH   8   9
ATOM      9  C   UNL     1       9.278  23.554  32.791  1.00  0.00    -0.003 C 
ATOM     10  C   UNL     1       9.732  25.010  32.857  1.00  0.00     0.004 C 
ENDBRANCH   8   9
ENDBRANCH   7   8
ENDBRANCH   1   7
TORSDOF 6
ENDMDL
MODEL 8
REMARK VINA RESULT:    -3.981      3.913      5.456
REMARK INTER + INTRA:          -5.657
REMARK INTER:                  -5.184
REMARK INTRA:                  -0.473
REMARK UNBOUND:                -0.279
REMARK SMILES CCCCCCCC(=O)[O-]
REMARK SMILES IDX 5 1 6 2 7 3 8 4 9 5 10 6 4 7 3 8 2 9 1 10
REMARK H PARENT
REMARK Flexibility Score: inf
ROOT
ATOM      1  C   UNL     1      10.512  19.660  33.792  1.00  0.00     0.000 C 
ENDROOT
BRANCH   1   2
ATOM      2  C   UNL     1      11.115  18.320  34.240  1.00  0.00     0.006 C 
BRANCH   2   3
ATOM      3  C   UNL     1      10.120  17.160  34.097  1.00  0.00     0.053 C 
BRANCH   3   4
ATOM      4  C   UNL     1       9.376  16.907  35.372  1.00  0.00     0.041 C 
ATOM      5  O   UNL     1      10.004  16.691  36.442  1.00  0.00    -0.550 OA
ATOM      6  O   UNL     1       7.987  16.881  35.373  1.00  0.00    -0.550 OA
ENDBRANCH   3   4
ENDBRANCH   2   3
ENDBRANCH   1   2
BRANCH   1   7
ATOM      7  C   UNL     1      10.590  19.813  32.265  1.00  0.00     0.000 C 
BRANCH   7   8
ATOM      8  C   UNL     1       9.204  19.891  31.606  1.00  0.00    -0.000 C 
BRANCH   8   9
ATOM      9  C   UNL     1       8.774  18.560  30.972  1.00  0.00    -0.003 C 
ATOM     10  C   UNL     1       9.960  17.852  30.324  1.00  0.00     0.004 C 
ENDBRANCH   8   9
ENDBRANCH   7   8
ENDBRANCH   1   7
TORSDOF 6
ENDMDL
