MODEL 1
REMARK VINA RESULT:    -5.538      0.000      0.000
REMARK INTER + INTRA:          -7.418
REMARK INTER:                  -6.833
REMARK INTRA:                  -0.586
REMARK UNBOUND:                -0.586
REMARK SMILES COc1ccc(-c2cc3cc(O)c(OC)cc3o2)c(O)c1
REMARK SMILES IDX 7 1 8 2 9 3 10 4 11 5 13 6 16 7 17 8 18 9 6 10 3 11 21 12
REMARK SMILES IDX 4 13 19 14 5 15 2 16 1 17 20 18 12 20 14 22 15 23
REMARK H PARENT 20 19 12 21
REMARK Flexibility Score: inf
ROOT
ATOM      1  C   UNL     1     -14.646  21.546  10.361  1.00  0.00     0.139 A 
ATOM      2  C   UNL     1     -13.273  21.368  10.562  1.00  0.00     0.060 A 
ATOM      3  C   UNL     1     -12.741  22.632  10.457  1.00  0.00     0.025 A 
ATOM      4  C   UNL     1     -11.429  23.079  10.563  1.00  0.00     0.062 A 
ATOM      5  C   UNL     1     -11.187  24.460  10.403  1.00  0.00     0.158 A 
ATOM      6  C   UNL     1     -12.257  25.352  10.144  1.00  0.00     0.164 A 
ATOM      7  C   UNL     1     -13.580  24.852  10.042  1.00  0.00     0.098 A 
ATOM      8  C   UNL     1     -13.777  23.484  10.206  1.00  0.00     0.138 A 
ATOM      9  O   UNL     1     -14.908  22.826  10.150  1.00  0.00    -0.456 OA
ENDROOT
BRANCH   1  10
ATOM     10  C   UNL     1     -15.685  20.484  10.371  1.00  0.00     0.059 A 
ATOM     11  C   UNL     1     -17.651  18.451  10.395  1.00  0.00     0.122 A 
ATOM     12  C   UNL     1     -17.981  19.758  10.760  1.00  0.00     0.093 A 
ATOM     13  C   UNL     1     -16.331  18.158  10.017  1.00  0.00     0.047 A 
ATOM     14  C   UNL     1     -17.015  20.775  10.751  1.00  0.00     0.130 A 
ATOM     15  C   UNL     1     -15.360  19.163  10.007  1.00  0.00     0.020 A 
BRANCH  11  16
ATOM     16  O   UNL     1     -18.661  17.476  10.423  1.00  0.00    -0.497 OA
ATOM     17  C   UNL     1     -19.904  17.625  11.103  1.00  0.00     0.278 C 
ENDBRANCH  11  16
BRANCH  14  18
ATOM     18  O   UNL     1     -17.381  22.071  11.115  1.00  0.00    -0.507 OA
ATOM     19  H   UNL     1     -17.798  22.273  12.017  1.00  0.00     0.293 HD
ENDBRANCH  14  18
ENDBRANCH   1  10
BRANCH   5  20
ATOM     20  O   UNL     1      -9.888  24.956  10.501  1.00  0.00    -0.504 OA
ATOM     21  H   UNL     1      -9.105  24.482  10.067  1.00  0.00     0.293 HD
ENDBRANCH   5  20
BRANCH   6  22
ATOM     22  O   UNL     1     -11.967  26.717   9.992  1.00  0.00    -0.493 OA
ATOM     23  C   UNL     1     -12.949  27.738   9.853  1.00  0.00     0.278 C 
ENDBRANCH   6  22
TORSDOF 5
ENDMDL
MODEL 2
REMARK VINA RESULT:    -5.246      1.174      1.552
REMARK INTER + INTRA:          -7.058
REMARK INTER:                  -6.547
REMARK INTRA:                  -0.511
REMARK UNBOUND:                -0.586
REMARK SMILES COc1ccc(-c2cc3cc(O)c(OC)cc3o2)c(O)c1
REMARK SMILES IDX 7 1 8 2 9 3 10 4 11 5 13 6 16 7 17 8 18 9 6 10 3 11 21 12
REMARK SMILES IDX 4 13 19 14 5 15 2 16 1 17 20 18 12 20 14 22 15 23
REMARK H PARENT 20 19 12 21
REMARK Flexibility Score: inf
ROOT
ATOM      1  C   UNL     1     -14.161  22.845  10.209  1.00  0.00     0.139 A 
ATOM      2  C   UNL     1     -12.767  22.882  10.094  1.00  0.00     0.060 A 
ATOM      3  C   UNL     1     -12.461  24.220  10.026  1.00  0.00     0.025 A 
ATOM      4  C   UNL     1     -11.237  24.868   9.904  1.00  0.00     0.062 A 
ATOM      5  C   UNL     1     -11.238  26.279   9.858  1.00  0.00     0.158 A 
ATOM      6  C   UNL     1     -12.456  26.999   9.935  1.00  0.00     0.164 A 
ATOM      7  C   UNL     1     -13.682  26.297  10.057  1.00  0.00     0.098 A 
ATOM      8  C   UNL     1     -13.638  24.906  10.100  1.00  0.00     0.138 A 
ATOM      9  O   UNL     1     -14.645  24.077  10.207  1.00  0.00    -0.456 OA
ENDROOT
BRANCH   1  10
ATOM     10  C   UNL     1     -15.008  21.628  10.314  1.00  0.00     0.059 A 
ATOM     11  C   UNL     1     -16.606  19.304  10.525  1.00  0.00     0.122 A 
ATOM     12  C   UNL     1     -17.193  20.572  10.558  1.00  0.00     0.093 A 
ATOM     13  C   UNL     1     -15.213  19.199  10.387  1.00  0.00     0.047 A 
ATOM     14  C   UNL     1     -16.410  21.731  10.454  1.00  0.00     0.130 A 
ATOM     15  C   UNL     1     -14.424  20.347  10.284  1.00  0.00     0.020 A 
BRANCH  11  16
ATOM     16  O   UNL     1     -17.441  18.181  10.633  1.00  0.00    -0.497 OA
ATOM     17  C   UNL     1     -18.858  18.216  10.497  1.00  0.00     0.278 C 
ENDBRANCH  11  16
BRANCH  14  18
ATOM     18  O   UNL     1     -17.030  22.980  10.484  1.00  0.00    -0.507 OA
ATOM     19  H   UNL     1     -17.581  23.283  11.280  1.00  0.00     0.293 HD
ENDBRANCH  14  18
ENDBRANCH   1  10
BRANCH   5  20
ATOM     20  O   UNL     1     -10.037  26.974   9.736  1.00  0.00    -0.504 OA
ATOM     21  H   UNL     1      -9.142  26.503   9.808  1.00  0.00     0.293 HD
ENDBRANCH   5  20
BRANCH   6  22
ATOM     22  O   UNL     1     -12.407  28.401   9.884  1.00  0.00    -0.493 OA
ATOM     23  C   UNL     1     -12.889  29.184   8.798  1.00  0.00     0.278 C 
ENDBRANCH   6  22
TORSDOF 5
ENDMDL
MODEL 3
REMARK VINA RESULT:    -5.047      3.599      9.337
REMARK INTER + INTRA:          -6.813
REMARK INTER:                  -6.219
REMARK INTRA:                  -0.594
REMARK UNBOUND:                -0.586
REMARK SMILES COc1ccc(-c2cc3cc(O)c(OC)cc3o2)c(O)c1
REMARK SMILES IDX 7 1 8 2 9 3 10 4 11 5 13 6 16 7 17 8 18 9 6 10 3 11 21 12
REMARK SMILES IDX 4 13 19 14 5 15 2 16 1 17 20 18 12 20 14 22 15 23
REMARK H PARENT 20 19 12 21
REMARK Flexibility Score: inf
ROOT
ATOM      1  C   UNL     1     -12.567  28.367   9.445  1.00  0.00     0.139 A 
ATOM      2  C   UNL     1     -11.274  27.887   9.682  1.00  0.00     0.060 A 
ATOM      3  C   UNL     1     -11.451  26.564  10.011  1.00  0.00     0.025 A 
ATOM      4  C   UNL     1     -10.531  25.578  10.349  1.00  0.00     0.062 A 
ATOM      5  C   UNL     1     -11.021  24.288  10.644  1.00  0.00     0.158 A 
ATOM      6  C   UNL     1     -12.412  24.019  10.592  1.00  0.00     0.164 A 
ATOM      7  C   UNL     1     -13.316  25.055  10.244  1.00  0.00     0.098 A 
ATOM      8  C   UNL     1     -12.792  26.313   9.960  1.00  0.00     0.138 A 
ATOM      9  O   UNL     1     -13.447  27.395   9.622  1.00  0.00    -0.456 OA
ENDROOT
BRANCH   1  10
ATOM     10  C   UNL     1     -12.937  29.752   9.054  1.00  0.00     0.059 A 
ATOM     11  C   UNL     1     -13.626  32.394   8.317  1.00  0.00     0.122 A 
ATOM     12  C   UNL     1     -13.950  31.321   7.484  1.00  0.00     0.093 A 
ATOM     13  C   UNL     1     -12.953  32.145   9.524  1.00  0.00     0.047 A 
ATOM     14  C   UNL     1     -13.613  30.006   7.840  1.00  0.00     0.130 A 
ATOM     15  C   UNL     1     -12.612  30.840   9.887  1.00  0.00     0.020 A 
BRANCH  11  16
ATOM     16  O   UNL     1     -13.989  33.687   7.909  1.00  0.00    -0.497 OA
ATOM     17  C   UNL     1     -14.253  34.060   6.560  1.00  0.00     0.278 C 
ENDBRANCH  11  16
BRANCH  14  18
ATOM     18  O   UNL     1     -13.958  28.957   6.987  1.00  0.00    -0.507 OA
ATOM     19  H   UNL     1     -13.723  27.995   7.204  1.00  0.00     0.293 HD
ENDBRANCH  14  18
ENDBRANCH   1  10
BRANCH   5  20
ATOM     20  O   UNL     1     -10.138  23.268  10.988  1.00  0.00    -0.504 OA
ATOM     21  H   UNL     1     -10.213  22.777  11.872  1.00  0.00     0.293 HD
ENDBRANCH   5  20
BRANCH   6  22
ATOM     22  O   UNL     1     -12.852  22.721  10.893  1.00  0.00    -0.493 OA
ATOM     23  C   UNL     1     -13.464  21.842   9.957  1.00  0.00     0.278 C 
ENDBRANCH   6  22
TORSDOF 5
ENDMDL
MODEL 4
REMARK VINA RESULT:    -4.966      1.482      7.697
REMARK INTER + INTRA:          -6.712
REMARK INTER:                  -6.215
REMARK INTRA:                  -0.497
REMARK UNBOUND:                -0.586
REMARK SMILES COc1ccc(-c2cc3cc(O)c(OC)cc3o2)c(O)c1
REMARK SMILES IDX 7 1 8 2 9 3 10 4 11 5 13 6 16 7 17 8 18 9 6 10 3 11 21 12
REMARK SMILES IDX 4 13 19 14 5 15 2 16 1 17 20 18 12 20 14 22 15 23
REMARK H PARENT 20 19 12 21
REMARK Flexibility Score: inf
ROOT
ATOM      1  C   UNL     1     -15.632  21.205  10.242  1.00  0.00     0.139 A 
ATOM      2  C   UNL     1     -15.030  19.951  10.092  1.00  0.00     0.060 A 
ATOM      3  C   UNL     1     -16.045  19.050  10.314  1.00  0.00     0.025 A 
ATOM      4  C   UNL     1     -16.047  17.660  10.301  1.00  0.00     0.062 A 
ATOM      5  C   UNL     1     -17.264  16.999  10.572  1.00  0.00     0.158 A 
ATOM      6  C   UNL     1     -18.439  17.741  10.847  1.00  0.00     0.164 A 
ATOM      7  C   UNL     1     -18.391  19.158  10.850  1.00  0.00     0.098 A 
ATOM      8  C   UNL     1     -17.172  19.773  10.578  1.00  0.00     0.138 A 
ATOM      9  O   UNL     1     -16.915  21.055  10.534  1.00  0.00    -0.456 OA
ENDROOT
BRANCH   1  10
ATOM     10  C   UNL     1     -14.967  22.527  10.107  1.00  0.00     0.059 A 
ATOM     11  C   UNL     1     -13.693  25.037   9.835  1.00  0.00     0.122 A 
ATOM     12  C   UNL     1     -15.025  24.961  10.249  1.00  0.00     0.093 A 
ATOM     13  C   UNL     1     -12.995  23.852   9.555  1.00  0.00     0.047 A 
ATOM     14  C   UNL     1     -15.667  23.722  10.388  1.00  0.00     0.130 A 
ATOM     15  C   UNL     1     -13.626  22.613   9.688  1.00  0.00     0.020 A 
BRANCH  11  16
ATOM     16  O   UNL     1     -13.104  26.306   9.715  1.00  0.00    -0.497 OA
ATOM     17  C   UNL     1     -13.156  27.315  10.719  1.00  0.00     0.278 C 
ENDBRANCH  11  16
BRANCH  14  18
ATOM     18  O   UNL     1     -16.996  23.683  10.810  1.00  0.00    -0.507 OA
ATOM     19  H   UNL     1     -17.249  23.789  11.786  1.00  0.00     0.293 HD
ENDBRANCH  14  18
ENDBRANCH   1  10
BRANCH   5  20
ATOM     20  O   UNL     1     -17.316  15.606  10.571  1.00  0.00    -0.504 OA
ATOM     21  H   UNL     1     -16.939  15.061  11.338  1.00  0.00     0.293 HD
ENDBRANCH   5  20
BRANCH   6  22
ATOM     22  O   UNL     1     -19.625  17.039  11.111  1.00  0.00    -0.493 OA
ATOM     23  C   UNL     1     -20.922  17.626  11.125  1.00  0.00     0.278 C 
ENDBRANCH   6  22
TORSDOF 5
ENDMDL
MODEL 5
REMARK VINA RESULT:    -4.931      3.486      6.332
REMARK INTER + INTRA:          -6.669
REMARK INTER:                  -6.159
REMARK INTRA:                  -0.510
REMARK UNBOUND:                -0.586
REMARK SMILES COc1ccc(-c2cc3cc(O)c(OC)cc3o2)c(O)c1
REMARK SMILES IDX 7 1 8 2 9 3 10 4 11 5 13 6 16 7 17 8 18 9 6 10 3 11 21 12
REMARK SMILES IDX 4 13 19 14 5 15 2 16 1 17 20 18 12 20 14 22 15 23
REMARK H PARENT 20 19 12 21
REMARK Flexibility Score: inf
ROOT
ATOM      1  C   UNL     1     -11.438  26.989  10.316  1.00  0.00     0.139 A 
ATOM      2  C   UNL     1     -10.040  26.978  10.301  1.00  0.00     0.060 A 
ATOM      3  C   UNL     1      -9.680  28.292  10.485  1.00  0.00     0.025 A 
ATOM      4  C   UNL     1      -8.428  28.892  10.557  1.00  0.00     0.062 A 
ATOM      5  C   UNL     1      -8.375  30.288  10.755  1.00  0.00     0.158 A 
ATOM      6  C   UNL     1      -9.569  31.043  10.875  1.00  0.00     0.164 A 
ATOM      7  C   UNL     1     -10.825  30.390  10.794  1.00  0.00     0.098 A 
ATOM      8  C   UNL     1     -10.834  29.011  10.599  1.00  0.00     0.138 A 
ATOM      9  O   UNL     1     -11.876  28.226  10.496  1.00  0.00    -0.456 OA
ENDROOT
BRANCH   1  10
ATOM     10  C   UNL     1     -12.334  25.814  10.154  1.00  0.00     0.059 A 
ATOM     11  C   UNL     1     -14.027  23.568   9.856  1.00  0.00     0.122 A 
ATOM     12  C   UNL     1     -14.568  24.840  10.060  1.00  0.00     0.093 A 
ATOM     13  C   UNL     1     -12.632  23.419   9.802  1.00  0.00     0.047 A 
ATOM     14  C   UNL     1     -13.738  25.961  10.208  1.00  0.00     0.130 A 
ATOM     15  C   UNL     1     -11.797  24.529   9.951  1.00  0.00     0.020 A 
BRANCH  11  16
ATOM     16  O   UNL     1     -14.907  22.484   9.714  1.00  0.00    -0.497 OA
ATOM     17  C   UNL     1     -16.232  22.450  10.237  1.00  0.00     0.278 C 
ENDBRANCH  11  16
BRANCH  14  18
ATOM     18  O   UNL     1     -14.313  27.217  10.404  1.00  0.00    -0.507 OA
ATOM     19  H   UNL     1     -14.800  27.703   9.659  1.00  0.00     0.293 HD
ENDBRANCH  14  18
ENDBRANCH   1  10
BRANCH   5  20
ATOM     20  O   UNL     1      -7.144  30.935  10.834  1.00  0.00    -0.504 OA
ATOM     21  H   UNL     1      -6.297  30.510  10.472  1.00  0.00     0.293 HD
ENDBRANCH   5  20
BRANCH   6  22
ATOM     22  O   UNL     1      -9.465  32.429  11.070  1.00  0.00    -0.493 OA
ATOM     23  C   UNL     1      -9.836  33.407  10.105  1.00  0.00     0.278 C 
ENDBRANCH   6  22
TORSDOF 5
ENDMDL
MODEL 6
REMARK VINA RESULT:    -4.857      3.131      9.392
REMARK INTER + INTRA:          -6.579
REMARK INTER:                  -6.090
REMARK INTRA:                  -0.489
REMARK UNBOUND:                -0.586
REMARK SMILES COc1ccc(-c2cc3cc(O)c(OC)cc3o2)c(O)c1
REMARK SMILES IDX 7 1 8 2 9 3 10 4 11 5 13 6 16 7 17 8 18 9 6 10 3 11 21 12
REMARK SMILES IDX 4 13 19 14 5 15 2 16 1 17 20 18 12 20 14 22 15 23
REMARK H PARENT 20 19 12 21
REMARK Flexibility Score: inf
ROOT
ATOM      1  C   UNL     1     -11.242  26.901  10.287  1.00  0.00     0.139 A 
ATOM      2  C   UNL     1     -10.715  25.607  10.228  1.00  0.00     0.060 A 
ATOM      3  C   UNL     1     -11.808  24.797  10.030  1.00  0.00     0.025 A 
ATOM      4  C   UNL     1     -11.906  23.417   9.893  1.00  0.00     0.062 A 
ATOM      5  C   UNL     1     -13.189  22.862   9.698  1.00  0.00     0.158 A 
ATOM      6  C   UNL     1     -14.333  23.697   9.643  1.00  0.00     0.164 A 
ATOM      7  C   UNL     1     -14.187  25.100   9.789  1.00  0.00     0.098 A 
ATOM      8  C   UNL     1     -12.904  25.608   9.980  1.00  0.00     0.138 A 
ATOM      9  O   UNL     1     -12.556  26.860  10.135  1.00  0.00    -0.456 OA
ENDROOT
BRANCH   1  10
ATOM     10  C   UNL     1     -10.475  28.159  10.492  1.00  0.00     0.059 A 
ATOM     11  C   UNL     1      -9.006  30.545  10.871  1.00  0.00     0.122 A 
ATOM     12  C   UNL     1     -10.400  30.578  10.790  1.00  0.00     0.093 A 
ATOM     13  C   UNL     1      -8.343  29.312  10.760  1.00  0.00     0.047 A 
ATOM     14  C   UNL     1     -11.139  29.401  10.603  1.00  0.00     0.130 A 
ATOM     15  C   UNL     1      -9.070  28.134  10.572  1.00  0.00     0.020 A 
BRANCH  11  16
ATOM     16  O   UNL     1      -8.320  31.755  11.059  1.00  0.00    -0.497 OA
ATOM     17  C   UNL     1      -8.873  33.042  10.800  1.00  0.00     0.278 C 
ENDBRANCH  11  16
BRANCH  14  18
ATOM     18  O   UNL     1     -12.531  29.471  10.533  1.00  0.00    -0.507 OA
ATOM     19  H   UNL     1     -13.104  29.527  11.368  1.00  0.00     0.293 HD
ENDBRANCH  14  18
ENDBRANCH   1  10
BRANCH   5  20
ATOM     20  O   UNL     1     -13.338  21.484   9.556  1.00  0.00    -0.504 OA
ATOM     21  H   UNL     1     -12.886  20.976   8.804  1.00  0.00     0.293 HD
ENDBRANCH   5  20
BRANCH   6  22
ATOM     22  O   UNL     1     -15.587  23.099   9.447  1.00  0.00    -0.493 OA
ATOM     23  C   UNL     1     -16.434  22.643  10.497  1.00  0.00     0.278 C 
ENDBRANCH   6  22
TORSDOF 5
ENDMDL
MODEL 7
REMARK VINA RESULT:    -4.819      1.795      7.763
REMARK INTER + INTRA:          -6.531
REMARK INTER:                  -5.930
REMARK INTRA:                  -0.601
REMARK UNBOUND:                -0.586
REMARK SMILES COc1ccc(-c2cc3cc(O)c(OC)cc3o2)c(O)c1
REMARK SMILES IDX 7 1 8 2 9 3 10 4 11 5 13 6 16 7 17 8 18 9 6 10 3 11 21 12
REMARK SMILES IDX 4 13 19 14 5 15 2 16 1 17 20 18 12 20 14 22 15 23
REMARK H PARENT 20 19 12 21
REMARK Flexibility Score: inf
ROOT
ATOM      1  C   UNL     1     -15.290  22.113  10.234  1.00  0.00     0.139 A 
ATOM      2  C   UNL     1     -16.634  21.725  10.255  1.00  0.00     0.060 A 
ATOM      3  C   UNL     1     -16.596  20.351  10.275  1.00  0.00     0.025 A 
ATOM      4  C   UNL     1     -17.621  19.412  10.300  1.00  0.00     0.062 A 
ATOM      5  C   UNL     1     -17.267  18.046  10.314  1.00  0.00     0.158 A 
ATOM      6  C   UNL     1     -15.904  17.657  10.305  1.00  0.00     0.164 A 
ATOM      7  C   UNL     1     -14.890  18.649  10.278  1.00  0.00     0.098 A 
ATOM      8  C   UNL     1     -15.281  19.985  10.265  1.00  0.00     0.138 A 
ATOM      9  O   UNL     1     -14.511  21.043  10.239  1.00  0.00    -0.456 OA
ENDROOT
BRANCH   1  10
ATOM     10  C   UNL     1     -14.773  23.507  10.204  1.00  0.00     0.059 A 
ATOM     11  C   UNL     1     -13.795  26.160  10.166  1.00  0.00     0.122 A 
ATOM     12  C   UNL     1     -13.132  25.152   9.463  1.00  0.00     0.093 A 
ATOM     13  C   UNL     1     -14.952  25.840  10.893  1.00  0.00     0.047 A 
ATOM     14  C   UNL     1     -13.609  23.832   9.474  1.00  0.00     0.130 A 
ATOM     15  C   UNL     1     -15.434  24.529  10.913  1.00  0.00     0.020 A 
BRANCH  11  16
ATOM     16  O   UNL     1     -13.271  27.462  10.117  1.00  0.00    -0.497 OA
ATOM     17  C   UNL     1     -13.594  28.421   9.114  1.00  0.00     0.278 C 
ENDBRANCH  11  16
BRANCH  14  18
ATOM     18  O   UNL     1     -12.925  22.852   8.755  1.00  0.00    -0.507 OA
ATOM     19  H   UNL     1     -12.382  23.078   7.929  1.00  0.00     0.293 HD
ENDBRANCH  14  18
ENDBRANCH   1  10
BRANCH   5  20
ATOM     20  O   UNL     1     -18.259  17.068  10.339  1.00  0.00    -0.504 OA
ATOM     21  H   UNL     1     -19.242  17.311  10.374  1.00  0.00     0.293 HD
ENDBRANCH   5  20
BRANCH   6  22
ATOM     22  O   UNL     1     -15.600  16.287  10.320  1.00  0.00    -0.493 OA
ATOM     23  C   UNL     1     -14.818  15.626   9.332  1.00  0.00     0.278 C 
ENDBRANCH   6  22
TORSDOF 5
ENDMDL
MODEL 8
REMARK VINA RESULT:    -4.772      1.474      2.514
REMARK INTER + INTRA:          -6.473
REMARK INTER:                  -5.891
REMARK INTRA:                  -0.582
REMARK UNBOUND:                -0.586
REMARK SMILES COc1ccc(-c2cc3cc(O)c(OC)cc3o2)c(O)c1
REMARK SMILES IDX 7 1 8 2 9 3 10 4 11 5 13 6 16 7 17 8 18 9 6 10 3 11 21 12
REMARK SMILES IDX 4 13 19 14 5 15 2 16 1 17 20 18 12 20 14 22 15 23
REMARK H PARENT 20 19 12 21
REMARK Flexibility Score: inf
ROOT
ATOM      1  C   UNL     1     -15.222  21.468  10.334  1.00  0.00     0.139 A 
ATOM      2  C   UNL     1     -15.844  22.656   9.935  1.00  0.00     0.060 A 
ATOM      3  C   UNL     1     -14.879  23.622  10.093  1.00  0.00     0.025 A 
ATOM      4  C   UNL     1     -14.915  24.992   9.858  1.00  0.00     0.062 A 
ATOM      5  C   UNL     1     -13.746  25.739  10.120  1.00  0.00     0.158 A 
ATOM      6  C   UNL     1     -12.579  25.099  10.607  1.00  0.00     0.164 A 
ATOM      7  C   UNL     1     -12.587  23.699  10.833  1.00  0.00     0.098 A 
ATOM      8  C   UNL     1     -13.759  22.998  10.562  1.00  0.00     0.138 A 
ATOM      9  O   UNL     1     -13.975  21.715  10.703  1.00  0.00    -0.456 OA
ENDROOT
BRANCH   1  10
ATOM     10  C   UNL     1     -15.834  20.114  10.358  1.00  0.00     0.059 A 
ATOM     11  C   UNL     1     -17.013  17.543  10.392  1.00  0.00     0.122 A 
ATOM     12  C   UNL     1     -15.624  17.684  10.345  1.00  0.00     0.093 A 
ATOM     13  C   UNL     1     -17.817  18.694  10.421  1.00  0.00     0.047 A 
ATOM     14  C   UNL     1     -15.028  18.954  10.328  1.00  0.00     0.130 A 
ATOM     15  C   UNL     1     -17.234  19.964  10.403  1.00  0.00     0.020 A 
BRANCH  11  16
ATOM     16  O   UNL     1     -17.552  16.247  10.408  1.00  0.00    -0.497 OA
ATOM     17  C   UNL     1     -18.866  15.928  10.854  1.00  0.00     0.278 C 
ENDBRANCH  11  16
BRANCH  14  18
ATOM     18  O   UNL     1     -13.638  19.057  10.288  1.00  0.00    -0.507 OA
ATOM     19  H   UNL     1     -13.125  19.621  10.957  1.00  0.00     0.293 HD
ENDBRANCH  14  18
ENDBRANCH   1  10
BRANCH   5  20
ATOM     20  O   UNL     1     -13.734  27.114   9.900  1.00  0.00    -0.504 OA
ATOM     21  H   UNL     1     -13.374  27.759  10.595  1.00  0.00     0.293 HD
ENDBRANCH   5  20
BRANCH   6  22
ATOM     22  O   UNL     1     -11.441  25.883  10.853  1.00  0.00    -0.493 OA
ATOM     23  C   UNL     1     -10.366  26.049   9.936  1.00  0.00     0.278 C 
ENDBRANCH   6  22
TORSDOF 5
ENDMDL
MODEL 9
REMARK VINA RESULT:    -4.538      2.295      8.565
REMARK INTER + INTRA:          -6.185
REMARK INTER:                  -5.626
REMARK INTRA:                  -0.559
REMARK UNBOUND:                -0.586
REMARK SMILES COc1ccc(-c2cc3cc(O)c(OC)cc3o2)c(O)c1
REMARK SMILES IDX 7 1 8 2 9 3 10 4 11 5 13 6 16 7 17 8 18 9 6 10 3 11 21 12
REMARK SMILES IDX 4 13 19 14 5 15 2 16 1 17 20 18 12 20 14 22 15 23
REMARK H PARENT 20 19 12 21
REMARK Flexibility Score: inf
ROOT
ATOM      1  C   UNL     1     -12.704  25.122  10.382  1.00  0.00     0.139 A 
ATOM      2  C   UNL     1     -14.094  25.273  10.378  1.00  0.00     0.060 A 
ATOM      3  C   UNL     1     -14.583  23.988  10.375  1.00  0.00     0.025 A 
ATOM      4  C   UNL     1     -15.888  23.511  10.370  1.00  0.00     0.062 A 
ATOM      5  C   UNL     1     -16.080  22.112  10.367  1.00  0.00     0.158 A 
ATOM      6  C   UNL     1     -14.967  21.234  10.370  1.00  0.00     0.164 A 
ATOM      7  C   UNL     1     -13.652  21.765  10.375  1.00  0.00     0.098 A 
ATOM      8  C   UNL     1     -13.506  23.150  10.378  1.00  0.00     0.138 A 
ATOM      9  O   UNL     1     -12.391  23.836  10.381  1.00  0.00    -0.456 OA
ENDROOT
BRANCH   1  10
ATOM     10  C   UNL     1     -11.696  26.214  10.383  1.00  0.00     0.059 A 
ATOM     11  C   UNL     1      -9.790  28.304  10.392  1.00  0.00     0.122 A 
ATOM     12  C   UNL     1      -9.420  27.008  10.760  1.00  0.00     0.093 A 
ATOM     13  C   UNL     1     -11.120  28.556  10.019  1.00  0.00     0.047 A 
ATOM     14  C   UNL     1     -10.357  25.963  10.758  1.00  0.00     0.130 A 
ATOM     15  C   UNL     1     -12.061  27.524  10.016  1.00  0.00     0.020 A 
BRANCH  11  16
ATOM     16  O   UNL     1      -8.809  29.308  10.412  1.00  0.00    -0.497 OA
ATOM     17  C   UNL     1      -7.578  29.216  11.123  1.00  0.00     0.278 C 
ENDBRANCH  11  16
BRANCH  14  18
ATOM     18  O   UNL     1      -9.951  24.680  11.125  1.00  0.00    -0.507 OA
ATOM     19  H   UNL     1     -10.445  23.854  10.807  1.00  0.00     0.293 HD
ENDBRANCH  14  18
ENDBRANCH   1  10
BRANCH   5  20
ATOM     20  O   UNL     1     -17.370  21.585  10.362  1.00  0.00    -0.504 OA
ATOM     21  H   UNL     1     -17.899  21.470  11.218  1.00  0.00     0.293 HD
ENDBRANCH   5  20
BRANCH   6  22
ATOM     22  O   UNL     1     -15.208  19.852  10.367  1.00  0.00    -0.493 OA
ATOM     23  C   UNL     1     -14.301  18.878   9.863  1.00  0.00     0.278 C 
ENDBRANCH   6  22
TORSDOF 5
ENDMDL
