MODEL 1
REMARK VINA RESULT:    -4.616      0.000      0.000
REMARK INTER + INTRA:          -5.804
REMARK INTER:                  -5.696
REMARK INTRA:                  -0.108
REMARK UNBOUND:                -0.108
REMARK SMILES CCCCCC(=O)[O-]
REMARK SMILES IDX 4 1 5 2 6 3 7 4 8 5 3 6 2 7 1 8
REMARK H PARENT
REMARK Flexibility Score: inf
ROOT
ATOM      1  C   UNL     1      45.380  27.037   5.180  1.00  0.00     0.006 C 
ENDROOT
BRANCH   1   2
ATOM      2  C   UNL     1      44.161  26.970   4.250  1.00  0.00     0.053 C 
BRANCH   2   3
ATOM      3  C   UNL     1      44.480  26.268   2.966  1.00  0.00     0.041 C 
ATOM      4  O   UNL     1      45.500  26.591   2.303  1.00  0.00    -0.550 OA
ATOM      5  O   UNL     1      43.669  25.232   2.519  1.00  0.00    -0.550 OA
ENDBRANCH   2   3
ENDBRANCH   1   2
BRANCH   1   6
ATOM      6  C   UNL     1      45.022  27.601   6.565  1.00  0.00     0.000 C 
BRANCH   6   7
ATOM      7  C   UNL     1      43.720  27.008   7.124  1.00  0.00    -0.003 C 
ATOM      8  C   UNL     1      43.941  25.687   7.861  1.00  0.00     0.004 C 
ENDBRANCH   6   7
ENDBRANCH   1   6
TORSDOF 4
ENDMDL
MODEL 2
REMARK VINA RESULT:    -4.584      2.598      4.052
REMARK INTER + INTRA:          -5.764
REMARK INTER:                  -5.522
REMARK INTRA:                  -0.242
REMARK UNBOUND:                -0.108
REMARK SMILES CCCCCC(=O)[O-]
REMARK SMILES IDX 4 1 5 2 6 3 7 4 8 5 3 6 2 7 1 8
REMARK H PARENT
REMARK Flexibility Score: inf
ROOT
ATOM      1  C   UNL     1      43.875  27.109   4.850  1.00  0.00     0.006 C 
ENDROOT
BRANCH   1   2
ATOM      2  C   UNL     1      45.161  27.421   5.625  1.00  0.00     0.053 C 
BRANCH   2   3
ATOM      3  C   UNL     1      45.590  26.268   6.480  1.00  0.00     0.041 C 
ATOM      4  O   UNL     1      46.644  25.636   6.210  1.00  0.00    -0.550 OA
ATOM      5  O   UNL     1      44.843  25.915   7.597  1.00  0.00    -0.550 OA
ENDBRANCH   2   3
ENDBRANCH   1   2
BRANCH   1   6
ATOM      6  C   UNL     1      44.154  26.336   3.550  1.00  0.00     0.000 C 
BRANCH   6   7
ATOM      7  C   UNL     1      45.408  26.842   2.821  1.00  0.00    -0.003 C 
ATOM      8  C   UNL     1      46.426  25.732   2.556  1.00  0.00     0.004 C 
ENDBRANCH   6   7
ENDBRANCH   1   6
TORSDOF 4
ENDMDL
MODEL 3
REMARK VINA RESULT:    -4.265      1.336      2.092
REMARK INTER + INTRA:          -5.371
REMARK INTER:                  -5.265
REMARK INTRA:                  -0.106
REMARK UNBOUND:                -0.108
REMARK SMILES CCCCCC(=O)[O-]
REMARK SMILES IDX 4 1 5 2 6 3 7 4 8 5 3 6 2 7 1 8
REMARK H PARENT
REMARK Flexibility Score: inf
ROOT
ATOM      1  C   UNL     1      44.463  26.813   3.884  1.00  0.00     0.006 C 
ENDROOT
BRANCH   1   2
ATOM      2  C   UNL     1      45.355  26.831   2.636  1.00  0.00     0.053 C 
BRANCH   2   3
ATOM      3  C   UNL     1      46.075  25.531   2.447  1.00  0.00     0.041 C 
ATOM      4  O   UNL     1      45.447  24.508   2.069  1.00  0.00    -0.550 OA
ATOM      5  O   UNL     1      47.447  25.458   2.655  1.00  0.00    -0.550 OA
ENDBRANCH   2   3
ENDBRANCH   1   2
BRANCH   1   6
ATOM      6  C   UNL     1      45.280  26.670   5.179  1.00  0.00     0.000 C 
BRANCH   6   7
ATOM      7  C   UNL     1      44.706  27.506   6.334  1.00  0.00    -0.003 C 
ATOM      8  C   UNL     1      43.706  26.726   7.187  1.00  0.00     0.004 C 
ENDBRANCH   6   7
ENDBRANCH   1   6
TORSDOF 4
ENDMDL
MODEL 4
REMARK VINA RESULT:    -3.906     14.554     15.241
REMARK INTER + INTRA:          -4.927
REMARK INTER:                  -4.834
REMARK INTRA:                  -0.093
REMARK UNBOUND:                -0.108
REMARK SMILES CCCCCC(=O)[O-]
REMARK SMILES IDX 4 1 5 2 6 3 7 4 8 5 3 6 2 7 1 8
REMARK H PARENT
REMARK Flexibility Score: inf
ROOT
ATOM      1  C   UNL     1      40.649  22.794  17.730  1.00  0.00     0.006 C 
ENDROOT
BRANCH   1   2
ATOM      2  C   UNL     1      40.086  23.871  18.666  1.00  0.00     0.053 C 
BRANCH   2   3
ATOM      3  C   UNL     1      41.058  24.231  19.747  1.00  0.00     0.041 C 
ATOM      4  O   UNL     1      41.557  25.386  19.792  1.00  0.00    -0.550 OA
ATOM      5  O   UNL     1      41.385  23.302  20.727  1.00  0.00    -0.550 OA
ENDBRANCH   2   3
ENDBRANCH   1   2
BRANCH   1   6
ATOM      6  C   UNL     1      39.543  21.897  17.147  1.00  0.00     0.000 C 
BRANCH   6   7
ATOM      7  C   UNL     1      38.304  22.696  16.715  1.00  0.00    -0.003 C 
ATOM      8  C   UNL     1      37.031  22.247  17.434  1.00  0.00     0.004 C 
ENDBRANCH   6   7
ENDBRANCH   1   6
TORSDOF 4
ENDMDL
MODEL 5
REMARK VINA RESULT:    -3.901     14.541     15.269
REMARK INTER + INTRA:          -4.921
REMARK INTER:                  -4.823
REMARK INTRA:                  -0.098
REMARK UNBOUND:                -0.108
REMARK SMILES CCCCCC(=O)[O-]
REMARK SMILES IDX 4 1 5 2 6 3 7 4 8 5 3 6 2 7 1 8
REMARK H PARENT
REMARK Flexibility Score: inf
ROOT
ATOM      1  C   UNL     1      40.606  22.838  17.714  1.00  0.00     0.006 C 
ENDROOT
BRANCH   1   2
ATOM      2  C   UNL     1      40.076  23.903  18.683  1.00  0.00     0.053 C 
BRANCH   2   3
ATOM      3  C   UNL     1      41.056  24.197  19.776  1.00  0.00     0.041 C 
ATOM      4  O   UNL     1      41.278  23.343  20.675  1.00  0.00    -0.550 OA
ATOM      5  O   UNL     1      41.751  25.400  19.784  1.00  0.00    -0.550 OA
ENDBRANCH   2   3
ENDBRANCH   1   2
BRANCH   1   6
ATOM      6  C   UNL     1      39.480  21.952  17.153  1.00  0.00     0.000 C 
BRANCH   6   7
ATOM      7  C   UNL     1      38.245  22.765  16.732  1.00  0.00    -0.003 C 
ATOM      8  C   UNL     1      36.975  22.331  17.464  1.00  0.00     0.004 C 
ENDBRANCH   6   7
ENDBRANCH   1   6
TORSDOF 4
ENDMDL
MODEL 6
REMARK VINA RESULT:    -3.775     14.310     15.076
REMARK INTER + INTRA:          -4.766
REMARK INTER:                  -4.590
REMARK INTRA:                  -0.176
REMARK UNBOUND:                -0.108
REMARK SMILES CCCCCC(=O)[O-]
REMARK SMILES IDX 4 1 5 2 6 3 7 4 8 5 3 6 2 7 1 8
REMARK H PARENT
REMARK Flexibility Score: inf
ROOT
ATOM      1  C   UNL     1      39.692  23.459  19.028  1.00  0.00     0.006 C 
ENDROOT
BRANCH   1   2
ATOM      2  C   UNL     1      40.909  24.292  19.452  1.00  0.00     0.053 C 
BRANCH   2   3
ATOM      3  C   UNL     1      42.164  23.473  19.471  1.00  0.00     0.041 C 
ATOM      4  O   UNL     1      42.290  22.488  18.698  1.00  0.00    -0.550 OA
ATOM      5  O   UNL     1      43.209  23.820  20.319  1.00  0.00    -0.550 OA
ENDBRANCH   2   3
ENDBRANCH   1   2
BRANCH   1   6
ATOM      6  C   UNL     1      39.018  24.020  17.764  1.00  0.00     0.000 C 
BRANCH   6   7
ATOM      7  C   UNL     1      38.508  22.913  16.828  1.00  0.00    -0.003 C 
ATOM      8  C   UNL     1      39.345  21.636  16.914  1.00  0.00     0.004 C 
ENDBRANCH   6   7
ENDBRANCH   1   6
TORSDOF 4
ENDMDL
MODEL 7
REMARK VINA RESULT:    -3.771      2.860      3.972
REMARK INTER + INTRA:          -4.762
REMARK INTER:                  -4.572
REMARK INTRA:                  -0.190
REMARK UNBOUND:                -0.108
REMARK SMILES CCCCCC(=O)[O-]
REMARK SMILES IDX 4 1 5 2 6 3 7 4 8 5 3 6 2 7 1 8
REMARK H PARENT
REMARK Flexibility Score: inf
ROOT
ATOM      1  C   UNL     1      46.094  25.273   2.271  1.00  0.00     0.006 C 
ENDROOT
BRANCH   1   2
ATOM      2  C   UNL     1      47.534  25.123   2.779  1.00  0.00     0.053 C 
BRANCH   2   3
ATOM      3  C   UNL     1      47.593  24.362   4.068  1.00  0.00     0.041 C 
ATOM      4  O   UNL     1      48.065  23.195   4.093  1.00  0.00    -0.550 OA
ATOM      5  O   UNL     1      47.160  24.955   5.248  1.00  0.00    -0.550 OA
ENDBRANCH   2   3
ENDBRANCH   1   2
BRANCH   1   6
ATOM      6  C   UNL     1      45.485  26.634   2.647  1.00  0.00     0.000 C 
BRANCH   6   7
ATOM      7  C   UNL     1      44.151  26.497   3.398  1.00  0.00    -0.003 C 
ATOM      8  C   UNL     1      44.239  26.969   4.849  1.00  0.00     0.004 C 
ENDBRANCH   6   7
ENDBRANCH   1   6
TORSDOF 4
ENDMDL
MODEL 8
REMARK VINA RESULT:    -3.524     15.044     16.090
REMARK INTER + INTRA:          -4.456
REMARK INTER:                  -4.346
REMARK INTRA:                  -0.110
REMARK UNBOUND:                -0.108
REMARK SMILES CCCCCC(=O)[O-]
REMARK SMILES IDX 4 1 5 2 6 3 7 4 8 5 3 6 2 7 1 8
REMARK H PARENT
REMARK Flexibility Score: inf
ROOT
ATOM      1  C   UNL     1      40.903  23.561  19.962  1.00  0.00     0.006 C 
ENDROOT
BRANCH   1   2
ATOM      2  C   UNL     1      42.314  22.986  19.779  1.00  0.00     0.053 C 
BRANCH   2   3
ATOM      3  C   UNL     1      42.789  22.274  21.008  1.00  0.00     0.041 C 
ATOM      4  O   UNL     1      42.776  22.857  22.124  1.00  0.00    -0.550 OA
ATOM      5  O   UNL     1      43.211  20.952  20.928  1.00  0.00    -0.550 OA
ENDBRANCH   2   3
ENDBRANCH   1   2
BRANCH   1   6
ATOM      6  C   UNL     1      40.146  23.676  18.628  1.00  0.00     0.000 C 
BRANCH   6   7
ATOM      7  C   UNL     1      40.599  22.626  17.602  1.00  0.00    -0.003 C 
ATOM      8  C   UNL     1      39.444  21.766  17.088  1.00  0.00     0.004 C 
ENDBRANCH   6   7
ENDBRANCH   1   6
TORSDOF 4
ENDMDL
MODEL 9
REMARK VINA RESULT:    -3.501      8.949      9.980
REMARK INTER + INTRA:          -4.428
REMARK INTER:                  -4.342
REMARK INTRA:                  -0.086
REMARK UNBOUND:                -0.108
REMARK SMILES CCCCCC(=O)[O-]
REMARK SMILES IDX 4 1 5 2 6 3 7 4 8 5 3 6 2 7 1 8
REMARK H PARENT
REMARK Flexibility Score: inf
ROOT
ATOM      1  C   UNL     1      45.327  31.220  13.164  1.00  0.00     0.006 C 
ENDROOT
BRANCH   1   2
ATOM      2  C   UNL     1      44.602  29.955  13.643  1.00  0.00     0.053 C 
BRANCH   2   3
ATOM      3  C   UNL     1      43.160  30.222  13.948  1.00  0.00     0.041 C 
ATOM      4  O   UNL     1      42.318  29.288  13.899  1.00  0.00    -0.550 OA
ATOM      5  O   UNL     1      42.753  31.497  14.324  1.00  0.00    -0.550 OA
ENDBRANCH   2   3
ENDBRANCH   1   2
BRANCH   1   6
ATOM      6  C   UNL     1      45.141  31.459  11.656  1.00  0.00     0.000 C 
BRANCH   6   7
ATOM      7  C   UNL     1      46.471  31.430  10.887  1.00  0.00    -0.003 C 
ATOM      8  C   UNL     1      46.943  32.823  10.470  1.00  0.00     0.004 C 
ENDBRANCH   6   7
ENDBRANCH   1   6
TORSDOF 4
ENDMDL
