MODEL 1
REMARK VINA RESULT:    -4.177      0.000      0.000
REMARK INTER + INTRA:          -5.554
REMARK INTER:                  -5.398
REMARK INTRA:                  -0.157
REMARK UNBOUND:                -0.157
REMARK SMILES CCCCCCC(=O)[O-]
REMARK SMILES IDX 5 1 6 2 7 3 8 4 9 5 4 6 3 7 2 8 1 9
REMARK H PARENT
REMARK Flexibility Score: inf
ROOT
ATOM      1  C   UNL     1      -0.368  11.683  -8.365  1.00  0.00     0.006 C 
ENDROOT
BRANCH   1   2
ATOM      2  C   UNL     1      -1.075  10.327  -8.496  1.00  0.00     0.053 C 
BRANCH   2   3
ATOM      3  C   UNL     1      -2.470  10.477  -9.019  1.00  0.00     0.041 C 
ATOM      4  O   UNL     1      -2.679  11.070 -10.111  1.00  0.00    -0.550 OA
ATOM      5  O   UNL     1      -3.544   9.989  -8.284  1.00  0.00    -0.550 OA
ENDBRANCH   2   3
ENDBRANCH   1   2
BRANCH   1   6
ATOM      6  C   UNL     1       1.154  11.533  -8.231  1.00  0.00     0.000 C 
BRANCH   6   7
ATOM      7  C   UNL     1       1.600  10.108  -8.581  1.00  0.00    -0.000 C 
BRANCH   7   8
ATOM      8  C   UNL     1       3.124  10.026  -8.717  1.00  0.00    -0.003 C 
ATOM      9  C   UNL     1       3.528   9.479 -10.083  1.00  0.00     0.004 C 
ENDBRANCH   7   8
ENDBRANCH   6   7
ENDBRANCH   1   6
TORSDOF 5
ENDMDL
MODEL 2
REMARK VINA RESULT:    -4.104      3.034      4.895
REMARK INTER + INTRA:          -5.461
REMARK INTER:                  -5.316
REMARK INTRA:                  -0.144
REMARK UNBOUND:                -0.157
REMARK SMILES CCCCCCC(=O)[O-]
REMARK SMILES IDX 5 1 6 2 7 3 8 4 9 5 4 6 3 7 2 8 1 9
REMARK H PARENT
REMARK Flexibility Score: inf
ROOT
ATOM      1  C   UNL     1       0.707  11.803  -8.266  1.00  0.00     0.006 C 
ENDROOT
BRANCH   1   2
ATOM      2  C   UNL     1       0.970  10.298  -8.400  1.00  0.00     0.053 C 
BRANCH   2   3
ATOM      3  C   UNL     1       2.414  10.009  -8.674  1.00  0.00     0.041 C 
ATOM      4  O   UNL     1       2.748   9.359  -9.699  1.00  0.00    -0.550 OA
ATOM      5  O   UNL     1       3.389  10.432  -7.778  1.00  0.00    -0.550 OA
ENDBRANCH   2   3
ENDBRANCH   1   2
BRANCH   1   6
ATOM      6  C   UNL     1      -0.791  12.138  -8.312  1.00  0.00     0.000 C 
BRANCH   6   7
ATOM      7  C   UNL     1      -1.586  11.006  -8.976  1.00  0.00    -0.000 C 
BRANCH   7   8
ATOM      8  C   UNL     1      -2.889  11.535  -9.586  1.00  0.00    -0.003 C 
ATOM      9  C   UNL     1      -3.486  10.530 -10.567  1.00  0.00     0.004 C 
ENDBRANCH   7   8
ENDBRANCH   6   7
ENDBRANCH   1   6
TORSDOF 5
ENDMDL
MODEL 3
REMARK VINA RESULT:    -4.079      3.246      5.058
REMARK INTER + INTRA:          -5.429
REMARK INTER:                  -5.306
REMARK INTRA:                  -0.123
REMARK UNBOUND:                -0.157
REMARK SMILES CCCCCCC(=O)[O-]
REMARK SMILES IDX 5 1 6 2 7 3 8 4 9 5 4 6 3 7 2 8 1 9
REMARK H PARENT
REMARK Flexibility Score: inf
ROOT
ATOM      1  C   UNL     1       0.690  11.031  -7.702  1.00  0.00     0.006 C 
ENDROOT
BRANCH   1   2
ATOM      2  C   UNL     1       1.285   9.959  -8.625  1.00  0.00     0.053 C 
BRANCH   2   3
ATOM      3  C   UNL     1       2.781  10.021  -8.654  1.00  0.00     0.041 C 
ATOM      4  O   UNL     1       3.415  10.518  -7.687  1.00  0.00    -0.550 OA
ATOM      5  O   UNL     1       3.474   9.556  -9.766  1.00  0.00    -0.550 OA
ENDBRANCH   2   3
ENDBRANCH   1   2
BRANCH   1   6
ATOM      6  C   UNL     1      -0.484  11.774  -8.356  1.00  0.00     0.000 C 
BRANCH   6   7
ATOM      7  C   UNL     1      -1.524  10.787  -8.900  1.00  0.00    -0.000 C 
BRANCH   7   8
ATOM      8  C   UNL     1      -2.686  11.528  -9.572  1.00  0.00    -0.003 C 
ATOM      9  C   UNL     1      -3.423  10.622 -10.554  1.00  0.00     0.004 C 
ENDBRANCH   7   8
ENDBRANCH   6   7
ENDBRANCH   1   6
TORSDOF 5
ENDMDL
MODEL 4
REMARK VINA RESULT:    -4.017      1.504      2.122
REMARK INTER + INTRA:          -5.348
REMARK INTER:                  -5.265
REMARK INTRA:                  -0.082
REMARK UNBOUND:                -0.157
REMARK SMILES CCCCCCC(=O)[O-]
REMARK SMILES IDX 5 1 6 2 7 3 8 4 9 5 4 6 3 7 2 8 1 9
REMARK H PARENT
REMARK Flexibility Score: inf
ROOT
ATOM      1  C   UNL     1      -2.041  10.367  -8.853  1.00  0.00     0.006 C 
ENDROOT
BRANCH   1   2
ATOM      2  C   UNL     1      -2.798  11.153  -9.931  1.00  0.00     0.053 C 
BRANCH   2   3
ATOM      3  C   UNL     1      -3.811  10.300 -10.631  1.00  0.00     0.041 C 
ATOM      4  O   UNL     1      -3.626   9.060 -10.745  1.00  0.00    -0.550 OA
ATOM      5  O   UNL     1      -4.944  10.882 -11.186  1.00  0.00    -0.550 OA
ENDBRANCH   2   3
ENDBRANCH   1   2
BRANCH   1   6
ATOM      6  C   UNL     1      -0.676  10.993  -8.529  1.00  0.00     0.000 C 
BRANCH   6   7
ATOM      7  C   UNL     1       0.413   9.916  -8.433  1.00  0.00    -0.000 C 
BRANCH   7   8
ATOM      8  C   UNL     1       1.795  10.548  -8.235  1.00  0.00    -0.003 C 
ATOM      9  C   UNL     1       2.861   9.806  -9.036  1.00  0.00     0.004 C 
ENDBRANCH   7   8
ENDBRANCH   6   7
ENDBRANCH   1   6
TORSDOF 5
ENDMDL
MODEL 5
REMARK VINA RESULT:    -3.997     13.893     15.147
REMARK INTER + INTRA:          -5.322
REMARK INTER:                  -5.119
REMARK INTRA:                  -0.204
REMARK UNBOUND:                -0.157
REMARK SMILES CCCCCCC(=O)[O-]
REMARK SMILES IDX 5 1 6 2 7 3 8 4 9 5 4 6 3 7 2 8 1 9
REMARK H PARENT
REMARK Flexibility Score: inf
ROOT
ATOM      1  C   UNL     1       9.160  11.860 -19.223  1.00  0.00     0.006 C 
ENDROOT
BRANCH   1   2
ATOM      2  C   UNL     1      10.392  10.978 -18.982  1.00  0.00     0.053 C 
BRANCH   2   3
ATOM      3  C   UNL     1      11.637  11.795 -18.818  1.00  0.00     0.041 C 
ATOM      4  O   UNL     1      12.264  11.786 -17.726  1.00  0.00    -0.550 OA
ATOM      5  O   UNL     1      12.086  12.594 -19.863  1.00  0.00    -0.550 OA
ENDBRANCH   2   3
ENDBRANCH   1   2
BRANCH   1   6
ATOM      6  C   UNL     1       8.650  11.762 -20.668  1.00  0.00     0.000 C 
BRANCH   6   7
ATOM      7  C   UNL     1       7.180  12.189 -20.761  1.00  0.00    -0.000 C 
BRANCH   7   8
ATOM      8  C   UNL     1       6.705  12.816 -19.445  1.00  0.00    -0.003 C 
ATOM      9  C   UNL     1       6.007  14.151 -19.691  1.00  0.00     0.004 C 
ENDBRANCH   7   8
ENDBRANCH   6   7
ENDBRANCH   1   6
TORSDOF 5
ENDMDL
MODEL 6
REMARK VINA RESULT:    -3.928      2.022      2.326
REMARK INTER + INTRA:          -5.233
REMARK INTER:                  -5.021
REMARK INTRA:                  -0.212
REMARK UNBOUND:                -0.157
REMARK SMILES CCCCCCC(=O)[O-]
REMARK SMILES IDX 5 1 6 2 7 3 8 4 9 5 4 6 3 7 2 8 1 9
REMARK H PARENT
REMARK Flexibility Score: inf
ROOT
ATOM      1  C   UNL     1      -0.867  10.727  -8.394  1.00  0.00     0.006 C 
ENDROOT
BRANCH   1   2
ATOM      2  C   UNL     1      -0.738  12.255  -8.355  1.00  0.00     0.053 C 
BRANCH   2   3
ATOM      3  C   UNL     1      -1.540  12.851  -7.239  1.00  0.00     0.041 C 
ATOM      4  O   UNL     1      -1.374  14.055  -6.910  1.00  0.00    -0.550 OA
ATOM      5  O   UNL     1      -2.450  12.066  -6.542  1.00  0.00    -0.550 OA
ENDBRANCH   2   3
ENDBRANCH   1   2
BRANCH   1   6
ATOM      6  C   UNL     1       0.483  10.023  -8.193  1.00  0.00     0.000 C 
BRANCH   6   7
ATOM      7  C   UNL     1       1.630  11.041  -8.141  1.00  0.00    -0.000 C 
BRANCH   7   8
ATOM      8  C   UNL     1       2.991  10.339  -8.206  1.00  0.00    -0.003 C 
ATOM      9  C   UNL     1       3.170   9.605  -9.532  1.00  0.00     0.004 C 
ENDBRANCH   7   8
ENDBRANCH   6   7
ENDBRANCH   1   6
TORSDOF 5
ENDMDL
MODEL 7
REMARK VINA RESULT:    -3.926     13.305     15.083
REMARK INTER + INTRA:          -5.230
REMARK INTER:                  -5.023
REMARK INTRA:                  -0.207
REMARK UNBOUND:                -0.157
REMARK SMILES CCCCCCC(=O)[O-]
REMARK SMILES IDX 5 1 6 2 7 3 8 4 9 5 4 6 3 7 2 8 1 9
REMARK H PARENT
REMARK Flexibility Score: inf
ROOT
ATOM      1  C   UNL     1       9.121  11.858 -21.393  1.00  0.00     0.006 C 
ENDROOT
BRANCH   1   2
ATOM      2  C   UNL     1      10.101  10.704 -21.143  1.00  0.00     0.053 C 
BRANCH   2   3
ATOM      3  C   UNL     1      10.411  10.545 -19.686  1.00  0.00     0.041 C 
ATOM      4  O   UNL     1      11.159   9.611 -19.295  1.00  0.00    -0.550 OA
ATOM      5  O   UNL     1       9.846  11.411 -18.757  1.00  0.00    -0.550 OA
ENDBRANCH   2   3
ENDBRANCH   1   2
BRANCH   1   6
ATOM      6  C   UNL     1       7.668  11.373 -21.501  1.00  0.00     0.000 C 
BRANCH   6   7
ATOM      7  C   UNL     1       6.688  12.475 -21.081  1.00  0.00    -0.000 C 
BRANCH   7   8
ATOM      8  C   UNL     1       6.751  12.720 -19.569  1.00  0.00    -0.003 C 
ATOM      9  C   UNL     1       6.025  14.007 -19.188  1.00  0.00     0.004 C 
ENDBRANCH   7   8
ENDBRANCH   6   7
ENDBRANCH   1   6
TORSDOF 5
ENDMDL
MODEL 8
REMARK VINA RESULT:    -3.793      2.820      5.098
REMARK INTER + INTRA:          -5.059
REMARK INTER:                  -4.925
REMARK INTRA:                  -0.134
REMARK UNBOUND:                -0.157
REMARK SMILES CCCCCCC(=O)[O-]
REMARK SMILES IDX 5 1 6 2 7 3 8 4 9 5 4 6 3 7 2 8 1 9
REMARK H PARENT
REMARK Flexibility Score: inf
ROOT
ATOM      1  C   UNL     1      -1.163  10.970  -8.736  1.00  0.00     0.006 C 
ENDROOT
BRANCH   1   2
ATOM      2  C   UNL     1      -0.118   9.917  -8.342  1.00  0.00     0.053 C 
BRANCH   2   3
ATOM      3  C   UNL     1       1.266  10.488  -8.328  1.00  0.00     0.041 C 
ATOM      4  O   UNL     1       1.446  11.713  -8.097  1.00  0.00    -0.550 OA
ATOM      5  O   UNL     1       2.357   9.672  -8.601  1.00  0.00    -0.550 OA
ENDBRANCH   2   3
ENDBRANCH   1   2
BRANCH   1   6
ATOM      6  C   UNL     1      -2.499  10.336  -9.150  1.00  0.00     0.000 C 
BRANCH   6   7
ATOM      7  C   UNL     1      -3.150  11.125 -10.293  1.00  0.00    -0.000 C 
BRANCH   7   8
ATOM      8  C   UNL     1      -4.335  10.355 -10.888  1.00  0.00    -0.003 C 
ATOM      9  C   UNL     1      -3.999   8.877 -11.065  1.00  0.00     0.004 C 
ENDBRANCH   7   8
ENDBRANCH   6   7
ENDBRANCH   1   6
TORSDOF 5
ENDMDL
MODEL 9
REMARK VINA RESULT:    -3.781     13.556     14.545
REMARK INTER + INTRA:          -5.043
REMARK INTER:                  -4.715
REMARK INTRA:                  -0.328
REMARK UNBOUND:                -0.157
REMARK SMILES CCCCCCC(=O)[O-]
REMARK SMILES IDX 5 1 6 2 7 3 8 4 9 5 4 6 3 7 2 8 1 9
REMARK H PARENT
REMARK Flexibility Score: inf
ROOT
ATOM      1  C   UNL     1       7.612  11.183 -21.472  1.00  0.00     0.006 C 
ENDROOT
BRANCH   1   2
ATOM      2  C   UNL     1       6.627  12.360 -21.469  1.00  0.00     0.053 C 
BRANCH   2   3
ATOM      3  C   UNL     1       6.641  13.091 -20.161  1.00  0.00     0.041 C 
ATOM      4  O   UNL     1       6.026  14.182 -20.038  1.00  0.00    -0.550 OA
ATOM      5  O   UNL     1       7.360  12.580 -19.088  1.00  0.00    -0.550 OA
ENDBRANCH   2   3
ENDBRANCH   1   2
BRANCH   1   6
ATOM      6  C   UNL     1       8.921  11.524 -22.199  1.00  0.00     0.000 C 
BRANCH   6   7
ATOM      7  C   UNL     1      10.059  11.762 -21.198  1.00  0.00    -0.000 C 
BRANCH   7   8
ATOM      8  C   UNL     1      10.135  10.625 -20.171  1.00  0.00    -0.003 C 
ATOM      9  C   UNL     1      10.473  11.158 -18.782  1.00  0.00     0.004 C 
ENDBRANCH   7   8
ENDBRANCH   6   7
ENDBRANCH   1   6
TORSDOF 5
ENDMDL
