MODEL 1
REMARK VINA RESULT:    -3.024      0.000      0.000
REMARK INTER + INTRA:          -3.396
REMARK INTER:                  -3.377
REMARK INTRA:                  -0.019
REMARK UNBOUND:                -0.019
REMARK SMILES CCCC(=O)[O-]
REMARK SMILES IDX 3 1 4 2 5 3 6 4 2 5 1 6
REMARK H PARENT
REMARK Flexibility Score: inf
ROOT
ATOM      1  C   UNL     1       6.942  -9.347 -23.274  1.00  0.00     0.052 C 
ENDROOT
BRANCH   1   2
ATOM      2  C   UNL     1       6.518 -10.687 -23.790  1.00  0.00     0.041 C 
ATOM      3  O   UNL     1       7.287 -11.351 -24.535  1.00  0.00    -0.550 OA
ATOM      4  O   UNL     1       5.262 -11.190 -23.477  1.00  0.00    -0.550 OA
ENDBRANCH   1   2
BRANCH   1   5
ATOM      5  C   UNL     1       5.962  -8.805 -22.225  1.00  0.00     0.003 C 
ATOM      6  C   UNL     1       5.715  -7.305 -22.379  1.00  0.00     0.004 C 
ENDBRANCH   1   5
TORSDOF 2
ENDMDL
MODEL 2
REMARK VINA RESULT:    -2.942      2.317      3.541
REMARK INTER + INTRA:          -3.304
REMARK INTER:                  -3.295
REMARK INTRA:                  -0.009
REMARK UNBOUND:                -0.019
REMARK SMILES CCCC(=O)[O-]
REMARK SMILES IDX 3 1 4 2 5 3 6 4 2 5 1 6
REMARK H PARENT
REMARK Flexibility Score: inf
ROOT
ATOM      1  C   UNL     1       6.708  -9.202 -22.943  1.00  0.00     0.052 C 
ENDROOT
BRANCH   1   2
ATOM      2  C   UNL     1       5.719  -8.375 -22.181  1.00  0.00     0.041 C 
ATOM      3  O   UNL     1       4.797  -8.931 -21.527  1.00  0.00    -0.550 OA
ATOM      4  O   UNL     1       5.794  -6.988 -22.220  1.00  0.00    -0.550 OA
ENDBRANCH   1   2
BRANCH   1   5
ATOM      5  C   UNL     1       6.120 -10.559 -23.351  1.00  0.00     0.003 C 
ATOM      6  C   UNL     1       6.993 -11.290 -24.370  1.00  0.00     0.004 C 
ENDBRANCH   1   5
TORSDOF 2
ENDMDL
MODEL 3
REMARK VINA RESULT:    -2.835      4.418      5.305
REMARK INTER + INTRA:          -3.185
REMARK INTER:                  -3.154
REMARK INTRA:                  -0.031
REMARK UNBOUND:                -0.019
REMARK SMILES CCCC(=O)[O-]
REMARK SMILES IDX 3 1 4 2 5 3 6 4 2 5 1 6
REMARK H PARENT
REMARK Flexibility Score: inf
ROOT
ATOM      1  C   UNL     1       5.321 -14.205 -21.740  1.00  0.00     0.052 C 
ENDROOT
BRANCH   1   2
ATOM      2  C   UNL     1       4.354 -15.321 -21.993  1.00  0.00     0.041 C 
ATOM      3  O   UNL     1       3.118 -15.137 -21.832  1.00  0.00    -0.550 OA
ATOM      4  O   UNL     1       4.819 -16.573 -22.374  1.00  0.00    -0.550 OA
ENDBRANCH   1   2
BRANCH   1   5
ATOM      5  C   UNL     1       4.641 -12.833 -21.828  1.00  0.00     0.003 C 
ATOM      6  C   UNL     1       5.068 -12.049 -23.069  1.00  0.00     0.004 C 
ENDBRANCH   1   5
TORSDOF 2
ENDMDL
MODEL 4
REMARK VINA RESULT:    -2.817      7.471      7.985
REMARK INTER + INTRA:          -3.165
REMARK INTER:                  -3.100
REMARK INTRA:                  -0.065
REMARK UNBOUND:                -0.019
REMARK SMILES CCCC(=O)[O-]
REMARK SMILES IDX 3 1 4 2 5 3 6 4 2 5 1 6
REMARK H PARENT
REMARK Flexibility Score: inf
ROOT
ATOM      1  C   UNL     1       4.586  -5.190 -19.003  1.00  0.00     0.052 C 
ENDROOT
BRANCH   1   2
ATOM      2  C   UNL     1       5.270  -4.026 -18.354  1.00  0.00     0.041 C 
ATOM      3  O   UNL     1       5.360  -2.926 -18.961  1.00  0.00    -0.550 OA
ATOM      4  O   UNL     1       5.836  -4.165 -17.094  1.00  0.00    -0.550 OA
ENDBRANCH   1   2
BRANCH   1   5
ATOM      5  C   UNL     1       3.308  -5.589 -18.254  1.00  0.00     0.003 C 
ATOM      6  C   UNL     1       2.244  -4.493 -18.292  1.00  0.00     0.004 C 
ENDBRANCH   1   5
TORSDOF 2
ENDMDL
MODEL 5
REMARK VINA RESULT:    -2.810      3.486      4.128
REMARK INTER + INTRA:          -3.157
REMARK INTER:                  -3.110
REMARK INTRA:                  -0.047
REMARK UNBOUND:                -0.019
REMARK SMILES CCCC(=O)[O-]
REMARK SMILES IDX 3 1 4 2 5 3 6 4 2 5 1 6
REMARK H PARENT
REMARK Flexibility Score: inf
ROOT
ATOM      1  C   UNL     1       4.686 -12.017 -22.173  1.00  0.00     0.052 C 
ENDROOT
BRANCH   1   2
ATOM      2  C   UNL     1       4.650 -13.497 -21.943  1.00  0.00     0.041 C 
ATOM      3  O   UNL     1       3.589 -14.144 -22.149  1.00  0.00    -0.550 OA
ATOM      4  O   UNL     1       5.776 -14.156 -21.469  1.00  0.00    -0.550 OA
ENDBRANCH   1   2
BRANCH   1   5
ATOM      5  C   UNL     1       4.892 -11.677 -23.655  1.00  0.00     0.003 C 
ATOM      6  C   UNL     1       6.368 -11.674 -24.051  1.00  0.00     0.004 C 
ENDBRANCH   1   5
TORSDOF 2
ENDMDL
MODEL 6
REMARK VINA RESULT:    -2.801      2.589      3.685
REMARK INTER + INTRA:          -3.147
REMARK INTER:                  -3.097
REMARK INTRA:                  -0.050
REMARK UNBOUND:                -0.019
REMARK SMILES CCCC(=O)[O-]
REMARK SMILES IDX 3 1 4 2 5 3 6 4 2 5 1 6
REMARK H PARENT
REMARK Flexibility Score: inf
ROOT
ATOM      1  C   UNL     1       4.355 -12.063 -23.136  1.00  0.00     0.052 C 
ENDROOT
BRANCH   1   2
ATOM      2  C   UNL     1       5.537 -11.179 -23.393  1.00  0.00     0.041 C 
ATOM      3  O   UNL     1       6.428 -11.535 -24.210  1.00  0.00    -0.550 OA
ATOM      4  O   UNL     1       5.673  -9.979 -22.707  1.00  0.00    -0.550 OA
ENDBRANCH   1   2
BRANCH   1   5
ATOM      5  C   UNL     1       4.444 -12.748 -21.766  1.00  0.00     0.003 C 
ATOM      6  C   UNL     1       5.364 -13.969 -21.785  1.00  0.00     0.004 C 
ENDBRANCH   1   5
TORSDOF 2
ENDMDL
MODEL 7
REMARK VINA RESULT:    -2.793     11.705     12.079
REMARK INTER + INTRA:          -3.139
REMARK INTER:                  -3.116
REMARK INTRA:                  -0.023
REMARK UNBOUND:                -0.019
REMARK SMILES CCCC(=O)[O-]
REMARK SMILES IDX 3 1 4 2 5 3 6 4 2 5 1 6
REMARK H PARENT
REMARK Flexibility Score: inf
ROOT
ATOM      1  C   UNL     1       1.385 -11.237 -34.856  1.00  0.00     0.052 C 
ENDROOT
BRANCH   1   2
ATOM      2  C   UNL     1       0.826 -11.754 -33.567  1.00  0.00     0.041 C 
ATOM      3  O   UNL     1       1.455 -12.625 -32.909  1.00  0.00    -0.550 OA
ATOM      4  O   UNL     1      -0.403 -11.301 -33.108  1.00  0.00    -0.550 OA
ENDBRANCH   1   2
BRANCH   1   5
ATOM      5  C   UNL     1       2.355 -10.070 -34.629  1.00  0.00     0.003 C 
ATOM      6  C   UNL     1       3.730 -10.328 -35.243  1.00  0.00     0.004 C 
ENDBRANCH   1   5
TORSDOF 2
ENDMDL
MODEL 8
REMARK VINA RESULT:    -2.780     13.548     13.891
REMARK INTER + INTRA:          -3.123
REMARK INTER:                  -3.111
REMARK INTRA:                  -0.012
REMARK UNBOUND:                -0.019
REMARK SMILES CCCC(=O)[O-]
REMARK SMILES IDX 3 1 4 2 5 3 6 4 2 5 1 6
REMARK H PARENT
REMARK Flexibility Score: inf
ROOT
ATOM      1  C   UNL     1      -2.753 -13.076 -32.206  1.00  0.00     0.052 C 
ENDROOT
BRANCH   1   2
ATOM      2  C   UNL     1      -4.064 -12.358 -32.124  1.00  0.00     0.041 C 
ATOM      3  O   UNL     1      -5.089 -12.956 -31.700  1.00  0.00    -0.550 OA
ATOM      4  O   UNL     1      -4.164 -11.038 -32.546  1.00  0.00    -0.550 OA
ENDBRANCH   1   2
BRANCH   1   5
ATOM      5  C   UNL     1      -2.834 -14.480 -31.595  1.00  0.00     0.003 C 
ATOM      6  C   UNL     1      -1.625 -15.344 -31.955  1.00  0.00     0.004 C 
ENDBRANCH   1   5
TORSDOF 2
ENDMDL
MODEL 9
REMARK VINA RESULT:    -2.766     11.941     12.312
REMARK INTER + INTRA:          -3.108
REMARK INTER:                  -3.070
REMARK INTRA:                  -0.038
REMARK UNBOUND:                -0.019
REMARK SMILES CCCC(=O)[O-]
REMARK SMILES IDX 3 1 4 2 5 3 6 4 2 5 1 6
REMARK H PARENT
REMARK Flexibility Score: inf
ROOT
ATOM      1  C   UNL     1       1.365 -11.280 -34.909  1.00  0.00     0.052 C 
ENDROOT
BRANCH   1   2
ATOM      2  C   UNL     1       2.427 -10.226 -34.849  1.00  0.00     0.041 C 
ATOM      3  O   UNL     1       2.198  -9.127 -34.277  1.00  0.00    -0.550 OA
ATOM      4  O   UNL     1       3.659 -10.443 -35.452  1.00  0.00    -0.550 OA
ENDBRANCH   1   2
BRANCH   1   5
ATOM      5  C   UNL     1       1.042 -11.842 -33.518  1.00  0.00     0.003 C 
ATOM      6  C   UNL     1      -0.338 -11.411 -33.022  1.00  0.00     0.004 C 
ENDBRANCH   1   5
TORSDOF 2
ENDMDL
