MODEL 1
REMARK VINA RESULT:    -4.554      0.000      0.000
REMARK INTER + INTRA:          -5.671
REMARK INTER:                  -5.353
REMARK INTRA:                  -0.318
REMARK UNBOUND:                -0.318
REMARK SMILES O=c1cc(-c2ccc(O)c(O)c2)oc2cc(O)cc(O)c12
REMARK SMILES IDX 4 1 3 2 2 3 1 4 21 5 19 6 18 7 16 8 15 9 14 10 13 11 5 12
REMARK SMILES IDX 6 13 7 14 8 15 12 16 10 17 9 18 11 20 20 22 17 24
REMARK H PARENT 9 19 11 21 20 23 17 25
REMARK Flexibility Score: inf
ROOT
ATOM      1  C   UNL     1       0.080  23.318 -14.274  1.00  0.00     0.138 A 
ATOM      2  C   UNL     1      -1.025  23.395 -15.133  1.00  0.00     0.100 A 
ATOM      3  C   UNL     1      -2.315  23.401 -14.601  1.00  0.00     0.197 A 
ATOM      4  O   UNL     1      -3.287  23.408 -15.400  1.00  0.00    -0.289 OA
ATOM      5  C   UNL     1      -2.497  23.361 -13.199  1.00  0.00     0.107 A 
ATOM      6  C   UNL     1      -3.763  23.403 -12.542  1.00  0.00     0.134 A 
ATOM      7  C   UNL     1      -3.826  23.240 -11.152  1.00  0.00     0.093 A 
ATOM      8  C   UNL     1      -2.667  23.096 -10.390  1.00  0.00     0.123 A 
ATOM      9  C   UNL     1      -1.419  23.108 -11.017  1.00  0.00     0.094 A 
ATOM     10  C   UNL     1      -1.326  23.235 -12.404  1.00  0.00     0.146 A 
ATOM     11  O   UNL     1      -0.121  23.227 -12.964  1.00  0.00    -0.456 OA
ENDROOT
BRANCH   1  12
ATOM     12  C   UNL     1       1.473  23.309 -14.787  1.00  0.00     0.021 A 
ATOM     13  C   UNL     1       1.699  23.302 -16.174  1.00  0.00     0.016 A 
ATOM     14  C   UNL     1       3.001  23.286 -16.682  1.00  0.00     0.051 A 
ATOM     15  C   UNL     1       4.098  23.265 -15.812  1.00  0.00     0.157 A 
ATOM     16  C   UNL     1       2.582  23.275 -13.917  1.00  0.00     0.062 A 
ATOM     17  C   UNL     1       3.888  23.257 -14.428  1.00  0.00     0.158 A 
BRANCH  15  18
ATOM     18  O   UNL     1       5.398  23.250 -16.315  1.00  0.00    -0.504 OA
ATOM     19  H   UNL     1       6.203  23.223 -15.701  1.00  0.00     0.293 HD
ENDBRANCH  15  18
BRANCH  17  20
ATOM     20  O   UNL     1       4.983  23.225 -13.564  1.00  0.00    -0.504 OA
ATOM     21  H   UNL     1       4.903  22.869 -12.619  1.00  0.00     0.293 HD
ENDBRANCH  17  20
ENDBRANCH   1  12
BRANCH   6  22
ATOM     22  O   UNL     1      -4.977  23.626 -13.199  1.00  0.00    -0.507 OA
ATOM     23  H   UNL     1      -5.141  24.355 -13.877  1.00  0.00     0.293 HD
ENDBRANCH   6  22
BRANCH   8  24
ATOM     24  O   UNL     1      -2.767  22.950  -9.009  1.00  0.00    -0.508 OA
ATOM     25  H   UNL     1      -2.296  23.585  -8.373  1.00  0.00     0.293 HD
ENDBRANCH   8  24
TORSDOF 5
ENDMDL
MODEL 2
REMARK VINA RESULT:    -4.308      1.443      7.059
REMARK INTER + INTRA:          -5.382
REMARK INTER:                  -5.097
REMARK INTRA:                  -0.284
REMARK UNBOUND:                -0.318
REMARK SMILES O=c1cc(-c2ccc(O)c(O)c2)oc2cc(O)cc(O)c12
REMARK SMILES IDX 4 1 3 2 2 3 1 4 21 5 19 6 18 7 16 8 15 9 14 10 13 11 5 12
REMARK SMILES IDX 6 13 7 14 8 15 12 16 10 17 9 18 11 20 20 22 17 24
REMARK H PARENT 9 19 11 21 20 23 17 25
REMARK Flexibility Score: inf
ROOT
ATOM      1  C   UNL     1       0.611  23.267 -13.899  1.00  0.00     0.138 A 
ATOM      2  C   UNL     1       0.689  22.925 -15.257  1.00  0.00     0.100 A 
ATOM      3  C   UNL     1       1.932  22.900 -15.892  1.00  0.00     0.197 A 
ATOM      4  O   UNL     1       1.964  22.649 -17.125  1.00  0.00    -0.289 OA
ATOM      5  C   UNL     1       3.105  23.188 -15.155  1.00  0.00     0.107 A 
ATOM      6  C   UNL     1       4.428  23.152 -15.686  1.00  0.00     0.134 A 
ATOM      7  C   UNL     1       5.503  23.570 -14.891  1.00  0.00     0.093 A 
ATOM      8  C   UNL     1       5.310  23.964 -13.567  1.00  0.00     0.123 A 
ATOM      9  C   UNL     1       4.026  23.950 -13.020  1.00  0.00     0.094 A 
ATOM     10  C   UNL     1       2.929  23.572 -13.798  1.00  0.00     0.146 A 
ATOM     11  O   UNL     1       1.722  23.587 -13.244  1.00  0.00    -0.456 OA
ENDROOT
BRANCH   1  12
ATOM     12  C   UNL     1      -0.684  23.310 -13.175  1.00  0.00     0.021 A 
ATOM     13  C   UNL     1      -0.732  22.933 -11.822  1.00  0.00     0.016 A 
ATOM     14  C   UNL     1      -1.940  22.957 -11.120  1.00  0.00     0.051 A 
ATOM     15  C   UNL     1      -3.122  23.347 -11.761  1.00  0.00     0.157 A 
ATOM     16  C   UNL     1      -1.880  23.688 -13.818  1.00  0.00     0.062 A 
ATOM     17  C   UNL     1      -3.093  23.709 -13.113  1.00  0.00     0.158 A 
BRANCH  15  18
ATOM     18  O   UNL     1      -4.329  23.373 -11.064  1.00  0.00    -0.504 OA
ATOM     19  H   UNL     1      -5.061  22.697 -11.247  1.00  0.00     0.293 HD
ENDBRANCH  15  18
BRANCH  17  20
ATOM     20  O   UNL     1      -4.273  24.086 -13.752  1.00  0.00    -0.504 OA
ATOM     21  H   UNL     1      -4.906  24.764 -13.342  1.00  0.00     0.293 HD
ENDBRANCH  17  20
ENDBRANCH   1  12
BRANCH   6  22
ATOM     22  O   UNL     1       4.743  22.696 -16.969  1.00  0.00    -0.507 OA
ATOM     23  H   UNL     1       5.221  21.831 -17.173  1.00  0.00     0.293 HD
ENDBRANCH   6  22
BRANCH   8  24
ATOM     24  O   UNL     1       6.404  24.359 -12.802  1.00  0.00    -0.508 OA
ATOM     25  H   UNL     1       6.547  24.009 -11.860  1.00  0.00     0.293 HD
ENDBRANCH   8  24
TORSDOF 5
ENDMDL
MODEL 3
REMARK VINA RESULT:    -4.151      1.438      6.802
REMARK INTER + INTRA:          -5.197
REMARK INTER:                  -4.883
REMARK INTRA:                  -0.314
REMARK UNBOUND:                -0.318
REMARK SMILES O=c1cc(-c2ccc(O)c(O)c2)oc2cc(O)cc(O)c12
REMARK SMILES IDX 4 1 3 2 2 3 1 4 21 5 19 6 18 7 16 8 15 9 14 10 13 11 5 12
REMARK SMILES IDX 6 13 7 14 8 15 12 16 10 17 9 18 11 20 20 22 17 24
REMARK H PARENT 9 19 11 21 20 23 17 25
REMARK Flexibility Score: inf
ROOT
ATOM      1  C   UNL     1      -0.013  23.248 -13.753  1.00  0.00     0.138 A 
ATOM      2  C   UNL     1      -0.026  23.120 -15.149  1.00  0.00     0.100 A 
ATOM      3  C   UNL     1       1.176  23.146 -15.856  1.00  0.00     0.197 A 
ATOM      4  O   UNL     1       1.128  23.091 -17.112  1.00  0.00    -0.289 OA
ATOM      5  C   UNL     1       2.401  23.272 -15.158  1.00  0.00     0.107 A 
ATOM      6  C   UNL     1       3.689  23.269 -15.770  1.00  0.00     0.134 A 
ATOM      7  C   UNL     1       4.825  23.517 -14.988  1.00  0.00     0.093 A 
ATOM      8  C   UNL     1       4.725  23.706 -13.610  1.00  0.00     0.123 A 
ATOM      9  C   UNL     1       3.473  23.656 -12.993  1.00  0.00     0.094 A 
ATOM     10  C   UNL     1       2.319  23.445 -13.750  1.00  0.00     0.146 A 
ATOM     11  O   UNL     1       1.146  23.419 -13.127  1.00  0.00    -0.456 OA
ENDROOT
BRANCH   1  12
ATOM     12  C   UNL     1      -1.263  23.225 -12.952  1.00  0.00     0.021 A 
ATOM     13  C   UNL     1      -2.499  23.419 -13.592  1.00  0.00     0.016 A 
ATOM     14  C   UNL     1      -3.689  23.410 -12.860  1.00  0.00     0.051 A 
ATOM     15  C   UNL     1      -3.662  23.218 -11.473  1.00  0.00     0.157 A 
ATOM     16  C   UNL     1      -1.243  23.046 -11.554  1.00  0.00     0.062 A 
ATOM     17  C   UNL     1      -2.438  23.039 -10.819  1.00  0.00     0.158 A 
BRANCH  15  18
ATOM     18  O   UNL     1      -4.847  23.207 -10.739  1.00  0.00    -0.504 OA
ATOM     19  H   UNL     1      -4.848  23.317  -9.732  1.00  0.00     0.293 HD
ENDBRANCH  15  18
BRANCH  17  20
ATOM     20  O   UNL     1      -2.414  22.859  -9.436  1.00  0.00    -0.504 OA
ATOM     21  H   UNL     1      -3.190  22.433  -8.943  1.00  0.00     0.293 HD
ENDBRANCH  17  20
ENDBRANCH   1  12
BRANCH   6  22
ATOM     22  O   UNL     1       3.910  23.008 -17.125  1.00  0.00    -0.507 OA
ATOM     23  H   UNL     1       4.223  22.124 -17.498  1.00  0.00     0.293 HD
ENDBRANCH   6  22
BRANCH   8  24
ATOM     24  O   UNL     1       5.877  23.935 -12.862  1.00  0.00    -0.508 OA
ATOM     25  H   UNL     1       6.667  24.442 -13.247  1.00  0.00     0.293 HD
ENDBRANCH   8  24
TORSDOF 5
ENDMDL
MODEL 4
REMARK VINA RESULT:    -4.108     13.773     16.508
REMARK INTER + INTRA:          -5.147
REMARK INTER:                  -4.884
REMARK INTRA:                  -0.263
REMARK UNBOUND:                -0.318
REMARK SMILES O=c1cc(-c2ccc(O)c(O)c2)oc2cc(O)cc(O)c12
REMARK SMILES IDX 4 1 3 2 2 3 1 4 21 5 19 6 18 7 16 8 15 9 14 10 13 11 5 12
REMARK SMILES IDX 6 13 7 14 8 15 12 16 10 17 9 18 11 20 20 22 17 24
REMARK H PARENT 9 19 11 21 20 23 17 25
REMARK Flexibility Score: inf
ROOT
ATOM      1  C   UNL     1      12.336  23.599  -4.027  1.00  0.00     0.138 A 
ATOM      2  C   UNL     1      13.202  24.460  -3.338  1.00  0.00     0.100 A 
ATOM      3  C   UNL     1      13.389  24.298  -1.965  1.00  0.00     0.197 A 
ATOM      4  O   UNL     1      14.125  25.124  -1.364  1.00  0.00    -0.289 OA
ATOM      5  C   UNL     1      12.728  23.250  -1.283  1.00  0.00     0.107 A 
ATOM      6  C   UNL     1      12.874  22.964   0.107  1.00  0.00     0.134 A 
ATOM      7  C   UNL     1      12.079  21.972   0.695  1.00  0.00     0.093 A 
ATOM      8  C   UNL     1      11.188  21.216  -0.067  1.00  0.00     0.123 A 
ATOM      9  C   UNL     1      11.077  21.450  -1.438  1.00  0.00     0.094 A 
ATOM     10  C   UNL     1      11.831  22.456  -2.048  1.00  0.00     0.146 A 
ATOM     11  O   UNL     1      11.685  22.657  -3.353  1.00  0.00    -0.456 OA
ENDROOT
BRANCH   1  12
ATOM     12  C   UNL     1      12.101  23.726  -5.487  1.00  0.00     0.021 A 
ATOM     13  C   UNL     1      11.001  24.469  -5.948  1.00  0.00     0.016 A 
ATOM     14  C   UNL     1      10.754  24.598  -7.318  1.00  0.00     0.051 A 
ATOM     15  C   UNL     1      11.595  23.976  -8.248  1.00  0.00     0.157 A 
ATOM     16  C   UNL     1      12.936  23.092  -6.428  1.00  0.00     0.062 A 
ATOM     17  C   UNL     1      12.686  23.220  -7.803  1.00  0.00     0.158 A 
BRANCH  15  18
ATOM     18  O   UNL     1      11.352  24.102  -9.615  1.00  0.00    -0.504 OA
ATOM     19  H   UNL     1      11.599  23.368 -10.267  1.00  0.00     0.293 HD
ENDBRANCH  15  18
BRANCH  17  20
ATOM     20  O   UNL     1      13.516  22.593  -8.732  1.00  0.00    -0.504 OA
ATOM     21  H   UNL     1      13.139  22.022  -9.480  1.00  0.00     0.293 HD
ENDBRANCH  17  20
ENDBRANCH   1  12
BRANCH   6  22
ATOM     22  O   UNL     1      13.795  23.602   0.943  1.00  0.00    -0.507 OA
ATOM     23  H   UNL     1      14.666  24.009   0.637  1.00  0.00     0.293 HD
ENDBRANCH   6  22
BRANCH   8  24
ATOM     24  O   UNL     1      10.425  20.228   0.550  1.00  0.00    -0.508 OA
ATOM     25  H   UNL     1      10.514  19.251   0.293  1.00  0.00     0.293 HD
ENDBRANCH   8  24
TORSDOF 5
ENDMDL
MODEL 5
REMARK VINA RESULT:    -3.925     13.640     16.183
REMARK INTER + INTRA:          -4.931
REMARK INTER:                  -4.618
REMARK INTRA:                  -0.313
REMARK UNBOUND:                -0.318
REMARK SMILES O=c1cc(-c2ccc(O)c(O)c2)oc2cc(O)cc(O)c12
REMARK SMILES IDX 4 1 3 2 2 3 1 4 21 5 19 6 18 7 16 8 15 9 14 10 13 11 5 12
REMARK SMILES IDX 6 13 7 14 8 15 12 16 10 17 9 18 11 20 20 22 17 24
REMARK H PARENT 9 19 11 21 20 23 17 25
REMARK Flexibility Score: inf
ROOT
ATOM      1  C   UNL     1      12.157  23.446  -3.838  1.00  0.00     0.138 A 
ATOM      2  C   UNL     1      13.218  22.877  -3.118  1.00  0.00     0.100 A 
ATOM      3  C   UNL     1      13.130  22.767  -1.730  1.00  0.00     0.197 A 
ATOM      4  O   UNL     1      14.123  22.309  -1.107  1.00  0.00    -0.289 OA
ATOM      5  C   UNL     1      11.961  23.201  -1.062  1.00  0.00     0.107 A 
ATOM      6  C   UNL     1      11.744  23.101   0.344  1.00  0.00     0.134 A 
ATOM      7  C   UNL     1      10.594  23.671   0.907  1.00  0.00     0.093 A 
ATOM      8  C   UNL     1       9.628  24.282   0.110  1.00  0.00     0.123 A 
ATOM      9  C   UNL     1       9.805  24.338  -1.274  1.00  0.00     0.094 A 
ATOM     10  C   UNL     1      10.956  23.809  -1.862  1.00  0.00     0.146 A 
ATOM     11  O   UNL     1      11.093  23.895  -3.181  1.00  0.00    -0.456 OA
ENDROOT
BRANCH   1  12
ATOM     12  C   UNL     1      12.198  23.586  -5.315  1.00  0.00     0.021 A 
ATOM     13  C   UNL     1      13.433  23.519  -5.982  1.00  0.00     0.016 A 
ATOM     14  C   UNL     1      13.499  23.656  -7.371  1.00  0.00     0.051 A 
ATOM     15  C   UNL     1      12.333  23.874  -8.115  1.00  0.00     0.157 A 
ATOM     16  C   UNL     1      11.030  23.819  -6.069  1.00  0.00     0.062 A 
ATOM     17  C   UNL     1      11.097  23.959  -7.463  1.00  0.00     0.158 A 
BRANCH  15  18
ATOM     18  O   UNL     1      12.395  24.010  -9.501  1.00  0.00    -0.504 OA
ATOM     19  H   UNL     1      13.262  24.236  -9.973  1.00  0.00     0.293 HD
ENDBRANCH  15  18
BRANCH  17  20
ATOM     20  O   UNL     1       9.939  24.186  -8.206  1.00  0.00    -0.504 OA
ATOM     21  H   UNL     1       9.437  25.065  -8.150  1.00  0.00     0.293 HD
ENDBRANCH  17  20
ENDBRANCH   1  12
BRANCH   6  22
ATOM     22  O   UNL     1      12.604  22.437   1.223  1.00  0.00    -0.507 OA
ATOM     23  H   UNL     1      12.327  22.027   2.102  1.00  0.00     0.293 HD
ENDBRANCH   6  22
BRANCH   8  24
ATOM     24  O   UNL     1       8.491  24.825   0.703  1.00  0.00    -0.508 OA
ATOM     25  H   UNL     1       8.416  25.818   0.896  1.00  0.00     0.293 HD
ENDBRANCH   8  24
TORSDOF 5
ENDMDL
MODEL 6
REMARK VINA RESULT:    -3.901     13.782     16.387
REMARK INTER + INTRA:          -4.903
REMARK INTER:                  -4.621
REMARK INTRA:                  -0.282
REMARK UNBOUND:                -0.318
REMARK SMILES O=c1cc(-c2ccc(O)c(O)c2)oc2cc(O)cc(O)c12
REMARK SMILES IDX 4 1 3 2 2 3 1 4 21 5 19 6 18 7 16 8 15 9 14 10 13 11 5 12
REMARK SMILES IDX 6 13 7 14 8 15 12 16 10 17 9 18 11 20 20 22 17 24
REMARK H PARENT 9 19 11 21 20 23 17 25
REMARK Flexibility Score: inf
ROOT
ATOM      1  C   UNL     1      12.143  23.598  -4.074  1.00  0.00     0.138 A 
ATOM      2  C   UNL     1      11.173  24.441  -3.512  1.00  0.00     0.100 A 
ATOM      3  C   UNL     1      10.913  24.379  -2.143  1.00  0.00     0.197 A 
ATOM      4  O   UNL     1       9.995  25.103  -1.679  1.00  0.00    -0.289 OA
ATOM      5  C   UNL     1      11.651  23.489  -1.326  1.00  0.00     0.107 A 
ATOM      6  C   UNL     1      11.501  23.370   0.087  1.00  0.00     0.134 A 
ATOM      7  C   UNL     1      12.205  22.372   0.774  1.00  0.00     0.093 A 
ATOM      8  C   UNL     1      13.097  21.531   0.109  1.00  0.00     0.123 A 
ATOM      9  C   UNL     1      13.292  21.676  -1.266  1.00  0.00     0.094 A 
ATOM     10  C   UNL     1      12.580  22.638  -1.984  1.00  0.00     0.146 A 
ATOM     11  O   UNL     1      12.783  22.734  -3.294  1.00  0.00    -0.456 OA
ENDROOT
BRANCH   1  12
ATOM     12  C   UNL     1      12.459  23.623  -5.524  1.00  0.00     0.021 A 
ATOM     13  C   UNL     1      13.793  23.476  -5.944  1.00  0.00     0.016 A 
ATOM     14  C   UNL     1      14.117  23.503  -7.302  1.00  0.00     0.051 A 
ATOM     15  C   UNL     1      13.117  23.690  -8.264  1.00  0.00     0.157 A 
ATOM     16  C   UNL     1      11.459  23.824  -6.496  1.00  0.00     0.062 A 
ATOM     17  C   UNL     1      11.787  23.854  -7.860  1.00  0.00     0.158 A 
BRANCH  15  18
ATOM     18  O   UNL     1      13.437  23.718  -9.620  1.00  0.00    -0.504 OA
ATOM     19  H   UNL     1      13.783  24.558 -10.066  1.00  0.00     0.293 HD
ENDBRANCH  15  18
BRANCH  17  20
ATOM     20  O   UNL     1      10.794  24.051  -8.819  1.00  0.00    -0.504 OA
ATOM     21  H   UNL     1       9.846  23.723  -8.676  1.00  0.00     0.293 HD
ENDBRANCH  17  20
ENDBRANCH   1  12
BRANCH   6  22
ATOM     22  O   UNL     1      10.700  24.213   0.862  1.00  0.00    -0.507 OA
ATOM     23  H   UNL     1      11.018  25.061   1.309  1.00  0.00     0.293 HD
ENDBRANCH   6  22
BRANCH   8  24
ATOM     24  O   UNL     1      13.791  20.560   0.827  1.00  0.00    -0.508 OA
ATOM     25  H   UNL     1      13.391  20.122   1.649  1.00  0.00     0.293 HD
ENDBRANCH   8  24
TORSDOF 5
ENDMDL
MODEL 7
REMARK VINA RESULT:    -3.866     16.354     18.910
REMARK INTER + INTRA:          -4.862
REMARK INTER:                  -4.582
REMARK INTRA:                  -0.280
REMARK UNBOUND:                -0.318
REMARK SMILES O=c1cc(-c2ccc(O)c(O)c2)oc2cc(O)cc(O)c12
REMARK SMILES IDX 4 1 3 2 2 3 1 4 21 5 19 6 18 7 16 8 15 9 14 10 13 11 5 12
REMARK SMILES IDX 6 13 7 14 8 15 12 16 10 17 9 18 11 20 20 22 17 24
REMARK H PARENT 9 19 11 21 20 23 17 25
REMARK Flexibility Score: inf
ROOT
ATOM      1  C   UNL     1       7.270  22.538   2.196  1.00  0.00     0.138 A 
ATOM      2  C   UNL     1       7.524  21.267   2.731  1.00  0.00     0.100 A 
ATOM      3  C   UNL     1       8.818  20.747   2.693  1.00  0.00     0.197 A 
ATOM      4  O   UNL     1       9.003  19.580   3.125  1.00  0.00    -0.289 OA
ATOM      5  C   UNL     1       9.870  21.517   2.142  1.00  0.00     0.107 A 
ATOM      6  C   UNL     1      11.235  21.107   2.086  1.00  0.00     0.134 A 
ATOM      7  C   UNL     1      12.169  21.905   1.413  1.00  0.00     0.093 A 
ATOM      8  C   UNL     1      11.800  23.125   0.846  1.00  0.00     0.123 A 
ATOM      9  C   UNL     1      10.477  23.562   0.943  1.00  0.00     0.094 A 
ATOM     10  C   UNL     1       9.516  22.773   1.578  1.00  0.00     0.146 A 
ATOM     11  O   UNL     1       8.265  23.217   1.635  1.00  0.00    -0.456 OA
ENDROOT
BRANCH   1  12
ATOM     12  C   UNL     1       5.913  23.139   2.211  1.00  0.00     0.021 A 
ATOM     13  C   UNL     1       5.763  24.501   2.522  1.00  0.00     0.016 A 
ATOM     14  C   UNL     1       4.496  25.089   2.550  1.00  0.00     0.051 A 
ATOM     15  C   UNL     1       3.356  24.322   2.281  1.00  0.00     0.157 A 
ATOM     16  C   UNL     1       4.760  22.370   1.953  1.00  0.00     0.062 A 
ATOM     17  C   UNL     1       3.488  22.960   1.985  1.00  0.00     0.158 A 
BRANCH  15  18
ATOM     18  O   UNL     1       2.090  24.905   2.307  1.00  0.00    -0.504 OA
ATOM     19  H   UNL     1       1.689  25.262   3.166  1.00  0.00     0.293 HD
ENDBRANCH  15  18
BRANCH  17  20
ATOM     20  O   UNL     1       2.350  22.197   1.727  1.00  0.00    -0.504 OA
ATOM     21  H   UNL     1       1.565  22.573   1.207  1.00  0.00     0.293 HD
ENDBRANCH  17  20
ENDBRANCH   1  12
BRANCH   6  22
ATOM     22  O   UNL     1      11.728  19.947   2.691  1.00  0.00    -0.507 OA
ATOM     23  H   UNL     1      12.646  19.560   2.534  1.00  0.00     0.293 HD
ENDBRANCH   6  22
BRANCH   8  24
ATOM     24  O   UNL     1      12.758  23.899   0.197  1.00  0.00    -0.508 OA
ATOM     25  H   UNL     1      12.538  24.818  -0.169  1.00  0.00     0.293 HD
ENDBRANCH   8  24
TORSDOF 5
ENDMDL
MODEL 8
REMARK VINA RESULT:    -3.865      1.210      2.795
REMARK INTER + INTRA:          -4.860
REMARK INTER:                  -4.564
REMARK INTRA:                  -0.296
REMARK UNBOUND:                -0.318
REMARK SMILES O=c1cc(-c2ccc(O)c(O)c2)oc2cc(O)cc(O)c12
REMARK SMILES IDX 4 1 3 2 2 3 1 4 21 5 19 6 18 7 16 8 15 9 14 10 13 11 5 12
REMARK SMILES IDX 6 13 7 14 8 15 12 16 10 17 9 18 11 20 20 22 17 24
REMARK H PARENT 9 19 11 21 20 23 17 25
REMARK Flexibility Score: inf
ROOT
ATOM      1  C   UNL     1       0.061  23.323 -14.052  1.00  0.00     0.138 A 
ATOM      2  C   UNL     1      -0.172  23.332 -12.670  1.00  0.00     0.100 A 
ATOM      3  C   UNL     1      -1.482  23.381 -12.191  1.00  0.00     0.197 A 
ATOM      4  O   UNL     1      -1.657  23.450 -10.947  1.00  0.00    -0.289 OA
ATOM      5  C   UNL     1      -2.564  23.390 -13.102  1.00  0.00     0.107 A 
ATOM      6  C   UNL     1      -3.941  23.397 -12.728  1.00  0.00     0.134 A 
ATOM      7  C   UNL     1      -4.924  23.522 -13.718  1.00  0.00     0.093 A 
ATOM      8  C   UNL     1      -4.584  23.580 -15.069  1.00  0.00     0.123 A 
ATOM      9  C   UNL     1      -3.242  23.519 -15.449  1.00  0.00     0.094 A 
ATOM     10  C   UNL     1      -2.237  23.428 -14.484  1.00  0.00     0.146 A 
ATOM     11  O   UNL     1      -0.971  23.387 -14.886  1.00  0.00    -0.456 OA
ENDROOT
BRANCH   1  12
ATOM     12  C   UNL     1       1.434  23.272 -14.616  1.00  0.00     0.021 A 
ATOM     13  C   UNL     1       1.607  23.183 -16.008  1.00  0.00     0.016 A 
ATOM     14  C   UNL     1       2.888  23.126 -16.562  1.00  0.00     0.051 A 
ATOM     15  C   UNL     1       4.017  23.144 -15.734  1.00  0.00     0.157 A 
ATOM     16  C   UNL     1       2.574  23.277 -13.788  1.00  0.00     0.062 A 
ATOM     17  C   UNL     1       3.860  23.217 -14.345  1.00  0.00     0.158 A 
BRANCH  15  18
ATOM     18  O   UNL     1       5.297  23.088 -16.284  1.00  0.00    -0.504 OA
ATOM     19  H   UNL     1       6.051  23.666 -15.932  1.00  0.00     0.293 HD
ENDBRANCH  15  18
BRANCH  17  20
ATOM     20  O   UNL     1       4.986  23.224 -13.523  1.00  0.00    -0.504 OA
ATOM     21  H   UNL     1       5.006  23.746 -12.655  1.00  0.00     0.293 HD
ENDBRANCH  17  20
ENDBRANCH   1  12
BRANCH   6  22
ATOM     22  O   UNL     1      -4.395  23.260 -11.413  1.00  0.00    -0.507 OA
ATOM     23  H   UNL     1      -5.337  23.012 -11.151  1.00  0.00     0.293 HD
ENDBRANCH   6  22
BRANCH   8  24
ATOM     24  O   UNL     1      -5.589  23.690 -16.027  1.00  0.00    -0.508 OA
ATOM     25  H   UNL     1      -5.541  23.189 -16.907  1.00  0.00     0.293 HD
ENDBRANCH   8  24
TORSDOF 5
ENDMDL
MODEL 9
REMARK VINA RESULT:    -3.778     12.275     15.639
REMARK INTER + INTRA:          -4.759
REMARK INTER:                  -4.443
REMARK INTRA:                  -0.316
REMARK UNBOUND:                -0.318
REMARK SMILES O=c1cc(-c2ccc(O)c(O)c2)oc2cc(O)cc(O)c12
REMARK SMILES IDX 4 1 3 2 2 3 1 4 21 5 19 6 18 7 16 8 15 9 14 10 13 11 5 12
REMARK SMILES IDX 6 13 7 14 8 15 12 16 10 17 9 18 11 20 20 22 17 24
REMARK H PARENT 9 19 11 21 20 23 17 25
REMARK Flexibility Score: inf
ROOT
ATOM      1  C   UNL     1      12.316  23.582  -4.985  1.00  0.00     0.138 A 
ATOM      2  C   UNL     1      13.390  23.715  -5.876  1.00  0.00     0.100 A 
ATOM      3  C   UNL     1      13.147  24.088  -7.199  1.00  0.00     0.197 A 
ATOM      4  O   UNL     1      14.124  24.139  -7.991  1.00  0.00    -0.289 OA
ATOM      5  C   UNL     1      11.824  24.359  -7.622  1.00  0.00     0.107 A 
ATOM      6  C   UNL     1      11.462  24.786  -8.934  1.00  0.00     0.134 A 
ATOM      7  C   UNL     1      10.108  24.911  -9.270  1.00  0.00     0.093 A 
ATOM      8  C   UNL     1       9.107  24.684  -8.326  1.00  0.00     0.123 A 
ATOM      9  C   UNL     1       9.453  24.319  -7.023  1.00  0.00     0.094 A 
ATOM     10  C   UNL     1      10.793  24.152  -6.667  1.00  0.00     0.146 A 
ATOM     11  O   UNL     1      11.079  23.790  -5.422  1.00  0.00    -0.456 OA
ENDROOT
BRANCH   1  12
ATOM     12  C   UNL     1      12.518  23.189  -3.567  1.00  0.00     0.021 A 
ATOM     13  C   UNL     1      13.774  22.712  -3.154  1.00  0.00     0.016 A 
ATOM     14  C   UNL     1      13.988  22.328  -1.828  1.00  0.00     0.051 A 
ATOM     15  C   UNL     1      12.946  22.405  -0.895  1.00  0.00     0.157 A 
ATOM     16  C   UNL     1      11.472  23.251  -2.626  1.00  0.00     0.062 A 
ATOM     17  C   UNL     1      11.686  22.864  -1.295  1.00  0.00     0.158 A 
BRANCH  15  18
ATOM     18  O   UNL     1      13.156  22.024   0.430  1.00  0.00    -0.504 OA
ATOM     19  H   UNL     1      13.888  22.441   0.992  1.00  0.00     0.293 HD
ENDBRANCH  15  18
BRANCH  17  20
ATOM     20  O   UNL     1      10.648  22.929  -0.365  1.00  0.00    -0.504 OA
ATOM     21  H   UNL     1       9.702  23.160  -0.642  1.00  0.00     0.293 HD
ENDBRANCH  17  20
ENDBRANCH   1  12
BRANCH   6  22
ATOM     22  O   UNL     1      12.384  25.120  -9.930  1.00  0.00    -0.507 OA
ATOM     23  H   UNL     1      12.235  25.818 -10.644  1.00  0.00     0.293 HD
ENDBRANCH   6  22
BRANCH   8  24
ATOM     24  O   UNL     1       7.771  24.833  -8.691  1.00  0.00    -0.508 OA
ATOM     25  H   UNL     1       7.316  25.739  -8.682  1.00  0.00     0.293 HD
ENDBRANCH   8  24
TORSDOF 5
ENDMDL
