MODEL 1
REMARK VINA RESULT:    -5.211      0.000      0.000
REMARK INTER + INTRA:          -9.949
REMARK INTER:                  -7.952
REMARK INTRA:                  -1.997
REMARK UNBOUND:                -1.997
REMARK SMILES CC(=O)CCC=C(C)CCC=C(C)CCC=C(C)C
REMARK SMILES IDX 10 1 11 2 12 3 13 4 14 5 15 6 16 7 18 8 17 9 19 10 9 11 7 12
REMARK SMILES IDX 6 13 8 14 5 15 4 16 2 17 3 18 1 19
REMARK H PARENT
REMARK Flexibility Score: inf
ROOT
ATOM      1  C   UNL     1     -16.195  14.897 -31.858  1.00  0.00     0.032 C 
ENDROOT
BRANCH   1   2
ATOM      2  C   UNL     1     -17.172  13.850 -31.380  1.00  0.00    -0.028 C 
ATOM      3  C   UNL     1     -17.540  13.719 -30.088  1.00  0.00    -0.077 C 
ATOM      4  C   UNL     1     -16.991  14.632 -29.017  1.00  0.00     0.039 C 
BRANCH   3   5
ATOM      5  C   UNL     1     -18.517  12.627 -29.701  1.00  0.00     0.034 C 
BRANCH   5   6
ATOM      6  C   UNL     1     -17.818  11.270 -29.533  1.00  0.00     0.032 C 
BRANCH   6   7
ATOM      7  C   UNL     1     -17.239  11.106 -28.146  1.00  0.00    -0.028 C 
ATOM      8  C   UNL     1     -14.879  11.476 -28.902  1.00  0.00     0.039 C 
ATOM      9  C   UNL     1     -15.919  11.159 -27.856  1.00  0.00    -0.080 C 
ATOM     10  C   UNL     1     -15.455  10.941 -26.440  1.00  0.00     0.039 C 
ENDBRANCH   6   7
ENDBRANCH   5   6
ENDBRANCH   3   5
ENDBRANCH   1   2
BRANCH   1  11
ATOM     11  C   UNL     1     -14.913  14.254 -32.399  1.00  0.00     0.034 C 
BRANCH  11  12
ATOM     12  C   UNL     1     -13.689  14.849 -31.736  1.00  0.00    -0.077 C 
ATOM     13  C   UNL     1     -13.548  14.732 -30.396  1.00  0.00    -0.028 C 
ATOM     14  C   UNL     1     -12.668  15.568 -32.586  1.00  0.00     0.039 C 
BRANCH  13  15
ATOM     15  C   UNL     1     -12.358  15.233 -29.612  1.00  0.00     0.035 C 
BRANCH  15  16
ATOM     16  C   UNL     1     -11.635  14.089 -28.888  1.00  0.00     0.079 C 
BRANCH  16  17
ATOM     17  C   UNL     1     -11.918  14.098 -27.409  1.00  0.00     0.130 C 
ATOM     18  O   UNL     1     -11.940  15.158 -26.801  1.00  0.00    -0.300 OA
ATOM     19  C   UNL     1     -12.166  12.814 -26.676  1.00  0.00     0.087 C 
ENDBRANCH  16  17
ENDBRANCH  15  16
ENDBRANCH  13  15
ENDBRANCH  11  12
ENDBRANCH   1  11
TORSDOF 9
ENDMDL
MODEL 2
REMARK VINA RESULT:    -5.029      2.126      4.548
REMARK INTER + INTRA:          -9.672
REMARK INTER:                  -7.669
REMARK INTRA:                  -2.002
REMARK UNBOUND:                -1.997
REMARK SMILES CC(=O)CCC=C(C)CCC=C(C)CCC=C(C)C
REMARK SMILES IDX 10 1 11 2 12 3 13 4 14 5 15 6 16 7 18 8 17 9 19 10 9 11 7 12
REMARK SMILES IDX 6 13 8 14 5 15 4 16 2 17 3 18 1 19
REMARK H PARENT
REMARK Flexibility Score: inf
ROOT
ATOM      1  C   UNL     1     -11.599  13.484 -28.604  1.00  0.00     0.032 C 
ENDROOT
BRANCH   1   2
ATOM      2  C   UNL     1     -12.655  13.023 -27.629  1.00  0.00    -0.028 C 
ATOM      3  C   UNL     1     -13.360  11.883 -27.789  1.00  0.00    -0.077 C 
ATOM      4  C   UNL     1     -13.130  10.976 -28.975  1.00  0.00     0.039 C 
BRANCH   3   5
ATOM      5  C   UNL     1     -14.411  11.509 -26.764  1.00  0.00     0.034 C 
BRANCH   5   6
ATOM      6  C   UNL     1     -15.652  12.408 -26.866  1.00  0.00     0.032 C 
BRANCH   6   7
ATOM      7  C   UNL     1     -16.632  11.895 -27.897  1.00  0.00    -0.028 C 
ATOM      8  C   UNL     1     -17.230  14.185 -28.716  1.00  0.00     0.039 C 
ATOM      9  C   UNL     1     -17.373  12.684 -28.707  1.00  0.00    -0.080 C 
ATOM     10  C   UNL     1     -18.348  12.060 -29.671  1.00  0.00     0.039 C 
ENDBRANCH   6   7
ENDBRANCH   5   6
ENDBRANCH   3   5
ENDBRANCH   1   2
BRANCH   1  11
ATOM     11  C   UNL     1     -11.668  15.000 -28.821  1.00  0.00     0.034 C 
BRANCH  11  12
ATOM     12  C   UNL     1     -12.306  15.327 -30.154  1.00  0.00    -0.077 C 
ATOM     13  C   UNL     1     -13.519  15.924 -30.171  1.00  0.00    -0.028 C 
ATOM     14  C   UNL     1     -11.578  14.963 -31.427  1.00  0.00     0.039 C 
BRANCH  13  15
ATOM     15  C   UNL     1     -14.249  16.350 -31.423  1.00  0.00     0.035 C 
BRANCH  15  16
ATOM     16  C   UNL     1     -15.546  15.554 -31.622  1.00  0.00     0.079 C 
BRANCH  16  17
ATOM     17  C   UNL     1     -15.293  14.242 -32.315  1.00  0.00     0.130 C 
ATOM     18  O   UNL     1     -15.341  14.181 -33.535  1.00  0.00    -0.300 OA
ATOM     19  C   UNL     1     -14.993  13.008 -31.519  1.00  0.00     0.087 C 
ENDBRANCH  16  17
ENDBRANCH  15  16
ENDBRANCH  13  15
ENDBRANCH  11  12
ENDBRANCH   1  11
TORSDOF 9
ENDMDL
MODEL 3
REMARK VINA RESULT:    -4.912     10.296     13.527
REMARK INTER + INTRA:          -9.494
REMARK INTER:                  -8.409
REMARK INTRA:                  -1.084
REMARK UNBOUND:                -1.997
REMARK SMILES CC(=O)CCC=C(C)CCC=C(C)CCC=C(C)C
REMARK SMILES IDX 10 1 11 2 12 3 13 4 14 5 15 6 16 7 18 8 17 9 19 10 9 11 7 12
REMARK SMILES IDX 6 13 8 14 5 15 4 16 2 17 3 18 1 19
REMARK H PARENT
REMARK Flexibility Score: inf
ROOT
ATOM      1  C   UNL     1     -24.885  18.219 -30.873  1.00  0.00     0.032 C 
ENDROOT
BRANCH   1   2
ATOM      2  C   UNL     1     -24.899  18.822 -32.256  1.00  0.00    -0.028 C 
ATOM      3  C   UNL     1     -24.038  19.785 -32.650  1.00  0.00    -0.077 C 
ATOM      4  C   UNL     1     -22.982  20.326 -31.716  1.00  0.00     0.039 C 
BRANCH   3   5
ATOM      5  C   UNL     1     -24.137  20.340 -34.056  1.00  0.00     0.034 C 
BRANCH   5   6
ATOM      6  C   UNL     1     -25.570  20.252 -34.604  1.00  0.00     0.032 C 
BRANCH   6   7
ATOM      7  C   UNL     1     -26.455  21.338 -34.035  1.00  0.00    -0.028 C 
ATOM      8  C   UNL     1     -28.262  19.744 -33.351  1.00  0.00     0.039 C 
ATOM      9  C   UNL     1     -27.680  21.127 -33.504  1.00  0.00    -0.080 C 
ATOM     10  C   UNL     1     -28.489  22.294 -33.003  1.00  0.00     0.039 C 
ENDBRANCH   6   7
ENDBRANCH   5   6
ENDBRANCH   3   5
ENDBRANCH   1   2
BRANCH   1  11
ATOM     11  C   UNL     1     -25.993  17.172 -30.712  1.00  0.00     0.034 C 
BRANCH  11  12
ATOM     12  C   UNL     1     -25.406  15.789 -30.522  1.00  0.00    -0.077 C 
ATOM     13  C   UNL     1     -26.172  14.823 -29.968  1.00  0.00    -0.028 C 
ATOM     14  C   UNL     1     -23.978  15.533 -30.941  1.00  0.00     0.039 C 
BRANCH  13  15
ATOM     15  C   UNL     1     -25.734  13.391 -29.765  1.00  0.00     0.035 C 
BRANCH  15  16
ATOM     16  C   UNL     1     -26.920  12.420 -29.834  1.00  0.00     0.079 C 
BRANCH  16  17
ATOM     17  C   UNL     1     -27.637  12.321 -28.514  1.00  0.00     0.130 C 
ATOM     18  O   UNL     1     -27.023  11.985 -27.513  1.00  0.00    -0.300 OA
ATOM     19  C   UNL     1     -29.103  12.625 -28.422  1.00  0.00     0.087 C 
ENDBRANCH  16  17
ENDBRANCH  15  16
ENDBRANCH  13  15
ENDBRANCH  11  12
ENDBRANCH   1  11
TORSDOF 9
ENDMDL
MODEL 4
REMARK VINA RESULT:    -4.866     10.341     13.469
REMARK INTER + INTRA:          -9.424
REMARK INTER:                  -8.364
REMARK INTRA:                  -1.059
REMARK UNBOUND:                -1.997
REMARK SMILES CC(=O)CCC=C(C)CCC=C(C)CCC=C(C)C
REMARK SMILES IDX 10 1 11 2 12 3 13 4 14 5 15 6 16 7 18 8 17 9 19 10 9 11 7 12
REMARK SMILES IDX 6 13 8 14 5 15 4 16 2 17 3 18 1 19
REMARK H PARENT
REMARK Flexibility Score: inf
ROOT
ATOM      1  C   UNL     1     -24.766  18.286 -30.841  1.00  0.00     0.032 C 
ENDROOT
BRANCH   1   2
ATOM      2  C   UNL     1     -24.793  18.855 -32.239  1.00  0.00    -0.028 C 
ATOM      3  C   UNL     1     -23.986  19.860 -32.642  1.00  0.00    -0.077 C 
ATOM      4  C   UNL     1     -22.982  20.486 -31.704  1.00  0.00     0.039 C 
BRANCH   3   5
ATOM      5  C   UNL     1     -24.095  20.376 -34.062  1.00  0.00     0.034 C 
BRANCH   5   6
ATOM      6  C   UNL     1     -25.535  20.290 -34.591  1.00  0.00     0.032 C 
BRANCH   6   7
ATOM      7  C   UNL     1     -26.416  21.364 -33.993  1.00  0.00    -0.028 C 
ATOM      8  C   UNL     1     -28.205  19.751 -33.303  1.00  0.00     0.039 C 
ATOM      9  C   UNL     1     -27.632  21.140 -33.446  1.00  0.00    -0.080 C 
ATOM     10  C   UNL     1     -28.438  22.296 -32.915  1.00  0.00     0.039 C 
ENDBRANCH   6   7
ENDBRANCH   5   6
ENDBRANCH   3   5
ENDBRANCH   1   2
BRANCH   1  11
ATOM     11  C   UNL     1     -25.945  17.334 -30.606  1.00  0.00     0.034 C 
BRANCH  11  12
ATOM     12  C   UNL     1     -25.469  15.901 -30.498  1.00  0.00    -0.077 C 
ATOM     13  C   UNL     1     -26.276  14.985 -29.916  1.00  0.00    -0.028 C 
ATOM     14  C   UNL     1     -24.102  15.538 -31.027  1.00  0.00     0.039 C 
BRANCH  13  15
ATOM     15  C   UNL     1     -25.952  13.515 -29.785  1.00  0.00     0.035 C 
BRANCH  15  16
ATOM     16  C   UNL     1     -27.035  12.637 -30.425  1.00  0.00     0.079 C 
BRANCH  16  17
ATOM     17  C   UNL     1     -26.717  12.316 -31.861  1.00  0.00     0.130 C 
ATOM     18  O   UNL     1     -26.277  13.189 -32.595  1.00  0.00    -0.300 OA
ATOM     19  C   UNL     1     -26.945  10.936 -32.399  1.00  0.00     0.087 C 
ENDBRANCH  16  17
ENDBRANCH  15  16
ENDBRANCH  13  15
ENDBRANCH  11  12
ENDBRANCH   1  11
TORSDOF 9
ENDMDL
MODEL 5
REMARK VINA RESULT:    -4.794      2.058      6.222
REMARK INTER + INTRA:          -9.314
REMARK INTER:                  -7.526
REMARK INTRA:                  -1.788
REMARK UNBOUND:                -1.997
REMARK SMILES CC(=O)CCC=C(C)CCC=C(C)CCC=C(C)C
REMARK SMILES IDX 10 1 11 2 12 3 13 4 14 5 15 6 16 7 18 8 17 9 19 10 9 11 7 12
REMARK SMILES IDX 6 13 8 14 5 15 4 16 2 17 3 18 1 19
REMARK H PARENT
REMARK Flexibility Score: inf
ROOT
ATOM      1  C   UNL     1     -14.271  11.286 -27.312  1.00  0.00     0.032 C 
ENDROOT
BRANCH   1   2
ATOM      2  C   UNL     1     -13.626  12.546 -27.835  1.00  0.00    -0.028 C 
ATOM      3  C   UNL     1     -12.507  13.079 -27.300  1.00  0.00    -0.077 C 
ATOM      4  C   UNL     1     -11.812  12.433 -26.125  1.00  0.00     0.039 C 
BRANCH   3   5
ATOM      5  C   UNL     1     -11.941  14.357 -27.884  1.00  0.00     0.034 C 
BRANCH   5   6
ATOM      6  C   UNL     1     -11.978  14.348 -29.419  1.00  0.00     0.032 C 
BRANCH   6   7
ATOM      7  C   UNL     1     -12.808  15.486 -29.966  1.00  0.00    -0.028 C 
ATOM      8  C   UNL     1     -12.219  14.996 -32.351  1.00  0.00     0.039 C 
ATOM      9  C   UNL     1     -12.895  15.810 -31.276  1.00  0.00    -0.080 C 
ATOM     10  C   UNL     1     -13.725  16.993 -31.701  1.00  0.00     0.039 C 
ENDBRANCH   6   7
ENDBRANCH   5   6
ENDBRANCH   3   5
ENDBRANCH   1   2
BRANCH   1  11
ATOM     11  C   UNL     1     -15.737  11.527 -26.935  1.00  0.00     0.034 C 
BRANCH  11  12
ATOM     12  C   UNL     1     -16.527  12.023 -28.128  1.00  0.00    -0.077 C 
ATOM     13  C   UNL     1     -16.810  13.342 -28.223  1.00  0.00    -0.028 C 
ATOM     14  C   UNL     1     -16.990  11.030 -29.167  1.00  0.00     0.039 C 
BRANCH  13  15
ATOM     15  C   UNL     1     -17.544  13.980 -29.378  1.00  0.00     0.035 C 
BRANCH  15  16
ATOM     16  C   UNL     1     -16.642  14.945 -30.160  1.00  0.00     0.079 C 
BRANCH  16  17
ATOM     17  C   UNL     1     -16.345  14.432 -31.544  1.00  0.00     0.130 C 
ATOM     18  O   UNL     1     -16.861  14.967 -32.514  1.00  0.00    -0.300 OA
ATOM     19  C   UNL     1     -15.427  13.263 -31.739  1.00  0.00     0.087 C 
ENDBRANCH  16  17
ENDBRANCH  15  16
ENDBRANCH  13  15
ENDBRANCH  11  12
ENDBRANCH   1  11
TORSDOF 9
ENDMDL
MODEL 6
REMARK VINA RESULT:    -4.703      1.886      3.041
REMARK INTER + INTRA:          -9.175
REMARK INTER:                  -7.184
REMARK INTRA:                  -1.991
REMARK UNBOUND:                -1.997
REMARK SMILES CC(=O)CCC=C(C)CCC=C(C)CCC=C(C)C
REMARK SMILES IDX 10 1 11 2 12 3 13 4 14 5 15 6 16 7 18 8 17 9 19 10 9 11 7 12
REMARK SMILES IDX 6 13 8 14 5 15 4 16 2 17 3 18 1 19
REMARK H PARENT
REMARK Flexibility Score: inf
ROOT
ATOM      1  C   UNL     1     -15.991  14.596 -31.454  1.00  0.00     0.032 C 
ENDROOT
BRANCH   1   2
ATOM      2  C   UNL     1     -15.747  13.241 -30.835  1.00  0.00    -0.028 C 
ATOM      3  C   UNL     1     -16.408  12.798 -29.744  1.00  0.00    -0.077 C 
ATOM      4  C   UNL     1     -17.458  13.644 -29.064  1.00  0.00     0.039 C 
BRANCH   3   5
ATOM      5  C   UNL     1     -16.084  11.428 -29.185  1.00  0.00     0.034 C 
BRANCH   5   6
ATOM      6  C   UNL     1     -14.582  11.266 -28.906  1.00  0.00     0.032 C 
BRANCH   6   7
ATOM      7  C   UNL     1     -14.064  12.349 -27.988  1.00  0.00    -0.028 C 
ATOM      8  C   UNL     1     -11.730  11.439 -27.951  1.00  0.00     0.039 C 
ATOM      9  C   UNL     1     -12.796  12.416 -27.523  1.00  0.00    -0.080 C 
ATOM     10  C   UNL     1     -12.403  13.523 -26.579  1.00  0.00     0.039 C 
ENDBRANCH   6   7
ENDBRANCH   5   6
ENDBRANCH   3   5
ENDBRANCH   1   2
BRANCH   1  11
ATOM     11  C   UNL     1     -15.426  15.718 -30.575  1.00  0.00     0.034 C 
BRANCH  11  12
ATOM     12  C   UNL     1     -13.942  15.899 -30.818  1.00  0.00    -0.077 C 
ATOM     13  C   UNL     1     -13.065  15.368 -29.937  1.00  0.00    -0.028 C 
ATOM     14  C   UNL     1     -13.486  16.680 -32.028  1.00  0.00     0.039 C 
BRANCH  13  15
ATOM     15  C   UNL     1     -11.562  15.430 -30.081  1.00  0.00     0.035 C 
BRANCH  15  16
ATOM     16  C   UNL     1     -10.954  14.034 -30.271  1.00  0.00     0.079 C 
BRANCH  16  17
ATOM     17  C   UNL     1     -11.499  13.351 -31.497  1.00  0.00     0.130 C 
ATOM     18  O   UNL     1     -12.187  12.348 -31.379  1.00  0.00    -0.300 OA
ATOM     19  C   UNL     1     -11.197  13.889 -32.864  1.00  0.00     0.087 C 
ENDBRANCH  16  17
ENDBRANCH  15  16
ENDBRANCH  13  15
ENDBRANCH  11  12
ENDBRANCH   1  11
TORSDOF 9
ENDMDL
MODEL 7
REMARK VINA RESULT:    -4.619      2.078      4.102
REMARK INTER + INTRA:          -9.047
REMARK INTER:                  -7.234
REMARK INTRA:                  -1.813
REMARK UNBOUND:                -1.997
REMARK SMILES CC(=O)CCC=C(C)CCC=C(C)CCC=C(C)C
REMARK SMILES IDX 10 1 11 2 12 3 13 4 14 5 15 6 16 7 18 8 17 9 19 10 9 11 7 12
REMARK SMILES IDX 6 13 8 14 5 15 4 16 2 17 3 18 1 19
REMARK H PARENT
REMARK Flexibility Score: inf
ROOT
ATOM      1  C   UNL     1     -18.073  13.656 -29.477  1.00  0.00     0.032 C 
ENDROOT
BRANCH   1   2
ATOM      2  C   UNL     1     -17.119  13.246 -28.382  1.00  0.00    -0.028 C 
ATOM      3  C   UNL     1     -17.046  11.987 -27.900  1.00  0.00    -0.077 C 
ATOM      4  C   UNL     1     -17.927  10.885 -28.440  1.00  0.00     0.039 C 
BRANCH   3   5
ATOM      5  C   UNL     1     -16.066  11.673 -26.788  1.00  0.00     0.034 C 
BRANCH   5   6
ATOM      6  C   UNL     1     -14.636  11.493 -27.321  1.00  0.00     0.032 C 
BRANCH   6   7
ATOM      7  C   UNL     1     -13.854  12.785 -27.272  1.00  0.00    -0.028 C 
ATOM      8  C   UNL     1     -12.051  11.951 -28.798  1.00  0.00     0.039 C 
ATOM      9  C   UNL     1     -12.674  12.990 -27.900  1.00  0.00    -0.080 C 
ATOM     10  C   UNL     1     -11.964  14.310 -27.746  1.00  0.00     0.039 C 
ENDBRANCH   6   7
ENDBRANCH   5   6
ENDBRANCH   3   5
ENDBRANCH   1   2
BRANCH   1  11
ATOM     11  C   UNL     1     -17.438  13.480 -30.861  1.00  0.00     0.034 C 
BRANCH  11  12
ATOM     12  C   UNL     1     -15.955  13.785 -30.818  1.00  0.00    -0.077 C 
ATOM     13  C   UNL     1     -15.554  15.071 -30.709  1.00  0.00    -0.028 C 
ATOM     14  C   UNL     1     -14.968  12.646 -30.914  1.00  0.00     0.039 C 
BRANCH  13  15
ATOM     15  C   UNL     1     -14.113  15.515 -30.605  1.00  0.00     0.035 C 
BRANCH  15  16
ATOM     16  C   UNL     1     -13.613  16.125 -31.922  1.00  0.00     0.079 C 
BRANCH  16  17
ATOM     17  C   UNL     1     -13.095  15.070 -32.863  1.00  0.00     0.130 C 
ATOM     18  O   UNL     1     -13.859  14.530 -33.649  1.00  0.00    -0.300 OA
ATOM     19  C   UNL     1     -11.650  14.671 -32.835  1.00  0.00     0.087 C 
ENDBRANCH  16  17
ENDBRANCH  15  16
ENDBRANCH  13  15
ENDBRANCH  11  12
ENDBRANCH   1  11
TORSDOF 9
ENDMDL
MODEL 8
REMARK VINA RESULT:    -4.569      1.511      3.007
REMARK INTER + INTRA:          -8.969
REMARK INTER:                  -7.236
REMARK INTRA:                  -1.733
REMARK UNBOUND:                -1.997
REMARK SMILES CC(=O)CCC=C(C)CCC=C(C)CCC=C(C)C
REMARK SMILES IDX 10 1 11 2 12 3 13 4 14 5 15 6 16 7 18 8 17 9 19 10 9 11 7 12
REMARK SMILES IDX 6 13 8 14 5 15 4 16 2 17 3 18 1 19
REMARK H PARENT
REMARK Flexibility Score: inf
ROOT
ATOM      1  C   UNL     1     -12.573  16.130 -32.737  1.00  0.00     0.032 C 
ENDROOT
BRANCH   1   2
ATOM      2  C   UNL     1     -13.841  15.466 -32.259  1.00  0.00    -0.028 C 
ATOM      3  C   UNL     1     -14.620  15.978 -31.282  1.00  0.00    -0.077 C 
ATOM      4  C   UNL     1     -14.268  17.277 -30.596  1.00  0.00     0.039 C 
BRANCH   3   5
ATOM      5  C   UNL     1     -15.868  15.232 -30.859  1.00  0.00     0.034 C 
BRANCH   5   6
ATOM      6  C   UNL     1     -15.817  13.754 -31.275  1.00  0.00     0.032 C 
BRANCH   6   7
ATOM      7  C   UNL     1     -15.933  12.833 -30.082  1.00  0.00    -0.028 C 
ATOM      8  C   UNL     1     -18.418  12.593 -30.293  1.00  0.00     0.039 C 
ATOM      9  C   UNL     1     -17.098  12.335 -29.609  1.00  0.00    -0.080 C 
ATOM     10  C   UNL     1     -17.095  11.456 -28.386  1.00  0.00     0.039 C 
ENDBRANCH   6   7
ENDBRANCH   5   6
ENDBRANCH   3   5
ENDBRANCH   1   2
BRANCH   1  11
ATOM     11  C   UNL     1     -11.400  15.144 -32.749  1.00  0.00     0.034 C 
BRANCH  11  12
ATOM     12  C   UNL     1     -11.361  14.335 -31.470  1.00  0.00    -0.077 C 
ATOM     13  C   UNL     1     -11.353  14.984 -30.284  1.00  0.00    -0.028 C 
ATOM     14  C   UNL     1     -11.316  12.828 -31.555  1.00  0.00     0.039 C 
BRANCH  13  15
ATOM     15  C   UNL     1     -11.365  14.306 -28.935  1.00  0.00     0.035 C 
BRANCH  15  16
ATOM     16  C   UNL     1     -12.789  13.930 -28.502  1.00  0.00     0.079 C 
BRANCH  16  17
ATOM     17  C   UNL     1     -12.811  13.328 -27.122  1.00  0.00     0.130 C 
ATOM     18  O   UNL     1     -12.032  13.731 -26.271  1.00  0.00    -0.300 OA
ATOM     19  C   UNL     1     -13.777  12.231 -26.788  1.00  0.00     0.087 C 
ENDBRANCH  16  17
ENDBRANCH  15  16
ENDBRANCH  13  15
ENDBRANCH  11  12
ENDBRANCH   1  11
TORSDOF 9
ENDMDL
MODEL 9
REMARK VINA RESULT:    -4.511      1.928      5.015
REMARK INTER + INTRA:          -8.882
REMARK INTER:                  -7.074
REMARK INTRA:                  -1.808
REMARK UNBOUND:                -1.997
REMARK SMILES CC(=O)CCC=C(C)CCC=C(C)CCC=C(C)C
REMARK SMILES IDX 10 1 11 2 12 3 13 4 14 5 15 6 16 7 18 8 17 9 19 10 9 11 7 12
REMARK SMILES IDX 6 13 8 14 5 15 4 16 2 17 3 18 1 19
REMARK H PARENT
REMARK Flexibility Score: inf
ROOT
ATOM      1  C   UNL     1     -14.020  16.438 -30.846  1.00  0.00     0.032 C 
ENDROOT
BRANCH   1   2
ATOM      2  C   UNL     1     -12.923  15.679 -30.138  1.00  0.00    -0.028 C 
ATOM      3  C   UNL     1     -11.925  15.046 -30.791  1.00  0.00    -0.077 C 
ATOM      4  C   UNL     1     -11.836  15.062 -32.298  1.00  0.00     0.039 C 
BRANCH   3   5
ATOM      5  C   UNL     1     -10.875  14.298 -29.995  1.00  0.00     0.034 C 
BRANCH   5   6
ATOM      6  C   UNL     1     -11.341  12.881 -29.628  1.00  0.00     0.032 C 
BRANCH   6   7
ATOM      7  C   UNL     1     -10.875  12.479 -28.247  1.00  0.00    -0.028 C 
ATOM      8  C   UNL     1     -13.030  13.126 -27.145  1.00  0.00     0.039 C 
ATOM      9  C   UNL     1     -11.609  12.618 -27.121  1.00  0.00    -0.080 C 
ATOM     10  C   UNL     1     -11.024  12.218 -25.791  1.00  0.00     0.039 C 
ENDBRANCH   6   7
ENDBRANCH   5   6
ENDBRANCH   3   5
ENDBRANCH   1   2
BRANCH   1  11
ATOM     11  C   UNL     1     -15.385  15.777 -30.623  1.00  0.00     0.034 C 
BRANCH  11  12
ATOM     12  C   UNL     1     -15.333  14.302 -30.961  1.00  0.00    -0.077 C 
ATOM     13  C   UNL     1     -15.236  13.402 -29.956  1.00  0.00    -0.028 C 
ATOM     14  C   UNL     1     -15.377  13.878 -32.410  1.00  0.00     0.039 C 
BRANCH  13  15
ATOM     15  C   UNL     1     -15.224  11.904 -30.145  1.00  0.00     0.035 C 
BRANCH  15  16
ATOM     16  C   UNL     1     -15.698  11.170 -28.883  1.00  0.00     0.079 C 
BRANCH  16  17
ATOM     17  C   UNL     1     -16.919  11.819 -28.287  1.00  0.00     0.130 C 
ATOM     18  O   UNL     1     -16.840  12.385 -27.207  1.00  0.00    -0.300 OA
ATOM     19  C   UNL     1     -18.234  11.768 -29.007  1.00  0.00     0.087 C 
ENDBRANCH  16  17
ENDBRANCH  15  16
ENDBRANCH  13  15
ENDBRANCH  11  12
ENDBRANCH   1  11
TORSDOF 9
ENDMDL
