MODEL 1
REMARK VINA RESULT:    -3.959      0.000      0.000
REMARK INTER + INTRA:          -7.153
REMARK INTER:                  -6.042
REMARK INTRA:                  -1.111
REMARK UNBOUND:                -1.111
REMARK SMILES CCCCCCCCCCC(=O)[O-]
REMARK SMILES IDX 7 1 8 2 9 3 10 4 11 5 12 6 13 7 6 8 5 9 4 10 3 11 2 12 1 13
REMARK H PARENT
REMARK Flexibility Score: inf
ROOT
ATOM      1  C   UNL     1      14.230 -22.428  21.277  1.00  0.00     0.000 C 
ENDROOT
BRANCH   1   2
ATOM      2  C   UNL     1      14.244 -22.271  19.749  1.00  0.00     0.000 C 
BRANCH   2   3
ATOM      3  C   UNL     1      14.787 -20.895  19.344  1.00  0.00     0.006 C 
BRANCH   3   4
ATOM      4  C   UNL     1      15.904 -20.444  20.289  1.00  0.00     0.053 C 
BRANCH   4   5
ATOM      5  C   UNL     1      15.992 -18.951  20.320  1.00  0.00     0.041 C 
ATOM      6  O   UNL     1      17.030 -18.369  19.907  1.00  0.00    -0.550 OA
ATOM      7  O   UNL     1      14.911 -18.199  20.761  1.00  0.00    -0.550 OA
ENDBRANCH   4   5
ENDBRANCH   3   4
ENDBRANCH   2   3
ENDBRANCH   1   2
BRANCH   1   8
ATOM      8  C   UNL     1      12.881 -22.032  21.899  1.00  0.00     0.000 C 
BRANCH   8   9
ATOM      9  C   UNL     1      12.846 -20.561  22.349  1.00  0.00    -0.000 C 
BRANCH   9  10
ATOM     10  C   UNL     1      13.284 -20.380  23.811  1.00  0.00    -0.000 C 
BRANCH  10  11
ATOM     11  C   UNL     1      14.760 -19.973  23.938  1.00  0.00    -0.000 C 
BRANCH  11  12
ATOM     12  C   UNL     1      15.603 -21.132  24.481  1.00  0.00    -0.003 C 
ATOM     13  C   UNL     1      16.900 -21.287  23.691  1.00  0.00     0.004 C 
ENDBRANCH  11  12
ENDBRANCH  10  11
ENDBRANCH   9  10
ENDBRANCH   8   9
ENDBRANCH   1   8
TORSDOF 9
ENDMDL
MODEL 2
REMARK VINA RESULT:    -3.930      2.457      3.869
REMARK INTER + INTRA:          -7.109
REMARK INTER:                  -6.140
REMARK INTRA:                  -0.969
REMARK UNBOUND:                -1.111
REMARK SMILES CCCCCCCCCCC(=O)[O-]
REMARK SMILES IDX 7 1 8 2 9 3 10 4 11 5 12 6 13 7 6 8 5 9 4 10 3 11 2 12 1 13
REMARK H PARENT
REMARK Flexibility Score: inf
ROOT
ATOM      1  C   UNL     1      14.294 -22.203  20.676  1.00  0.00     0.000 C 
ENDROOT
BRANCH   1   2
ATOM      2  C   UNL     1      15.564 -21.435  21.072  1.00  0.00     0.000 C 
BRANCH   2   3
ATOM      3  C   UNL     1      16.276 -22.118  22.246  1.00  0.00     0.006 C 
BRANCH   3   4
ATOM      4  C   UNL     1      16.803 -21.085  23.245  1.00  0.00     0.053 C 
BRANCH   4   5
ATOM      5  C   UNL     1      15.853 -20.931  24.391  1.00  0.00     0.041 C 
ATOM      6  O   UNL     1      14.936 -20.069  24.341  1.00  0.00    -0.550 OA
ATOM      7  O   UNL     1      15.950 -21.771  25.493  1.00  0.00    -0.550 OA
ENDBRANCH   4   5
ENDBRANCH   3   4
ENDBRANCH   2   3
ENDBRANCH   1   2
BRANCH   1   8
ATOM      8  C   UNL     1      13.458 -22.629  21.892  1.00  0.00     0.000 C 
BRANCH   8   9
ATOM      9  C   UNL     1      12.088 -21.930  21.944  1.00  0.00    -0.000 C 
BRANCH   9  10
ATOM     10  C   UNL     1      12.202 -20.430  22.257  1.00  0.00    -0.000 C 
BRANCH  10  11
ATOM     11  C   UNL     1      11.387 -19.561  21.288  1.00  0.00    -0.000 C 
BRANCH  11  12
ATOM     12  C   UNL     1      12.100 -18.233  21.012  1.00  0.00    -0.003 C 
ATOM     13  C   UNL     1      13.617 -18.400  21.060  1.00  0.00     0.004 C 
ENDBRANCH  11  12
ENDBRANCH  10  11
ENDBRANCH   9  10
ENDBRANCH   8   9
ENDBRANCH   1   8
TORSDOF 9
ENDMDL
MODEL 3
REMARK VINA RESULT:    -3.880      2.319      3.675
REMARK INTER + INTRA:          -7.032
REMARK INTER:                  -5.989
REMARK INTRA:                  -1.043
REMARK UNBOUND:                -1.111
REMARK SMILES CCCCCCCCCCC(=O)[O-]
REMARK SMILES IDX 7 1 8 2 9 3 10 4 11 5 12 6 13 7 6 8 5 9 4 10 3 11 2 12 1 13
REMARK H PARENT
REMARK Flexibility Score: inf
ROOT
ATOM      1  C   UNL     1      13.132 -22.762  21.831  1.00  0.00     0.000 C 
ENDROOT
BRANCH   1   2
ATOM      2  C   UNL     1      12.009 -21.727  21.993  1.00  0.00     0.000 C 
BRANCH   2   3
ATOM      3  C   UNL     1      12.443 -20.357  21.457  1.00  0.00     0.006 C 
BRANCH   3   4
ATOM      4  C   UNL     1      11.746 -19.224  22.215  1.00  0.00     0.053 C 
BRANCH   4   5
ATOM      5  C   UNL     1      10.986 -18.350  21.268  1.00  0.00     0.041 C 
ATOM      6  O   UNL     1       9.923 -18.767  20.736  1.00  0.00    -0.550 OA
ATOM      7  O   UNL     1      11.425 -17.058  21.009  1.00  0.00    -0.550 OA
ENDBRANCH   4   5
ENDBRANCH   3   4
ENDBRANCH   2   3
ENDBRANCH   1   2
BRANCH   1   8
ATOM      8  C   UNL     1      14.262 -22.270  20.911  1.00  0.00     0.000 C 
BRANCH   8   9
ATOM      9  C   UNL     1      15.654 -22.430  21.546  1.00  0.00    -0.000 C 
BRANCH   9  10
ATOM     10  C   UNL     1      16.216 -21.102  22.078  1.00  0.00    -0.000 C 
BRANCH  10  11
ATOM     11  C   UNL     1      16.873 -21.250  23.458  1.00  0.00    -0.000 C 
BRANCH  11  12
ATOM     12  C   UNL     1      15.821 -21.212  24.572  1.00  0.00    -0.003 C 
ATOM     13  C   UNL     1      14.774 -20.135  24.305  1.00  0.00     0.004 C 
ENDBRANCH  11  12
ENDBRANCH  10  11
ENDBRANCH   9  10
ENDBRANCH   8   9
ENDBRANCH   1   8
TORSDOF 9
ENDMDL
MODEL 4
REMARK VINA RESULT:    -3.842      2.335      3.999
REMARK INTER + INTRA:          -6.975
REMARK INTER:                  -5.823
REMARK INTRA:                  -1.152
REMARK UNBOUND:                -1.111
REMARK SMILES CCCCCCCCCCC(=O)[O-]
REMARK SMILES IDX 7 1 8 2 9 3 10 4 11 5 12 6 13 7 6 8 5 9 4 10 3 11 2 12 1 13
REMARK H PARENT
REMARK Flexibility Score: inf
ROOT
ATOM      1  C   UNL     1      14.014 -22.114  19.615  1.00  0.00     0.000 C 
ENDROOT
BRANCH   1   2
ATOM      2  C   UNL     1      14.423 -22.965  20.827  1.00  0.00     0.000 C 
BRANCH   2   3
ATOM      3  C   UNL     1      14.172 -22.210  22.138  1.00  0.00     0.006 C 
BRANCH   3   4
ATOM      4  C   UNL     1      15.484 -21.694  22.735  1.00  0.00     0.053 C 
BRANCH   4   5
ATOM      5  C   UNL     1      15.231 -20.998  24.035  1.00  0.00     0.041 C 
ATOM      6  O   UNL     1      16.160 -20.865  24.874  1.00  0.00    -0.550 OA
ATOM      7  O   UNL     1      13.980 -20.454  24.300  1.00  0.00    -0.550 OA
ENDBRANCH   4   5
ENDBRANCH   3   4
ENDBRANCH   2   3
ENDBRANCH   1   2
BRANCH   1   8
ATOM      8  C   UNL     1      15.064 -21.050  19.259  1.00  0.00     0.000 C 
BRANCH   8   9
ATOM      9  C   UNL     1      14.481 -19.626  19.236  1.00  0.00    -0.000 C 
BRANCH   9  10
ATOM     10  C   UNL     1      13.094 -19.546  19.892  1.00  0.00    -0.000 C 
BRANCH  10  11
ATOM     11  C   UNL     1      13.108 -18.753  21.207  1.00  0.00    -0.000 C 
BRANCH  11  12
ATOM     12  C   UNL     1      11.806 -18.966  21.988  1.00  0.00    -0.003 C 
ATOM     13  C   UNL     1      11.169 -20.309  21.643  1.00  0.00     0.004 C 
ENDBRANCH  11  12
ENDBRANCH  10  11
ENDBRANCH   9  10
ENDBRANCH   8   9
ENDBRANCH   1   8
TORSDOF 9
ENDMDL
MODEL 5
REMARK VINA RESULT:    -3.745      2.742      3.935
REMARK INTER + INTRA:          -6.827
REMARK INTER:                  -5.602
REMARK INTRA:                  -1.225
REMARK UNBOUND:                -1.111
REMARK SMILES CCCCCCCCCCC(=O)[O-]
REMARK SMILES IDX 7 1 8 2 9 3 10 4 11 5 12 6 13 7 6 8 5 9 4 10 3 11 2 12 1 13
REMARK H PARENT
REMARK Flexibility Score: inf
ROOT
ATOM      1  C   UNL     1      14.609 -19.787  19.620  1.00  0.00     0.000 C 
ENDROOT
BRANCH   1   2
ATOM      2  C   UNL     1      13.085 -19.610  19.553  1.00  0.00     0.000 C 
BRANCH   2   3
ATOM      3  C   UNL     1      12.599 -18.620  20.619  1.00  0.00     0.006 C 
BRANCH   3   4
ATOM      4  C   UNL     1      12.234 -19.345  21.917  1.00  0.00     0.053 C 
BRANCH   4   5
ATOM      5  C   UNL     1      10.995 -20.164  21.729  1.00  0.00     0.041 C 
ATOM      6  O   UNL     1       9.890 -19.600  21.514  1.00  0.00    -0.550 OA
ATOM      7  O   UNL     1      11.070 -21.550  21.743  1.00  0.00    -0.550 OA
ENDBRANCH   4   5
ENDBRANCH   3   4
ENDBRANCH   2   3
ENDBRANCH   1   2
BRANCH   1   8
ATOM      8  C   UNL     1      15.048 -21.235  19.352  1.00  0.00     0.000 C 
BRANCH   8   9
ATOM      9  C   UNL     1      14.242 -22.259  20.169  1.00  0.00    -0.000 C 
BRANCH   9  10
ATOM     10  C   UNL     1      14.975 -22.706  21.444  1.00  0.00    -0.000 C 
BRANCH  10  11
ATOM     11  C   UNL     1      14.480 -21.969  22.697  1.00  0.00    -0.000 C 
BRANCH  11  12
ATOM     12  C   UNL     1      15.583 -21.081  23.283  1.00  0.00    -0.003 C 
ATOM     13  C   UNL     1      16.915 -21.320  22.576  1.00  0.00     0.004 C 
ENDBRANCH  11  12
ENDBRANCH  10  11
ENDBRANCH   9  10
ENDBRANCH   8   9
ENDBRANCH   1   8
TORSDOF 9
ENDMDL
MODEL 6
REMARK VINA RESULT:    -3.716      2.369      4.307
REMARK INTER + INTRA:          -6.781
REMARK INTER:                  -5.525
REMARK INTRA:                  -1.256
REMARK UNBOUND:                -1.111
REMARK SMILES CCCCCCCCCCC(=O)[O-]
REMARK SMILES IDX 7 1 8 2 9 3 10 4 11 5 12 6 13 7 6 8 5 9 4 10 3 11 2 12 1 13
REMARK H PARENT
REMARK Flexibility Score: inf
ROOT
ATOM      1  C   UNL     1      12.429 -19.738  22.525  1.00  0.00     0.000 C 
ENDROOT
BRANCH   1   2
ATOM      2  C   UNL     1      12.627 -21.243  22.291  1.00  0.00     0.000 C 
BRANCH   2   3
ATOM      3  C   UNL     1      14.025 -21.689  22.738  1.00  0.00     0.006 C 
BRANCH   3   4
ATOM      4  C   UNL     1      14.702 -20.609  23.584  1.00  0.00     0.053 C 
BRANCH   4   5
ATOM      5  C   UNL     1      16.006 -21.107  24.124  1.00  0.00     0.041 C 
ATOM      6  O   UNL     1      16.085 -21.516  25.312  1.00  0.00    -0.550 OA
ATOM      7  O   UNL     1      17.123 -21.163  23.300  1.00  0.00    -0.550 OA
ENDBRANCH   4   5
ENDBRANCH   3   4
ENDBRANCH   2   3
ENDBRANCH   1   2
BRANCH   1   8
ATOM      8  C   UNL     1      12.243 -18.955  21.216  1.00  0.00     0.000 C 
BRANCH   8   9
ATOM      9  C   UNL     1      13.424 -18.015  20.916  1.00  0.00    -0.000 C 
BRANCH   9  10
ATOM     10  C   UNL     1      14.616 -18.748  20.281  1.00  0.00    -0.000 C 
BRANCH  10  11
ATOM     11  C   UNL     1      14.181 -19.803  19.253  1.00  0.00    -0.000 C 
BRANCH  11  12
ATOM     12  C   UNL     1      15.108 -21.023  19.295  1.00  0.00    -0.003 C 
ATOM     13  C   UNL     1      14.331 -22.314  19.056  1.00  0.00     0.004 C 
ENDBRANCH  11  12
ENDBRANCH  10  11
ENDBRANCH   9  10
ENDBRANCH   8   9
ENDBRANCH   1   8
TORSDOF 9
ENDMDL
MODEL 7
REMARK VINA RESULT:    -3.681      1.577      2.981
REMARK INTER + INTRA:          -6.729
REMARK INTER:                  -5.695
REMARK INTRA:                  -1.033
REMARK UNBOUND:                -1.111
REMARK SMILES CCCCCCCCCCC(=O)[O-]
REMARK SMILES IDX 7 1 8 2 9 3 10 4 11 5 12 6 13 7 6 8 5 9 4 10 3 11 2 12 1 13
REMARK H PARENT
REMARK Flexibility Score: inf
ROOT
ATOM      1  C   UNL     1      12.025 -21.860  21.868  1.00  0.00     0.000 C 
ENDROOT
BRANCH   1   2
ATOM      2  C   UNL     1      12.138 -20.390  22.298  1.00  0.00     0.000 C 
BRANCH   2   3
ATOM      3  C   UNL     1      11.359 -19.477  21.343  1.00  0.00     0.006 C 
BRANCH   3   4
ATOM      4  C   UNL     1      12.063 -18.128  21.175  1.00  0.00     0.053 C 
BRANCH   4   5
ATOM      5  C   UNL     1      13.363 -18.301  20.456  1.00  0.00     0.041 C 
ATOM      6  O   UNL     1      13.386 -18.796  19.298  1.00  0.00    -0.550 OA
ATOM      7  O   UNL     1      14.546 -17.873  21.045  1.00  0.00    -0.550 OA
ENDBRANCH   4   5
ENDBRANCH   3   4
ENDBRANCH   2   3
ENDBRANCH   1   2
BRANCH   1   8
ATOM      8  C   UNL     1      13.393 -22.551  21.758  1.00  0.00     0.000 C 
BRANCH   8   9
ATOM      9  C   UNL     1      14.238 -22.011  20.591  1.00  0.00    -0.000 C 
BRANCH   9  10
ATOM     10  C   UNL     1      15.517 -21.304  21.066  1.00  0.00    -0.000 C 
BRANCH  10  11
ATOM     11  C   UNL     1      16.231 -22.067  22.191  1.00  0.00    -0.000 C 
BRANCH  11  12
ATOM     12  C   UNL     1      16.633 -21.121  23.327  1.00  0.00    -0.003 C 
ATOM     13  C   UNL     1      15.608 -21.150  24.457  1.00  0.00     0.004 C 
ENDBRANCH  11  12
ENDBRANCH  10  11
ENDBRANCH   9  10
ENDBRANCH   8   9
ENDBRANCH   1   8
TORSDOF 9
ENDMDL
MODEL 8
REMARK VINA RESULT:    -3.609      2.067      4.331
REMARK INTER + INTRA:          -6.619
REMARK INTER:                  -5.232
REMARK INTRA:                  -1.387
REMARK UNBOUND:                -1.111
REMARK SMILES CCCCCCCCCCC(=O)[O-]
REMARK SMILES IDX 7 1 8 2 9 3 10 4 11 5 12 6 13 7 6 8 5 9 4 10 3 11 2 12 1 13
REMARK H PARENT
REMARK Flexibility Score: inf
ROOT
ATOM      1  C   UNL     1      16.423 -21.472  22.151  1.00  0.00     0.000 C 
ENDROOT
BRANCH   1   2
ATOM      2  C   UNL     1      16.257 -21.179  23.650  1.00  0.00     0.000 C 
BRANCH   2   3
ATOM      3  C   UNL     1      14.773 -21.099  24.032  1.00  0.00     0.006 C 
BRANCH   3   4
ATOM      4  C   UNL     1      14.154 -19.783  23.556  1.00  0.00     0.053 C 
BRANCH   4   5
ATOM      5  C   UNL     1      12.832 -20.033  22.900  1.00  0.00     0.041 C 
ATOM      6  O   UNL     1      12.118 -19.066  22.525  1.00  0.00    -0.550 OA
ATOM      7  O   UNL     1      12.411 -21.334  22.659  1.00  0.00    -0.550 OA
ENDBRANCH   4   5
ENDBRANCH   3   4
ENDBRANCH   2   3
ENDBRANCH   1   2
BRANCH   1   8
ATOM      8  C   UNL     1      15.467 -22.567  21.652  1.00  0.00     0.000 C 
BRANCH   8   9
ATOM      9  C   UNL     1      14.788 -22.199  20.321  1.00  0.00    -0.000 C 
BRANCH   9  10
ATOM     10  C   UNL     1      15.212 -20.815  19.805  1.00  0.00    -0.000 C 
BRANCH  10  11
ATOM     11  C   UNL     1      14.014 -19.953  19.378  1.00  0.00    -0.000 C 
BRANCH  11  12
ATOM     12  C   UNL     1      14.267 -18.473  19.688  1.00  0.00    -0.003 C 
ATOM     13  C   UNL     1      15.546 -18.290  20.500  1.00  0.00     0.004 C 
ENDBRANCH  11  12
ENDBRANCH  10  11
ENDBRANCH   9  10
ENDBRANCH   8   9
ENDBRANCH   1   8
TORSDOF 9
ENDMDL
MODEL 9
REMARK VINA RESULT:    -3.579      2.537      4.354
REMARK INTER + INTRA:          -6.573
REMARK INTER:                  -5.862
REMARK INTRA:                  -0.711
REMARK UNBOUND:                -1.111
REMARK SMILES CCCCCCCCCCC(=O)[O-]
REMARK SMILES IDX 7 1 8 2 9 3 10 4 11 5 12 6 13 7 6 8 5 9 4 10 3 11 2 12 1 13
REMARK H PARENT
REMARK Flexibility Score: inf
ROOT
ATOM      1  C   UNL     1      15.509 -20.749  19.927  1.00  0.00     0.000 C 
ENDROOT
BRANCH   1   2
ATOM      2  C   UNL     1      16.196 -20.087  21.131  1.00  0.00     0.000 C 
BRANCH   2   3
ATOM      3  C   UNL     1      16.714 -21.142  22.116  1.00  0.00     0.006 C 
BRANCH   3   4
ATOM      4  C   UNL     1      15.571 -21.717  22.957  1.00  0.00     0.053 C 
BRANCH   4   5
ATOM      5  C   UNL     1      15.511 -21.041  24.291  1.00  0.00     0.041 C 
ATOM      6  O   UNL     1      16.191 -21.481  25.255  1.00  0.00    -0.550 OA
ATOM      7  O   UNL     1      14.741 -19.897  24.456  1.00  0.00    -0.550 OA
ENDBRANCH   4   5
ENDBRANCH   3   4
ENDBRANCH   2   3
ENDBRANCH   1   2
BRANCH   1   8
ATOM      8  C   UNL     1      14.050 -20.296  19.756  1.00  0.00     0.000 C 
BRANCH   8   9
ATOM      9  C   UNL     1      13.051 -21.244  20.443  1.00  0.00    -0.000 C 
BRANCH   9  10
ATOM     10  C   UNL     1      12.346 -20.590  21.642  1.00  0.00    -0.000 C 
BRANCH  10  11
ATOM     11  C   UNL     1      10.929 -21.139  21.864  1.00  0.00    -0.000 C 
BRANCH  11  12
ATOM     12  C   UNL     1       9.875 -20.061  21.590  1.00  0.00    -0.003 C 
ATOM     13  C   UNL     1      10.435 -18.664  21.849  1.00  0.00     0.004 C 
ENDBRANCH  11  12
ENDBRANCH  10  11
ENDBRANCH   9  10
ENDBRANCH   8   9
ENDBRANCH   1   8
TORSDOF 9
ENDMDL
