MODEL 1
REMARK VINA RESULT:    -4.329      0.000      0.000
REMARK INTER + INTRA:          -6.253
REMARK INTER:                  -5.974
REMARK INTRA:                  -0.280
REMARK UNBOUND:                -0.280
REMARK SMILES OC[C@@H](O)[C@@H](O)[C@@H](O)CO
REMARK SMILES IDX 5 1 7 2 9 3 10 4 8 6 3 8 2 9 1 10 4 12 6 14
REMARK H PARENT 10 5 8 7 1 11 4 13 6 15
REMARK Flexibility Score: inf
ROOT
ATOM      1  C   UNL     1      67.651 103.608  37.298  1.00  0.00     0.176 C 
ENDROOT
BRANCH   1   2
ATOM      2  C   UNL     1      67.394 104.708  36.229  1.00  0.00     0.171 C 
BRANCH   2   3
ATOM      3  C   UNL     1      68.102 104.455  34.881  1.00  0.00     0.190 C 
BRANCH   3   4
ATOM      4  O   UNL     1      69.121 105.398  34.683  1.00  0.00    -0.394 OA
ATOM      5  H   UNL     1      69.977 104.944  34.902  1.00  0.00     0.210 HD
ENDBRANCH   3   4
ENDBRANCH   2   3
BRANCH   2   6
ATOM      6  O   UNL     1      67.677 105.991  36.734  1.00  0.00    -0.388 OA
ATOM      7  H   UNL     1      66.916 106.586  36.506  1.00  0.00     0.211 HD
ENDBRANCH   2   6
ENDBRANCH   1   2
BRANCH   1   8
ATOM      8  C   UNL     1      66.365 102.946  37.860  1.00  0.00     0.171 C 
BRANCH   8   9
ATOM      9  C   UNL     1      65.719 101.997  36.835  1.00  0.00     0.190 C 
BRANCH   9  10
ATOM     10  O   UNL     1      65.998 100.662  37.160  1.00  0.00    -0.394 OA
ATOM     11  H   UNL     1      65.765 100.557  38.118  1.00  0.00     0.210 HD
ENDBRANCH   9  10
ENDBRANCH   8   9
BRANCH   8  12
ATOM     12  O   UNL     1      66.666 102.220  39.023  1.00  0.00    -0.388 OA
ATOM     13  H   UNL     1      67.568 101.827  38.893  1.00  0.00     0.211 HD
ENDBRANCH   8  12
ENDBRANCH   1   8
BRANCH   1  14
ATOM     14  O   UNL     1      68.465 102.613  36.726  1.00  0.00    -0.388 OA
ATOM     15  H   UNL     1      68.480 102.776  35.746  1.00  0.00     0.211 HD
ENDBRANCH   1  14
TORSDOF 9
ENDMDL
MODEL 2
REMARK VINA RESULT:    -4.284     16.618     18.714
REMARK INTER + INTRA:          -6.192
REMARK INTER:                  -5.723
REMARK INTRA:                  -0.469
REMARK UNBOUND:                -0.280
REMARK SMILES OC[C@@H](O)[C@@H](O)[C@@H](O)CO
REMARK SMILES IDX 5 1 7 2 9 3 10 4 8 6 3 8 2 9 1 10 4 12 6 14
REMARK H PARENT 10 5 8 7 1 11 4 13 6 15
REMARK Flexibility Score: inf
ROOT
ATOM      1  C   UNL     1      55.567  88.991  33.010  1.00  0.00     0.176 C 
ENDROOT
BRANCH   1   2
ATOM      2  C   UNL     1      56.167  89.350  31.621  1.00  0.00     0.171 C 
BRANCH   2   3
ATOM      3  C   UNL     1      55.138  89.915  30.618  1.00  0.00     0.190 C 
BRANCH   3   4
ATOM      4  O   UNL     1      54.133  88.969  30.368  1.00  0.00    -0.394 OA
ATOM      5  H   UNL     1      54.458  88.396  29.625  1.00  0.00     0.210 HD
ENDBRANCH   3   4
ENDBRANCH   2   3
BRANCH   2   6
ATOM      6  O   UNL     1      56.887  88.271  31.077  1.00  0.00    -0.388 OA
ATOM      7  H   UNL     1      56.244  87.542  30.876  1.00  0.00     0.211 HD
ENDBRANCH   2   6
ENDBRANCH   1   2
BRANCH   1   8
ATOM      8  C   UNL     1      56.618  88.831  34.140  1.00  0.00     0.171 C 
BRANCH   8   9
ATOM      9  C   UNL     1      57.672  89.952  34.100  1.00  0.00     0.190 C 
BRANCH   9  10
ATOM     10  O   UNL     1      57.185  91.104  34.734  1.00  0.00    -0.394 OA
ATOM     11  H   UNL     1      57.112  90.878  35.698  1.00  0.00     0.210 HD
ENDBRANCH   9  10
ENDBRANCH   8   9
BRANCH   8  12
ATOM     12  O   UNL     1      55.985  88.848  35.393  1.00  0.00    -0.388 OA
ATOM     13  H   UNL     1      55.013  88.733  35.227  1.00  0.00     0.211 HD
ENDBRANCH   8  12
ENDBRANCH   1   8
BRANCH   1  14
ATOM     14  O   UNL     1      54.654  89.997  33.374  1.00  0.00    -0.388 OA
ATOM     15  H   UNL     1      54.045  89.606  34.055  1.00  0.00     0.211 HD
ENDBRANCH   1  14
TORSDOF 9
ENDMDL
MODEL 3
REMARK VINA RESULT:    -4.284     18.245     19.856
REMARK INTER + INTRA:          -6.192
REMARK INTER:                  -5.740
REMARK INTRA:                  -0.452
REMARK UNBOUND:                -0.280
REMARK SMILES OC[C@@H](O)[C@@H](O)[C@@H](O)CO
REMARK SMILES IDX 5 1 7 2 9 3 10 4 8 6 3 8 2 9 1 10 4 12 6 14
REMARK H PARENT 10 5 8 7 1 11 4 13 6 15
REMARK Flexibility Score: inf
ROOT
ATOM      1  C   UNL     1      54.752  91.335  26.952  1.00  0.00     0.176 C 
ENDROOT
BRANCH   1   2
ATOM      2  C   UNL     1      54.602  91.650  28.468  1.00  0.00     0.171 C 
BRANCH   2   3
ATOM      3  C   UNL     1      54.954  90.466  29.394  1.00  0.00     0.190 C 
BRANCH   3   4
ATOM      4  O   UNL     1      54.119  89.373  29.125  1.00  0.00    -0.394 OA
ATOM      5  H   UNL     1      54.196  89.188  28.152  1.00  0.00     0.210 HD
ENDBRANCH   3   4
ENDBRANCH   2   3
BRANCH   2   6
ATOM      6  O   UNL     1      53.332  92.180  28.759  1.00  0.00    -0.388 OA
ATOM      7  H   UNL     1      52.742  92.013  27.979  1.00  0.00     0.211 HD
ENDBRANCH   2   6
ENDBRANCH   1   2
BRANCH   1   8
ATOM      8  C   UNL     1      54.705  92.583  26.031  1.00  0.00     0.171 C 
BRANCH   8   9
ATOM      9  C   UNL     1      55.659  93.688  26.519  1.00  0.00     0.190 C 
BRANCH   9  10
ATOM     10  O   UNL     1      56.980  93.387  26.158  1.00  0.00    -0.394 OA
ATOM     11  H   UNL     1      56.948  92.506  25.703  1.00  0.00     0.210 HD
ENDBRANCH   9  10
ENDBRANCH   8   9
BRANCH   8  12
ATOM     12  O   UNL     1      55.056  92.227  24.719  1.00  0.00    -0.388 OA
ATOM     13  H   UNL     1      55.441  93.037  24.293  1.00  0.00     0.211 HD
ENDBRANCH   8  12
ENDBRANCH   1   8
BRANCH   1  14
ATOM     14  O   UNL     1      55.974  90.667  26.755  1.00  0.00    -0.388 OA
ATOM     15  H   UNL     1      56.255  90.306  27.636  1.00  0.00     0.211 HD
ENDBRANCH   1  14
TORSDOF 9
ENDMDL
MODEL 4
REMARK VINA RESULT:    -4.257      2.437      4.794
REMARK INTER + INTRA:          -6.154
REMARK INTER:                  -5.663
REMARK INTRA:                  -0.491
REMARK UNBOUND:                -0.280
REMARK SMILES OC[C@@H](O)[C@@H](O)[C@@H](O)CO
REMARK SMILES IDX 5 1 7 2 9 3 10 4 8 6 3 8 2 9 1 10 4 12 6 14
REMARK H PARENT 10 5 8 7 1 11 4 13 6 15
REMARK Flexibility Score: inf
ROOT
ATOM      1  C   UNL     1      67.725 103.146  33.685  1.00  0.00     0.176 C 
ENDROOT
BRANCH   1   2
ATOM      2  C   UNL     1      67.714 103.878  35.057  1.00  0.00     0.171 C 
BRANCH   2   3
ATOM      3  C   UNL     1      67.518 102.942  36.269  1.00  0.00     0.190 C 
BRANCH   3   4
ATOM      4  O   UNL     1      68.760 102.571  36.802  1.00  0.00    -0.394 OA
ATOM      5  H   UNL     1      69.051 103.315  37.393  1.00  0.00     0.210 HD
ENDBRANCH   3   4
ENDBRANCH   2   3
BRANCH   2   6
ATOM      6  O   UNL     1      66.792 104.940  35.064  1.00  0.00    -0.388 OA
ATOM      7  H   UNL     1      65.963 104.632  34.614  1.00  0.00     0.211 HD
ENDBRANCH   2   6
ENDBRANCH   1   2
BRANCH   1   8
ATOM      8  C   UNL     1      68.125 104.042  32.483  1.00  0.00     0.171 C 
BRANCH   8   9
ATOM      9  C   UNL     1      66.909 104.401  31.611  1.00  0.00     0.190 C 
BRANCH   9  10
ATOM     10  O   UNL     1      67.208 105.487  30.776  1.00  0.00    -0.394 OA
ATOM     11  H   UNL     1      68.120 105.786  31.029  1.00  0.00     0.210 HD
ENDBRANCH   9  10
ENDBRANCH   8   9
BRANCH   8  12
ATOM     12  O   UNL     1      68.718 105.228  32.943  1.00  0.00    -0.388 OA
ATOM     13  H   UNL     1      68.043 105.949  32.838  1.00  0.00     0.211 HD
ENDBRANCH   8  12
ENDBRANCH   1   8
BRANCH   1  14
ATOM     14  O   UNL     1      68.620 102.063  33.765  1.00  0.00    -0.388 OA
ATOM     15  H   UNL     1      68.187 101.367  34.325  1.00  0.00     0.211 HD
ENDBRANCH   1  14
TORSDOF 9
ENDMDL
MODEL 5
REMARK VINA RESULT:    -4.234      2.640      4.743
REMARK INTER + INTRA:          -6.122
REMARK INTER:                  -5.662
REMARK INTRA:                  -0.459
REMARK UNBOUND:                -0.280
REMARK SMILES OC[C@@H](O)[C@@H](O)[C@@H](O)CO
REMARK SMILES IDX 5 1 7 2 9 3 10 4 8 6 3 8 2 9 1 10 4 12 6 14
REMARK H PARENT 10 5 8 7 1 11 4 13 6 15
REMARK Flexibility Score: inf
ROOT
ATOM      1  C   UNL     1      67.958 104.210  33.568  1.00  0.00     0.176 C 
ENDROOT
BRANCH   1   2
ATOM      2  C   UNL     1      67.769 104.188  35.112  1.00  0.00     0.171 C 
BRANCH   2   3
ATOM      3  C   UNL     1      67.751 102.770  35.724  1.00  0.00     0.190 C 
BRANCH   3   4
ATOM      4  O   UNL     1      68.700 102.673  36.752  1.00  0.00    -0.394 OA
ATOM      5  H   UNL     1      68.229 102.897  37.597  1.00  0.00     0.210 HD
ENDBRANCH   3   4
ENDBRANCH   2   3
BRANCH   2   6
ATOM      6  O   UNL     1      66.644 104.937  35.502  1.00  0.00    -0.388 OA
ATOM      7  H   UNL     1      66.956 105.686  36.075  1.00  0.00     0.211 HD
ENDBRANCH   2   6
ENDBRANCH   1   2
BRANCH   1   8
ATOM      8  C   UNL     1      66.645 104.397  32.764  1.00  0.00     0.171 C 
BRANCH   8   9
ATOM      9  C   UNL     1      66.893 104.332  31.246  1.00  0.00     0.190 C 
BRANCH   9  10
ATOM     10  O   UNL     1      67.205 105.605  30.747  1.00  0.00    -0.394 OA
ATOM     11  H   UNL     1      66.404 106.168  30.906  1.00  0.00     0.210 HD
ENDBRANCH   9  10
ENDBRANCH   8   9
BRANCH   8  12
ATOM     12  O   UNL     1      65.719 103.402  33.115  1.00  0.00    -0.388 OA
ATOM     13  H   UNL     1      66.006 102.567  32.661  1.00  0.00     0.211 HD
ENDBRANCH   8  12
ENDBRANCH   1   8
BRANCH   1  14
ATOM     14  O   UNL     1      68.846 105.252  33.244  1.00  0.00    -0.388 OA
ATOM     15  H   UNL     1      69.661 104.833  32.860  1.00  0.00     0.211 HD
ENDBRANCH   1  14
TORSDOF 9
ENDMDL
MODEL 6
REMARK VINA RESULT:    -4.173     18.405     19.603
REMARK INTER + INTRA:          -6.038
REMARK INTER:                  -5.530
REMARK INTRA:                  -0.508
REMARK UNBOUND:                -0.280
REMARK SMILES OC[C@@H](O)[C@@H](O)[C@@H](O)CO
REMARK SMILES IDX 5 1 7 2 9 3 10 4 8 6 3 8 2 9 1 10 4 12 6 14
REMARK H PARENT 10 5 8 7 1 11 4 13 6 15
REMARK Flexibility Score: inf
ROOT
ATOM      1  C   UNL     1      53.212  98.451  25.020  1.00  0.00     0.176 C 
ENDROOT
BRANCH   1   2
ATOM      2  C   UNL     1      51.659  98.433  25.097  1.00  0.00     0.171 C 
BRANCH   2   3
ATOM      3  C   UNL     1      51.011  99.834  25.066  1.00  0.00     0.190 C 
BRANCH   3   4
ATOM      4  O   UNL     1      50.991 100.332  23.756  1.00  0.00    -0.394 OA
ATOM      5  H   UNL     1      50.582 101.235  23.800  1.00  0.00     0.210 HD
ENDBRANCH   3   4
ENDBRANCH   2   3
BRANCH   2   6
ATOM      6  O   UNL     1      51.208  97.674  26.193  1.00  0.00    -0.388 OA
ATOM      7  H   UNL     1      51.688  97.986  27.003  1.00  0.00     0.211 HD
ENDBRANCH   2   6
ENDBRANCH   1   2
BRANCH   1   8
ATOM      8  C   UNL     1      53.874  97.049  25.084  1.00  0.00     0.171 C 
BRANCH   8   9
ATOM      9  C   UNL     1      54.535  96.670  23.747  1.00  0.00     0.190 C 
BRANCH   9  10
ATOM     10  O   UNL     1      55.810  97.246  23.651  1.00  0.00    -0.394 OA
ATOM     11  H   UNL     1      56.104  97.421  24.583  1.00  0.00     0.210 HD
ENDBRANCH   9  10
ENDBRANCH   8   9
BRANCH   8  12
ATOM     12  O   UNL     1      54.847  97.021  26.095  1.00  0.00    -0.388 OA
ATOM     13  H   UNL     1      55.263  96.119  26.070  1.00  0.00     0.211 HD
ENDBRANCH   8  12
ENDBRANCH   1   8
BRANCH   1  14
ATOM     14  O   UNL     1      53.591  99.081  23.821  1.00  0.00    -0.388 OA
ATOM     15  H   UNL     1      54.007  98.387  23.245  1.00  0.00     0.211 HD
ENDBRANCH   1  14
TORSDOF 9
ENDMDL
MODEL 7
REMARK VINA RESULT:    -4.157      2.642      4.184
REMARK INTER + INTRA:          -6.017
REMARK INTER:                  -5.263
REMARK INTRA:                  -0.754
REMARK UNBOUND:                -0.280
REMARK SMILES OC[C@@H](O)[C@@H](O)[C@@H](O)CO
REMARK SMILES IDX 5 1 7 2 9 3 10 4 8 6 3 8 2 9 1 10 4 12 6 14
REMARK H PARENT 10 5 8 7 1 11 4 13 6 15
REMARK Flexibility Score: inf
ROOT
ATOM      1  C   UNL     1      66.963 104.127  33.679  1.00  0.00     0.176 C 
ENDROOT
BRANCH   1   2
ATOM      2  C   UNL     1      67.954 104.140  32.480  1.00  0.00     0.171 C 
BRANCH   2   3
ATOM      3  C   UNL     1      67.270 104.246  31.099  1.00  0.00     0.190 C 
BRANCH   3   4
ATOM      4  O   UNL     1      67.086 105.592  30.750  1.00  0.00    -0.394 OA
ATOM      5  H   UNL     1      67.275 105.663  29.778  1.00  0.00     0.210 HD
ENDBRANCH   3   4
ENDBRANCH   2   3
BRANCH   2   6
ATOM      6  O   UNL     1      68.844 103.053  32.537  1.00  0.00    -0.388 OA
ATOM      7  H   UNL     1      68.819 102.586  31.662  1.00  0.00     0.211 HD
ENDBRANCH   2   6
ENDBRANCH   1   2
BRANCH   1   8
ATOM      8  C   UNL     1      67.593 104.545  35.034  1.00  0.00     0.171 C 
BRANCH   8   9
ATOM      9  C   UNL     1      67.691 103.356  36.007  1.00  0.00     0.190 C 
BRANCH   9  10
ATOM     10  O   UNL     1      68.441 102.317  35.436  1.00  0.00    -0.394 OA
ATOM     11  H   UNL     1      68.593 102.575  34.490  1.00  0.00     0.210 HD
ENDBRANCH   9  10
ENDBRANCH   8   9
BRANCH   8  12
ATOM     12  O   UNL     1      68.878 105.069  34.827  1.00  0.00    -0.388 OA
ATOM     13  H   UNL     1      68.823 105.667  34.037  1.00  0.00     0.211 HD
ENDBRANCH   8  12
ENDBRANCH   1   8
BRANCH   1  14
ATOM     14  O   UNL     1      65.896 104.994  33.384  1.00  0.00    -0.388 OA
ATOM     15  H   UNL     1      66.291 105.874  33.149  1.00  0.00     0.211 HD
ENDBRANCH   1  14
TORSDOF 9
ENDMDL
MODEL 8
REMARK VINA RESULT:    -4.157      1.354      2.508
REMARK INTER + INTRA:          -6.017
REMARK INTER:                  -5.337
REMARK INTRA:                  -0.680
REMARK UNBOUND:                -0.280
REMARK SMILES OC[C@@H](O)[C@@H](O)[C@@H](O)CO
REMARK SMILES IDX 5 1 7 2 9 3 10 4 8 6 3 8 2 9 1 10 4 12 6 14
REMARK H PARENT 10 5 8 7 1 11 4 13 6 15
REMARK Flexibility Score: inf
ROOT
ATOM      1  C   UNL     1      66.271 102.590  37.263  1.00  0.00     0.176 C 
ENDROOT
BRANCH   1   2
ATOM      2  C   UNL     1      67.591 103.412  37.277  1.00  0.00     0.171 C 
BRANCH   2   3
ATOM      3  C   UNL     1      67.435 104.863  36.775  1.00  0.00     0.190 C 
BRANCH   3   4
ATOM      4  O   UNL     1      67.109 104.874  35.411  1.00  0.00    -0.394 OA
ATOM      5  H   UNL     1      67.678 105.569  34.987  1.00  0.00     0.210 HD
ENDBRANCH   3   4
ENDBRANCH   2   3
BRANCH   2   6
ATOM      6  O   UNL     1      68.624 102.736  36.603  1.00  0.00    -0.388 OA
ATOM      7  H   UNL     1      68.264 102.405  35.739  1.00  0.00     0.211 HD
ENDBRANCH   2   6
ENDBRANCH   1   2
BRANCH   1   8
ATOM      8  C   UNL     1      66.182 101.540  36.124  1.00  0.00     0.171 C 
BRANCH   8   9
ATOM      9  C   UNL     1      64.968 100.610  36.301  1.00  0.00     0.190 C 
BRANCH   9  10
ATOM     10  O   UNL     1      65.378  99.354  36.769  1.00  0.00    -0.394 OA
ATOM     11  H   UNL     1      66.368  99.346  36.706  1.00  0.00     0.210 HD
ENDBRANCH   9  10
ENDBRANCH   8   9
BRANCH   8  12
ATOM     12  O   UNL     1      66.082 102.184  34.881  1.00  0.00    -0.388 OA
ATOM     13  H   UNL     1      65.350 101.736  34.381  1.00  0.00     0.211 HD
ENDBRANCH   8  12
ENDBRANCH   1   8
BRANCH   1  14
ATOM     14  O   UNL     1      66.141 101.934  38.501  1.00  0.00    -0.388 OA
ATOM     15  H   UNL     1      66.603 102.496  39.178  1.00  0.00     0.211 HD
ENDBRANCH   1  14
TORSDOF 9
ENDMDL
MODEL 9
REMARK VINA RESULT:    -4.040      4.503      6.693
REMARK INTER + INTRA:          -5.855
REMARK INTER:                  -5.144
REMARK INTRA:                  -0.711
REMARK UNBOUND:                -0.280
REMARK SMILES OC[C@@H](O)[C@@H](O)[C@@H](O)CO
REMARK SMILES IDX 5 1 7 2 9 3 10 4 8 6 3 8 2 9 1 10 4 12 6 14
REMARK H PARENT 10 5 8 7 1 11 4 13 6 15
REMARK Flexibility Score: inf
ROOT
ATOM      1  C   UNL     1      67.745 104.090  30.985  1.00  0.00     0.176 C 
ENDROOT
BRANCH   1   2
ATOM      2  C   UNL     1      67.857 103.424  32.386  1.00  0.00     0.171 C 
BRANCH   2   3
ATOM      3  C   UNL     1      67.851 104.425  33.562  1.00  0.00     0.190 C 
BRANCH   3   4
ATOM      4  O   UNL     1      68.907 105.338  33.429  1.00  0.00    -0.394 OA
ATOM      5  H   UNL     1      68.531 106.149  32.996  1.00  0.00     0.210 HD
ENDBRANCH   3   4
ENDBRANCH   2   3
BRANCH   2   6
ATOM      6  O   UNL     1      68.958 102.550  32.452  1.00  0.00    -0.388 OA
ATOM      7  H   UNL     1      68.901 101.924  31.685  1.00  0.00     0.211 HD
ENDBRANCH   2   6
ENDBRANCH   1   2
BRANCH   1   8
ATOM      8  C   UNL     1      67.081 103.198  29.903  1.00  0.00     0.171 C 
BRANCH   8   9
ATOM      9  C   UNL     1      67.686 103.448  28.510  1.00  0.00     0.190 C 
BRANCH   9  10
ATOM     10  O   UNL     1      68.103 104.781  28.389  1.00  0.00    -0.394 OA
ATOM     11  H   UNL     1      68.578 104.999  29.233  1.00  0.00     0.210 HD
ENDBRANCH   9  10
ENDBRANCH   8   9
BRANCH   8  12
ATOM     12  O   UNL     1      67.243 101.843  30.231  1.00  0.00    -0.388 OA
ATOM     13  H   UNL     1      66.360 101.407  30.102  1.00  0.00     0.211 HD
ENDBRANCH   8  12
ENDBRANCH   1   8
BRANCH   1  14
ATOM     14  O   UNL     1      67.003 105.278  31.116  1.00  0.00    -0.388 OA
ATOM     15  H   UNL     1      67.216 105.659  32.008  1.00  0.00     0.211 HD
ENDBRANCH   1  14
TORSDOF 9
ENDMDL
