MODEL 1
REMARK VINA RESULT:    -4.709      0.000      0.000
REMARK INTER + INTRA:         -12.410
REMARK INTER:                 -10.215
REMARK INTRA:                  -2.195
REMARK UNBOUND:                -2.195
REMARK SMILES CCCCCCCCCCCCCCCCCCCCCC(=O)[O-]
REMARK SMILES IDX 12 1 11 2 10 3 9 4 8 5 7 6 6 7 5 8 4 9 3 10 2 11 1 12 13 13
REMARK SMILES IDX 14 14 15 15 16 16 17 17 18 18 19 19 20 20 21 21 22 22 23 23
REMARK SMILES IDX 24 24
REMARK H PARENT
REMARK Flexibility Score: inf
ROOT
ATOM      1  C   UNL     1       3.227  -2.948  -7.551  1.00  0.00     0.000 C 
ENDROOT
BRANCH   1   2
ATOM      2  C   UNL     1       1.731  -3.092  -7.882  1.00  0.00     0.000 C 
BRANCH   2   3
ATOM      3  C   UNL     1       1.483  -3.400  -9.368  1.00  0.00     0.000 C 
BRANCH   3   4
ATOM      4  C   UNL     1       1.108  -4.869  -9.614  1.00  0.00    -0.000 C 
BRANCH   4   5
ATOM      5  C   UNL     1       2.353  -5.709  -9.924  1.00  0.00    -0.000 C 
BRANCH   5   6
ATOM      6  C   UNL     1       2.500  -6.869  -8.931  1.00  0.00    -0.000 C 
BRANCH   6   7
ATOM      7  C   UNL     1       3.661  -6.617  -7.961  1.00  0.00    -0.000 C 
BRANCH   7   8
ATOM      8  C   UNL     1       3.152  -6.463  -6.521  1.00  0.00    -0.000 C 
BRANCH   8   9
ATOM      9  C   UNL     1       4.134  -5.695  -5.619  1.00  0.00    -0.000 C 
BRANCH   9  10
ATOM     10  C   UNL     1       5.310  -6.557  -5.110  1.00  0.00    -0.000 C 
BRANCH  10  11
ATOM     11  C   UNL     1       4.862  -7.595  -4.071  1.00  0.00    -0.003 C 
ATOM     12  C   UNL     1       4.821  -8.997  -4.674  1.00  0.00     0.004 C 
ENDBRANCH  10  11
ENDBRANCH   9  10
ENDBRANCH   8   9
ENDBRANCH   7   8
ENDBRANCH   6   7
ENDBRANCH   5   6
ENDBRANCH   4   5
ENDBRANCH   3   4
ENDBRANCH   2   3
ENDBRANCH   1   2
BRANCH   1  13
ATOM     13  C   UNL     1       4.047  -2.428  -8.743  1.00  0.00     0.000 C 
BRANCH  13  14
ATOM     14  C   UNL     1       5.156  -3.401  -9.174  1.00  0.00     0.000 C 
BRANCH  14  15
ATOM     15  C   UNL     1       6.390  -2.638  -9.677  1.00  0.00     0.000 C 
BRANCH  15  16
ATOM     16  C   UNL     1       6.270  -1.116  -9.482  1.00  0.00     0.000 C 
BRANCH  16  17
ATOM     17  C   UNL     1       7.091  -0.544  -8.309  1.00  0.00     0.000 C 
BRANCH  17  18
ATOM     18  C   UNL     1       6.409   0.596  -7.527  1.00  0.00     0.000 C 
BRANCH  18  19
ATOM     19  C   UNL     1       7.112   1.961  -7.626  1.00  0.00     0.000 C 
BRANCH  19  20
ATOM     20  C   UNL     1       6.412   2.924  -8.600  1.00  0.00     0.006 C 
BRANCH  20  21
ATOM     21  C   UNL     1       6.937   4.360  -8.474  1.00  0.00     0.053 C 
BRANCH  21  22
ATOM     22  C   UNL     1       5.825   5.341  -8.256  1.00  0.00     0.041 C 
ATOM     23  O   UNL     1       5.951   6.262  -7.406  1.00  0.00    -0.550 OA
ATOM     24  O   UNL     1       4.662   5.253  -9.012  1.00  0.00    -0.550 OA
ENDBRANCH  21  22
ENDBRANCH  20  21
ENDBRANCH  19  20
ENDBRANCH  18  19
ENDBRANCH  17  18
ENDBRANCH  16  17
ENDBRANCH  15  16
ENDBRANCH  14  15
ENDBRANCH  13  14
ENDBRANCH   1  13
TORSDOF 20
ENDMDL
MODEL 2
REMARK VINA RESULT:    -4.550      2.348      4.810
REMARK INTER + INTRA:         -12.065
REMARK INTER:                  -8.914
REMARK INTRA:                  -3.151
REMARK UNBOUND:                -2.195
REMARK SMILES CCCCCCCCCCCCCCCCCCCCCC(=O)[O-]
REMARK SMILES IDX 12 1 11 2 10 3 9 4 8 5 7 6 6 7 5 8 4 9 3 10 2 11 1 12 13 13
REMARK SMILES IDX 14 14 15 15 16 16 17 17 18 18 19 19 20 20 21 21 22 22 23 23
REMARK SMILES IDX 24 24
REMARK H PARENT
REMARK Flexibility Score: inf
ROOT
ATOM      1  C   UNL     1       4.146  -5.425  -6.621  1.00  0.00     0.000 C 
ENDROOT
BRANCH   1   2
ATOM      2  C   UNL     1       4.200  -6.175  -5.278  1.00  0.00     0.000 C 
BRANCH   2   3
ATOM      3  C   UNL     1       5.640  -6.401  -4.787  1.00  0.00     0.000 C 
BRANCH   3   4
ATOM      4  C   UNL     1       5.848  -7.799  -4.187  1.00  0.00    -0.000 C 
BRANCH   4   5
ATOM      5  C   UNL     1       4.664  -8.718  -4.512  1.00  0.00    -0.000 C 
BRANCH   5   6
ATOM      6  C   UNL     1       5.047  -9.761  -5.570  1.00  0.00    -0.000 C 
BRANCH   6   7
ATOM      7  C   UNL     1       4.181  -9.612  -6.827  1.00  0.00    -0.000 C 
BRANCH   7   8
ATOM      8  C   UNL     1       5.052  -9.427  -8.077  1.00  0.00    -0.000 C 
BRANCH   8   9
ATOM      9  C   UNL     1       6.478  -8.954  -7.748  1.00  0.00    -0.000 C 
BRANCH   9  10
ATOM     10  C   UNL     1       6.760  -7.496  -8.172  1.00  0.00    -0.000 C 
BRANCH  10  11
ATOM     11  C   UNL     1       8.129  -7.003  -7.680  1.00  0.00    -0.003 C 
ATOM     12  C   UNL     1       8.648  -7.870  -6.535  1.00  0.00     0.004 C 
ENDBRANCH  10  11
ENDBRANCH   9  10
ENDBRANCH   8   9
ENDBRANCH   7   8
ENDBRANCH   6   7
ENDBRANCH   5   6
ENDBRANCH   4   5
ENDBRANCH   3   4
ENDBRANCH   2   3
ENDBRANCH   1   2
BRANCH   1  13
ATOM     13  C   UNL     1       3.265  -6.139  -7.659  1.00  0.00     0.000 C 
BRANCH  13  14
ATOM     14  C   UNL     1       2.199  -5.218  -8.272  1.00  0.00     0.000 C 
BRANCH  14  15
ATOM     15  C   UNL     1       1.984  -3.972  -7.399  1.00  0.00     0.000 C 
BRANCH  15  16
ATOM     16  C   UNL     1       2.273  -2.661  -8.152  1.00  0.00     0.000 C 
BRANCH  16  17
ATOM     17  C   UNL     1       3.749  -2.217  -8.140  1.00  0.00     0.000 C 
BRANCH  17  18
ATOM     18  C   UNL     1       4.589  -2.702  -9.339  1.00  0.00     0.000 C 
BRANCH  18  19
ATOM     19  C   UNL     1       6.036  -2.179  -9.369  1.00  0.00     0.000 C 
BRANCH  19  20
ATOM     20  C   UNL     1       6.141  -0.691  -8.994  1.00  0.00     0.006 C 
BRANCH  20  21
ATOM     21  C   UNL     1       7.471  -0.359  -8.304  1.00  0.00     0.053 C 
BRANCH  21  22
ATOM     22  C   UNL     1       7.346   0.826  -7.397  1.00  0.00     0.041 C 
ATOM     23  O   UNL     1       6.220   1.163  -6.946  1.00  0.00    -0.550 OA
ATOM     24  O   UNL     1       8.479   1.542  -7.027  1.00  0.00    -0.550 OA
ENDBRANCH  21  22
ENDBRANCH  20  21
ENDBRANCH  19  20
ENDBRANCH  18  19
ENDBRANCH  17  18
ENDBRANCH  16  17
ENDBRANCH  15  16
ENDBRANCH  14  15
ENDBRANCH  13  14
ENDBRANCH   1  13
TORSDOF 20
ENDMDL
MODEL 3
REMARK VINA RESULT:    -4.535      2.328      3.919
REMARK INTER + INTRA:         -12.033
REMARK INTER:                  -9.594
REMARK INTRA:                  -2.438
REMARK UNBOUND:                -2.195
REMARK SMILES CCCCCCCCCCCCCCCCCCCCCC(=O)[O-]
REMARK SMILES IDX 12 1 11 2 10 3 9 4 8 5 7 6 6 7 5 8 4 9 3 10 2 11 1 12 13 13
REMARK SMILES IDX 14 14 15 15 16 16 17 17 18 18 19 19 20 20 21 21 22 22 23 23
REMARK SMILES IDX 24 24
REMARK H PARENT
REMARK Flexibility Score: inf
ROOT
ATOM      1  C   UNL     1       0.860  -4.842  -9.745  1.00  0.00     0.000 C 
ENDROOT
BRANCH   1   2
ATOM      2  C   UNL     1       2.180  -5.567 -10.058  1.00  0.00     0.000 C 
BRANCH   2   3
ATOM      3  C   UNL     1       2.403  -6.798  -9.164  1.00  0.00     0.000 C 
BRANCH   3   4
ATOM      4  C   UNL     1       3.622  -6.648  -8.242  1.00  0.00    -0.000 C 
BRANCH   4   5
ATOM      5  C   UNL     1       3.218  -6.798  -6.770  1.00  0.00    -0.000 C 
BRANCH   5   6
ATOM      6  C   UNL     1       4.164  -6.012  -5.854  1.00  0.00    -0.000 C 
BRANCH   6   7
ATOM      7  C   UNL     1       4.247  -6.659  -4.466  1.00  0.00    -0.000 C 
BRANCH   7   8
ATOM      8  C   UNL     1       4.479  -8.173  -4.576  1.00  0.00    -0.000 C 
BRANCH   8   9
ATOM      9  C   UNL     1       5.949  -8.535  -4.845  1.00  0.00    -0.000 C 
BRANCH   9  10
ATOM     10  C   UNL     1       6.940  -7.404  -4.490  1.00  0.00    -0.000 C 
BRANCH  10  11
ATOM     11  C   UNL     1       8.219  -7.465  -5.338  1.00  0.00    -0.003 C 
ATOM     12  C   UNL     1       7.892  -7.448  -6.829  1.00  0.00     0.004 C 
ENDBRANCH  10  11
ENDBRANCH   9  10
ENDBRANCH   8   9
ENDBRANCH   7   8
ENDBRANCH   6   7
ENDBRANCH   5   6
ENDBRANCH   4   5
ENDBRANCH   3   4
ENDBRANCH   2   3
ENDBRANCH   1   2
BRANCH   1  13
ATOM     13  C   UNL     1       1.084  -3.465  -9.097  1.00  0.00     0.000 C 
BRANCH  13  14
ATOM     14  C   UNL     1       1.495  -3.562  -7.619  1.00  0.00     0.000 C 
BRANCH  14  15
ATOM     15  C   UNL     1       2.947  -3.101  -7.423  1.00  0.00     0.000 C 
BRANCH  15  16
ATOM     16  C   UNL     1       3.500  -2.340  -8.641  1.00  0.00     0.000 C 
BRANCH  16  17
ATOM     17  C   UNL     1       4.864  -2.839  -9.155  1.00  0.00     0.000 C 
BRANCH  17  18
ATOM     18  C   UNL     1       5.801  -1.742  -9.698  1.00  0.00     0.000 C 
BRANCH  18  19
ATOM     19  C   UNL     1       6.736  -1.111  -8.650  1.00  0.00     0.000 C 
BRANCH  19  20
ATOM     20  C   UNL     1       6.214   0.236  -8.119  1.00  0.00     0.006 C 
BRANCH  20  21
ATOM     21  C   UNL     1       6.699   0.522  -6.692  1.00  0.00     0.053 C 
BRANCH  21  22
ATOM     22  C   UNL     1       8.194   0.572  -6.613  1.00  0.00     0.041 C 
ATOM     23  O   UNL     1       8.810  -0.160  -5.794  1.00  0.00    -0.550 OA
ATOM     24  O   UNL     1       8.908   1.407  -7.464  1.00  0.00    -0.550 OA
ENDBRANCH  21  22
ENDBRANCH  20  21
ENDBRANCH  19  20
ENDBRANCH  18  19
ENDBRANCH  17  18
ENDBRANCH  16  17
ENDBRANCH  15  16
ENDBRANCH  14  15
ENDBRANCH  13  14
ENDBRANCH   1  13
TORSDOF 20
ENDMDL
MODEL 4
REMARK VINA RESULT:    -4.494      4.469     10.595
REMARK INTER + INTRA:         -11.943
REMARK INTER:                 -10.708
REMARK INTRA:                  -1.235
REMARK UNBOUND:                -2.195
REMARK SMILES CCCCCCCCCCCCCCCCCCCCCC(=O)[O-]
REMARK SMILES IDX 12 1 11 2 10 3 9 4 8 5 7 6 6 7 5 8 4 9 3 10 2 11 1 12 13 13
REMARK SMILES IDX 14 14 15 15 16 16 17 17 18 18 19 19 20 20 21 21 22 22 23 23
REMARK SMILES IDX 24 24
REMARK H PARENT
REMARK Flexibility Score: inf
ROOT
ATOM      1  C   UNL     1       6.977  -0.556  -8.878  1.00  0.00     0.000 C 
ENDROOT
BRANCH   1   2
ATOM      2  C   UNL     1       6.202  -0.010  -7.666  1.00  0.00     0.000 C 
BRANCH   2   3
ATOM      3  C   UNL     1       6.359   1.511  -7.501  1.00  0.00     0.000 C 
BRANCH   3   4
ATOM      4  C   UNL     1       7.231   2.139  -8.598  1.00  0.00    -0.000 C 
BRANCH   4   5
ATOM      5  C   UNL     1       6.506   3.311  -9.271  1.00  0.00    -0.000 C 
BRANCH   5   6
ATOM      6  C   UNL     1       5.951   4.290  -8.229  1.00  0.00    -0.000 C 
BRANCH   6   7
ATOM      7  C   UNL     1       5.995   5.732  -8.752  1.00  0.00    -0.000 C 
BRANCH   7   8
ATOM      8  C   UNL     1       6.889   6.612  -7.866  1.00  0.00    -0.000 C 
BRANCH   8   9
ATOM      9  C   UNL     1       6.085   7.479  -6.882  1.00  0.00    -0.000 C 
BRANCH   9  10
ATOM     10  C   UNL     1       6.903   7.946  -5.658  1.00  0.00    -0.000 C 
BRANCH  10  11
ATOM     11  C   UNL     1       6.005   8.439  -4.514  1.00  0.00    -0.003 C 
ATOM     12  C   UNL     1       5.616   7.291  -3.585  1.00  0.00     0.004 C 
ENDBRANCH  10  11
ENDBRANCH   9  10
ENDBRANCH   8   9
ENDBRANCH   7   8
ENDBRANCH   6   7
ENDBRANCH   5   6
ENDBRANCH   4   5
ENDBRANCH   3   4
ENDBRANCH   2   3
ENDBRANCH   1   2
BRANCH   1  13
ATOM     13  C   UNL     1       6.066  -1.280  -9.883  1.00  0.00     0.000 C 
BRANCH  13  14
ATOM     14  C   UNL     1       5.546  -2.626  -9.354  1.00  0.00     0.000 C 
BRANCH  14  15
ATOM     15  C   UNL     1       4.010  -2.644  -9.319  1.00  0.00     0.000 C 
BRANCH  15  16
ATOM     16  C   UNL     1       3.446  -2.607  -7.888  1.00  0.00     0.000 C 
BRANCH  16  17
ATOM     17  C   UNL     1       2.253  -3.549  -7.635  1.00  0.00     0.000 C 
BRANCH  17  18
ATOM     18  C   UNL     1       2.574  -4.801  -6.794  1.00  0.00     0.000 C 
BRANCH  18  19
ATOM     19  C   UNL     1       3.344  -5.903  -7.543  1.00  0.00     0.000 C 
BRANCH  19  20
ATOM     20  C   UNL     1       3.922  -6.973  -6.601  1.00  0.00     0.006 C 
BRANCH  20  21
ATOM     21  C   UNL     1       4.419  -6.373  -5.279  1.00  0.00     0.053 C 
BRANCH  21  22
ATOM     22  C   UNL     1       5.171  -7.378  -4.460  1.00  0.00     0.041 C 
ATOM     23  O   UNL     1       4.547  -8.207  -3.747  1.00  0.00    -0.550 OA
ATOM     24  O   UNL     1       6.559  -7.415  -4.508  1.00  0.00    -0.550 OA
ENDBRANCH  21  22
ENDBRANCH  20  21
ENDBRANCH  19  20
ENDBRANCH  18  19
ENDBRANCH  17  18
ENDBRANCH  16  17
ENDBRANCH  15  16
ENDBRANCH  14  15
ENDBRANCH  13  14
ENDBRANCH   1  13
TORSDOF 20
ENDMDL
MODEL 5
REMARK VINA RESULT:    -4.471      1.270      2.879
REMARK INTER + INTRA:         -11.893
REMARK INTER:                 -10.491
REMARK INTRA:                  -1.402
REMARK UNBOUND:                -2.195
REMARK SMILES CCCCCCCCCCCCCCCCCCCCCC(=O)[O-]
REMARK SMILES IDX 12 1 11 2 10 3 9 4 8 5 7 6 6 7 5 8 4 9 3 10 2 11 1 12 13 13
REMARK SMILES IDX 14 14 15 15 16 16 17 17 18 18 19 19 20 20 21 21 22 22 23 23
REMARK SMILES IDX 24 24
REMARK H PARENT
REMARK Flexibility Score: inf
ROOT
ATOM      1  C   UNL     1       6.865  -2.771  -9.772  1.00  0.00     0.000 C 
ENDROOT
BRANCH   1   2
ATOM      2  C   UNL     1       5.495  -3.466  -9.691  1.00  0.00     0.000 C 
BRANCH   2   3
ATOM      3  C   UNL     1       4.384  -2.526  -9.193  1.00  0.00     0.000 C 
BRANCH   3   4
ATOM      4  C   UNL     1       2.995  -3.180  -9.226  1.00  0.00    -0.000 C 
BRANCH   4   5
ATOM      5  C   UNL     1       2.245  -2.941  -7.910  1.00  0.00    -0.000 C 
BRANCH   5   6
ATOM      6  C   UNL     1       2.012  -4.258  -7.159  1.00  0.00    -0.000 C 
BRANCH   6   7
ATOM      7  C   UNL     1       2.716  -5.424  -7.863  1.00  0.00    -0.000 C 
BRANCH   7   8
ATOM      8  C   UNL     1       3.260  -6.436  -6.845  1.00  0.00    -0.000 C 
BRANCH   8   9
ATOM      9  C   UNL     1       4.038  -5.769  -5.697  1.00  0.00    -0.000 C 
BRANCH   9  10
ATOM     10  C   UNL     1       4.713  -6.775  -4.740  1.00  0.00    -0.000 C 
BRANCH  10  11
ATOM     11  C   UNL     1       6.234  -6.575  -4.667  1.00  0.00    -0.003 C 
ATOM     12  C   UNL     1       6.933  -7.221  -5.861  1.00  0.00     0.004 C 
ENDBRANCH  10  11
ENDBRANCH   9  10
ENDBRANCH   8   9
ENDBRANCH   7   8
ENDBRANCH   6   7
ENDBRANCH   5   6
ENDBRANCH   4   5
ENDBRANCH   3   4
ENDBRANCH   2   3
ENDBRANCH   1   2
BRANCH   1  13
ATOM     13  C   UNL     1       6.743  -1.245  -9.918  1.00  0.00     0.000 C 
BRANCH  13  14
ATOM     14  C   UNL     1       7.426  -0.481  -8.772  1.00  0.00     0.000 C 
BRANCH  14  15
ATOM     15  C   UNL     1       6.393  -0.005  -7.739  1.00  0.00     0.000 C 
BRANCH  15  16
ATOM     16  C   UNL     1       6.507   1.499  -7.432  1.00  0.00     0.000 C 
BRANCH  16  17
ATOM     17  C   UNL     1       7.232   2.329  -8.509  1.00  0.00     0.000 C 
BRANCH  17  18
ATOM     18  C   UNL     1       6.737   3.782  -8.660  1.00  0.00     0.000 C 
BRANCH  18  19
ATOM     19  C   UNL     1       5.598   3.975  -9.677  1.00  0.00     0.000 C 
BRANCH  19  20
ATOM     20  C   UNL     1       4.803   5.272  -9.443  1.00  0.00     0.006 C 
BRANCH  20  21
ATOM     21  C   UNL     1       5.678   6.523  -9.594  1.00  0.00     0.053 C 
BRANCH  21  22
ATOM     22  C   UNL     1       5.837   7.249  -8.293  1.00  0.00     0.041 C 
ATOM     23  O   UNL     1       5.776   6.619  -7.204  1.00  0.00    -0.550 OA
ATOM     24  O   UNL     1       6.081   8.617  -8.285  1.00  0.00    -0.550 OA
ENDBRANCH  21  22
ENDBRANCH  20  21
ENDBRANCH  19  20
ENDBRANCH  18  19
ENDBRANCH  17  18
ENDBRANCH  16  17
ENDBRANCH  15  16
ENDBRANCH  14  15
ENDBRANCH  13  14
ENDBRANCH   1  13
TORSDOF 20
ENDMDL
MODEL 6
REMARK VINA RESULT:    -4.450      2.118      3.571
REMARK INTER + INTRA:         -11.848
REMARK INTER:                  -8.927
REMARK INTRA:                  -2.922
REMARK UNBOUND:                -2.195
REMARK SMILES CCCCCCCCCCCCCCCCCCCCCC(=O)[O-]
REMARK SMILES IDX 12 1 11 2 10 3 9 4 8 5 7 6 6 7 5 8 4 9 3 10 2 11 1 12 13 13
REMARK SMILES IDX 14 14 15 15 16 16 17 17 18 18 19 19 20 20 21 21 22 22 23 23
REMARK SMILES IDX 24 24
REMARK H PARENT
REMARK Flexibility Score: inf
ROOT
ATOM      1  C   UNL     1       3.144  -4.857  -6.761  1.00  0.00     0.000 C 
ENDROOT
BRANCH   1   2
ATOM      2  C   UNL     1       3.313  -6.267  -7.352  1.00  0.00     0.000 C 
BRANCH   2   3
ATOM      3  C   UNL     1       3.230  -6.278  -8.888  1.00  0.00     0.000 C 
BRANCH   3   4
ATOM      4  C   UNL     1       4.600  -6.469  -9.554  1.00  0.00    -0.000 C 
BRANCH   4   5
ATOM      5  C   UNL     1       5.708  -5.802  -8.730  1.00  0.00    -0.000 C 
BRANCH   5   6
ATOM      6  C   UNL     1       6.925  -6.725  -8.589  1.00  0.00    -0.000 C 
BRANCH   6   7
ATOM      7  C   UNL     1       6.492  -8.157  -8.249  1.00  0.00    -0.000 C 
BRANCH   7   8
ATOM      8  C   UNL     1       6.963  -8.556  -6.843  1.00  0.00    -0.000 C 
BRANCH   8   9
ATOM      9  C   UNL     1       7.756  -7.441  -6.140  1.00  0.00    -0.000 C 
BRANCH   9  10
ATOM     10  C   UNL     1       7.261  -7.137  -4.709  1.00  0.00    -0.000 C 
BRANCH  10  11
ATOM     11  C   UNL     1       5.880  -6.465  -4.703  1.00  0.00    -0.003 C 
ATOM     12  C   UNL     1       4.819  -7.393  -4.115  1.00  0.00     0.004 C 
ENDBRANCH  10  11
ENDBRANCH   9  10
ENDBRANCH   8   9
ENDBRANCH   7   8
ENDBRANCH   6   7
ENDBRANCH   5   6
ENDBRANCH   4   5
ENDBRANCH   3   4
ENDBRANCH   2   3
ENDBRANCH   1   2
BRANCH   1  13
ATOM     13  C   UNL     1       1.885  -4.145  -7.285  1.00  0.00     0.000 C 
BRANCH  13  14
ATOM     14  C   UNL     1       2.190  -2.768  -7.896  1.00  0.00     0.000 C 
BRANCH  14  15
ATOM     15  C   UNL     1       2.204  -2.840  -9.431  1.00  0.00     0.000 C 
BRANCH  15  16
ATOM     16  C   UNL     1       3.625  -2.773 -10.017  1.00  0.00     0.000 C 
BRANCH  16  17
ATOM     17  C   UNL     1       4.710  -2.287  -9.037  1.00  0.00     0.000 C 
BRANCH  17  18
ATOM     18  C   UNL     1       6.134  -2.207  -9.623  1.00  0.00     0.000 C 
BRANCH  18  19
ATOM     19  C   UNL     1       6.772  -0.807  -9.585  1.00  0.00     0.000 C 
BRANCH  19  20
ATOM     20  C   UNL     1       7.930  -0.706  -8.576  1.00  0.00     0.006 C 
BRANCH  20  21
ATOM     21  C   UNL     1       8.093   0.715  -8.021  1.00  0.00     0.053 C 
BRANCH  21  22
ATOM     22  C   UNL     1       6.802   1.254  -7.487  1.00  0.00     0.041 C 
ATOM     23  O   UNL     1       6.143   0.596  -6.639  1.00  0.00    -0.550 OA
ATOM     24  O   UNL     1       6.340   2.497  -7.905  1.00  0.00    -0.550 OA
ENDBRANCH  21  22
ENDBRANCH  20  21
ENDBRANCH  19  20
ENDBRANCH  18  19
ENDBRANCH  17  18
ENDBRANCH  16  17
ENDBRANCH  15  16
ENDBRANCH  14  15
ENDBRANCH  13  14
ENDBRANCH   1  13
TORSDOF 20
ENDMDL
MODEL 7
REMARK VINA RESULT:    -4.450      2.168      4.807
REMARK INTER + INTRA:         -11.847
REMARK INTER:                 -10.660
REMARK INTRA:                  -1.188
REMARK UNBOUND:                -2.195
REMARK SMILES CCCCCCCCCCCCCCCCCCCCCC(=O)[O-]
REMARK SMILES IDX 12 1 11 2 10 3 9 4 8 5 7 6 6 7 5 8 4 9 3 10 2 11 1 12 13 13
REMARK SMILES IDX 14 14 15 15 16 16 17 17 18 18 19 19 20 20 21 21 22 22 23 23
REMARK SMILES IDX 24 24
REMARK H PARENT
REMARK Flexibility Score: inf
ROOT
ATOM      1  C   UNL     1       7.340   0.308  -7.278  1.00  0.00     0.000 C 
ENDROOT
BRANCH   1   2
ATOM      2  C   UNL     1       7.446  -0.513  -8.574  1.00  0.00     0.000 C 
BRANCH   2   3
ATOM      3  C   UNL     1       6.091  -0.677  -9.282  1.00  0.00     0.000 C 
BRANCH   3   4
ATOM      4  C   UNL     1       5.548  -2.111  -9.197  1.00  0.00    -0.000 C 
BRANCH   4   5
ATOM      5  C   UNL     1       4.287  -2.170  -8.325  1.00  0.00    -0.000 C 
BRANCH   5   6
ATOM      6  C   UNL     1       3.122  -2.821  -9.081  1.00  0.00    -0.000 C 
BRANCH   6   7
ATOM      7  C   UNL     1       2.660  -4.103  -8.376  1.00  0.00    -0.000 C 
BRANCH   7   8
ATOM      8  C   UNL     1       3.326  -4.248  -7.001  1.00  0.00    -0.000 C 
BRANCH   8   9
ATOM      9  C   UNL     1       3.950  -5.637  -6.783  1.00  0.00    -0.000 C 
BRANCH   9  10
ATOM     10  C   UNL     1       4.461  -5.867  -5.344  1.00  0.00    -0.000 C 
BRANCH  10  11
ATOM     11  C   UNL     1       3.786  -7.073  -4.674  1.00  0.00    -0.003 C 
ATOM     12  C   UNL     1       4.819  -7.999  -4.036  1.00  0.00     0.004 C 
ENDBRANCH  10  11
ENDBRANCH   9  10
ENDBRANCH   8   9
ENDBRANCH   7   8
ENDBRANCH   6   7
ENDBRANCH   5   6
ENDBRANCH   4   5
ENDBRANCH   3   4
ENDBRANCH   2   3
ENDBRANCH   1   2
BRANCH   1  13
ATOM     13  C   UNL     1       6.437   1.543  -7.435  1.00  0.00     0.000 C 
BRANCH  13  14
ATOM     14  C   UNL     1       7.111   2.679  -8.220  1.00  0.00     0.000 C 
BRANCH  14  15
ATOM     15  C   UNL     1       6.229   3.135  -9.391  1.00  0.00     0.000 C 
BRANCH  15  16
ATOM     16  C   UNL     1       5.511   4.468  -9.113  1.00  0.00     0.000 C 
BRANCH  16  17
ATOM     17  C   UNL     1       6.397   5.722  -9.242  1.00  0.00     0.000 C 
BRANCH  17  18
ATOM     18  C   UNL     1       5.658   7.065  -9.072  1.00  0.00     0.000 C 
BRANCH  18  19
ATOM     19  C   UNL     1       6.204   7.967  -7.950  1.00  0.00     0.000 C 
BRANCH  19  20
ATOM     20  C   UNL     1       6.206   7.273  -6.576  1.00  0.00     0.006 C 
BRANCH  20  21
ATOM     21  C   UNL     1       7.113   7.991  -5.567  1.00  0.00     0.053 C 
BRANCH  21  22
ATOM     22  C   UNL     1       6.450   8.137  -4.231  1.00  0.00     0.041 C 
ATOM     23  O   UNL     1       6.840   9.022  -3.425  1.00  0.00    -0.550 OA
ATOM     24  O   UNL     1       5.383   7.315  -3.890  1.00  0.00    -0.550 OA
ENDBRANCH  21  22
ENDBRANCH  20  21
ENDBRANCH  19  20
ENDBRANCH  18  19
ENDBRANCH  17  18
ENDBRANCH  16  17
ENDBRANCH  15  16
ENDBRANCH  14  15
ENDBRANCH  13  14
ENDBRANCH   1  13
TORSDOF 20
ENDMDL
MODEL 8
REMARK VINA RESULT:    -4.378      2.792      4.433
REMARK INTER + INTRA:         -11.692
REMARK INTER:                  -8.708
REMARK INTRA:                  -2.983
REMARK UNBOUND:                -2.195
REMARK SMILES CCCCCCCCCCCCCCCCCCCCCC(=O)[O-]
REMARK SMILES IDX 12 1 11 2 10 3 9 4 8 5 7 6 6 7 5 8 4 9 3 10 2 11 1 12 13 13
REMARK SMILES IDX 14 14 15 15 16 16 17 17 18 18 19 19 20 20 21 21 22 22 23 23
REMARK SMILES IDX 24 24
REMARK H PARENT
REMARK Flexibility Score: inf
ROOT
ATOM      1  C   UNL     1       4.484  -5.353  -7.524  1.00  0.00     0.000 C 
ENDROOT
BRANCH   1   2
ATOM      2  C   UNL     1       4.135  -6.267  -8.712  1.00  0.00     0.000 C 
BRANCH   2   3
ATOM      3  C   UNL     1       5.320  -7.145  -9.148  1.00  0.00     0.000 C 
BRANCH   3   4
ATOM      4  C   UNL     1       6.644  -6.720  -8.496  1.00  0.00    -0.000 C 
BRANCH   4   5
ATOM      5  C   UNL     1       7.174  -7.818  -7.565  1.00  0.00    -0.000 C 
BRANCH   5   6
ATOM      6  C   UNL     1       8.068  -7.229  -6.467  1.00  0.00    -0.000 C 
BRANCH   6   7
ATOM      7  C   UNL     1       7.520  -7.564  -5.074  1.00  0.00    -0.000 C 
BRANCH   7   8
ATOM      8  C   UNL     1       6.308  -6.686  -4.732  1.00  0.00    -0.000 C 
BRANCH   8   9
ATOM      9  C   UNL     1       5.172  -7.473  -4.057  1.00  0.00    -0.000 C 
BRANCH   9  10
ATOM     10  C   UNL     1       4.870  -8.828  -4.733  1.00  0.00    -0.000 C 
BRANCH  10  11
ATOM     11  C   UNL     1       4.115  -8.659  -6.060  1.00  0.00    -0.003 C 
ATOM     12  C   UNL     1       4.141  -9.948  -6.877  1.00  0.00     0.004 C 
ENDBRANCH  10  11
ENDBRANCH   9  10
ENDBRANCH   8   9
ENDBRANCH   7   8
ENDBRANCH   6   7
ENDBRANCH   5   6
ENDBRANCH   4   5
ENDBRANCH   3   4
ENDBRANCH   2   3
ENDBRANCH   1   2
BRANCH   1  13
ATOM     13  C   UNL     1       3.233  -4.784  -6.832  1.00  0.00     0.000 C 
BRANCH  13  14
ATOM     14  C   UNL     1       2.173  -4.289  -7.828  1.00  0.00     0.000 C 
BRANCH  14  15
ATOM     15  C   UNL     1       2.448  -2.836  -8.243  1.00  0.00     0.000 C 
BRANCH  15  16
ATOM     16  C   UNL     1       3.048  -2.722  -9.656  1.00  0.00     0.000 C 
BRANCH  16  17
ATOM     17  C   UNL     1       4.529  -2.298  -9.701  1.00  0.00     0.000 C 
BRANCH  17  18
ATOM     18  C   UNL     1       5.099  -1.770  -8.369  1.00  0.00     0.000 C 
BRANCH  18  19
ATOM     19  C   UNL     1       6.157  -0.661  -8.513  1.00  0.00     0.000 C 
BRANCH  19  20
ATOM     20  C   UNL     1       6.202   0.281  -7.297  1.00  0.00     0.006 C 
BRANCH  20  21
ATOM     21  C   UNL     1       7.559   0.985  -7.159  1.00  0.00     0.053 C 
BRANCH  21  22
ATOM     22  C   UNL     1       8.573   0.109  -6.490  1.00  0.00     0.041 C 
ATOM     23  O   UNL     1       8.621   0.041  -5.234  1.00  0.00    -0.550 OA
ATOM     24  O   UNL     1       9.446  -0.655  -7.256  1.00  0.00    -0.550 OA
ENDBRANCH  21  22
ENDBRANCH  20  21
ENDBRANCH  19  20
ENDBRANCH  18  19
ENDBRANCH  17  18
ENDBRANCH  16  17
ENDBRANCH  15  16
ENDBRANCH  14  15
ENDBRANCH  13  14
ENDBRANCH   1  13
TORSDOF 20
ENDMDL
MODEL 9
REMARK VINA RESULT:    -4.376      4.424     10.454
REMARK INTER + INTRA:         -11.688
REMARK INTER:                 -10.389
REMARK INTRA:                  -1.299
REMARK UNBOUND:                -2.195
REMARK SMILES CCCCCCCCCCCCCCCCCCCCCC(=O)[O-]
REMARK SMILES IDX 12 1 11 2 10 3 9 4 8 5 7 6 6 7 5 8 4 9 3 10 2 11 1 12 13 13
REMARK SMILES IDX 14 14 15 15 16 16 17 17 18 18 19 19 20 20 21 21 22 22 23 23
REMARK SMILES IDX 24 24
REMARK H PARENT
REMARK Flexibility Score: inf
ROOT
ATOM      1  C   UNL     1       5.109  -2.312  -9.331  1.00  0.00     0.000 C 
ENDROOT
BRANCH   1   2
ATOM      2  C   UNL     1       5.190  -1.279  -8.195  1.00  0.00     0.000 C 
BRANCH   2   3
ATOM      3  C   UNL     1       6.370  -0.308  -8.363  1.00  0.00     0.000 C 
BRANCH   3   4
ATOM      4  C   UNL     1       6.406   0.775  -7.275  1.00  0.00    -0.000 C 
BRANCH   4   5
ATOM      5  C   UNL     1       6.797   2.135  -7.867  1.00  0.00    -0.000 C 
BRANCH   5   6
ATOM      6  C   UNL     1       6.733   2.110  -9.399  1.00  0.00    -0.000 C 
BRANCH   6   7
ATOM      7  C   UNL     1       5.980   3.334  -9.937  1.00  0.00    -0.000 C 
BRANCH   7   8
ATOM      8  C   UNL     1       5.629   4.307  -8.803  1.00  0.00    -0.000 C 
BRANCH   8   9
ATOM      9  C   UNL     1       6.361   5.654  -8.923  1.00  0.00    -0.000 C 
BRANCH   9  10
ATOM     10  C   UNL     1       6.296   6.511  -7.640  1.00  0.00    -0.000 C 
BRANCH  10  11
ATOM     11  C   UNL     1       6.287   8.016  -7.946  1.00  0.00    -0.003 C 
ATOM     12  C   UNL     1       7.702   8.589  -7.936  1.00  0.00     0.004 C 
ENDBRANCH  10  11
ENDBRANCH   9  10
ENDBRANCH   8   9
ENDBRANCH   7   8
ENDBRANCH   6   7
ENDBRANCH   5   6
ENDBRANCH   4   5
ENDBRANCH   3   4
ENDBRANCH   2   3
ENDBRANCH   1   2
BRANCH   1  13
ATOM     13  C   UNL     1       3.886  -3.236  -9.202  1.00  0.00     0.000 C 
BRANCH  13  14
ATOM     14  C   UNL     1       2.804  -2.666  -8.272  1.00  0.00     0.000 C 
BRANCH  14  15
ATOM     15  C   UNL     1       2.435  -3.676  -7.176  1.00  0.00     0.000 C 
BRANCH  15  16
ATOM     16  C   UNL     1       3.517  -4.750  -6.966  1.00  0.00     0.000 C 
BRANCH  16  17
ATOM     17  C   UNL     1       3.035  -6.028  -6.252  1.00  0.00     0.000 C 
BRANCH  17  18
ATOM     18  C   UNL     1       3.915  -7.274  -6.477  1.00  0.00     0.000 C 
BRANCH  18  19
ATOM     19  C   UNL     1       4.251  -8.068  -5.202  1.00  0.00     0.000 C 
BRANCH  19  20
ATOM     20  C   UNL     1       5.125  -7.273  -4.217  1.00  0.00     0.006 C 
BRANCH  20  21
ATOM     21  C   UNL     1       6.401  -6.736  -4.878  1.00  0.00     0.053 C 
BRANCH  21  22
ATOM     22  C   UNL     1       7.557  -7.672  -4.696  1.00  0.00     0.041 C 
ATOM     23  O   UNL     1       7.356  -8.868  -4.356  1.00  0.00    -0.550 OA
ATOM     24  O   UNL     1       8.854  -7.231  -4.929  1.00  0.00    -0.550 OA
ENDBRANCH  21  22
ENDBRANCH  20  21
ENDBRANCH  19  20
ENDBRANCH  18  19
ENDBRANCH  17  18
ENDBRANCH  16  17
ENDBRANCH  15  16
ENDBRANCH  14  15
ENDBRANCH  13  14
ENDBRANCH   1  13
TORSDOF 20
ENDMDL
