MODEL 1
REMARK VINA RESULT:    -5.413      0.000      0.000
REMARK INTER + INTRA:          -6.154
REMARK INTER:                  -5.730
REMARK INTRA:                  -0.425
REMARK UNBOUND:                -0.425
REMARK SMILES CC1=CC[C@@H]2[C@H]3[C@H](C(C)C)CC[C@]2(C)[C@@H]13
REMARK SMILES IDX 1 1 2 2 3 3 4 4 5 5 6 6 15 7 13 8 12 9 11 10 7 11 14 12 8 13
REMARK SMILES IDX 9 14 10 15
REMARK H PARENT
REMARK Flexibility Score: inf
ROOT
ATOM      1  C   UNL     1      -3.854   4.730  11.140  1.00  0.00     0.039 C 
ATOM      2  C   UNL     1      -2.458   4.751  11.687  1.00  0.00    -0.073 C 
ATOM      3  C   UNL     1      -1.472   5.460  11.077  1.00  0.00    -0.027 C 
ATOM      4  C   UNL     1      -0.070   5.460  11.694  1.00  0.00     0.031 C 
ATOM      5  C   UNL     1      -0.035   4.555  12.970  1.00  0.00     0.003 C 
ATOM      6  C   UNL     1      -0.750   3.229  12.617  1.00  0.00     0.004 C 
ATOM      7  C   UNL     1      -2.075   3.961  12.942  1.00  0.00     0.024 C 
ATOM      8  C   UNL     1      -1.235   4.847  13.900  1.00  0.00    -0.022 C 
ATOM      9  C   UNL     1      -0.996   4.128  15.258  1.00  0.00     0.008 C 
ATOM     10  C   UNL     1      -0.882   2.591  15.101  1.00  0.00     0.005 C 
ATOM     11  C   UNL     1      -0.408   2.135  13.680  1.00  0.00    -0.005 C 
ATOM     12  C   UNL     1      -1.662   6.318  14.123  1.00  0.00     0.012 C 
ENDROOT
BRANCH  11  13
ATOM     13  C   UNL     1      -0.990   0.733  13.309  1.00  0.00    -0.014 C 
ATOM     14  C   UNL     1      -1.353   0.660  11.812  1.00  0.00     0.007 C 
ATOM     15  C   UNL     1      -2.240   0.377  14.136  1.00  0.00     0.007 C 
ENDBRANCH  11  13
TORSDOF 1
ENDMDL
MODEL 2
REMARK VINA RESULT:    -5.287      1.461      4.470
REMARK INTER + INTRA:          -6.021
REMARK INTER:                  -5.790
REMARK INTRA:                  -0.231
REMARK UNBOUND:                -0.425
REMARK SMILES CC1=CC[C@@H]2[C@H]3[C@H](C(C)C)CC[C@]2(C)[C@@H]13
REMARK SMILES IDX 1 1 2 2 3 3 4 4 5 5 6 6 15 7 13 8 12 9 11 10 7 11 14 12 8 13
REMARK SMILES IDX 9 14 10 15
REMARK H PARENT
REMARK Flexibility Score: inf
ROOT
ATOM      1  C   UNL     1      -2.528   1.373  14.866  1.00  0.00     0.039 C 
ATOM      2  C   UNL     1      -1.976   2.678  14.372  1.00  0.00    -0.073 C 
ATOM      3  C   UNL     1      -1.100   3.400  15.118  1.00  0.00    -0.027 C 
ATOM      4  C   UNL     1      -0.554   4.716  14.552  1.00  0.00     0.031 C 
ATOM      5  C   UNL     1      -1.182   5.007  13.149  1.00  0.00     0.003 C 
ATOM      6  C   UNL     1      -2.704   4.760  13.261  1.00  0.00     0.004 C 
ATOM      7  C   UNL     1      -2.388   3.264  13.018  1.00  0.00     0.024 C 
ATOM      8  C   UNL     1      -1.139   3.756  12.242  1.00  0.00    -0.022 C 
ATOM      9  C   UNL     1      -1.514   4.180  10.794  1.00  0.00     0.008 C 
ATOM     10  C   UNL     1      -2.939   4.780  10.705  1.00  0.00     0.005 C 
ATOM     11  C   UNL     1      -3.445   5.408  12.047  1.00  0.00    -0.005 C 
ATOM     12  C   UNL     1       0.136   2.879  12.246  1.00  0.00     0.012 C 
ENDROOT
BRANCH  11  13
ATOM     13  C   UNL     1      -5.001   5.310  12.170  1.00  0.00    -0.014 C 
ATOM     14  C   UNL     1      -5.654   5.076  10.793  1.00  0.00     0.007 C 
ATOM     15  C   UNL     1      -5.621   6.572  12.799  1.00  0.00     0.007 C 
ENDBRANCH  11  13
TORSDOF 1
ENDMDL
MODEL 3
REMARK VINA RESULT:    -5.264      1.074      4.212
REMARK INTER + INTRA:          -5.996
REMARK INTER:                  -5.758
REMARK INTRA:                  -0.238
REMARK UNBOUND:                -0.425
REMARK SMILES CC1=CC[C@@H]2[C@H]3[C@H](C(C)C)CC[C@]2(C)[C@@H]13
REMARK SMILES IDX 1 1 2 2 3 3 4 4 5 5 6 6 15 7 13 8 12 9 11 10 7 11 14 12 8 13
REMARK SMILES IDX 9 14 10 15
REMARK H PARENT
REMARK Flexibility Score: inf
ROOT
ATOM      1  C   UNL     1      -1.128   0.250  12.249  1.00  0.00     0.039 C 
ATOM      2  C   UNL     1      -1.393   1.506  13.026  1.00  0.00    -0.073 C 
ATOM      3  C   UNL     1      -2.058   1.475  14.210  1.00  0.00    -0.027 C 
ATOM      4  C   UNL     1      -2.281   2.787  14.969  1.00  0.00     0.031 C 
ATOM      5  C   UNL     1      -1.691   3.991  14.161  1.00  0.00     0.003 C 
ATOM      6  C   UNL     1      -2.149   3.833  12.693  1.00  0.00     0.004 C 
ATOM      7  C   UNL     1      -0.944   2.878  12.513  1.00  0.00     0.024 C 
ATOM      8  C   UNL     1      -0.264   3.682  13.653  1.00  0.00    -0.022 C 
ATOM      9  C   UNL     1       0.363   4.997  13.108  1.00  0.00     0.008 C 
ATOM     10  C   UNL     1      -0.442   5.591  11.926  1.00  0.00     0.005 C 
ATOM     11  C   UNL     1      -1.952   5.177  11.920  1.00  0.00    -0.005 C 
ATOM     12  C   UNL     1       0.720   2.952  14.598  1.00  0.00     0.012 C 
ENDROOT
BRANCH  11  13
ATOM     13  C   UNL     1      -2.522   5.125  10.465  1.00  0.00    -0.014 C 
ATOM     14  C   UNL     1      -2.330   6.474   9.744  1.00  0.00     0.007 C 
ATOM     15  C   UNL     1      -4.018   4.759  10.433  1.00  0.00     0.007 C 
ENDBRANCH  11  13
TORSDOF 1
ENDMDL
MODEL 4
REMARK VINA RESULT:    -5.254      1.316      3.195
REMARK INTER + INTRA:          -5.986
REMARK INTER:                  -5.757
REMARK INTRA:                  -0.229
REMARK UNBOUND:                -0.425
REMARK SMILES CC1=CC[C@@H]2[C@H]3[C@H](C(C)C)CC[C@]2(C)[C@@H]13
REMARK SMILES IDX 1 1 2 2 3 3 4 4 5 5 6 6 15 7 13 8 12 9 11 10 7 11 14 12 8 13
REMARK SMILES IDX 9 14 10 15
REMARK H PARENT
REMARK Flexibility Score: inf
ROOT
ATOM      1  C   UNL     1       2.212   5.377  14.543  1.00  0.00     0.039 C 
ATOM      2  C   UNL     1       0.801   5.380  14.036  1.00  0.00    -0.073 C 
ATOM      3  C   UNL     1      -0.113   6.272  14.501  1.00  0.00    -0.027 C 
ATOM      4  C   UNL     1      -1.535   6.240  13.930  1.00  0.00     0.031 C 
ATOM      5  C   UNL     1      -1.676   5.087  12.881  1.00  0.00     0.003 C 
ATOM      6  C   UNL     1      -1.036   3.820  13.495  1.00  0.00     0.004 C 
ATOM      7  C   UNL     1       0.320   4.370  12.989  1.00  0.00     0.024 C 
ATOM      8  C   UNL     1      -0.495   5.088  11.883  1.00  0.00    -0.022 C 
ATOM      9  C   UNL     1      -0.832   4.114  10.718  1.00  0.00     0.008 C 
ATOM     10  C   UNL     1      -1.038   2.658  11.205  1.00  0.00     0.005 C 
ATOM     11  C   UNL     1      -1.488   2.552  12.701  1.00  0.00    -0.005 C 
ATOM     12  C   UNL     1       0.016   6.443  11.338  1.00  0.00     0.012 C 
ENDROOT
BRANCH  11  13
ATOM     13  C   UNL     1      -0.984   1.223  13.353  1.00  0.00    -0.014 C 
ATOM     14  C   UNL     1      -1.315   0.007  12.465  1.00  0.00     0.007 C 
ATOM     15  C   UNL     1      -1.588   0.989  14.751  1.00  0.00     0.007 C 
ENDBRANCH  11  13
TORSDOF 1
ENDMDL
MODEL 5
REMARK VINA RESULT:    -5.253      1.277      4.491
REMARK INTER + INTRA:          -5.985
REMARK INTER:                  -5.565
REMARK INTRA:                  -0.420
REMARK UNBOUND:                -0.425
REMARK SMILES CC1=CC[C@@H]2[C@H]3[C@H](C(C)C)CC[C@]2(C)[C@@H]13
REMARK SMILES IDX 1 1 2 2 3 3 4 4 5 5 6 6 15 7 13 8 12 9 11 10 7 11 14 12 8 13
REMARK SMILES IDX 9 14 10 15
REMARK H PARENT
REMARK Flexibility Score: inf
ROOT
ATOM      1  C   UNL     1      -3.198   2.352  15.199  1.00  0.00     0.039 C 
ATOM      2  C   UNL     1      -1.927   2.721  14.494  1.00  0.00    -0.073 C 
ATOM      3  C   UNL     1      -0.714   2.508  15.070  1.00  0.00    -0.027 C 
ATOM      4  C   UNL     1       0.551   2.887  14.292  1.00  0.00     0.031 C 
ATOM      5  C   UNL     1       0.173   3.521  12.913  1.00  0.00     0.003 C 
ATOM      6  C   UNL     1      -0.944   4.559  13.169  1.00  0.00     0.004 C 
ATOM      7  C   UNL     1      -1.936   3.372  13.107  1.00  0.00     0.024 C 
ATOM      8  C   UNL     1      -0.900   2.682  12.182  1.00  0.00    -0.022 C 
ATOM      9  C   UNL     1      -1.025   3.200  10.722  1.00  0.00     0.008 C 
ATOM     10  C   UNL     1      -1.461   4.685  10.657  1.00  0.00     0.005 C 
ATOM     11  C   UNL     1      -1.089   5.508  11.936  1.00  0.00    -0.005 C 
ATOM     12  C   UNL     1      -0.784   1.139  12.211  1.00  0.00     0.012 C 
ENDROOT
BRANCH  11  13
ATOM     13  C   UNL     1      -2.110   6.666  12.184  1.00  0.00    -0.014 C 
ATOM     14  C   UNL     1      -2.159   7.054  13.675  1.00  0.00     0.007 C 
ATOM     15  C   UNL     1      -3.534   6.303  11.723  1.00  0.00     0.007 C 
ENDBRANCH  11  13
TORSDOF 1
ENDMDL
MODEL 6
REMARK VINA RESULT:    -5.155      1.527      3.868
REMARK INTER + INTRA:          -5.881
REMARK INTER:                  -5.484
REMARK INTRA:                  -0.397
REMARK UNBOUND:                -0.425
REMARK SMILES CC1=CC[C@@H]2[C@H]3[C@H](C(C)C)CC[C@]2(C)[C@@H]13
REMARK SMILES IDX 1 1 2 2 3 3 4 4 5 5 6 6 15 7 13 8 12 9 11 10 7 11 14 12 8 13
REMARK SMILES IDX 9 14 10 15
REMARK H PARENT
REMARK Flexibility Score: inf
ROOT
ATOM      1  C   UNL     1      -0.251   6.118   9.498  1.00  0.00     0.039 C 
ATOM      2  C   UNL     1      -1.076   5.452  10.559  1.00  0.00    -0.073 C 
ATOM      3  C   UNL     1      -2.434   5.485  10.522  1.00  0.00    -0.027 C 
ATOM      4  C   UNL     1      -3.222   4.769  11.624  1.00  0.00     0.031 C 
ATOM      5  C   UNL     1      -2.246   4.129  12.665  1.00  0.00     0.003 C 
ATOM      6  C   UNL     1      -1.177   5.191  13.013  1.00  0.00     0.004 C 
ATOM      7  C   UNL     1      -0.428   4.723  11.741  1.00  0.00     0.024 C 
ATOM      8  C   UNL     1      -1.110   3.348  11.965  1.00  0.00    -0.022 C 
ATOM      9  C   UNL     1      -0.348   2.516  13.035  1.00  0.00     0.008 C 
ATOM     10  C   UNL     1       0.294   3.406  14.129  1.00  0.00     0.005 C 
ATOM     11  C   UNL     1      -0.423   4.785  14.321  1.00  0.00    -0.005 C 
ATOM     12  C   UNL     1      -1.455   2.477  10.734  1.00  0.00     0.012 C 
ENDROOT
BRANCH  11  13
ATOM     13  C   UNL     1       0.579   5.885  14.803  1.00  0.00    -0.014 C 
ATOM     14  C   UNL     1       0.339   7.218  14.067  1.00  0.00     0.007 C 
ATOM     15  C   UNL     1       2.049   5.470  14.601  1.00  0.00     0.007 C 
ENDBRANCH  11  13
TORSDOF 1
ENDMDL
MODEL 7
REMARK VINA RESULT:    -4.946      1.717      3.422
REMARK INTER + INTRA:          -5.660
REMARK INTER:                  -5.229
REMARK INTRA:                  -0.431
REMARK UNBOUND:                -0.425
REMARK SMILES CC1=CC[C@@H]2[C@H]3[C@H](C(C)C)CC[C@]2(C)[C@@H]13
REMARK SMILES IDX 1 1 2 2 3 3 4 4 5 5 6 6 15 7 13 8 12 9 11 10 7 11 14 12 8 13
REMARK SMILES IDX 9 14 10 15
REMARK H PARENT
REMARK Flexibility Score: inf
ROOT
ATOM      1  C   UNL     1      -5.390   6.579  13.023  1.00  0.00     0.039 C 
ATOM      2  C   UNL     1      -4.458   5.819  12.127  1.00  0.00    -0.073 C 
ATOM      3  C   UNL     1      -4.918   5.143  11.041  1.00  0.00    -0.027 C 
ATOM      4  C   UNL     1      -3.916   4.401  10.151  1.00  0.00     0.031 C 
ATOM      5  C   UNL     1      -2.467   4.546  10.724  1.00  0.00     0.003 C 
ATOM      6  C   UNL     1      -2.539   4.269  12.244  1.00  0.00     0.004 C 
ATOM      7  C   UNL     1      -2.953   5.752  12.403  1.00  0.00     0.024 C 
ATOM      8  C   UNL     1      -2.154   6.013  11.100  1.00  0.00    -0.022 C 
ATOM      9  C   UNL     1      -0.632   6.135  11.394  1.00  0.00     0.008 C 
ATOM     10  C   UNL     1      -0.185   5.238  12.576  1.00  0.00     0.005 C 
ATOM     11  C   UNL     1      -1.108   3.995  12.809  1.00  0.00    -0.005 C 
ATOM     12  C   UNL     1      -2.623   7.140  10.149  1.00  0.00     0.012 C 
ENDROOT
BRANCH  11  13
ATOM     13  C   UNL     1      -1.126   3.575  14.315  1.00  0.00    -0.014 C 
ATOM     14  C   UNL     1      -2.459   2.897  14.688  1.00  0.00     0.007 C 
ATOM     15  C   UNL     1      -0.900   4.769  15.261  1.00  0.00     0.007 C 
ENDBRANCH  11  13
TORSDOF 1
ENDMDL
MODEL 8
REMARK VINA RESULT:    -4.786     10.669     13.654
REMARK INTER + INTRA:          -5.491
REMARK INTER:                  -5.268
REMARK INTRA:                  -0.223
REMARK UNBOUND:                -0.425
REMARK SMILES CC1=CC[C@@H]2[C@H]3[C@H](C(C)C)CC[C@]2(C)[C@@H]13
REMARK SMILES IDX 1 1 2 2 3 3 4 4 5 5 6 6 15 7 13 8 12 9 11 10 7 11 14 12 8 13
REMARK SMILES IDX 9 14 10 15
REMARK H PARENT
REMARK Flexibility Score: inf
ROOT
ATOM      1  C   UNL     1      -2.092  -6.611  14.800  1.00  0.00     0.039 C 
ATOM      2  C   UNL     1      -1.732  -8.063  14.689  1.00  0.00    -0.073 C 
ATOM      3  C   UNL     1      -1.288  -8.763  15.766  1.00  0.00    -0.027 C 
ATOM      4  C   UNL     1      -0.956 -10.250  15.596  1.00  0.00     0.031 C 
ATOM      5  C   UNL     1      -1.171 -10.690  14.110  1.00  0.00     0.003 C 
ATOM      6  C   UNL     1      -0.514  -9.620  13.209  1.00  0.00     0.004 C 
ATOM      7  C   UNL     1      -1.829  -8.816  13.359  1.00  0.00     0.024 C 
ATOM      8  C   UNL     1      -2.527 -10.185  13.565  1.00  0.00    -0.022 C 
ATOM      9  C   UNL     1      -2.802 -10.881  12.201  1.00  0.00     0.008 C 
ATOM     10  C   UNL     1      -1.717 -10.559  11.144  1.00  0.00     0.005 C 
ATOM     11  C   UNL     1      -0.330 -10.177  11.760  1.00  0.00    -0.005 C 
ATOM     12  C   UNL     1      -3.771 -10.259  14.482  1.00  0.00     0.012 C 
ENDROOT
BRANCH  11  13
ATOM     13  C   UNL     1       0.453  -9.192  10.832  1.00  0.00    -0.014 C 
ATOM     14  C   UNL     1       0.338  -9.611   9.353  1.00  0.00     0.007 C 
ATOM     15  C   UNL     1       1.946  -9.098  11.201  1.00  0.00     0.007 C 
ENDBRANCH  11  13
TORSDOF 1
ENDMDL
MODEL 9
REMARK VINA RESULT:    -4.765      1.336      2.763
REMARK INTER + INTRA:          -5.468
REMARK INTER:                  -5.164
REMARK INTRA:                  -0.304
REMARK UNBOUND:                -0.425
REMARK SMILES CC1=CC[C@@H]2[C@H]3[C@H](C(C)C)CC[C@]2(C)[C@@H]13
REMARK SMILES IDX 1 1 2 2 3 3 4 4 5 5 6 6 15 7 13 8 12 9 11 10 7 11 14 12 8 13
REMARK SMILES IDX 9 14 10 15
REMARK H PARENT
REMARK Flexibility Score: inf
ROOT
ATOM      1  C   UNL     1      -2.197   7.176  13.720  1.00  0.00     0.039 C 
ATOM      2  C   UNL     1      -2.342   6.069  12.718  1.00  0.00    -0.073 C 
ATOM      3  C   UNL     1      -3.318   6.097  11.773  1.00  0.00    -0.027 C 
ATOM      4  C   UNL     1      -3.404   4.947  10.763  1.00  0.00     0.031 C 
ATOM      5  C   UNL     1      -2.302   3.878  11.060  1.00  0.00     0.003 C 
ATOM      6  C   UNL     1      -2.319   3.604  12.582  1.00  0.00     0.004 C 
ATOM      7  C   UNL     1      -1.413   4.851  12.726  1.00  0.00     0.024 C 
ATOM      8  C   UNL     1      -0.923   4.539  11.288  1.00  0.00    -0.022 C 
ATOM      9  C   UNL     1       0.164   3.427  11.300  1.00  0.00     0.008 C 
ATOM     10  C   UNL     1      -0.058   2.395  12.433  1.00  0.00     0.005 C 
ATOM     11  C   UNL     1      -1.549   2.281  12.898  1.00  0.00    -0.005 C 
ATOM     12  C   UNL     1      -0.501   5.713  10.372  1.00  0.00     0.012 C 
ENDROOT
BRANCH  11  13
ATOM     13  C   UNL     1      -1.644   1.874  14.405  1.00  0.00    -0.014 C 
ATOM     14  C   UNL     1      -1.708   0.343  14.566  1.00  0.00     0.007 C 
ATOM     15  C   UNL     1      -2.870   2.493  15.104  1.00  0.00     0.007 C 
ENDBRANCH  11  13
TORSDOF 1
ENDMDL
