MODEL 1
REMARK VINA RESULT:    -4.828      0.000      0.000
REMARK INTER + INTRA:          -7.760
REMARK INTER:                  -7.369
REMARK INTRA:                  -0.391
REMARK UNBOUND:                -0.391
REMARK SMILES O=C([O-])CCCCCCCCC(=O)[O-]
REMARK SMILES IDX 7 1 6 2 5 3 4 4 2 5 1 6 3 7 8 8 9 9 10 10 11 11 12 12 13 13
REMARK SMILES IDX 14 14
REMARK H PARENT
REMARK Flexibility Score: inf
ROOT
ATOM      1  C   UNL     1      11.120  -3.475   7.046  1.00  0.00     0.000 C 
ENDROOT
BRANCH   1   2
ATOM      2  C   UNL     1      10.455  -2.725   8.211  1.00  0.00     0.000 C 
BRANCH   2   3
ATOM      3  C   UNL     1       9.601  -3.646   9.096  1.00  0.00     0.006 C 
BRANCH   3   4
ATOM      4  C   UNL     1       9.001  -2.872  10.273  1.00  0.00     0.053 C 
BRANCH   4   5
ATOM      5  C   UNL     1       7.511  -2.991  10.275  1.00  0.00     0.041 C 
ATOM      6  O   UNL     1       6.966  -4.126  10.300  1.00  0.00    -0.550 OA
ATOM      7  O   UNL     1       6.722  -1.850  10.199  1.00  0.00    -0.550 OA
ENDBRANCH   4   5
ENDBRANCH   3   4
ENDBRANCH   2   3
ENDBRANCH   1   2
BRANCH   1   8
ATOM      8  C   UNL     1      12.631  -3.203   6.952  1.00  0.00     0.000 C 
BRANCH   8   9
ATOM      9  C   UNL     1      13.073  -2.017   7.823  1.00  0.00     0.000 C 
BRANCH   9  10
ATOM     10  C   UNL     1      14.451  -2.241   8.469  1.00  0.00     0.006 C 
BRANCH  10  11
ATOM     11  C   UNL     1      15.570  -2.348   7.425  1.00  0.00     0.053 C 
BRANCH  11  12
ATOM     12  C   UNL     1      16.272  -3.668   7.495  1.00  0.00     0.041 C 
ATOM     13  O   UNL     1      16.877  -4.120   6.487  1.00  0.00    -0.550 OA
ATOM     14  O   UNL     1      16.289  -4.386   8.686  1.00  0.00    -0.550 OA
ENDBRANCH  11  12
ENDBRANCH  10  11
ENDBRANCH   9  10
ENDBRANCH   8   9
ENDBRANCH   1   8
TORSDOF 9
ENDMDL
MODEL 2
REMARK VINA RESULT:    -4.703      1.038      7.373
REMARK INTER + INTRA:          -7.568
REMARK INTER:                  -7.125
REMARK INTRA:                  -0.443
REMARK UNBOUND:                -0.391
REMARK SMILES O=C([O-])CCCCCCCCC(=O)[O-]
REMARK SMILES IDX 7 1 6 2 5 3 4 4 2 5 1 6 3 7 8 8 9 9 10 10 11 11 12 12 13 13
REMARK SMILES IDX 14 14
REMARK H PARENT
REMARK Flexibility Score: inf
ROOT
ATOM      1  C   UNL     1      12.968  -1.903   7.285  1.00  0.00     0.000 C 
ENDROOT
BRANCH   1   2
ATOM      2  C   UNL     1      14.128  -2.519   8.082  1.00  0.00     0.000 C 
BRANCH   2   3
ATOM      3  C   UNL     1      15.448  -2.522   7.298  1.00  0.00     0.006 C 
BRANCH   3   4
ATOM      4  C   UNL     1      15.761  -3.920   6.757  1.00  0.00     0.053 C 
BRANCH   4   5
ATOM      5  C   UNL     1      16.938  -4.507   7.469  1.00  0.00     0.041 C 
ATOM      6  O   UNL     1      18.072  -4.515   6.921  1.00  0.00    -0.550 OA
ATOM      7  O   UNL     1      16.773  -5.091   8.719  1.00  0.00    -0.550 OA
ENDBRANCH   4   5
ENDBRANCH   3   4
ENDBRANCH   2   3
ENDBRANCH   1   2
BRANCH   1   8
ATOM      8  C   UNL     1      12.229  -2.938   6.418  1.00  0.00     0.000 C 
BRANCH   8   9
ATOM      9  C   UNL     1      11.077  -3.623   7.170  1.00  0.00     0.000 C 
BRANCH   9  10
ATOM     10  C   UNL     1      10.402  -2.691   8.191  1.00  0.00     0.006 C 
BRANCH  10  11
ATOM     11  C   UNL     1       9.747  -3.468   9.340  1.00  0.00     0.053 C 
BRANCH  11  12
ATOM     12  C   UNL     1       8.785  -2.617  10.109  1.00  0.00     0.041 C 
ATOM     13  O   UNL     1       8.718  -2.710  11.363  1.00  0.00    -0.550 OA
ATOM     14  O   UNL     1       7.985  -1.695   9.445  1.00  0.00    -0.550 OA
ENDBRANCH  11  12
ENDBRANCH  10  11
ENDBRANCH   9  10
ENDBRANCH   8   9
ENDBRANCH   1   8
TORSDOF 9
ENDMDL
MODEL 3
REMARK VINA RESULT:    -4.671     11.924     13.892
REMARK INTER + INTRA:          -7.519
REMARK INTER:                  -7.127
REMARK INTRA:                  -0.393
REMARK UNBOUND:                -0.391
REMARK SMILES O=C([O-])CCCCCCCCC(=O)[O-]
REMARK SMILES IDX 7 1 6 2 5 3 4 4 2 5 1 6 3 7 8 8 9 9 10 10 11 11 12 12 13 13
REMARK SMILES IDX 14 14
REMARK H PARENT
REMARK Flexibility Score: inf
ROOT
ATOM      1  C   UNL     1       7.364   5.123  17.628  1.00  0.00     0.000 C 
ENDROOT
BRANCH   1   2
ATOM      2  C   UNL     1       7.078   4.489  18.998  1.00  0.00     0.000 C 
BRANCH   2   3
ATOM      3  C   UNL     1       8.123   4.874  20.057  1.00  0.00     0.006 C 
BRANCH   3   4
ATOM      4  C   UNL     1       7.487   5.702  21.177  1.00  0.00     0.053 C 
BRANCH   4   5
ATOM      5  C   UNL     1       7.392   4.898  22.434  1.00  0.00     0.041 C 
ATOM      6  O   UNL     1       8.065   3.841  22.564  1.00  0.00    -0.550 OA
ATOM      7  O   UNL     1       6.520   5.288  23.444  1.00  0.00    -0.550 OA
ENDBRANCH   4   5
ENDBRANCH   3   4
ENDBRANCH   2   3
ENDBRANCH   1   2
BRANCH   1   8
ATOM      8  C   UNL     1       7.274   6.659  17.655  1.00  0.00     0.000 C 
BRANCH   8   9
ATOM      9  C   UNL     1       8.112   7.320  16.550  1.00  0.00     0.000 C 
BRANCH   9  10
ATOM     10  C   UNL     1       8.478   6.340  15.422  1.00  0.00     0.006 C 
BRANCH  10  11
ATOM     11  C   UNL     1       9.777   6.738  14.708  1.00  0.00     0.053 C 
BRANCH  11  12
ATOM     12  C   UNL     1       9.827   6.208  13.309  1.00  0.00     0.041 C 
ATOM     13  O   UNL     1       9.924   7.000  12.334  1.00  0.00    -0.550 OA
ATOM     14  O   UNL     1       9.802   4.838  13.081  1.00  0.00    -0.550 OA
ENDBRANCH  11  12
ENDBRANCH  10  11
ENDBRANCH   9  10
ENDBRANCH   8   9
ENDBRANCH   1   8
TORSDOF 9
ENDMDL
MODEL 4
REMARK VINA RESULT:    -4.617     11.862     14.898
REMARK INTER + INTRA:          -7.438
REMARK INTER:                  -6.984
REMARK INTRA:                  -0.454
REMARK UNBOUND:                -0.391
REMARK SMILES O=C([O-])CCCCCCCCC(=O)[O-]
REMARK SMILES IDX 7 1 6 2 5 3 4 4 2 5 1 6 3 7 8 8 9 9 10 10 11 11 12 12 13 13
REMARK SMILES IDX 14 14
REMARK H PARENT
REMARK Flexibility Score: inf
ROOT
ATOM      1  C   UNL     1       7.350   5.763  18.418  1.00  0.00     0.000 C 
ENDROOT
BRANCH   1   2
ATOM      2  C   UNL     1       7.668   6.564  17.145  1.00  0.00     0.000 C 
BRANCH   2   3
ATOM      3  C   UNL     1       7.966   5.661  15.939  1.00  0.00     0.006 C 
BRANCH   3   4
ATOM      4  C   UNL     1       9.000   6.308  15.012  1.00  0.00     0.053 C 
BRANCH   4   5
ATOM      5  C   UNL     1       8.753   5.910  13.592  1.00  0.00     0.041 C 
ATOM      6  O   UNL     1       9.282   6.559  12.651  1.00  0.00    -0.550 OA
ATOM      7  O   UNL     1       7.898   4.853  13.305  1.00  0.00    -0.550 OA
ENDBRANCH   4   5
ENDBRANCH   3   4
ENDBRANCH   2   3
ENDBRANCH   1   2
BRANCH   1   8
ATOM      8  C   UNL     1       7.737   4.279  18.296  1.00  0.00     0.000 C 
BRANCH   8   9
ATOM      9  C   UNL     1       7.895   3.596  19.663  1.00  0.00     0.000 C 
BRANCH   9  10
ATOM     10  C   UNL     1       8.677   4.460  20.667  1.00  0.00     0.006 C 
BRANCH  10  11
ATOM     11  C   UNL     1       8.314   4.131  22.121  1.00  0.00     0.053 C 
BRANCH  11  12
ATOM     12  C   UNL     1       7.262   5.053  22.654  1.00  0.00     0.041 C 
ATOM     13  O   UNL     1       6.807   4.892  23.817  1.00  0.00    -0.550 OA
ATOM     14  O   UNL     1       6.808   6.114  21.879  1.00  0.00    -0.550 OA
ENDBRANCH  11  12
ENDBRANCH  10  11
ENDBRANCH   9  10
ENDBRANCH   8   9
ENDBRANCH   1   8
TORSDOF 9
ENDMDL
MODEL 5
REMARK VINA RESULT:    -4.582      9.786     12.297
REMARK INTER + INTRA:          -7.384
REMARK INTER:                  -6.976
REMARK INTRA:                  -0.408
REMARK UNBOUND:                -0.391
REMARK SMILES O=C([O-])CCCCCCCCC(=O)[O-]
REMARK SMILES IDX 7 1 6 2 5 3 4 4 2 5 1 6 3 7 8 8 9 9 10 10 11 11 12 12 13 13
REMARK SMILES IDX 14 14
REMARK H PARENT
REMARK Flexibility Score: inf
ROOT
ATOM      1  C   UNL     1       7.024   1.063  18.270  1.00  0.00     0.000 C 
ENDROOT
BRANCH   1   2
ATOM      2  C   UNL     1       8.255   1.960  18.471  1.00  0.00     0.000 C 
BRANCH   2   3
ATOM      3  C   UNL     1       7.883   3.392  18.882  1.00  0.00     0.006 C 
BRANCH   3   4
ATOM      4  C   UNL     1       8.283   3.668  20.334  1.00  0.00     0.053 C 
BRANCH   4   5
ATOM      5  C   UNL     1       7.822   5.027  20.756  1.00  0.00     0.041 C 
ATOM      6  O   UNL     1       7.783   5.970  19.923  1.00  0.00    -0.550 OA
ATOM      7  O   UNL     1       7.484   5.264  22.083  1.00  0.00    -0.550 OA
ENDBRANCH   4   5
ENDBRANCH   3   4
ENDBRANCH   2   3
ENDBRANCH   1   2
BRANCH   1   8
ATOM      8  C   UNL     1       7.365  -0.436  18.337  1.00  0.00     0.000 C 
BRANCH   8   9
ATOM      9  C   UNL     1       8.879  -0.696  18.359  1.00  0.00     0.000 C 
BRANCH   9  10
ATOM     10  C   UNL     1       9.367  -1.444  17.107  1.00  0.00     0.006 C 
BRANCH  10  11
ATOM     11  C   UNL     1       8.425  -2.589  16.712  1.00  0.00     0.053 C 
BRANCH  11  12
ATOM     12  C   UNL     1       9.031  -3.929  16.992  1.00  0.00     0.041 C 
ATOM     13  O   UNL     1       9.752  -4.493  16.127  1.00  0.00    -0.550 OA
ATOM     14  O   UNL     1       8.828  -4.542  18.223  1.00  0.00    -0.550 OA
ENDBRANCH  11  12
ENDBRANCH  10  11
ENDBRANCH   9  10
ENDBRANCH   8   9
ENDBRANCH   1   8
TORSDOF 9
ENDMDL
MODEL 6
REMARK VINA RESULT:    -4.573      9.857     12.925
REMARK INTER + INTRA:          -7.371
REMARK INTER:                  -6.929
REMARK INTRA:                  -0.442
REMARK UNBOUND:                -0.391
REMARK SMILES O=C([O-])CCCCCCCCC(=O)[O-]
REMARK SMILES IDX 7 1 6 2 5 3 4 4 2 5 1 6 3 7 8 8 9 9 10 10 11 11 12 12 13 13
REMARK SMILES IDX 14 14
REMARK H PARENT
REMARK Flexibility Score: inf
ROOT
ATOM      1  C   UNL     1       7.368  -0.357  18.244  1.00  0.00     0.000 C 
ENDROOT
BRANCH   1   2
ATOM      2  C   UNL     1       8.860  -0.722  18.293  1.00  0.00     0.000 C 
BRANCH   2   3
ATOM      3  C   UNL     1       9.324  -1.477  17.038  1.00  0.00     0.006 C 
BRANCH   3   4
ATOM      4  C   UNL     1       8.427  -2.688  16.764  1.00  0.00     0.053 C 
BRANCH   4   5
ATOM      5  C   UNL     1       9.163  -3.960  17.044  1.00  0.00     0.041 C 
ATOM      6  O   UNL     1      10.014  -4.394  16.223  1.00  0.00    -0.550 OA
ATOM      7  O   UNL     1       8.872  -4.693  18.188  1.00  0.00    -0.550 OA
ENDBRANCH   4   5
ENDBRANCH   3   4
ENDBRANCH   2   3
ENDBRANCH   1   2
BRANCH   1   8
ATOM      8  C   UNL     1       7.129   1.163  18.279  1.00  0.00     0.000 C 
BRANCH   8   9
ATOM      9  C   UNL     1       8.432   1.962  18.435  1.00  0.00     0.000 C 
BRANCH   9  10
ATOM     10  C   UNL     1       8.208   3.333  19.096  1.00  0.00     0.006 C 
BRANCH  10  11
ATOM     11  C   UNL     1       7.560   3.209  20.482  1.00  0.00     0.053 C 
BRANCH  11  12
ATOM     12  C   UNL     1       8.179   4.147  21.470  1.00  0.00     0.041 C 
ATOM     13  O   UNL     1       9.287   4.691  21.221  1.00  0.00    -0.550 OA
ATOM     14  O   UNL     1       7.515   4.450  22.654  1.00  0.00    -0.550 OA
ENDBRANCH  11  12
ENDBRANCH  10  11
ENDBRANCH   9  10
ENDBRANCH   8   9
ENDBRANCH   1   8
TORSDOF 9
ENDMDL
MODEL 7
REMARK VINA RESULT:    -4.547     11.059     13.506
REMARK INTER + INTRA:          -7.331
REMARK INTER:                  -6.826
REMARK INTRA:                  -0.505
REMARK UNBOUND:                -0.391
REMARK SMILES O=C([O-])CCCCCCCCC(=O)[O-]
REMARK SMILES IDX 7 1 6 2 5 3 4 4 2 5 1 6 3 7 8 8 9 9 10 10 11 11 12 12 13 13
REMARK SMILES IDX 14 14
REMARK H PARENT
REMARK Flexibility Score: inf
ROOT
ATOM      1  C   UNL     1       7.014   3.528  19.108  1.00  0.00     0.000 C 
ENDROOT
BRANCH   1   2
ATOM      2  C   UNL     1       8.492   3.551  19.525  1.00  0.00     0.000 C 
BRANCH   2   3
ATOM      3  C   UNL     1       8.757   4.490  20.712  1.00  0.00     0.006 C 
BRANCH   3   4
ATOM      4  C   UNL     1       8.161   3.923  22.003  1.00  0.00     0.053 C 
BRANCH   4   5
ATOM      5  C   UNL     1       7.325   4.954  22.693  1.00  0.00     0.041 C 
ATOM      6  O   UNL     1       6.955   4.777  23.883  1.00  0.00    -0.550 OA
ATOM      7  O   UNL     1       6.913   6.088  22.004  1.00  0.00    -0.550 OA
ENDBRANCH   4   5
ENDBRANCH   3   4
ENDBRANCH   2   3
ENDBRANCH   1   2
BRANCH   1   8
ATOM      8  C   UNL     1       6.587   2.175  18.513  1.00  0.00     0.000 C 
BRANCH   8   9
ATOM      9  C   UNL     1       7.732   1.151  18.494  1.00  0.00     0.000 C 
BRANCH   9  10
ATOM     10  C   UNL     1       7.231  -0.292  18.308  1.00  0.00     0.006 C 
BRANCH  10  11
ATOM     11  C   UNL     1       8.383  -1.304  18.260  1.00  0.00     0.053 C 
BRANCH  11  12
ATOM     12  C   UNL     1       9.186  -1.174  17.003  1.00  0.00     0.041 C 
ATOM     13  O   UNL     1       8.672  -1.458  15.889  1.00  0.00    -0.550 OA
ATOM     14  O   UNL     1      10.493  -0.703  17.057  1.00  0.00    -0.550 OA
ENDBRANCH  11  12
ENDBRANCH  10  11
ENDBRANCH   9  10
ENDBRANCH   8   9
ENDBRANCH   1   8
TORSDOF 9
ENDMDL
MODEL 8
REMARK VINA RESULT:    -4.501     10.975     14.112
REMARK INTER + INTRA:          -7.261
REMARK INTER:                  -6.761
REMARK INTRA:                  -0.500
REMARK UNBOUND:                -0.391
REMARK SMILES O=C([O-])CCCCCCCCC(=O)[O-]
REMARK SMILES IDX 7 1 6 2 5 3 4 4 2 5 1 6 3 7 8 8 9 9 10 10 11 11 12 12 13 13
REMARK SMILES IDX 14 14
REMARK H PARENT
REMARK Flexibility Score: inf
ROOT
ATOM      1  C   UNL     1       6.346   3.021  17.964  1.00  0.00     0.000 C 
ENDROOT
BRANCH   1   2
ATOM      2  C   UNL     1       6.856   1.803  17.178  1.00  0.00     0.000 C 
BRANCH   2   3
ATOM      3  C   UNL     1       6.260   0.481  17.685  1.00  0.00     0.006 C 
BRANCH   3   4
ATOM      4  C   UNL     1       7.331  -0.375  18.369  1.00  0.00     0.053 C 
BRANCH   4   5
ATOM      5  C   UNL     1       8.049  -1.218  17.364  1.00  0.00     0.041 C 
ATOM      6  O   UNL     1       9.225  -1.607  17.588  1.00  0.00    -0.550 OA
ATOM      7  O   UNL     1       7.437  -1.532  16.156  1.00  0.00    -0.550 OA
ENDBRANCH   4   5
ENDBRANCH   3   4
ENDBRANCH   2   3
ENDBRANCH   1   2
BRANCH   1   8
ATOM      8  C   UNL     1       6.915   3.085  19.392  1.00  0.00     0.000 C 
BRANCH   8   9
ATOM      9  C   UNL     1       8.416   3.410  19.416  1.00  0.00     0.000 C 
BRANCH   9  10
ATOM     10  C   UNL     1       8.816   4.264  20.632  1.00  0.00     0.006 C 
BRANCH  10  11
ATOM     11  C   UNL     1       8.046   3.864  21.898  1.00  0.00     0.053 C 
BRANCH  11  12
ATOM     12  C   UNL     1       7.328   5.030  22.503  1.00  0.00     0.041 C 
ATOM     13  O   UNL     1       7.124   6.071  21.825  1.00  0.00    -0.550 OA
ATOM     14  O   UNL     1       6.852   4.955  23.807  1.00  0.00    -0.550 OA
ENDBRANCH  11  12
ENDBRANCH  10  11
ENDBRANCH   9  10
ENDBRANCH   8   9
ENDBRANCH   1   8
TORSDOF 9
ENDMDL
MODEL 9
REMARK VINA RESULT:    -4.452      6.135      8.332
REMARK INTER + INTRA:          -7.185
REMARK INTER:                  -6.984
REMARK INTRA:                  -0.201
REMARK UNBOUND:                -0.391
REMARK SMILES O=C([O-])CCCCCCCCC(=O)[O-]
REMARK SMILES IDX 7 1 6 2 5 3 4 4 2 5 1 6 3 7 8 8 9 9 10 10 11 11 12 12 13 13
REMARK SMILES IDX 14 14
REMARK H PARENT
REMARK Flexibility Score: inf
ROOT
ATOM      1  C   UNL     1      15.615   0.383  10.266  1.00  0.00     0.000 C 
ENDROOT
BRANCH   1   2
ATOM      2  C   UNL     1      15.254  -0.212   8.896  1.00  0.00     0.000 C 
BRANCH   2   3
ATOM      3  C   UNL     1      15.271  -1.748   8.896  1.00  0.00     0.006 C 
BRANCH   3   4
ATOM      4  C   UNL     1      15.747  -2.291   7.545  1.00  0.00     0.053 C 
BRANCH   4   5
ATOM      5  C   UNL     1      14.840  -3.381   7.069  1.00  0.00     0.041 C 
ATOM      6  O   UNL     1      13.615  -3.359   7.360  1.00  0.00    -0.550 OA
ATOM      7  O   UNL     1      15.358  -4.449   6.346  1.00  0.00    -0.550 OA
ENDBRANCH   4   5
ENDBRANCH   3   4
ENDBRANCH   2   3
ENDBRANCH   1   2
BRANCH   1   8
ATOM      8  C   UNL     1      16.001   1.870  10.183  1.00  0.00     0.000 C 
BRANCH   8   9
ATOM      9  C   UNL     1      15.550   2.667  11.416  1.00  0.00     0.000 C 
BRANCH   9  10
ATOM     10  C   UNL     1      16.720   3.022  12.349  1.00  0.00     0.006 C 
BRANCH  10  11
ATOM     11  C   UNL     1      16.590   4.437  12.929  1.00  0.00     0.053 C 
BRANCH  11  12
ATOM     12  C   UNL     1      16.355   4.412  14.407  1.00  0.00     0.041 C 
ATOM     13  O   UNL     1      17.329   4.419  15.205  1.00  0.00    -0.550 OA
ATOM     14  O   UNL     1      15.058   4.417  14.906  1.00  0.00    -0.550 OA
ENDBRANCH  11  12
ENDBRANCH  10  11
ENDBRANCH   9  10
ENDBRANCH   8   9
ENDBRANCH   1   8
TORSDOF 9
ENDMDL
