MODEL 1
REMARK VINA RESULT:    -3.662      0.000      0.000
REMARK INTER + INTRA:          -4.278
REMARK INTER:                  -4.197
REMARK INTRA:                  -0.081
REMARK UNBOUND:                -0.081
REMARK SMILES COc1cc(C(=O)[O-])ccc1O
REMARK SMILES IDX 5 1 9 2 4 3 10 4 3 5 11 6 6 7 7 8 8 9 2 10 1 11 12 12
REMARK H PARENT 12 13
REMARK Flexibility Score: inf
ROOT
ATOM      1  C   UNL     1      16.882  53.200  20.681  1.00  0.00     0.001 A 
ATOM      2  C   UNL     1      16.053  52.658  21.679  1.00  0.00     0.014 A 
ATOM      3  C   UNL     1      16.444  54.331  19.970  1.00  0.00     0.060 A 
ATOM      4  C   UNL     1      14.815  53.237  21.960  1.00  0.00     0.051 A 
ATOM      5  C   UNL     1      15.194  54.919  20.250  1.00  0.00     0.161 A 
ATOM      6  C   UNL     1      14.383  54.364  21.250  1.00  0.00     0.157 A 
ENDROOT
BRANCH   1   7
ATOM      7  C   UNL     1      18.196  52.589  20.381  1.00  0.00     0.072 C 
ATOM      8  O   UNL     1      19.124  53.280  19.881  1.00  0.00    -0.545 OA
ATOM      9  O   UNL     1      18.427  51.244  20.647  1.00  0.00    -0.545 OA
ENDBRANCH   1   7
BRANCH   5  10
ATOM     10  O   UNL     1      14.726  56.049  19.561  1.00  0.00    -0.493 OA
ATOM     11  C   UNL     1      15.529  56.873  18.723  1.00  0.00     0.278 C 
ENDBRANCH   5  10
BRANCH   6  12
ATOM     12  O   UNL     1      13.145  54.940  21.532  1.00  0.00    -0.504 OA
ATOM     13  H   UNL     1      12.987  55.935  21.425  1.00  0.00     0.293 HD
ENDBRANCH   6  12
TORSDOF 3
ENDMDL
MODEL 2
REMARK VINA RESULT:    -3.621      1.321      4.196
REMARK INTER + INTRA:          -4.232
REMARK INTER:                  -4.154
REMARK INTRA:                  -0.077
REMARK UNBOUND:                -0.081
REMARK SMILES COc1cc(C(=O)[O-])ccc1O
REMARK SMILES IDX 5 1 9 2 4 3 10 4 3 5 11 6 6 7 7 8 8 9 2 10 1 11 12 12
REMARK H PARENT 12 13
REMARK Flexibility Score: inf
ROOT
ATOM      1  C   UNL     1      14.635  54.312  21.070  1.00  0.00     0.001 A 
ATOM      2  C   UNL     1      14.701  53.274  22.016  1.00  0.00     0.014 A 
ATOM      3  C   UNL     1      15.702  54.486  20.172  1.00  0.00     0.060 A 
ATOM      4  C   UNL     1      15.812  52.431  22.064  1.00  0.00     0.051 A 
ATOM      5  C   UNL     1      16.826  53.637  20.215  1.00  0.00     0.161 A 
ATOM      6  C   UNL     1      16.874  52.608  21.167  1.00  0.00     0.157 A 
ENDROOT
BRANCH   1   7
ATOM      7  C   UNL     1      13.458  55.207  21.016  1.00  0.00     0.072 C 
ATOM      8  O   UNL     1      13.151  55.922  22.008  1.00  0.00    -0.545 OA
ATOM      9  O   UNL     1      12.673  55.275  19.870  1.00  0.00    -0.545 OA
ENDBRANCH   1   7
BRANCH   5  10
ATOM     10  O   UNL     1      17.910  53.781  19.335  1.00  0.00    -0.493 OA
ATOM     11  C   UNL     1      18.223  54.979  18.631  1.00  0.00     0.278 C 
ENDBRANCH   5  10
BRANCH   6  12
ATOM     12  O   UNL     1      17.982  51.765  21.216  1.00  0.00    -0.504 OA
ATOM     13  H   UNL     1      18.462  51.568  22.087  1.00  0.00     0.293 HD
ENDBRANCH   6  12
TORSDOF 3
ENDMDL
MODEL 3
REMARK VINA RESULT:    -3.547      1.929      3.062
REMARK INTER + INTRA:          -4.147
REMARK INTER:                  -4.071
REMARK INTRA:                  -0.076
REMARK UNBOUND:                -0.081
REMARK SMILES COc1cc(C(=O)[O-])ccc1O
REMARK SMILES IDX 5 1 9 2 4 3 10 4 3 5 11 6 6 7 7 8 8 9 2 10 1 11 12 12
REMARK H PARENT 12 13
REMARK Flexibility Score: inf
ROOT
ATOM      1  C   UNL     1      17.805  53.948  19.462  1.00  0.00     0.001 A 
ATOM      2  C   UNL     1      18.431  52.851  20.080  1.00  0.00     0.014 A 
ATOM      3  C   UNL     1      16.496  54.291  19.843  1.00  0.00     0.060 A 
ATOM      4  C   UNL     1      17.760  52.114  21.058  1.00  0.00     0.051 A 
ATOM      5  C   UNL     1      15.815  53.551  20.830  1.00  0.00     0.161 A 
ATOM      6  C   UNL     1      16.456  52.460  21.435  1.00  0.00     0.157 A 
ENDROOT
BRANCH   1   7
ATOM      7  C   UNL     1      18.513  54.732  18.426  1.00  0.00     0.072 C 
ATOM      8  O   UNL     1      18.826  54.203  17.325  1.00  0.00    -0.545 OA
ATOM      9  O   UNL     1      18.842  56.064  18.650  1.00  0.00    -0.545 OA
ENDBRANCH   1   7
BRANCH   5  10
ATOM     10  O   UNL     1      14.508  53.864  21.235  1.00  0.00    -0.493 OA
ATOM     11  C   UNL     1      13.854  55.099  20.963  1.00  0.00     0.278 C 
ENDBRANCH   5  10
BRANCH   6  12
ATOM     12  O   UNL     1      15.789  51.723  22.411  1.00  0.00    -0.504 OA
ATOM     13  H   UNL     1      14.817  51.900  22.639  1.00  0.00     0.293 HD
ENDBRANCH   6  12
TORSDOF 3
ENDMDL
MODEL 4
REMARK VINA RESULT:    -3.481      1.973      4.632
REMARK INTER + INTRA:          -4.070
REMARK INTER:                  -3.975
REMARK INTRA:                  -0.095
REMARK UNBOUND:                -0.081
REMARK SMILES COc1cc(C(=O)[O-])ccc1O
REMARK SMILES IDX 5 1 9 2 4 3 10 4 3 5 11 6 6 7 7 8 8 9 2 10 1 11 12 12
REMARK H PARENT 12 13
REMARK Flexibility Score: inf
ROOT
ATOM      1  C   UNL     1      13.862  55.001  21.009  1.00  0.00     0.001 A 
ATOM      2  C   UNL     1      13.717  55.383  22.354  1.00  0.00     0.014 A 
ATOM      3  C   UNL     1      14.749  53.959  20.687  1.00  0.00     0.060 A 
ATOM      4  C   UNL     1      14.444  54.736  23.355  1.00  0.00     0.051 A 
ATOM      5  C   UNL     1      15.485  53.302  21.693  1.00  0.00     0.161 A 
ATOM      6  C   UNL     1      15.327  53.698  23.029  1.00  0.00     0.157 A 
ENDROOT
BRANCH   1   7
ATOM      7  C   UNL     1      13.093  55.685  19.946  1.00  0.00     0.072 C 
ATOM      8  O   UNL     1      11.868  55.437  19.782  1.00  0.00    -0.545 OA
ATOM      9  O   UNL     1      13.710  56.611  19.113  1.00  0.00    -0.545 OA
ENDBRANCH   1   7
BRANCH   5  10
ATOM     10  O   UNL     1      16.379  52.258  21.409  1.00  0.00    -0.493 OA
ATOM     11  C   UNL     1      17.707  52.441  20.931  1.00  0.00     0.278 C 
ENDBRANCH   5  10
BRANCH   6  12
ATOM     12  O   UNL     1      16.052  53.053  24.030  1.00  0.00    -0.504 OA
ATOM     13  H   UNL     1      16.986  53.352  24.285  1.00  0.00     0.293 HD
ENDBRANCH   6  12
TORSDOF 3
ENDMDL
MODEL 5
REMARK VINA RESULT:    -3.459      1.544      4.085
REMARK INTER + INTRA:          -4.045
REMARK INTER:                  -3.942
REMARK INTRA:                  -0.103
REMARK UNBOUND:                -0.081
REMARK SMILES COc1cc(C(=O)[O-])ccc1O
REMARK SMILES IDX 5 1 9 2 4 3 10 4 3 5 11 6 6 7 7 8 8 9 2 10 1 11 12 12
REMARK H PARENT 12 13
REMARK Flexibility Score: inf
ROOT
ATOM      1  C   UNL     1      16.144  54.977  19.885  1.00  0.00     0.001 A 
ATOM      2  C   UNL     1      14.900  54.608  20.426  1.00  0.00     0.014 A 
ATOM      3  C   UNL     1      17.277  54.201  20.186  1.00  0.00     0.060 A 
ATOM      4  C   UNL     1      14.792  53.487  21.251  1.00  0.00     0.051 A 
ATOM      5  C   UNL     1      17.173  53.068  21.018  1.00  0.00     0.161 A 
ATOM      6  C   UNL     1      15.924  52.717  21.549  1.00  0.00     0.157 A 
ENDROOT
BRANCH   1   7
ATOM      7  C   UNL     1      16.261  56.164  19.010  1.00  0.00     0.072 C 
ATOM      8  O   UNL     1      17.391  56.562  18.618  1.00  0.00    -0.545 OA
ATOM      9  O   UNL     1      15.126  56.858  18.605  1.00  0.00    -0.545 OA
ENDBRANCH   1   7
BRANCH   5  10
ATOM     10  O   UNL     1      18.282  52.270  21.340  1.00  0.00    -0.493 OA
ATOM     11  C   UNL     1      18.839  51.279  20.482  1.00  0.00     0.278 C 
ENDBRANCH   5  10
BRANCH   6  12
ATOM     12  O   UNL     1      15.814  51.598  22.372  1.00  0.00    -0.504 OA
ATOM     13  H   UNL     1      16.377  51.498  23.209  1.00  0.00     0.293 HD
ENDBRANCH   6  12
TORSDOF 3
ENDMDL
MODEL 6
REMARK VINA RESULT:    -3.449      6.250      8.797
REMARK INTER + INTRA:          -4.034
REMARK INTER:                  -3.942
REMARK INTRA:                  -0.092
REMARK UNBOUND:                -0.081
REMARK SMILES COc1cc(C(=O)[O-])ccc1O
REMARK SMILES IDX 5 1 9 2 4 3 10 4 3 5 11 6 6 7 7 8 8 9 2 10 1 11 12 12
REMARK H PARENT 12 13
REMARK Flexibility Score: inf
ROOT
ATOM      1  C   UNL     1      14.912  58.767  15.386  1.00  0.00     0.001 A 
ATOM      2  C   UNL     1      14.903  57.603  14.598  1.00  0.00     0.014 A 
ATOM      3  C   UNL     1      14.949  60.021  14.750  1.00  0.00     0.060 A 
ATOM      4  C   UNL     1      14.931  57.691  13.206  1.00  0.00     0.051 A 
ATOM      5  C   UNL     1      14.977  60.116  13.344  1.00  0.00     0.161 A 
ATOM      6  C   UNL     1      14.968  58.943  12.577  1.00  0.00     0.157 A 
ENDROOT
BRANCH   1   7
ATOM      7  C   UNL     1      14.882  58.677  16.863  1.00  0.00     0.072 C 
ATOM      8  O   UNL     1      15.236  59.657  17.571  1.00  0.00    -0.545 OA
ATOM      9  O   UNL     1      14.462  57.510  17.490  1.00  0.00    -0.545 OA
ENDBRANCH   1   7
BRANCH   5  10
ATOM     10  O   UNL     1      15.014  61.350  12.676  1.00  0.00    -0.493 OA
ATOM     11  C   UNL     1      13.865  62.123  12.346  1.00  0.00     0.278 C 
ENDBRANCH   5  10
BRANCH   6  12
ATOM     12  O   UNL     1      14.996  59.029  11.186  1.00  0.00    -0.504 OA
ATOM     13  H   UNL     1      15.417  59.819  10.711  1.00  0.00     0.293 HD
ENDBRANCH   6  12
TORSDOF 3
ENDMDL
MODEL 7
REMARK VINA RESULT:    -3.447     12.172     13.713
REMARK INTER + INTRA:          -4.032
REMARK INTER:                  -3.936
REMARK INTRA:                  -0.096
REMARK UNBOUND:                -0.081
REMARK SMILES COc1cc(C(=O)[O-])ccc1O
REMARK SMILES IDX 5 1 9 2 4 3 10 4 3 5 11 6 6 7 7 8 8 9 2 10 1 11 12 12
REMARK H PARENT 12 13
REMARK Flexibility Score: inf
ROOT
ATOM      1  C   UNL     1       5.344  61.069  17.142  1.00  0.00     0.001 A 
ATOM      2  C   UNL     1       4.423  62.122  17.280  1.00  0.00     0.014 A 
ATOM      3  C   UNL     1       5.292  59.993  18.045  1.00  0.00     0.060 A 
ATOM      4  C   UNL     1       3.471  62.098  18.300  1.00  0.00     0.051 A 
ATOM      5  C   UNL     1       4.332  59.964  19.076  1.00  0.00     0.161 A 
ATOM      6  C   UNL     1       3.422  61.023  19.198  1.00  0.00     0.157 A 
ENDROOT
BRANCH   1   7
ATOM      7  C   UNL     1       6.355  61.091  16.061  1.00  0.00     0.072 C 
ATOM      8  O   UNL     1       7.541  61.447  16.300  1.00  0.00    -0.545 OA
ATOM      9  O   UNL     1       6.012  60.719  14.767  1.00  0.00    -0.545 OA
ENDBRANCH   1   7
BRANCH   5  10
ATOM     10  O   UNL     1       4.251  58.906  19.995  1.00  0.00    -0.493 OA
ATOM     11  C   UNL     1       5.147  58.713  21.085  1.00  0.00     0.278 C 
ENDBRANCH   5  10
BRANCH   6  12
ATOM     12  O   UNL     1       2.470  61.001  20.216  1.00  0.00    -0.504 OA
ATOM     13  H   UNL     1       2.180  60.134  20.652  1.00  0.00     0.293 HD
ENDBRANCH   6  12
TORSDOF 3
ENDMDL
MODEL 8
REMARK VINA RESULT:    -3.340      6.173      7.689
REMARK INTER + INTRA:          -3.909
REMARK INTER:                  -3.814
REMARK INTRA:                  -0.094
REMARK UNBOUND:                -0.081
REMARK SMILES COc1cc(C(=O)[O-])ccc1O
REMARK SMILES IDX 5 1 9 2 4 3 10 4 3 5 11 6 6 7 7 8 8 9 2 10 1 11 12 12
REMARK H PARENT 12 13
REMARK Flexibility Score: inf
ROOT
ATOM      1  C   UNL     1      12.036  57.682  17.034  1.00  0.00     0.001 A 
ATOM      2  C   UNL     1      11.591  59.016  17.031  1.00  0.00     0.014 A 
ATOM      3  C   UNL     1      13.254  57.367  16.406  1.00  0.00     0.060 A 
ATOM      4  C   UNL     1      12.349  60.012  16.414  1.00  0.00     0.051 A 
ATOM      5  C   UNL     1      14.023  58.370  15.782  1.00  0.00     0.161 A 
ATOM      6  C   UNL     1      13.562  59.694  15.789  1.00  0.00     0.157 A 
ENDROOT
BRANCH   1   7
ATOM      7  C   UNL     1      11.235  56.623  17.688  1.00  0.00     0.072 C 
ATOM      8  O   UNL     1      10.157  56.224  17.171  1.00  0.00    -0.545 OA
ATOM      9  O   UNL     1      11.661  56.053  18.882  1.00  0.00    -0.545 OA
ENDBRANCH   1   7
BRANCH   5  10
ATOM     10  O   UNL     1      15.243  58.092  15.146  1.00  0.00    -0.493 OA
ATOM     11  C   UNL     1      15.365  57.576  13.824  1.00  0.00     0.278 C 
ENDBRANCH   5  10
BRANCH   6  12
ATOM     12  O   UNL     1      14.318  60.690  15.174  1.00  0.00    -0.504 OA
ATOM     13  H   UNL     1      13.887  61.401  14.594  1.00  0.00     0.293 HD
ENDBRANCH   6  12
TORSDOF 3
ENDMDL
MODEL 9
REMARK VINA RESULT:    -3.217      5.412      7.631
REMARK INTER + INTRA:          -3.768
REMARK INTER:                  -3.679
REMARK INTRA:                  -0.089
REMARK UNBOUND:                -0.081
REMARK SMILES COc1cc(C(=O)[O-])ccc1O
REMARK SMILES IDX 5 1 9 2 4 3 10 4 3 5 11 6 6 7 7 8 8 9 2 10 1 11 12 12
REMARK H PARENT 12 13
REMARK Flexibility Score: inf
ROOT
ATOM      1  C   UNL     1      15.034  58.431  14.480  1.00  0.00     0.001 A 
ATOM      2  C   UNL     1      16.156  58.460  15.326  1.00  0.00     0.014 A 
ATOM      3  C   UNL     1      13.801  57.992  14.996  1.00  0.00     0.060 A 
ATOM      4  C   UNL     1      16.047  58.058  16.659  1.00  0.00     0.051 A 
ATOM      5  C   UNL     1      13.686  57.586  16.340  1.00  0.00     0.161 A 
ATOM      6  C   UNL     1      14.817  57.621  17.168  1.00  0.00     0.157 A 
ENDROOT
BRANCH   1   7
ATOM      7  C   UNL     1      15.146  58.857  13.067  1.00  0.00     0.072 C 
ATOM      8  O   UNL     1      15.424  58.021  12.166  1.00  0.00    -0.545 OA
ATOM      9  O   UNL     1      14.944  60.186  12.713  1.00  0.00    -0.545 OA
ENDBRANCH   1   7
BRANCH   5  10
ATOM     10  O   UNL     1      12.473  57.142  16.888  1.00  0.00    -0.493 OA
ATOM     11  C   UNL     1      11.273  57.909  16.918  1.00  0.00     0.278 C 
ENDBRANCH   5  10
BRANCH   6  12
ATOM     12  O   UNL     1      14.711  57.220  18.498  1.00  0.00    -0.504 OA
ATOM     13  H   UNL     1      15.502  56.838  19.002  1.00  0.00     0.293 HD
ENDBRANCH   6  12
TORSDOF 3
ENDMDL
