MODEL 1
REMARK VINA RESULT:    -4.920      0.000      0.000
REMARK INTER + INTRA:          -4.920
REMARK INTER:                  -4.920
REMARK INTRA:                   0.000
REMARK UNBOUND:                 0.000
REMARK SMILES CC(C)=C1CC[C@@H](C)CC1=O
REMARK SMILES IDX 8 1 7 2 6 3 5 4 4 5 2 6 1 7 3 8 10 9 11 10 9 11
REMARK H PARENT
REMARK Flexibility Score: inf
ROOT
ATOM      1  C   UNL     1       7.844  -6.066  43.497  1.00  0.00     0.008 C 
ATOM      2  C   UNL     1       8.970  -7.028  43.084  1.00  0.00    -0.006 C 
ATOM      3  C   UNL     1       8.847  -7.472  41.615  1.00  0.00     0.008 C 
ATOM      4  C   UNL     1       7.612  -8.350  41.353  1.00  0.00     0.039 C 
ATOM      5  C   UNL     1       7.473  -9.493  42.350  1.00  0.00    -0.006 C 
ATOM      6  C   UNL     1       6.880 -10.670  41.996  1.00  0.00    -0.070 C 
ATOM      7  C   UNL     1       6.784 -11.833  42.955  1.00  0.00     0.039 C 
ATOM      8  C   UNL     1       6.322 -10.880  40.606  1.00  0.00     0.039 C 
ATOM      9  C   UNL     1       7.907  -9.206  43.749  1.00  0.00     0.159 C 
ATOM     10  O   UNL     1       7.333  -9.742  44.735  1.00  0.00    -0.295 OA
ATOM     11  C   UNL     1       9.039  -8.254  44.006  1.00  0.00     0.084 C 
ENDROOT
TORSDOF 0
ENDMDL
MODEL 2
REMARK VINA RESULT:    -4.705      1.060      3.973
REMARK INTER + INTRA:          -4.705
REMARK INTER:                  -4.705
REMARK INTRA:                   0.000
REMARK UNBOUND:                 0.000
REMARK SMILES CC(C)=C1CC[C@@H](C)CC1=O
REMARK SMILES IDX 8 1 7 2 6 3 5 4 4 5 2 6 1 7 3 8 10 9 11 10 9 11
REMARK H PARENT
REMARK Flexibility Score: inf
ROOT
ATOM      1  C   UNL     1       7.133 -12.891  42.157  1.00  0.00     0.008 C 
ATOM      2  C   UNL     1       5.994 -11.859  42.215  1.00  0.00    -0.006 C 
ATOM      3  C   UNL     1       6.073 -10.839  41.064  1.00  0.00     0.008 C 
ATOM      4  C   UNL     1       7.298  -9.917  41.161  1.00  0.00     0.039 C 
ATOM      5  C   UNL     1       7.467  -9.294  42.540  1.00  0.00    -0.006 C 
ATOM      6  C   UNL     1       8.048  -8.068  42.695  1.00  0.00    -0.070 C 
ATOM      7  C   UNL     1       8.173  -7.413  44.051  1.00  0.00     0.039 C 
ATOM      8  C   UNL     1       8.564  -7.289  41.507  1.00  0.00     0.039 C 
ATOM      9  C   UNL     1       7.075 -10.146  43.702  1.00  0.00     0.159 C 
ATOM     10  O   UNL     1       7.679 -10.064  44.806  1.00  0.00    -0.295 OA
ATOM     11  C   UNL     1       5.953 -11.133  43.567  1.00  0.00     0.084 C 
ENDROOT
TORSDOF 0
ENDMDL
MODEL 3
REMARK VINA RESULT:    -4.522      9.057     10.550
REMARK INTER + INTRA:          -4.522
REMARK INTER:                  -4.522
REMARK INTRA:                   0.000
REMARK UNBOUND:                 0.000
REMARK SMILES CC(C)=C1CC[C@@H](C)CC1=O
REMARK SMILES IDX 8 1 7 2 6 3 5 4 4 5 2 6 1 7 3 8 10 9 11 10 9 11
REMARK H PARENT
REMARK Flexibility Score: inf
ROOT
ATOM      1  C   UNL     1       6.434   1.072  34.460  1.00  0.00     0.008 C 
ATOM      2  C   UNL     1       5.332   0.137  34.983  1.00  0.00    -0.006 C 
ATOM      3  C   UNL     1       5.107   0.292  36.499  1.00  0.00     0.008 C 
ATOM      4  C   UNL     1       6.305  -0.182  37.337  1.00  0.00     0.039 C 
ATOM      5  C   UNL     1       6.804  -1.562  36.933  1.00  0.00    -0.006 C 
ATOM      6  C   UNL     1       7.389  -2.396  37.842  1.00  0.00    -0.070 C 
ATOM      7  C   UNL     1       7.840  -3.790  37.471  1.00  0.00     0.039 C 
ATOM      8  C   UNL     1       7.580  -1.975  39.282  1.00  0.00     0.039 C 
ATOM      9  C   UNL     1       6.727  -1.894  35.479  1.00  0.00     0.159 C 
ATOM     10  O   UNL     1       7.586  -2.636  34.931  1.00  0.00    -0.295 OA
ATOM     11  C   UNL     1       5.620  -1.332  34.636  1.00  0.00     0.084 C 
ENDROOT
TORSDOF 0
ENDMDL
MODEL 4
REMARK VINA RESULT:    -4.453      2.486      3.864
REMARK INTER + INTRA:          -4.453
REMARK INTER:                  -4.453
REMARK INTRA:                   0.000
REMARK UNBOUND:                 0.000
REMARK SMILES CC(C)=C1CC[C@@H](C)CC1=O
REMARK SMILES IDX 8 1 7 2 6 3 5 4 4 5 2 6 1 7 3 8 10 9 11 10 9 11
REMARK H PARENT
REMARK Flexibility Score: inf
ROOT
ATOM      1  C   UNL     1       9.249  -3.357  42.730  1.00  0.00     0.008 C 
ATOM      2  C   UNL     1       7.949  -3.893  42.109  1.00  0.00    -0.006 C 
ATOM      3  C   UNL     1       7.089  -4.662  43.129  1.00  0.00     0.008 C 
ATOM      4  C   UNL     1       7.742  -5.971  43.600  1.00  0.00     0.039 C 
ATOM      5  C   UNL     1       8.240  -6.835  42.449  1.00  0.00    -0.006 C 
ATOM      6  C   UNL     1       8.281  -8.196  42.553  1.00  0.00    -0.070 C 
ATOM      7  C   UNL     1       8.721  -9.069  41.401  1.00  0.00     0.039 C 
ATOM      8  C   UNL     1       7.851  -8.898  43.821  1.00  0.00     0.039 C 
ATOM      9  C   UNL     1       8.787  -6.107  41.265  1.00  0.00     0.159 C 
ATOM     10  O   UNL     1       9.728  -6.589  40.579  1.00  0.00    -0.295 OA
ATOM     11  C   UNL     1       8.225  -4.770  40.879  1.00  0.00     0.084 C 
ENDROOT
TORSDOF 0
ENDMDL
MODEL 5
REMARK VINA RESULT:    -4.409      3.877      6.127
REMARK INTER + INTRA:          -4.409
REMARK INTER:                  -4.409
REMARK INTRA:                   0.000
REMARK UNBOUND:                 0.000
REMARK SMILES CC(C)=C1CC[C@@H](C)CC1=O
REMARK SMILES IDX 8 1 7 2 6 3 5 4 4 5 2 6 1 7 3 8 10 9 11 10 9 11
REMARK H PARENT
REMARK Flexibility Score: inf
ROOT
ATOM      1  C   UNL     1       9.236  -6.615  43.132  1.00  0.00     0.008 C 
ATOM      2  C   UNL     1       7.799  -6.187  42.793  1.00  0.00    -0.006 C 
ATOM      3  C   UNL     1       7.516  -6.239  41.280  1.00  0.00     0.008 C 
ATOM      4  C   UNL     1       8.319  -5.199  40.482  1.00  0.00     0.039 C 
ATOM      5  C   UNL     1       8.229  -3.798  41.071  1.00  0.00    -0.006 C 
ATOM      6  C   UNL     1       8.320  -2.691  40.278  1.00  0.00    -0.070 C 
ATOM      7  C   UNL     1       8.176  -1.295  40.839  1.00  0.00     0.039 C 
ATOM      8  C   UNL     1       8.532  -2.812  38.786  1.00  0.00     0.039 C 
ATOM      9  C   UNL     1       8.158  -3.711  42.560  1.00  0.00     0.159 C 
ATOM     10  O   UNL     1       8.673  -2.744  43.184  1.00  0.00    -0.295 OA
ATOM     11  C   UNL     1       7.475  -4.791  43.346  1.00  0.00     0.084 C 
ENDROOT
TORSDOF 0
ENDMDL
MODEL 6
REMARK VINA RESULT:    -4.409      7.311      8.994
REMARK INTER + INTRA:          -4.409
REMARK INTER:                  -4.409
REMARK INTRA:                   0.000
REMARK UNBOUND:                 0.000
REMARK SMILES CC(C)=C1CC[C@@H](C)CC1=O
REMARK SMILES IDX 8 1 7 2 6 3 5 4 4 5 2 6 1 7 3 8 10 9 11 10 9 11
REMARK H PARENT
REMARK Flexibility Score: inf
ROOT
ATOM      1  C   UNL     1       6.932  -0.943  34.968  1.00  0.00     0.008 C 
ATOM      2  C   UNL     1       6.008  -1.929  35.702  1.00  0.00    -0.006 C 
ATOM      3  C   UNL     1       5.568  -1.399  37.079  1.00  0.00     0.008 C 
ATOM      4  C   UNL     1       6.728  -1.294  38.082  1.00  0.00     0.039 C 
ATOM      5  C   UNL     1       7.567  -2.563  38.156  1.00  0.00    -0.006 C 
ATOM      6  C   UNL     1       8.205  -2.922  39.309  1.00  0.00    -0.070 C 
ATOM      7  C   UNL     1       8.995  -4.205  39.415  1.00  0.00     0.039 C 
ATOM      8  C   UNL     1       8.118  -2.065  40.552  1.00  0.00     0.039 C 
ATOM      9  C   UNL     1       7.746  -3.312  36.877  1.00  0.00     0.159 C 
ATOM     10  O   UNL     1       8.809  -3.944  36.633  1.00  0.00    -0.295 OA
ATOM     11  C   UNL     1       6.655  -3.315  35.847  1.00  0.00     0.084 C 
ENDROOT
TORSDOF 0
ENDMDL
MODEL 7
REMARK VINA RESULT:    -4.345      4.789      7.456
REMARK INTER + INTRA:          -4.345
REMARK INTER:                  -4.345
REMARK INTRA:                   0.000
REMARK UNBOUND:                 0.000
REMARK SMILES CC(C)=C1CC[C@@H](C)CC1=O
REMARK SMILES IDX 8 1 7 2 6 3 5 4 4 5 2 6 1 7 3 8 10 9 11 10 9 11
REMARK H PARENT
REMARK Flexibility Score: inf
ROOT
ATOM      1  C   UNL     1       7.508  -5.946  41.681  1.00  0.00     0.008 C 
ATOM      2  C   UNL     1       8.856  -5.437  41.143  1.00  0.00    -0.006 C 
ATOM      3  C   UNL     1       9.679  -4.714  42.224  1.00  0.00     0.008 C 
ATOM      4  C   UNL     1       9.039  -3.394  42.685  1.00  0.00     0.039 C 
ATOM      5  C   UNL     1       8.630  -2.495  41.527  1.00  0.00    -0.006 C 
ATOM      6  C   UNL     1       8.622  -1.136  41.656  1.00  0.00    -0.070 C 
ATOM      7  C   UNL     1       8.272  -0.228  40.500  1.00  0.00     0.039 C 
ATOM      8  C   UNL     1       9.001  -0.471  42.959  1.00  0.00     0.039 C 
ATOM      9  C   UNL     1       8.129  -3.184  40.300  1.00  0.00     0.159 C 
ATOM     10  O   UNL     1       7.242  -2.662  39.573  1.00  0.00    -0.295 OA
ATOM     11  C   UNL     1       8.673  -4.530  39.918  1.00  0.00     0.084 C 
ENDROOT
TORSDOF 0
ENDMDL
MODEL 8
REMARK VINA RESULT:    -4.320      6.894      8.560
REMARK INTER + INTRA:          -4.320
REMARK INTER:                  -4.320
REMARK INTRA:                   0.000
REMARK UNBOUND:                 0.000
REMARK SMILES CC(C)=C1CC[C@@H](C)CC1=O
REMARK SMILES IDX 8 1 7 2 6 3 5 4 4 5 2 6 1 7 3 8 10 9 11 10 9 11
REMARK H PARENT
REMARK Flexibility Score: inf
ROOT
ATOM      1  C   UNL     1       8.285  -4.648  40.180  1.00  0.00     0.008 C 
ATOM      2  C   UNL     1       9.113  -3.487  39.606  1.00  0.00    -0.006 C 
ATOM      3  C   UNL     1       8.433  -2.122  39.824  1.00  0.00     0.008 C 
ATOM      4  C   UNL     1       7.130  -1.965  39.024  1.00  0.00     0.039 C 
ATOM      5  C   UNL     1       7.284  -2.343  37.557  1.00  0.00    -0.006 C 
ATOM      6  C   UNL     1       6.523  -1.750  36.591  1.00  0.00    -0.070 C 
ATOM      7  C   UNL     1       6.702  -2.073  35.126  1.00  0.00     0.039 C 
ATOM      8  C   UNL     1       5.485  -0.708  36.942  1.00  0.00     0.039 C 
ATOM      9  C   UNL     1       8.217  -3.470  37.259  1.00  0.00     0.159 C 
ATOM     10  O   UNL     1       8.005  -4.258  36.298  1.00  0.00    -0.295 OA
ATOM     11  C   UNL     1       9.428  -3.693  38.117  1.00  0.00     0.084 C 
ENDROOT
TORSDOF 0
ENDMDL
MODEL 9
REMARK VINA RESULT:    -4.265      3.195      4.613
REMARK INTER + INTRA:          -4.265
REMARK INTER:                  -4.265
REMARK INTRA:                   0.000
REMARK UNBOUND:                 0.000
REMARK SMILES CC(C)=C1CC[C@@H](C)CC1=O
REMARK SMILES IDX 8 1 7 2 6 3 5 4 4 5 2 6 1 7 3 8 10 9 11 10 9 11
REMARK H PARENT
REMARK Flexibility Score: inf
ROOT
ATOM      1  C   UNL     1       7.848  -2.439  40.258  1.00  0.00     0.008 C 
ATOM      2  C   UNL     1       9.045  -2.673  41.194  1.00  0.00    -0.006 C 
ATOM      3  C   UNL     1      10.009  -3.745  40.652  1.00  0.00     0.008 C 
ATOM      4  C   UNL     1       9.389  -5.151  40.623  1.00  0.00     0.039 C 
ATOM      5  C   UNL     1       8.727  -5.536  41.939  1.00  0.00    -0.006 C 
ATOM      6  C   UNL     1       8.666  -6.838  42.345  1.00  0.00    -0.070 C 
ATOM      7  C   UNL     1       8.062  -7.231  43.674  1.00  0.00     0.039 C 
ATOM      8  C   UNL     1       9.237  -7.951  41.496  1.00  0.00     0.039 C 
ATOM      9  C   UNL     1       8.052  -4.434  42.687  1.00  0.00     0.159 C 
ATOM     10  O   UNL     1       7.020  -4.648  43.378  1.00  0.00    -0.295 OA
ATOM     11  C   UNL     1       8.593  -3.035  42.616  1.00  0.00     0.084 C 
ENDROOT
TORSDOF 0
ENDMDL
