MODEL 1
REMARK VINA RESULT:    10.516      0.000      0.000
REMARK INTER + INTRA:          19.004
REMARK INTER:                  19.122
REMARK INTRA:                  -0.118
REMARK UNBOUND:                -0.118
REMARK SMILES CCCCCCCCCCCCCC[C@@H](C)C(=O)[O-]
REMARK SMILES IDX 9 1 10 2 11 3 12 4 13 5 14 6 15 7 16 8 17 9 18 10 19 11 8 12
REMARK SMILES IDX 7 13 6 14 5 15 4 16 3 17 2 18 1 19
REMARK H PARENT
REMARK Flexibility Score: inf
ROOT
ATOM      1  C   UNL     1       2.802   7.498  -3.211  1.00  0.00     0.000 C 
ENDROOT
BRANCH   1   2
ATOM      2  C   UNL     1       1.394   6.886  -3.131  1.00  0.00     0.000 C 
BRANCH   2   3
ATOM      3  C   UNL     1       0.452   7.431  -4.219  1.00  0.00     0.000 C 
BRANCH   3   4
ATOM      4  C   UNL     1       0.583   8.950  -4.404  1.00  0.00     0.000 C 
BRANCH   4   5
ATOM      5  C   UNL     1       0.643   9.360  -5.887  1.00  0.00     0.001 C 
BRANCH   5   6
ATOM      6  C   UNL     1       0.108   8.267  -6.830  1.00  0.00     0.009 C 
BRANCH   6   7
ATOM      7  C   UNL     1       0.944   8.077  -8.116  1.00  0.00     0.032 C 
ATOM      8  C   UNL     1       0.183   8.610  -9.335  1.00  0.00     0.014 C 
BRANCH   7   9
ATOM      9  C   UNL     1       2.285   8.754  -8.012  1.00  0.00     0.044 C 
ATOM     10  O   UNL     1       2.961   8.677  -6.950  1.00  0.00    -0.550 OA
ATOM     11  O   UNL     1       2.789   9.464  -9.094  1.00  0.00    -0.550 OA
ENDBRANCH   7   9
ENDBRANCH   6   7
ENDBRANCH   5   6
ENDBRANCH   4   5
ENDBRANCH   3   4
ENDBRANCH   2   3
ENDBRANCH   1   2
BRANCH   1  12
ATOM     12  C   UNL     1       3.686   7.102  -2.015  1.00  0.00     0.000 C 
BRANCH  12  13
ATOM     13  C   UNL     1       5.114   7.657  -2.128  1.00  0.00    -0.000 C 
BRANCH  13  14
ATOM     14  C   UNL     1       6.091   6.653  -2.756  1.00  0.00    -0.000 C 
BRANCH  14  15
ATOM     15  C   UNL     1       5.358   5.378  -3.199  1.00  0.00    -0.000 C 
BRANCH  15  16
ATOM     16  C   UNL     1       5.891   4.816  -4.527  1.00  0.00    -0.000 C 
BRANCH  16  17
ATOM     17  C   UNL     1       6.684   3.511  -4.341  1.00  0.00    -0.000 C 
BRANCH  17  18
ATOM     18  C   UNL     1       7.089   3.271  -2.878  1.00  0.00    -0.003 C 
ATOM     19  C   UNL     1       7.314   1.793  -2.561  1.00  0.00     0.004 C 
ENDBRANCH  17  18
ENDBRANCH  16  17
ENDBRANCH  15  16
ENDBRANCH  14  15
ENDBRANCH  13  14
ENDBRANCH  12  13
ENDBRANCH   1  12
TORSDOF 14
ENDMDL
MODEL 2
REMARK VINA RESULT:    11.205      2.545      4.323
REMARK INTER + INTRA:          20.257
REMARK INTER:                  20.980
REMARK INTRA:                  -0.724
REMARK UNBOUND:                -0.118
REMARK SMILES CCCCCCCCCCCCCC[C@@H](C)C(=O)[O-]
REMARK SMILES IDX 9 1 10 2 11 3 12 4 13 5 14 6 15 7 16 8 17 9 18 10 19 11 8 12
REMARK SMILES IDX 7 13 6 14 5 15 4 16 3 17 2 18 1 19
REMARK H PARENT
REMARK Flexibility Score: inf
ROOT
ATOM      1  C   UNL     1       1.240   8.792  -5.667  1.00  0.00     0.000 C 
ENDROOT
BRANCH   1   2
ATOM      2  C   UNL     1       0.435   8.613  -6.964  1.00  0.00     0.000 C 
BRANCH   2   3
ATOM      3  C   UNL     1       1.337   8.382  -8.189  1.00  0.00     0.000 C 
BRANCH   3   4
ATOM      4  C   UNL     1       2.673   9.134  -8.087  1.00  0.00     0.000 C 
BRANCH   4   5
ATOM      5  C   UNL     1       3.413   9.207  -9.435  1.00  0.00     0.001 C 
BRANCH   5   6
ATOM      6  C   UNL     1       2.602   9.940 -10.521  1.00  0.00     0.009 C 
BRANCH   6   7
ATOM      7  C   UNL     1       3.397  10.228 -11.815  1.00  0.00     0.032 C 
ATOM      8  C   UNL     1       3.486   8.966 -12.681  1.00  0.00     0.014 C 
BRANCH   7   9
ATOM      9  C   UNL     1       2.782  11.351 -12.606  1.00  0.00     0.044 C 
ATOM     10  O   UNL     1       1.988  11.107 -13.555  1.00  0.00    -0.550 OA
ATOM     11  O   UNL     1       3.082  12.669 -12.287  1.00  0.00    -0.550 OA
ENDBRANCH   7   9
ENDBRANCH   6   7
ENDBRANCH   5   6
ENDBRANCH   4   5
ENDBRANCH   3   4
ENDBRANCH   2   3
ENDBRANCH   1   2
BRANCH   1  12
ATOM     12  C   UNL     1       0.445   8.373  -4.417  1.00  0.00     0.000 C 
BRANCH  12  13
ATOM     13  C   UNL     1       1.241   7.432  -3.499  1.00  0.00    -0.000 C 
BRANCH  13  14
ATOM     14  C   UNL     1       2.759   7.601  -3.653  1.00  0.00    -0.000 C 
BRANCH  14  15
ATOM     15  C   UNL     1       3.492   7.162  -2.375  1.00  0.00    -0.000 C 
BRANCH  15  16
ATOM     16  C   UNL     1       4.944   7.663  -2.320  1.00  0.00    -0.000 C 
BRANCH  16  17
ATOM     17  C   UNL     1       5.963   6.557  -2.642  1.00  0.00    -0.000 C 
BRANCH  17  18
ATOM     18  C   UNL     1       5.309   5.317  -3.271  1.00  0.00    -0.003 C 
ATOM     19  C   UNL     1       6.142   4.717  -4.402  1.00  0.00     0.004 C 
ENDBRANCH  17  18
ENDBRANCH  16  17
ENDBRANCH  15  16
ENDBRANCH  14  15
ENDBRANCH  13  14
ENDBRANCH  12  13
ENDBRANCH   1  12
TORSDOF 14
ENDMDL
MODEL 3
REMARK VINA RESULT:    11.222      3.005      7.866
REMARK INTER + INTRA:          20.288
REMARK INTER:                  21.183
REMARK INTRA:                  -0.895
REMARK UNBOUND:                -0.118
REMARK SMILES CCCCCCCCCCCCCC[C@@H](C)C(=O)[O-]
REMARK SMILES IDX 9 1 10 2 11 3 12 4 13 5 14 6 15 7 16 8 17 9 18 10 19 11 8 12
REMARK SMILES IDX 7 13 6 14 5 15 4 16 3 17 2 18 1 19
REMARK H PARENT
REMARK Flexibility Score: inf
ROOT
ATOM      1  C   UNL     1       0.178   8.588  -6.929  1.00  0.00     0.000 C 
ENDROOT
BRANCH   1   2
ATOM      2  C   UNL     1       0.887   8.686  -5.569  1.00  0.00     0.000 C 
BRANCH   2   3
ATOM      3  C   UNL     1       0.134   7.934  -4.457  1.00  0.00     0.000 C 
BRANCH   3   4
ATOM      4  C   UNL     1       1.057   7.509  -3.305  1.00  0.00     0.000 C 
BRANCH   4   5
ATOM      5  C   UNL     1       2.548   7.606  -3.677  1.00  0.00     0.001 C 
BRANCH   5   6
ATOM      6  C   UNL     1       3.480   7.285  -2.494  1.00  0.00     0.009 C 
BRANCH   6   7
ATOM      7  C   UNL     1       4.977   7.536  -2.784  1.00  0.00     0.032 C 
ATOM      8  C   UNL     1       5.606   8.377  -1.667  1.00  0.00     0.014 C 
BRANCH   7   9
ATOM      9  C   UNL     1       5.736   6.246  -2.945  1.00  0.00     0.044 C 
ATOM     10  O   UNL     1       6.761   6.014  -2.247  1.00  0.00    -0.550 OA
ATOM     11  O   UNL     1       5.303   5.297  -3.861  1.00  0.00    -0.550 OA
ENDBRANCH   7   9
ENDBRANCH   6   7
ENDBRANCH   5   6
ENDBRANCH   4   5
ENDBRANCH   3   4
ENDBRANCH   2   3
ENDBRANCH   1   2
BRANCH   1  12
ATOM     12  C   UNL     1       1.167   8.520  -8.106  1.00  0.00     0.000 C 
BRANCH  12  13
ATOM     13  C   UNL     1       2.617   8.797  -7.676  1.00  0.00    -0.000 C 
BRANCH  13  14
ATOM     14  C   UNL     1       3.460   9.415  -8.800  1.00  0.00    -0.000 C 
BRANCH  14  15
ATOM     15  C   UNL     1       2.643   9.534 -10.096  1.00  0.00    -0.000 C 
BRANCH  15  16
ATOM     16  C   UNL     1       3.495   9.969 -11.299  1.00  0.00    -0.000 C 
BRANCH  16  17
ATOM     17  C   UNL     1       2.934   9.459 -12.637  1.00  0.00    -0.000 C 
BRANCH  17  18
ATOM     18  C   UNL     1       2.339  10.587 -13.494  1.00  0.00    -0.003 C 
ATOM     19  C   UNL     1       2.667  11.978 -12.956  1.00  0.00     0.004 C 
ENDBRANCH  17  18
ENDBRANCH  16  17
ENDBRANCH  15  16
ENDBRANCH  14  15
ENDBRANCH  13  14
ENDBRANCH  12  13
ENDBRANCH   1  12
TORSDOF 14
ENDMDL
MODEL 4
REMARK VINA RESULT:    11.515      2.985      7.870
REMARK INTER + INTRA:          20.822
REMARK INTER:                  21.639
REMARK INTRA:                  -0.817
REMARK UNBOUND:                -0.118
REMARK SMILES CCCCCCCCCCCCCC[C@@H](C)C(=O)[O-]
REMARK SMILES IDX 9 1 10 2 11 3 12 4 13 5 14 6 15 7 16 8 17 9 18 10 19 11 8 12
REMARK SMILES IDX 7 13 6 14 5 15 4 16 3 17 2 18 1 19
REMARK H PARENT
REMARK Flexibility Score: inf
ROOT
ATOM      1  C   UNL     1       0.258   8.421  -6.806  1.00  0.00     0.000 C 
ENDROOT
BRANCH   1   2
ATOM      2  C   UNL     1       0.946   8.884  -5.511  1.00  0.00     0.000 C 
BRANCH   2   3
ATOM      3  C   UNL     1       0.389   8.177  -4.263  1.00  0.00     0.000 C 
BRANCH   3   4
ATOM      4  C   UNL     1       1.323   7.073  -3.745  1.00  0.00     0.000 C 
BRANCH   4   5
ATOM      5  C   UNL     1       2.739   7.595  -3.439  1.00  0.00     0.001 C 
BRANCH   5   6
ATOM      6  C   UNL     1       3.312   7.030  -2.126  1.00  0.00     0.009 C 
BRANCH   6   7
ATOM      7  C   UNL     1       4.846   6.844  -2.136  1.00  0.00     0.032 C 
ATOM      8  C   UNL     1       5.279   6.018  -3.354  1.00  0.00     0.014 C 
BRANCH   7   9
ATOM      9  C   UNL     1       5.567   8.165  -2.130  1.00  0.00     0.044 C 
ATOM     10  O   UNL     1       5.858   8.741  -3.213  1.00  0.00    -0.550 OA
ATOM     11  O   UNL     1       5.907   8.764  -0.924  1.00  0.00    -0.550 OA
ENDBRANCH   7   9
ENDBRANCH   6   7
ENDBRANCH   5   6
ENDBRANCH   4   5
ENDBRANCH   3   4
ENDBRANCH   2   3
ENDBRANCH   1   2
BRANCH   1  12
ATOM     12  C   UNL     1       1.216   8.408  -8.010  1.00  0.00     0.000 C 
BRANCH  12  13
ATOM     13  C   UNL     1       2.605   8.967  -7.666  1.00  0.00    -0.000 C 
BRANCH  13  14
ATOM     14  C   UNL     1       3.495   9.145  -8.904  1.00  0.00    -0.000 C 
BRANCH  14  15
ATOM     15  C   UNL     1       2.689   9.715 -10.082  1.00  0.00    -0.000 C 
BRANCH  15  16
ATOM     16  C   UNL     1       3.575  10.115 -11.271  1.00  0.00    -0.000 C 
BRANCH  16  17
ATOM     17  C   UNL     1       3.077   9.531 -12.604  1.00  0.00    -0.000 C 
BRANCH  17  18
ATOM     18  C   UNL     1       2.219  10.527 -13.400  1.00  0.00    -0.003 C 
ATOM     19  C   UNL     1       2.626  11.981 -13.165  1.00  0.00     0.004 C 
ENDBRANCH  17  18
ENDBRANCH  16  17
ENDBRANCH  15  16
ENDBRANCH  14  15
ENDBRANCH  13  14
ENDBRANCH  12  13
ENDBRANCH   1  12
TORSDOF 14
ENDMDL
MODEL 5
REMARK VINA RESULT:    11.827      1.289      2.370
REMARK INTER + INTRA:          21.388
REMARK INTER:                  21.898
REMARK INTRA:                  -0.510
REMARK UNBOUND:                -0.118
REMARK SMILES CCCCCCCCCCCCCC[C@@H](C)C(=O)[O-]
REMARK SMILES IDX 9 1 10 2 11 3 12 4 13 5 14 6 15 7 16 8 17 9 18 10 19 11 8 12
REMARK SMILES IDX 7 13 6 14 5 15 4 16 3 17 2 18 1 19
REMARK H PARENT
REMARK Flexibility Score: inf
ROOT
ATOM      1  C   UNL     1       4.477   7.956  -2.121  1.00  0.00     0.000 C 
ENDROOT
BRANCH   1   2
ATOM      2  C   UNL     1       3.567   6.774  -1.750  1.00  0.00     0.000 C 
BRANCH   2   3
ATOM      3  C   UNL     1       2.520   6.472  -2.836  1.00  0.00     0.000 C 
BRANCH   3   4
ATOM      4  C   UNL     1       2.046   7.740  -3.564  1.00  0.00     0.000 C 
BRANCH   4   5
ATOM      5  C   UNL     1       0.529   7.736  -3.826  1.00  0.00     0.001 C 
BRANCH   5   6
ATOM      6  C   UNL     1       0.176   7.382  -5.283  1.00  0.00     0.009 C 
BRANCH   6   7
ATOM      7  C   UNL     1       0.188   8.590  -6.247  1.00  0.00     0.032 C 
ATOM      8  C   UNL     1       0.501   9.882  -5.483  1.00  0.00     0.014 C 
BRANCH   7   9
ATOM      9  C   UNL     1       1.180   8.400  -7.363  1.00  0.00     0.044 C 
ATOM     10  O   UNL     1       2.402   8.659  -7.185  1.00  0.00    -0.550 OA
ATOM     11  O   UNL     1       0.754   7.928  -8.597  1.00  0.00    -0.550 OA
ENDBRANCH   7   9
ENDBRANCH   6   7
ENDBRANCH   5   6
ENDBRANCH   4   5
ENDBRANCH   3   4
ENDBRANCH   2   3
ENDBRANCH   1   2
BRANCH   1  12
ATOM     12  C   UNL     1       5.889   7.506  -2.535  1.00  0.00     0.000 C 
BRANCH  12  13
ATOM     13  C   UNL     1       6.025   5.976  -2.603  1.00  0.00    -0.000 C 
BRANCH  13  14
ATOM     14  C   UNL     1       5.611   5.406  -3.967  1.00  0.00    -0.000 C 
BRANCH  14  15
ATOM     15  C   UNL     1       6.484   4.199  -4.345  1.00  0.00    -0.000 C 
BRANCH  15  16
ATOM     16  C   UNL     1       6.729   3.248  -3.162  1.00  0.00    -0.000 C 
BRANCH  16  17
ATOM     17  C   UNL     1       7.528   1.997  -3.565  1.00  0.00    -0.000 C 
BRANCH  17  18
ATOM     18  C   UNL     1       6.815   1.165  -4.642  1.00  0.00    -0.003 C 
ATOM     19  C   UNL     1       7.672   0.948  -5.888  1.00  0.00     0.004 C 
ENDBRANCH  17  18
ENDBRANCH  16  17
ENDBRANCH  15  16
ENDBRANCH  14  15
ENDBRANCH  13  14
ENDBRANCH  12  13
ENDBRANCH   1  12
TORSDOF 14
ENDMDL
MODEL 6
REMARK VINA RESULT:    12.210      3.066      7.247
REMARK INTER + INTRA:          22.085
REMARK INTER:                  22.551
REMARK INTRA:                  -0.466
REMARK UNBOUND:                -0.118
REMARK SMILES CCCCCCCCCCCCCC[C@@H](C)C(=O)[O-]
REMARK SMILES IDX 9 1 10 2 11 3 12 4 13 5 14 6 15 7 16 8 17 9 18 10 19 11 8 12
REMARK SMILES IDX 7 13 6 14 5 15 4 16 3 17 2 18 1 19
REMARK H PARENT
REMARK Flexibility Score: inf
ROOT
ATOM      1  C   UNL     1       2.682   7.642  -3.324  1.00  0.00     0.000 C 
ENDROOT
BRANCH   1   2
ATOM      2  C   UNL     1       3.341   6.890  -2.157  1.00  0.00     0.000 C 
BRANCH   2   3
ATOM      3  C   UNL     1       4.493   7.686  -1.518  1.00  0.00     0.000 C 
BRANCH   3   4
ATOM      4  C   UNL     1       5.842   7.422  -2.205  1.00  0.00     0.000 C 
BRANCH   4   5
ATOM      5  C   UNL     1       5.735   6.384  -3.337  1.00  0.00     0.001 C 
BRANCH   5   6
ATOM      6  C   UNL     1       6.495   5.082  -3.025  1.00  0.00     0.009 C 
BRANCH   6   7
ATOM      7  C   UNL     1       6.044   3.869  -3.871  1.00  0.00     0.032 C 
ATOM      8  C   UNL     1       6.034   4.230  -5.362  1.00  0.00     0.014 C 
BRANCH   7   9
ATOM      9  C   UNL     1       6.925   2.671  -3.639  1.00  0.00     0.044 C 
ATOM     10  O   UNL     1       7.238   1.911  -4.595  1.00  0.00    -0.550 OA
ATOM     11  O   UNL     1       7.406   2.401  -2.365  1.00  0.00    -0.550 OA
ENDBRANCH   7   9
ENDBRANCH   6   7
ENDBRANCH   5   6
ENDBRANCH   4   5
ENDBRANCH   3   4
ENDBRANCH   2   3
ENDBRANCH   1   2
BRANCH   1  12
ATOM     12  C   UNL     1       1.329   7.032  -3.730  1.00  0.00     0.000 C 
BRANCH  12  13
ATOM     13  C   UNL     1       0.148   7.973  -3.445  1.00  0.00    -0.000 C 
BRANCH  13  14
ATOM     14  C   UNL     1       0.108   9.177  -4.397  1.00  0.00    -0.000 C 
BRANCH  14  15
ATOM     15  C   UNL     1       0.990   8.930  -5.631  1.00  0.00    -0.000 C 
BRANCH  15  16
ATOM     16  C   UNL     1       0.190   8.427  -6.843  1.00  0.00    -0.000 C 
BRANCH  16  17
ATOM     17  C   UNL     1       1.044   8.336  -8.119  1.00  0.00    -0.000 C 
BRANCH  17  18
ATOM     18  C   UNL     1       2.490   8.805  -7.895  1.00  0.00    -0.003 C 
ATOM     19  C   UNL     1       3.133   9.368  -9.162  1.00  0.00     0.004 C 
ENDBRANCH  17  18
ENDBRANCH  16  17
ENDBRANCH  15  16
ENDBRANCH  14  15
ENDBRANCH  13  14
ENDBRANCH  12  13
ENDBRANCH   1  12
TORSDOF 14
ENDMDL
MODEL 7
REMARK VINA RESULT:    12.363      2.349      7.747
REMARK INTER + INTRA:          22.363
REMARK INTER:                  22.986
REMARK INTRA:                  -0.624
REMARK UNBOUND:                -0.118
REMARK SMILES CCCCCCCCCCCCCC[C@@H](C)C(=O)[O-]
REMARK SMILES IDX 9 1 10 2 11 3 12 4 13 5 14 6 15 7 16 8 17 9 18 10 19 11 8 12
REMARK SMILES IDX 7 13 6 14 5 15 4 16 3 17 2 18 1 19
REMARK H PARENT
REMARK Flexibility Score: inf
ROOT
ATOM      1  C   UNL     1       1.365   7.287  -3.498  1.00  0.00     0.000 C 
ENDROOT
BRANCH   1   2
ATOM      2  C   UNL     1       2.850   7.682  -3.512  1.00  0.00     0.000 C 
BRANCH   2   3
ATOM      3  C   UNL     1       3.630   7.086  -2.327  1.00  0.00     0.000 C 
BRANCH   3   4
ATOM      4  C   UNL     1       5.079   7.591  -2.262  1.00  0.00     0.000 C 
BRANCH   4   5
ATOM      5  C   UNL     1       6.105   6.473  -2.518  1.00  0.00     0.001 C 
BRANCH   5   6
ATOM      6  C   UNL     1       5.538   5.329  -3.379  1.00  0.00     0.009 C 
BRANCH   6   7
ATOM      7  C   UNL     1       6.609   4.351  -3.915  1.00  0.00     0.032 C 
ATOM      8  C   UNL     1       6.957   3.302  -2.852  1.00  0.00     0.014 C 
BRANCH   7   9
ATOM      9  C   UNL     1       6.157   3.671  -5.179  1.00  0.00     0.044 C 
ATOM     10  O   UNL     1       5.432   4.281  -6.011  1.00  0.00    -0.550 OA
ATOM     11  O   UNL     1       6.546   2.364  -5.440  1.00  0.00    -0.550 OA
ENDBRANCH   7   9
ENDBRANCH   6   7
ENDBRANCH   5   6
ENDBRANCH   4   5
ENDBRANCH   3   4
ENDBRANCH   2   3
ENDBRANCH   1   2
BRANCH   1  12
ATOM     12  C   UNL     1       0.470   8.329  -4.193  1.00  0.00     0.000 C 
BRANCH  12  13
ATOM     13  C   UNL     1       0.275   8.036  -5.689  1.00  0.00    -0.000 C 
BRANCH  13  14
ATOM     14  C   UNL     1       1.208   8.869  -6.581  1.00  0.00    -0.000 C 
BRANCH  14  15
ATOM     15  C   UNL     1       1.251   8.302  -8.008  1.00  0.00    -0.000 C 
BRANCH  15  16
ATOM     16  C   UNL     1      -0.105   8.389  -8.725  1.00  0.00    -0.000 C 
BRANCH  16  17
ATOM     17  C   UNL     1       0.038   8.640 -10.236  1.00  0.00    -0.000 C 
BRANCH  17  18
ATOM     18  C   UNL     1      -0.878   7.734 -11.073  1.00  0.00    -0.003 C 
ATOM     19  C   UNL     1      -0.485   7.696 -12.549  1.00  0.00     0.004 C 
ENDBRANCH  17  18
ENDBRANCH  16  17
ENDBRANCH  15  16
ENDBRANCH  14  15
ENDBRANCH  13  14
ENDBRANCH  12  13
ENDBRANCH   1  12
TORSDOF 14
ENDMDL
MODEL 8
REMARK VINA RESULT:    12.569      2.662      8.008
REMARK INTER + INTRA:          22.737
REMARK INTER:                  23.522
REMARK INTRA:                  -0.785
REMARK UNBOUND:                -0.118
REMARK SMILES CCCCCCCCCCCCCC[C@@H](C)C(=O)[O-]
REMARK SMILES IDX 9 1 10 2 11 3 12 4 13 5 14 6 15 7 16 8 17 9 18 10 19 11 8 12
REMARK SMILES IDX 7 13 6 14 5 15 4 16 3 17 2 18 1 19
REMARK H PARENT
REMARK Flexibility Score: inf
ROOT
ATOM      1  C   UNL     1       0.143   9.361  -5.628  1.00  0.00     0.000 C 
ENDROOT
BRANCH   1   2
ATOM      2  C   UNL     1       0.002   8.774  -4.214  1.00  0.00     0.000 C 
BRANCH   2   3
ATOM      3  C   UNL     1       0.142   7.242  -4.196  1.00  0.00     0.000 C 
BRANCH   3   4
ATOM      4  C   UNL     1       1.228   6.762  -3.221  1.00  0.00     0.000 C 
BRANCH   4   5
ATOM      5  C   UNL     1       2.523   7.588  -3.328  1.00  0.00     0.001 C 
BRANCH   5   6
ATOM      6  C   UNL     1       3.568   7.198  -2.267  1.00  0.00     0.009 C 
BRANCH   6   7
ATOM      7  C   UNL     1       5.028   7.492  -2.681  1.00  0.00     0.032 C 
ATOM      8  C   UNL     1       5.715   8.375  -1.632  1.00  0.00     0.014 C 
BRANCH   7   9
ATOM      9  C   UNL     1       5.816   6.225  -2.881  1.00  0.00     0.044 C 
ATOM     10  O   UNL     1       5.447   5.369  -3.729  1.00  0.00    -0.550 OA
ATOM     11  O   UNL     1       6.964   5.998  -2.133  1.00  0.00    -0.550 OA
ENDBRANCH   7   9
ENDBRANCH   6   7
ENDBRANCH   5   6
ENDBRANCH   4   5
ENDBRANCH   3   4
ENDBRANCH   2   3
ENDBRANCH   1   2
BRANCH   1  12
ATOM     12  C   UNL     1       1.447   8.927  -6.319  1.00  0.00     0.000 C 
BRANCH  12  13
ATOM     13  C   UNL     1       1.197   8.019  -7.534  1.00  0.00    -0.000 C 
BRANCH  13  14
ATOM     14  C   UNL     1       0.038   8.512  -8.412  1.00  0.00    -0.000 C 
BRANCH  14  15
ATOM     15  C   UNL     1       0.351   8.304  -9.902  1.00  0.00    -0.000 C 
BRANCH  15  16
ATOM     16  C   UNL     1      -0.900   8.392 -10.791  1.00  0.00    -0.000 C 
BRANCH  16  17
ATOM     17  C   UNL     1      -0.997   7.227 -11.790  1.00  0.00    -0.000 C 
BRANCH  17  18
ATOM     18  C   UNL     1      -0.130   7.447 -13.039  1.00  0.00    -0.003 C 
ATOM     19  C   UNL     1      -0.393   8.793 -13.714  1.00  0.00     0.004 C 
ENDBRANCH  17  18
ENDBRANCH  16  17
ENDBRANCH  15  16
ENDBRANCH  14  15
ENDBRANCH  13  14
ENDBRANCH  12  13
ENDBRANCH   1  12
TORSDOF 14
ENDMDL
