MODEL 1
REMARK VINA RESULT:    -4.481      0.000      0.000
REMARK INTER + INTRA:          -6.346
REMARK INTER:                  -5.791
REMARK INTRA:                  -0.555
REMARK UNBOUND:                -0.555
REMARK SMILES C=CC(=O)CCCCC
REMARK SMILES IDX 6 1 7 2 8 3 9 4 5 5 3 6 4 7 2 8 1 9
REMARK H PARENT
REMARK Flexibility Score: inf
ROOT
ATOM      1  C   UNL     1       8.034  30.576  36.855  1.00  0.00     0.008 C 
ENDROOT
BRANCH   1   2
ATOM      2  C   UNL     1       9.400  30.831  36.194  1.00  0.00     0.000 C 
BRANCH   2   3
ATOM      3  C   UNL     1      10.125  32.060  36.757  1.00  0.00    -0.003 C 
ATOM      4  C   UNL     1      10.047  32.097  38.280  1.00  0.00     0.004 C 
ENDBRANCH   2   3
ENDBRANCH   1   2
BRANCH   1   5
ATOM      5  C   UNL     1       6.899  31.464  36.302  1.00  0.00     0.080 C 
BRANCH   5   6
ATOM      6  C   UNL     1       6.392  32.494  37.287  1.00  0.00     0.155 C 
ATOM      7  O   UNL     1       6.000  32.128  38.428  1.00  0.00    -0.295 OA
BRANCH   6   8
ATOM      8  C   UNL     1       6.392  33.940  36.988  1.00  0.00     0.039 C 
ATOM      9  C   UNL     1       7.486  34.629  36.662  1.00  0.00     0.012 C 
ENDBRANCH   6   8
ENDBRANCH   5   6
ENDBRANCH   1   5
TORSDOF 5
ENDMDL
MODEL 2
REMARK VINA RESULT:    -4.411      1.831      3.712
REMARK INTER + INTRA:          -6.255
REMARK INTER:                  -5.988
REMARK INTRA:                  -0.266
REMARK UNBOUND:                -0.555
REMARK SMILES C=CC(=O)CCCCC
REMARK SMILES IDX 6 1 7 2 8 3 9 4 5 5 3 6 4 7 2 8 1 9
REMARK H PARENT
REMARK Flexibility Score: inf
ROOT
ATOM      1  C   UNL     1       6.944  31.506  37.431  1.00  0.00     0.008 C 
ENDROOT
BRANCH   1   2
ATOM      2  C   UNL     1       6.040  32.703  37.086  1.00  0.00     0.000 C 
BRANCH   2   3
ATOM      3  C   UNL     1       6.799  33.868  36.438  1.00  0.00    -0.003 C 
ATOM      4  C   UNL     1       6.724  35.123  37.301  1.00  0.00     0.004 C 
ENDBRANCH   2   3
ENDBRANCH   1   2
BRANCH   1   5
ATOM      5  C   UNL     1       7.692  30.919  36.216  1.00  0.00     0.080 C 
BRANCH   5   6
ATOM      6  C   UNL     1       9.197  30.922  36.363  1.00  0.00     0.155 C 
ATOM      7  O   UNL     1       9.874  29.977  35.876  1.00  0.00    -0.295 OA
BRANCH   6   8
ATOM      8  C   UNL     1       9.926  32.032  37.010  1.00  0.00     0.039 C 
ATOM      9  C   UNL     1      10.125  32.120  38.325  1.00  0.00     0.012 C 
ENDBRANCH   6   8
ENDBRANCH   5   6
ENDBRANCH   1   5
TORSDOF 5
ENDMDL
MODEL 3
REMARK VINA RESULT:    -4.389     16.676     17.592
REMARK INTER + INTRA:          -6.226
REMARK INTER:                  -5.920
REMARK INTRA:                  -0.307
REMARK UNBOUND:                -0.555
REMARK SMILES C=CC(=O)CCCCC
REMARK SMILES IDX 6 1 7 2 8 3 9 4 5 5 3 6 4 7 2 8 1 9
REMARK H PARENT
REMARK Flexibility Score: inf
ROOT
ATOM      1  C   UNL     1      -8.777  32.515  43.690  1.00  0.00     0.008 C 
ENDROOT
BRANCH   1   2
ATOM      2  C   UNL     1      -7.784  32.822  42.556  1.00  0.00     0.000 C 
BRANCH   2   3
ATOM      3  C   UNL     1      -7.661  34.320  42.249  1.00  0.00    -0.003 C 
ATOM      4  C   UNL     1      -8.777  35.114  42.920  1.00  0.00     0.004 C 
ENDBRANCH   2   3
ENDBRANCH   1   2
BRANCH   1   5
ATOM      5  C   UNL     1      -9.238  31.043  43.733  1.00  0.00     0.080 C 
BRANCH   5   6
ATOM      6  C   UNL     1      -8.137  30.066  44.081  1.00  0.00     0.155 C 
ATOM      7  O   UNL     1      -7.448  30.246  45.121  1.00  0.00    -0.295 OA
BRANCH   6   8
ATOM      8  C   UNL     1      -7.869  28.857  43.275  1.00  0.00     0.039 C 
ATOM      9  C   UNL     1      -7.922  28.828  41.943  1.00  0.00     0.012 C 
ENDBRANCH   6   8
ENDBRANCH   5   6
ENDBRANCH   1   5
TORSDOF 5
ENDMDL
MODEL 4
REMARK VINA RESULT:    -4.240     16.591     17.756
REMARK INTER + INTRA:          -6.034
REMARK INTER:                  -5.598
REMARK INTRA:                  -0.436
REMARK UNBOUND:                -0.555
REMARK SMILES C=CC(=O)CCCCC
REMARK SMILES IDX 6 1 7 2 8 3 9 4 5 5 3 6 4 7 2 8 1 9
REMARK H PARENT
REMARK Flexibility Score: inf
ROOT
ATOM      1  C   UNL     1      -8.159  31.924  41.282  1.00  0.00     0.008 C 
ENDROOT
BRANCH   1   2
ATOM      2  C   UNL     1      -7.579  33.294  41.675  1.00  0.00     0.000 C 
BRANCH   2   3
ATOM      3  C   UNL     1      -8.615  34.424  41.632  1.00  0.00    -0.003 C 
ATOM      4  C   UNL     1      -8.725  35.124  42.983  1.00  0.00     0.004 C 
ENDBRANCH   2   3
ENDBRANCH   1   2
BRANCH   1   5
ATOM      5  C   UNL     1      -9.455  31.556  42.036  1.00  0.00     0.080 C 
BRANCH   5   6
ATOM      6  C   UNL     1      -9.252  31.296  43.512  1.00  0.00     0.155 C 
ATOM      7  O   UNL     1      -9.875  31.991  44.360  1.00  0.00    -0.295 OA
BRANCH   6   8
ATOM      8  C   UNL     1      -8.387  30.208  44.012  1.00  0.00     0.039 C 
ATOM      9  C   UNL     1      -7.477  30.367  44.972  1.00  0.00     0.012 C 
ENDBRANCH   6   8
ENDBRANCH   5   6
ENDBRANCH   1   5
TORSDOF 5
ENDMDL
MODEL 5
REMARK VINA RESULT:    -4.231     16.259     17.379
REMARK INTER + INTRA:          -6.022
REMARK INTER:                  -5.653
REMARK INTRA:                  -0.369
REMARK UNBOUND:                -0.555
REMARK SMILES C=CC(=O)CCCCC
REMARK SMILES IDX 6 1 7 2 8 3 9 4 5 5 3 6 4 7 2 8 1 9
REMARK H PARENT
REMARK Flexibility Score: inf
ROOT
ATOM      1  C   UNL     1      -8.096  30.244  44.093  1.00  0.00     0.008 C 
ENDROOT
BRANCH   1   2
ATOM      2  C   UNL     1      -7.995  28.924  43.309  1.00  0.00     0.000 C 
BRANCH   2   3
ATOM      3  C   UNL     1      -7.530  29.115  41.859  1.00  0.00    -0.003 C 
ATOM      4  C   UNL     1      -8.630  28.736  40.873  1.00  0.00     0.004 C 
ENDBRANCH   2   3
ENDBRANCH   1   2
BRANCH   1   5
ATOM      5  C   UNL     1      -9.334  31.090  43.731  1.00  0.00     0.080 C 
BRANCH   5   6
ATOM      6  C   UNL     1      -9.062  32.168  42.705  1.00  0.00     0.155 C 
ATOM      7  O   UNL     1      -9.646  32.130  41.589  1.00  0.00    -0.295 OA
BRANCH   6   8
ATOM      8  C   UNL     1      -8.171  33.314  42.981  1.00  0.00     0.039 C 
ATOM      9  C   UNL     1      -7.103  33.616  42.243  1.00  0.00     0.012 C 
ENDBRANCH   6   8
ENDBRANCH   5   6
ENDBRANCH   1   5
TORSDOF 5
ENDMDL
MODEL 6
REMARK VINA RESULT:    -4.092     16.423     17.248
REMARK INTER + INTRA:          -5.843
REMARK INTER:                  -5.550
REMARK INTRA:                  -0.293
REMARK UNBOUND:                -0.555
REMARK SMILES C=CC(=O)CCCCC
REMARK SMILES IDX 6 1 7 2 8 3 9 4 5 5 3 6 4 7 2 8 1 9
REMARK H PARENT
REMARK Flexibility Score: inf
ROOT
ATOM      1  C   UNL     1      -9.304  31.485  42.032  1.00  0.00     0.008 C 
ENDROOT
BRANCH   1   2
ATOM      2  C   UNL     1      -9.413  30.817  43.414  1.00  0.00     0.000 C 
BRANCH   2   3
ATOM      3  C   UNL     1      -8.082  30.238  43.913  1.00  0.00    -0.003 C 
ATOM      4  C   UNL     1      -7.884  28.807  43.421  1.00  0.00     0.004 C 
ENDBRANCH   2   3
ENDBRANCH   1   2
BRANCH   1   5
ATOM      5  C   UNL     1      -7.885  31.987  41.693  1.00  0.00     0.080 C 
BRANCH   5   6
ATOM      6  C   UNL     1      -7.825  33.452  41.322  1.00  0.00     0.155 C 
ATOM      7  O   UNL     1      -7.912  33.794  40.112  1.00  0.00    -0.295 OA
BRANCH   6   8
ATOM      8  C   UNL     1      -7.728  34.521  42.337  1.00  0.00     0.039 C 
ATOM      9  C   UNL     1      -8.785  35.125  42.880  1.00  0.00     0.012 C 
ENDBRANCH   6   8
ENDBRANCH   5   6
ENDBRANCH   1   5
TORSDOF 5
ENDMDL
MODEL 7
REMARK VINA RESULT:    -4.002     16.357     17.093
REMARK INTER + INTRA:          -5.727
REMARK INTER:                  -5.182
REMARK INTRA:                  -0.544
REMARK UNBOUND:                -0.555
REMARK SMILES C=CC(=O)CCCCC
REMARK SMILES IDX 6 1 7 2 8 3 9 4 5 5 3 6 4 7 2 8 1 9
REMARK H PARENT
REMARK Flexibility Score: inf
ROOT
ATOM      1  C   UNL     1      -7.910  31.465  43.994  1.00  0.00     0.008 C 
ENDROOT
BRANCH   1   2
ATOM      2  C   UNL     1      -8.771  30.210  43.771  1.00  0.00     0.000 C 
BRANCH   2   3
ATOM      3  C   UNL     1      -7.954  28.984  43.343  1.00  0.00    -0.003 C 
ATOM      4  C   UNL     1      -7.629  29.030  41.853  1.00  0.00     0.004 C 
ENDBRANCH   2   3
ENDBRANCH   1   2
BRANCH   1   5
ATOM      5  C   UNL     1      -8.435  32.719  43.264  1.00  0.00     0.080 C 
BRANCH   5   6
ATOM      6  C   UNL     1      -7.741  32.999  41.950  1.00  0.00     0.155 C 
ATOM      7  O   UNL     1      -6.658  33.643  41.940  1.00  0.00    -0.295 OA
BRANCH   6   8
ATOM      8  C   UNL     1      -8.255  32.490  40.661  1.00  0.00     0.039 C 
ATOM      9  C   UNL     1      -9.471  31.969  40.503  1.00  0.00     0.012 C 
ENDBRANCH   6   8
ENDBRANCH   5   6
ENDBRANCH   1   5
TORSDOF 5
ENDMDL
MODEL 8
REMARK VINA RESULT:    -2.350      1.564      3.813
REMARK INTER + INTRA:          -3.592
REMARK INTER:                  -3.075
REMARK INTRA:                  -0.517
REMARK UNBOUND:                -0.555
REMARK SMILES C=CC(=O)CCCCC
REMARK SMILES IDX 6 1 7 2 8 3 9 4 5 5 3 6 4 7 2 8 1 9
REMARK H PARENT
REMARK Flexibility Score: inf
ROOT
ATOM      1  C   UNL     1       8.603  33.587  37.045  1.00  0.00     0.008 C 
ENDROOT
BRANCH   1   2
ATOM      2  C   UNL     1       7.517  33.492  35.959  1.00  0.00     0.000 C 
BRANCH   2   3
ATOM      3  C   UNL     1       6.093  33.449  36.529  1.00  0.00    -0.003 C 
ATOM      4  C   UNL     1       6.003  32.498  37.717  1.00  0.00     0.004 C 
ENDBRANCH   2   3
ENDBRANCH   1   2
BRANCH   1   5
ATOM      5  C   UNL     1       9.702  32.511  36.923  1.00  0.00     0.080 C 
BRANCH   5   6
ATOM      6  C   UNL     1       9.230  31.113  37.254  1.00  0.00     0.155 C 
ATOM      7  O   UNL     1       9.077  30.774  38.459  1.00  0.00    -0.295 OA
BRANCH   6   8
ATOM      8  C   UNL     1       8.878  30.130  36.209  1.00  0.00     0.039 C 
ATOM      9  C   UNL     1       7.625  29.821  35.875  1.00  0.00     0.012 C 
ENDBRANCH   6   8
ENDBRANCH   5   6
ENDBRANCH   1   5
TORSDOF 5
ENDMDL
