MODEL 1
REMARK VINA RESULT:    -6.894      0.000      0.000
REMARK INTER + INTRA:          -6.894
REMARK INTER:                  -6.894
REMARK INTRA:                   0.000
REMARK UNBOUND:                 0.000
REMARK SMILES C=C1CCC[C@]2(C)CC(=O)C(=C(C)C)C[C@@H]12
REMARK SMILES IDX 13 1 12 2 11 3 15 4 16 5 2 6 1 7 3 8 4 9 5 10 6 11 8 12 9 13
REMARK SMILES IDX 10 14 7 15 14 16
REMARK H PARENT
REMARK Flexibility Score: inf
ROOT
ATOM      1  C   UNL     1      10.875 -30.623  21.246  1.00  0.00     0.039 C 
ATOM      2  C   UNL     1      11.876 -30.078  22.239  1.00  0.00    -0.070 C 
ATOM      3  C   UNL     1      13.133 -30.603  22.339  1.00  0.00    -0.006 C 
ATOM      4  C   UNL     1      13.565 -31.776  21.468  1.00  0.00     0.047 C 
ATOM      5  C   UNL     1      14.659 -32.662  22.123  1.00  0.00     0.025 C 
ATOM      6  C   UNL     1      15.197 -33.780  21.225  1.00  0.00    -0.073 C 
ATOM      7  C   UNL     1      14.671 -34.099  20.028  1.00  0.00     0.008 C 
ATOM      8  C   UNL     1      16.371 -34.591  21.725  1.00  0.00     0.031 C 
ATOM      9  C   UNL     1      16.698 -34.266  23.183  1.00  0.00     0.005 C 
ATOM     10  C   UNL     1      16.915 -32.759  23.403  1.00  0.00     0.008 C 
ATOM     11  C   UNL     1      15.853 -31.829  22.704  1.00  0.00    -0.018 C 
ATOM     12  C   UNL     1      15.290 -30.841  23.755  1.00  0.00     0.088 C 
ATOM     13  C   UNL     1      14.184 -29.992  23.201  1.00  0.00     0.159 C 
ATOM     14  O   UNL     1      14.179 -28.759  23.467  1.00  0.00    -0.295 OA
ATOM     15  C   UNL     1      16.568 -31.027  21.580  1.00  0.00     0.012 C 
ATOM     16  C   UNL     1      11.408 -28.954  23.135  1.00  0.00     0.039 C 
ENDROOT
TORSDOF 0
ENDMDL
MODEL 2
REMARK VINA RESULT:    -6.644      2.286      5.425
REMARK INTER + INTRA:          -6.644
REMARK INTER:                  -6.644
REMARK INTRA:                   0.000
REMARK UNBOUND:                 0.000
REMARK SMILES C=C1CCC[C@]2(C)CC(=O)C(=C(C)C)C[C@@H]12
REMARK SMILES IDX 13 1 12 2 11 3 15 4 16 5 2 6 1 7 3 8 4 9 5 10 6 11 8 12 9 13
REMARK SMILES IDX 10 14 7 15 14 16
REMARK H PARENT
REMARK Flexibility Score: inf
ROOT
ATOM      1  C   UNL     1      19.337 -32.129  20.875  1.00  0.00     0.039 C 
ATOM      2  C   UNL     1      18.223 -33.096  21.207  1.00  0.00    -0.070 C 
ATOM      3  C   UNL     1      16.971 -32.653  21.525  1.00  0.00    -0.006 C 
ATOM      4  C   UNL     1      16.655 -31.164  21.580  1.00  0.00     0.047 C 
ATOM      5  C   UNL     1      15.509 -30.811  22.565  1.00  0.00     0.025 C 
ATOM      6  C   UNL     1      15.091 -29.338  22.557  1.00  0.00    -0.073 C 
ATOM      7  C   UNL     1      15.752 -28.375  21.887  1.00  0.00     0.008 C 
ATOM      8  C   UNL     1      13.881 -28.937  23.369  1.00  0.00     0.031 C 
ATOM      9  C   UNL     1      13.389 -30.087  24.249  1.00  0.00     0.005 C 
ATOM     10  C   UNL     1      13.126 -31.364  23.433  1.00  0.00     0.008 C 
ATOM     11  C   UNL     1      14.246 -31.721  22.383  1.00  0.00    -0.018 C 
ATOM     12  C   UNL     1      14.674 -33.194  22.594  1.00  0.00     0.088 C 
ATOM     13  C   UNL     1      15.821 -33.584  21.711  1.00  0.00     0.159 C 
ATOM     14  O   UNL     1      15.779 -34.699  21.123  1.00  0.00    -0.295 OA
ATOM     15  C   UNL     1      13.649 -31.561  20.957  1.00  0.00     0.012 C 
ATOM     16  C   UNL     1      18.572 -34.568  21.205  1.00  0.00     0.039 C 
ENDROOT
TORSDOF 0
ENDMDL
MODEL 3
REMARK VINA RESULT:    -6.613      2.555      5.107
REMARK INTER + INTRA:          -6.613
REMARK INTER:                  -6.613
REMARK INTRA:                   0.000
REMARK UNBOUND:                 0.000
REMARK SMILES C=C1CCC[C@]2(C)CC(=O)C(=C(C)C)C[C@@H]12
REMARK SMILES IDX 13 1 12 2 11 3 15 4 16 5 2 6 1 7 3 8 4 9 5 10 6 11 8 12 9 13
REMARK SMILES IDX 10 14 7 15 14 16
REMARK H PARENT
REMARK Flexibility Score: inf
ROOT
ATOM      1  C   UNL     1      15.671 -35.105  20.132  1.00  0.00     0.039 C 
ATOM      2  C   UNL     1      16.797 -34.099  20.053  1.00  0.00    -0.070 C 
ATOM      3  C   UNL     1      16.806 -32.982  20.839  1.00  0.00    -0.006 C 
ATOM      4  C   UNL     1      15.668 -32.696  21.810  1.00  0.00     0.047 C 
ATOM      5  C   UNL     1      15.456 -31.183  22.088  1.00  0.00     0.025 C 
ATOM      6  C   UNL     1      14.396 -30.870  23.148  1.00  0.00    -0.073 C 
ATOM      7  C   UNL     1      13.583 -31.796  23.691  1.00  0.00     0.008 C 
ATOM      8  C   UNL     1      14.237 -29.435  23.592  1.00  0.00     0.031 C 
ATOM      9  C   UNL     1      15.059 -28.483  22.722  1.00  0.00     0.005 C 
ATOM     10  C   UNL     1      16.539 -28.895  22.659  1.00  0.00     0.008 C 
ATOM     11  C   UNL     1      16.789 -30.434  22.434  1.00  0.00    -0.018 C 
ATOM     12  C   UNL     1      17.768 -30.611  21.248  1.00  0.00     0.088 C 
ATOM     13  C   UNL     1      17.971 -32.053  20.888  1.00  0.00     0.159 C 
ATOM     14  O   UNL     1      19.141 -32.457  20.650  1.00  0.00    -0.295 OA
ATOM     15  C   UNL     1      17.435 -31.020  23.721  1.00  0.00     0.012 C 
ATOM     16  C   UNL     1      17.886 -34.370  19.040  1.00  0.00     0.039 C 
ENDROOT
TORSDOF 0
ENDMDL
MODEL 4
REMARK VINA RESULT:    -6.610      1.801      3.314
REMARK INTER + INTRA:          -6.610
REMARK INTER:                  -6.610
REMARK INTRA:                   0.000
REMARK UNBOUND:                 0.000
REMARK SMILES C=C1CCC[C@]2(C)CC(=O)C(=C(C)C)C[C@@H]12
REMARK SMILES IDX 13 1 12 2 11 3 15 4 16 5 2 6 1 7 3 8 4 9 5 10 6 11 8 12 9 13
REMARK SMILES IDX 10 14 7 15 14 16
REMARK H PARENT
REMARK Flexibility Score: inf
ROOT
ATOM      1  C   UNL     1      16.159 -28.250  22.929  1.00  0.00     0.039 C 
ATOM      2  C   UNL     1      15.076 -29.302  23.009  1.00  0.00    -0.070 C 
ATOM      3  C   UNL     1      15.311 -30.591  22.624  1.00  0.00    -0.006 C 
ATOM      4  C   UNL     1      16.668 -31.012  22.076  1.00  0.00     0.047 C 
ATOM      5  C   UNL     1      16.593 -32.210  21.092  1.00  0.00     0.025 C 
ATOM      6  C   UNL     1      17.952 -32.730  20.614  1.00  0.00    -0.073 C 
ATOM      7  C   UNL     1      19.123 -32.119  20.876  1.00  0.00     0.008 C 
ATOM      8  C   UNL     1      17.977 -33.989  19.778  1.00  0.00     0.031 C 
ATOM      9  C   UNL     1      16.568 -34.425  19.375  1.00  0.00     0.005 C 
ATOM     10  C   UNL     1      15.641 -34.572  20.593  1.00  0.00     0.008 C 
ATOM     11  C   UNL     1      15.734 -33.399  21.641  1.00  0.00    -0.018 C 
ATOM     12  C   UNL     1      14.305 -32.875  21.929  1.00  0.00     0.088 C 
ATOM     13  C   UNL     1      14.310 -31.677  22.831  1.00  0.00     0.159 C 
ATOM     14  O   UNL     1      13.469 -31.623  23.767  1.00  0.00    -0.295 OA
ATOM     15  C   UNL     1      16.345 -33.963  22.955  1.00  0.00     0.012 C 
ATOM     16  C   UNL     1      13.719 -28.850  23.499  1.00  0.00     0.039 C 
ENDROOT
TORSDOF 0
ENDMDL
MODEL 5
REMARK VINA RESULT:    -6.606      2.433      5.312
REMARK INTER + INTRA:          -6.606
REMARK INTER:                  -6.606
REMARK INTRA:                   0.000
REMARK UNBOUND:                 0.000
REMARK SMILES C=C1CCC[C@]2(C)CC(=O)C(=C(C)C)C[C@@H]12
REMARK SMILES IDX 13 1 12 2 11 3 15 4 16 5 2 6 1 7 3 8 4 9 5 10 6 11 8 12 9 13
REMARK SMILES IDX 10 14 7 15 14 16
REMARK H PARENT
REMARK Flexibility Score: inf
ROOT
ATOM      1  C   UNL     1      16.599 -36.271  19.718  1.00  0.00     0.039 C 
ATOM      2  C   UNL     1      17.169 -35.903  21.069  1.00  0.00    -0.070 C 
ATOM      3  C   UNL     1      16.668 -34.856  21.789  1.00  0.00    -0.006 C 
ATOM      4  C   UNL     1      15.529 -34.003  21.245  1.00  0.00     0.047 C 
ATOM      5  C   UNL     1      15.539 -32.545  21.779  1.00  0.00     0.025 C 
ATOM      6  C   UNL     1      14.341 -31.697  21.341  1.00  0.00    -0.073 C 
ATOM      7  C   UNL     1      13.428 -32.099  20.437  1.00  0.00     0.008 C 
ATOM      8  C   UNL     1      14.190 -30.317  21.939  1.00  0.00     0.031 C 
ATOM      9  C   UNL     1      15.420 -29.922  22.757  1.00  0.00     0.005 C 
ATOM     10  C   UNL     1      15.759 -30.971  23.830  1.00  0.00     0.008 C 
ATOM     11  C   UNL     1      15.704 -32.466  23.335  1.00  0.00    -0.018 C 
ATOM     12  C   UNL     1      17.030 -33.167  23.720  1.00  0.00     0.088 C 
ATOM     13  C   UNL     1      17.111 -34.564  23.182  1.00  0.00     0.159 C 
ATOM     14  O   UNL     1      17.540 -35.477  23.938  1.00  0.00    -0.295 OA
ATOM     15  C   UNL     1      14.523 -33.177  24.054  1.00  0.00     0.012 C 
ATOM     16  C   UNL     1      18.338 -36.724  21.565  1.00  0.00     0.039 C 
ENDROOT
TORSDOF 0
ENDMDL
MODEL 6
REMARK VINA RESULT:    -6.219      4.191      6.189
REMARK INTER + INTRA:          -6.219
REMARK INTER:                  -6.219
REMARK INTRA:                   0.000
REMARK UNBOUND:                 0.000
REMARK SMILES C=C1CCC[C@]2(C)CC(=O)C(=C(C)C)C[C@@H]12
REMARK SMILES IDX 13 1 12 2 11 3 15 4 16 5 2 6 1 7 3 8 4 9 5 10 6 11 8 12 9 13
REMARK SMILES IDX 10 14 7 15 14 16
REMARK H PARENT
REMARK Flexibility Score: inf
ROOT
ATOM      1  C   UNL     1      21.752 -32.179  22.585  1.00  0.00     0.039 C 
ATOM      2  C   UNL     1      20.572 -31.747  21.745  1.00  0.00    -0.070 C 
ATOM      3  C   UNL     1      19.547 -32.606  21.468  1.00  0.00    -0.006 C 
ATOM      4  C   UNL     1      19.566 -34.042  21.976  1.00  0.00     0.047 C 
ATOM      5  C   UNL     1      18.778 -35.028  21.073  1.00  0.00     0.025 C 
ATOM      6  C   UNL     1      18.682 -36.456  21.619  1.00  0.00    -0.073 C 
ATOM      7  C   UNL     1      19.352 -36.891  22.703  1.00  0.00     0.008 C 
ATOM      8  C   UNL     1      17.803 -37.441  20.884  1.00  0.00     0.031 C 
ATOM      9  C   UNL     1      17.303 -36.867  19.557  1.00  0.00     0.005 C 
ATOM     10  C   UNL     1      16.601 -35.511  19.745  1.00  0.00     0.008 C 
ATOM     11  C   UNL     1      17.348 -34.506  20.702  1.00  0.00    -0.018 C 
ATOM     12  C   UNL     1      17.500 -33.148  19.974  1.00  0.00     0.088 C 
ATOM     13  C   UNL     1      18.306 -32.164  20.770  1.00  0.00     0.159 C 
ATOM     14  O   UNL     1      17.899 -30.973  20.847  1.00  0.00    -0.295 OA
ATOM     15  C   UNL     1      16.481 -34.308  21.977  1.00  0.00     0.012 C 
ATOM     16  C   UNL     1      20.600 -30.337  21.199  1.00  0.00     0.039 C 
ENDROOT
TORSDOF 0
ENDMDL
MODEL 7
REMARK VINA RESULT:    -6.198      2.648      5.258
REMARK INTER + INTRA:          -6.198
REMARK INTER:                  -6.198
REMARK INTRA:                   0.000
REMARK UNBOUND:                 0.000
REMARK SMILES C=C1CCC[C@]2(C)CC(=O)C(=C(C)C)C[C@@H]12
REMARK SMILES IDX 13 1 12 2 11 3 15 4 16 5 2 6 1 7 3 8 4 9 5 10 6 11 8 12 9 13
REMARK SMILES IDX 10 14 7 15 14 16
REMARK H PARENT
REMARK Flexibility Score: inf
ROOT
ATOM      1  C   UNL     1      19.270 -28.851  21.244  1.00  0.00     0.039 C 
ATOM      2  C   UNL     1      19.314 -30.362  21.258  1.00  0.00    -0.070 C 
ATOM      3  C   UNL     1      18.207 -31.102  21.562  1.00  0.00    -0.006 C 
ATOM      4  C   UNL     1      16.888 -30.429  21.922  1.00  0.00     0.047 C 
ATOM      5  C   UNL     1      15.995 -31.282  22.862  1.00  0.00     0.025 C 
ATOM      6  C   UNL     1      14.615 -30.683  23.149  1.00  0.00    -0.073 C 
ATOM      7  C   UNL     1      14.240 -29.447  22.768  1.00  0.00     0.008 C 
ATOM      8  C   UNL     1      13.625 -31.519  23.926  1.00  0.00     0.031 C 
ATOM      9  C   UNL     1      14.274 -32.786  24.484  1.00  0.00     0.005 C 
ATOM     10  C   UNL     1      14.969 -33.607  23.384  1.00  0.00     0.008 C 
ATOM     11  C   UNL     1      15.840 -32.764  22.378  1.00  0.00    -0.018 C 
ATOM     12  C   UNL     1      17.250 -33.397  22.289  1.00  0.00     0.088 C 
ATOM     13  C   UNL     1      18.184 -32.587  21.439  1.00  0.00     0.159 C 
ATOM     14  O   UNL     1      18.925 -33.188  20.616  1.00  0.00    -0.295 OA
ATOM     15  C   UNL     1      15.164 -32.821  20.978  1.00  0.00     0.012 C 
ATOM     16  C   UNL     1      20.647 -31.010  20.957  1.00  0.00     0.039 C 
ENDROOT
TORSDOF 0
ENDMDL
MODEL 8
REMARK VINA RESULT:    -6.140      2.164      4.962
REMARK INTER + INTRA:          -6.140
REMARK INTER:                  -6.140
REMARK INTRA:                   0.000
REMARK UNBOUND:                 0.000
REMARK SMILES C=C1CCC[C@]2(C)CC(=O)C(=C(C)C)C[C@@H]12
REMARK SMILES IDX 13 1 12 2 11 3 15 4 16 5 2 6 1 7 3 8 4 9 5 10 6 11 8 12 9 13
REMARK SMILES IDX 10 14 7 15 14 16
REMARK H PARENT
REMARK Flexibility Score: inf
ROOT
ATOM      1  C   UNL     1      18.399 -33.487  19.904  1.00  0.00     0.039 C 
ATOM      2  C   UNL     1      18.456 -33.018  21.340  1.00  0.00    -0.070 C 
ATOM      3  C   UNL     1      17.332 -32.601  21.995  1.00  0.00    -0.006 C 
ATOM      4  C   UNL     1      15.980 -32.571  21.294  1.00  0.00     0.047 C 
ATOM      5  C   UNL     1      15.013 -31.497  21.860  1.00  0.00     0.025 C 
ATOM      6  C   UNL     1      13.607 -31.520  21.254  1.00  0.00    -0.073 C 
ATOM      7  C   UNL     1      13.257 -32.284  20.201  1.00  0.00     0.008 C 
ATOM      8  C   UNL     1      12.558 -30.614  21.856  1.00  0.00     0.031 C 
ATOM      9  C   UNL     1      13.166 -29.651  22.876  1.00  0.00     0.005 C 
ATOM     10  C   UNL     1      13.966 -30.392  23.961  1.00  0.00     0.008 C 
ATOM     11  C   UNL     1      14.916 -31.528  23.424  1.00  0.00    -0.018 C 
ATOM     12  C   UNL     1      16.335 -31.304  24.003  1.00  0.00     0.088 C 
ATOM     13  C   UNL     1      17.334 -32.275  23.450  1.00  0.00     0.159 C 
ATOM     14  O   UNL     1      18.153 -32.816  24.241  1.00  0.00    -0.295 OA
ATOM     15  C   UNL     1      14.372 -32.897  23.919  1.00  0.00     0.012 C 
ATOM     16  C   UNL     1      19.817 -32.999  21.999  1.00  0.00     0.039 C 
ENDROOT
TORSDOF 0
ENDMDL
MODEL 9
REMARK VINA RESULT:    -6.138      2.349      4.873
REMARK INTER + INTRA:          -6.138
REMARK INTER:                  -6.138
REMARK INTRA:                   0.000
REMARK UNBOUND:                 0.000
REMARK SMILES C=C1CCC[C@]2(C)CC(=O)C(=C(C)C)C[C@@H]12
REMARK SMILES IDX 13 1 12 2 11 3 15 4 16 5 2 6 1 7 3 8 4 9 5 10 6 11 8 12 9 13
REMARK SMILES IDX 10 14 7 15 14 16
REMARK H PARENT
REMARK Flexibility Score: inf
ROOT
ATOM      1  C   UNL     1      20.914 -30.455  21.040  1.00  0.00     0.039 C 
ATOM      2  C   UNL     1      19.734 -29.525  21.209  1.00  0.00    -0.070 C 
ATOM      3  C   UNL     1      18.496 -30.002  21.533  1.00  0.00    -0.006 C 
ATOM      4  C   UNL     1      18.252 -31.495  21.713  1.00  0.00     0.047 C 
ATOM      5  C   UNL     1      16.796 -31.927  21.394  1.00  0.00     0.025 C 
ATOM      6  C   UNL     1      16.490 -33.401  21.676  1.00  0.00    -0.073 C 
ATOM      7  C   UNL     1      17.425 -34.309  22.016  1.00  0.00     0.008 C 
ATOM      8  C   UNL     1      15.060 -33.869  21.542  1.00  0.00     0.031 C 
ATOM      9  C   UNL     1      14.170 -32.788  20.928  1.00  0.00     0.005 C 
ATOM     10  C   UNL     1      14.262 -31.460  21.700  1.00  0.00     0.008 C 
ATOM     11  C   UNL     1      15.724 -31.021  22.089  1.00  0.00    -0.018 C 
ATOM     12  C   UNL     1      15.945 -29.561  21.623  1.00  0.00     0.088 C 
ATOM     13  C   UNL     1      17.353 -29.099  21.850  1.00  0.00     0.159 C 
ATOM     14  O   UNL     1      17.541 -27.947  22.328  1.00  0.00    -0.295 OA
ATOM     15  C   UNL     1      15.860 -31.089  23.637  1.00  0.00     0.012 C 
ATOM     16  C   UNL     1      19.983 -28.053  20.967  1.00  0.00     0.039 C 
ENDROOT
TORSDOF 0
ENDMDL
