MODEL 1
REMARK VINA RESULT:    -3.016      0.000      0.000
REMARK INTER + INTRA:          -3.647
REMARK INTER:                  -3.545
REMARK INTRA:                  -0.103
REMARK UNBOUND:                -0.103
REMARK SMILES O=C([O-])CCC(=O)[O-]
REMARK SMILES IDX 4 1 2 2 1 3 3 4 5 5 6 6 7 7 8 8
REMARK H PARENT
REMARK Flexibility Score: inf
ROOT
ATOM      1  C   UNL     1      27.298  11.410   4.667  1.00  0.00     0.059 C 
ENDROOT
BRANCH   1   2
ATOM      2  C   UNL     1      28.267  12.100   5.577  1.00  0.00     0.042 C 
ATOM      3  O   UNL     1      27.910  12.453   6.732  1.00  0.00    -0.550 OA
ATOM      4  O   UNL     1      29.577  12.313   5.166  1.00  0.00    -0.550 OA
ENDBRANCH   1   2
BRANCH   1   5
ATOM      5  C   UNL     1      26.257  10.606   5.453  1.00  0.00     0.059 C 
BRANCH   5   6
ATOM      6  C   UNL     1      26.759   9.234   5.787  1.00  0.00     0.042 C 
ATOM      7  O   UNL     1      27.565   8.648   5.017  1.00  0.00    -0.550 OA
ATOM      8  O   UNL     1      26.306   8.587   6.930  1.00  0.00    -0.550 OA
ENDBRANCH   5   6
ENDBRANCH   1   5
TORSDOF 3
ENDMDL
MODEL 2
REMARK VINA RESULT:    -2.998     11.669     12.581
REMARK INTER + INTRA:          -3.626
REMARK INTER:                  -3.520
REMARK INTRA:                  -0.106
REMARK UNBOUND:                -0.103
REMARK SMILES O=C([O-])CCC(=O)[O-]
REMARK SMILES IDX 4 1 2 2 1 3 3 4 5 5 6 6 7 7 8 8
REMARK H PARENT
REMARK Flexibility Score: inf
ROOT
ATOM      1  C   UNL     1      29.888   6.631  17.182  1.00  0.00     0.059 C 
ENDROOT
BRANCH   1   2
ATOM      2  C   UNL     1      30.725   6.542  15.943  1.00  0.00     0.042 C 
ATOM      3  O   UNL     1      31.910   6.970  15.947  1.00  0.00    -0.550 OA
ATOM      4  O   UNL     1      30.211   5.949  14.797  1.00  0.00    -0.550 OA
ENDBRANCH   1   2
BRANCH   1   5
ATOM      5  C   UNL     1      30.523   7.552  18.229  1.00  0.00     0.059 C 
BRANCH   5   6
ATOM      6  C   UNL     1      29.931   8.928  18.183  1.00  0.00     0.042 C 
ATOM      7  O   UNL     1      30.236   9.720  17.253  1.00  0.00    -0.550 OA
ATOM      8  O   UNL     1      29.073   9.350  19.191  1.00  0.00    -0.550 OA
ENDBRANCH   5   6
ENDBRANCH   1   5
TORSDOF 3
ENDMDL
MODEL 3
REMARK VINA RESULT:    -2.977     11.649     12.338
REMARK INTER + INTRA:          -3.601
REMARK INTER:                  -3.490
REMARK INTRA:                  -0.111
REMARK UNBOUND:                -0.103
REMARK SMILES O=C([O-])CCC(=O)[O-]
REMARK SMILES IDX 4 1 2 2 1 3 3 4 5 5 6 6 7 7 8 8
REMARK H PARENT
REMARK Flexibility Score: inf
ROOT
ATOM      1  C   UNL     1      30.518   7.415  18.208  1.00  0.00     0.059 C 
ENDROOT
BRANCH   1   2
ATOM      2  C   UNL     1      29.909   8.783  18.227  1.00  0.00     0.042 C 
ATOM      3  O   UNL     1      29.110   9.108  19.146  1.00  0.00    -0.550 OA
ATOM      4  O   UNL     1      30.255   9.713  17.256  1.00  0.00    -0.550 OA
ENDBRANCH   1   2
BRANCH   1   5
ATOM      5  C   UNL     1      29.897   6.533  17.120  1.00  0.00     0.059 C 
BRANCH   5   6
ATOM      6  C   UNL     1      30.746   6.502  15.886  1.00  0.00     0.042 C 
ATOM      7  O   UNL     1      31.876   7.057  15.878  1.00  0.00    -0.550 OA
ATOM      8  O   UNL     1      30.273   5.892  14.731  1.00  0.00    -0.550 OA
ENDBRANCH   5   6
ENDBRANCH   1   5
TORSDOF 3
ENDMDL
MODEL 4
REMARK VINA RESULT:    -2.948      0.976      3.662
REMARK INTER + INTRA:          -3.567
REMARK INTER:                  -3.481
REMARK INTRA:                  -0.086
REMARK UNBOUND:                -0.103
REMARK SMILES O=C([O-])CCC(=O)[O-]
REMARK SMILES IDX 4 1 2 2 1 3 3 4 5 5 6 6 7 7 8 8
REMARK H PARENT
REMARK Flexibility Score: inf
ROOT
ATOM      1  C   UNL     1      27.603   9.621   5.161  1.00  0.00     0.059 C 
ENDROOT
BRANCH   1   2
ATOM      2  C   UNL     1      26.336   9.238   5.862  1.00  0.00     0.042 C 
ATOM      3  O   UNL     1      26.381   8.616   6.956  1.00  0.00    -0.550 OA
ATOM      4  O   UNL     1      25.107   9.605   5.328  1.00  0.00    -0.550 OA
ENDBRANCH   1   2
BRANCH   1   5
ATOM      5  C   UNL     1      27.553  11.066   4.651  1.00  0.00     0.059 C 
BRANCH   5   6
ATOM      6  C   UNL     1      28.353  11.985   5.524  1.00  0.00     0.042 C 
ATOM      7  O   UNL     1      29.538  12.281   5.216  1.00  0.00    -0.550 OA
ATOM      8  O   UNL     1      27.803  12.483   6.698  1.00  0.00    -0.550 OA
ENDBRANCH   5   6
ENDBRANCH   1   5
TORSDOF 3
ENDMDL
MODEL 5
REMARK VINA RESULT:    -2.867      1.659      2.122
REMARK INTER + INTRA:          -3.472
REMARK INTER:                  -3.364
REMARK INTRA:                  -0.109
REMARK UNBOUND:                -0.103
REMARK SMILES O=C([O-])CCC(=O)[O-]
REMARK SMILES IDX 4 1 2 2 1 3 3 4 5 5 6 6 7 7 8 8
REMARK H PARENT
REMARK Flexibility Score: inf
ROOT
ATOM      1  C   UNL     1      27.142  10.321   6.691  1.00  0.00     0.059 C 
ENDROOT
BRANCH   1   2
ATOM      2  C   UNL     1      27.719  11.547   6.053  1.00  0.00     0.042 C 
ATOM      3  O   UNL     1      28.435  11.448   5.022  1.00  0.00    -0.550 OA
ATOM      4  O   UNL     1      27.432  12.803   6.573  1.00  0.00    -0.550 OA
ENDBRANCH   1   2
BRANCH   1   5
ATOM      5  C   UNL     1      26.773   9.261   5.647  1.00  0.00     0.059 C 
BRANCH   5   6
ATOM      6  C   UNL     1      25.377   9.454   5.137  1.00  0.00     0.042 C 
ATOM      7  O   UNL     1      25.058   9.045   3.990  1.00  0.00    -0.550 OA
ATOM      8  O   UNL     1      24.438  10.120   5.915  1.00  0.00    -0.550 OA
ENDBRANCH   5   6
ENDBRANCH   1   5
TORSDOF 3
ENDMDL
MODEL 6
REMARK VINA RESULT:    -2.770      8.599     10.123
REMARK INTER + INTRA:          -3.358
REMARK INTER:                  -3.240
REMARK INTRA:                  -0.118
REMARK UNBOUND:                -0.103
REMARK SMILES O=C([O-])CCC(=O)[O-]
REMARK SMILES IDX 4 1 2 2 1 3 3 4 5 5 6 6 7 7 8 8
REMARK H PARENT
REMARK Flexibility Score: inf
ROOT
ATOM      1  C   UNL     1      22.021   3.665   4.530  1.00  0.00     0.059 C 
ENDROOT
BRANCH   1   2
ATOM      2  C   UNL     1      22.828   3.123   5.670  1.00  0.00     0.042 C 
ATOM      3  O   UNL     1      22.312   2.309   6.480  1.00  0.00    -0.550 OA
ATOM      4  O   UNL     1      24.162   3.484   5.811  1.00  0.00    -0.550 OA
ENDBRANCH   1   2
BRANCH   1   5
ATOM      5  C   UNL     1      20.556   3.878   4.925  1.00  0.00     0.059 C 
BRANCH   5   6
ATOM      6  C   UNL     1      19.652   2.908   4.227  1.00  0.00     0.042 C 
ATOM      7  O   UNL     1      18.504   3.265   3.853  1.00  0.00    -0.550 OA
ATOM      8  O   UNL     1      20.063   1.596   4.025  1.00  0.00    -0.550 OA
ENDBRANCH   5   6
ENDBRANCH   1   5
TORSDOF 3
ENDMDL
MODEL 7
REMARK VINA RESULT:    -2.768      8.596     10.444
REMARK INTER + INTRA:          -3.356
REMARK INTER:                  -3.239
REMARK INTRA:                  -0.117
REMARK UNBOUND:                -0.103
REMARK SMILES O=C([O-])CCC(=O)[O-]
REMARK SMILES IDX 4 1 2 2 1 3 3 4 5 5 6 6 7 7 8 8
REMARK H PARENT
REMARK Flexibility Score: inf
ROOT
ATOM      1  C   UNL     1      20.601   3.838   4.966  1.00  0.00     0.059 C 
ENDROOT
BRANCH   1   2
ATOM      2  C   UNL     1      19.683   2.856   4.305  1.00  0.00     0.042 C 
ATOM      3  O   UNL     1      18.543   3.220   3.911  1.00  0.00    -0.550 OA
ATOM      4  O   UNL     1      20.102   1.550   4.087  1.00  0.00    -0.550 OA
ENDBRANCH   1   2
BRANCH   1   5
ATOM      5  C   UNL     1      22.062   3.605   4.565  1.00  0.00     0.059 C 
BRANCH   5   6
ATOM      6  C   UNL     1      22.870   3.080   5.712  1.00  0.00     0.042 C 
ATOM      7  O   UNL     1      22.357   2.275   6.534  1.00  0.00    -0.550 OA
ATOM      8  O   UNL     1      24.178   3.510   5.896  1.00  0.00    -0.550 OA
ENDBRANCH   5   6
ENDBRANCH   1   5
TORSDOF 3
ENDMDL
MODEL 8
REMARK VINA RESULT:    -2.732      8.691      9.447
REMARK INTER + INTRA:          -3.314
REMARK INTER:                  -3.194
REMARK INTRA:                  -0.120
REMARK UNBOUND:                -0.103
REMARK SMILES O=C([O-])CCC(=O)[O-]
REMARK SMILES IDX 4 1 2 2 1 3 3 4 5 5 6 6 7 7 8 8
REMARK H PARENT
REMARK Flexibility Score: inf
ROOT
ATOM      1  C   UNL     1      22.054   2.434   5.943  1.00  0.00     0.059 C 
ENDROOT
BRANCH   1   2
ATOM      2  C   UNL     1      21.670   3.526   4.993  1.00  0.00     0.042 C 
ATOM      3  O   UNL     1      20.557   4.104   5.109  1.00  0.00    -0.550 OA
ATOM      4  O   UNL     1      22.559   3.935   4.007  1.00  0.00    -0.550 OA
ENDBRANCH   1   2
BRANCH   1   5
ATOM      5  C   UNL     1      23.334   1.719   5.497  1.00  0.00     0.059 C 
BRANCH   5   6
ATOM      6  C   UNL     1      24.499   2.080   6.368  1.00  0.00     0.042 C 
ATOM      7  O   UNL     1      24.907   3.270   6.421  1.00  0.00    -0.550 OA
ATOM      8  O   UNL     1      25.158   1.094   7.091  1.00  0.00    -0.550 OA
ENDBRANCH   5   6
ENDBRANCH   1   5
TORSDOF 3
ENDMDL
MODEL 9
REMARK VINA RESULT:    -2.695      8.592      9.759
REMARK INTER + INTRA:          -3.270
REMARK INTER:                  -3.236
REMARK INTRA:                  -0.034
REMARK UNBOUND:                -0.103
REMARK SMILES O=C([O-])CCC(=O)[O-]
REMARK SMILES IDX 4 1 2 2 1 3 3 4 5 5 6 6 7 7 8 8
REMARK H PARENT
REMARK Flexibility Score: inf
ROOT
ATOM      1  C   UNL     1      22.553   2.268   5.977  1.00  0.00     0.059 C 
ENDROOT
BRANCH   1   2
ATOM      2  C   UNL     1      24.012   2.283   6.317  1.00  0.00     0.042 C 
ATOM      3  O   UNL     1      24.655   3.366   6.303  1.00  0.00    -0.550 OA
ATOM      4  O   UNL     1      24.652   1.107   6.689  1.00  0.00    -0.550 OA
ENDBRANCH   1   2
BRANCH   1   5
ATOM      5  C   UNL     1      22.153   3.492   5.147  1.00  0.00     0.059 C 
BRANCH   5   6
ATOM      6  C   UNL     1      20.671   3.550   4.931  1.00  0.00     0.042 C 
ATOM      7  O   UNL     1      20.065   4.652   4.977  1.00  0.00    -0.550 OA
ATOM      8  O   UNL     1      19.954   2.379   4.717  1.00  0.00    -0.550 OA
ENDBRANCH   5   6
ENDBRANCH   1   5
TORSDOF 3
ENDMDL
