MODEL 1
REMARK VINA RESULT:    -3.116      0.000      0.000
REMARK INTER + INTRA:          -3.389
REMARK INTER:                  -3.389
REMARK INTRA:                   0.000
REMARK UNBOUND:                 0.000
REMARK SMILES [NH3+]CC(=O)[O-]
REMARK SMILES IDX 2 1 1 2 3 6 4 7 5 8
REMARK H PARENT 1 3 1 4 1 5
REMARK Flexibility Score: inf
ROOT
ATOM      1  C   UNL     1     -24.702   6.491 -14.339  1.00  0.00     0.312 C 
ENDROOT
BRANCH   1   2
ATOM      2  N   UNL     1     -24.530   6.413 -12.889  1.00  0.00    -0.353 N 
ATOM      3  H   UNL     1     -25.429   6.135 -12.435  1.00  0.00     0.344 HD
ATOM      4  H   UNL     1     -23.784   5.719 -12.654  1.00  0.00     0.344 HD
ATOM      5  H   UNL     1     -24.245   7.353 -12.529  1.00  0.00     0.344 HD
ENDBRANCH   1   2
BRANCH   1   6
ATOM      6  C   UNL     1     -23.664   5.670 -15.039  1.00  0.00     0.096 C 
ATOM      7  O   UNL     1     -23.959   4.538 -15.505  1.00  0.00    -0.544 OA
ATOM      8  O   UNL     1     -22.384   6.178 -15.223  1.00  0.00    -0.544 OA
ENDBRANCH   1   6
TORSDOF 2
ENDMDL
MODEL 2
REMARK VINA RESULT:    -3.102      0.092      1.450
REMARK INTER + INTRA:          -3.374
REMARK INTER:                  -3.374
REMARK INTRA:                   0.000
REMARK UNBOUND:                 0.000
REMARK SMILES [NH3+]CC(=O)[O-]
REMARK SMILES IDX 2 1 1 2 3 6 4 7 5 8
REMARK H PARENT 1 3 1 4 1 5
REMARK Flexibility Score: inf
ROOT
ATOM      1  C   UNL     1     -24.720   6.490 -14.297  1.00  0.00     0.312 C 
ENDROOT
BRANCH   1   2
ATOM      2  N   UNL     1     -24.472   6.460 -12.857  1.00  0.00    -0.353 N 
ATOM      3  H   UNL     1     -23.471   6.222 -12.670  1.00  0.00     0.344 HD
ATOM      4  H   UNL     1     -24.700   7.390 -12.435  1.00  0.00     0.344 HD
ATOM      5  H   UNL     1     -25.081   5.731 -12.420  1.00  0.00     0.344 HD
ENDBRANCH   1   2
BRANCH   1   6
ATOM      6  C   UNL     1     -23.679   5.701 -15.030  1.00  0.00     0.096 C 
ATOM      7  O   UNL     1     -22.512   6.156 -15.156  1.00  0.00    -0.544 OA
ATOM      8  O   UNL     1     -23.984   4.440 -15.526  1.00  0.00    -0.544 OA
ENDBRANCH   1   6
TORSDOF 2
ENDMDL
MODEL 3
REMARK VINA RESULT:    -3.036      7.274      7.550
REMARK INTER + INTRA:          -3.302
REMARK INTER:                  -3.302
REMARK INTRA:                   0.000
REMARK UNBOUND:                 0.000
REMARK SMILES [NH3+]CC(=O)[O-]
REMARK SMILES IDX 2 1 1 2 3 6 4 7 5 8
REMARK H PARENT 1 3 1 4 1 5
REMARK Flexibility Score: inf
ROOT
ATOM      1  C   UNL     1     -30.441   8.451 -14.986  1.00  0.00     0.312 C 
ENDROOT
BRANCH   1   2
ATOM      2  N   UNL     1     -29.168   7.921 -15.472  1.00  0.00    -0.353 N 
ATOM      3  H   UNL     1     -28.730   8.595 -16.141  1.00  0.00     0.344 HD
ATOM      4  H   UNL     1     -28.521   7.749 -14.668  1.00  0.00     0.344 HD
ATOM      5  H   UNL     1     -29.341   7.016 -15.967  1.00  0.00     0.344 HD
ENDBRANCH   1   2
BRANCH   1   6
ATOM      6  C   UNL     1     -30.298   9.888 -14.590  1.00  0.00     0.096 C 
ATOM      7  O   UNL     1     -31.314  10.629 -14.517  1.00  0.00    -0.544 OA
ATOM      8  O   UNL     1     -29.050  10.395 -14.250  1.00  0.00    -0.544 OA
ENDBRANCH   1   6
TORSDOF 2
ENDMDL
MODEL 4
REMARK VINA RESULT:    -3.015      2.275      2.443
REMARK INTER + INTRA:          -3.279
REMARK INTER:                  -3.279
REMARK INTRA:                   0.000
REMARK UNBOUND:                 0.000
REMARK SMILES [NH3+]CC(=O)[O-]
REMARK SMILES IDX 2 1 1 2 3 6 4 7 5 8
REMARK H PARENT 1 3 1 4 1 5
REMARK Flexibility Score: inf
ROOT
ATOM      1  C   UNL     1     -24.051   4.456 -15.815  1.00  0.00     0.312 C 
ENDROOT
BRANCH   1   2
ATOM      2  N   UNL     1     -23.332   3.218 -15.518  1.00  0.00    -0.353 N 
ATOM      3  H   UNL     1     -22.970   2.793 -16.401  1.00  0.00     0.344 HD
ATOM      4  H   UNL     1     -22.538   3.413 -14.866  1.00  0.00     0.344 HD
ATOM      5  H   UNL     1     -23.988   2.544 -15.061  1.00  0.00     0.344 HD
ENDBRANCH   1   2
BRANCH   1   6
ATOM      6  C   UNL     1     -23.479   5.600 -15.035  1.00  0.00     0.096 C 
ATOM      7  O   UNL     1     -24.082   6.039 -14.021  1.00  0.00    -0.544 OA
ATOM      8  O   UNL     1     -22.255   6.146 -15.400  1.00  0.00    -0.544 OA
ENDBRANCH   1   6
TORSDOF 2
ENDMDL
MODEL 5
REMARK VINA RESULT:    -2.991      2.436      2.971
REMARK INTER + INTRA:          -3.254
REMARK INTER:                  -3.254
REMARK INTRA:                   0.000
REMARK UNBOUND:                 0.000
REMARK SMILES [NH3+]CC(=O)[O-]
REMARK SMILES IDX 2 1 1 2 3 6 4 7 5 8
REMARK H PARENT 1 3 1 4 1 5
REMARK Flexibility Score: inf
ROOT
ATOM      1  C   UNL     1     -23.377   4.479 -15.913  1.00  0.00     0.312 C 
ENDROOT
BRANCH   1   2
ATOM      2  N   UNL     1     -23.516   3.066 -15.569  1.00  0.00    -0.353 N 
ATOM      3  H   UNL     1     -23.786   2.515 -16.415  1.00  0.00     0.344 HD
ATOM      4  H   UNL     1     -22.616   2.701 -15.181  1.00  0.00     0.344 HD
ATOM      5  H   UNL     1     -24.264   2.962 -14.845  1.00  0.00     0.344 HD
ENDBRANCH   1   2
BRANCH   1   6
ATOM      6  C   UNL     1     -24.373   5.307 -15.162  1.00  0.00     0.096 C 
ATOM      7  O   UNL     1     -24.001   6.025 -14.197  1.00  0.00    -0.544 OA
ATOM      8  O   UNL     1     -25.704   5.324 -15.560  1.00  0.00    -0.544 OA
ENDBRANCH   1   6
TORSDOF 2
ENDMDL
MODEL 6
REMARK VINA RESULT:    -2.954      1.300      1.582
REMARK INTER + INTRA:          -3.213
REMARK INTER:                  -3.213
REMARK INTRA:                   0.000
REMARK UNBOUND:                 0.000
REMARK SMILES [NH3+]CC(=O)[O-]
REMARK SMILES IDX 2 1 1 2 3 6 4 7 5 8
REMARK H PARENT 1 3 1 4 1 5
REMARK Flexibility Score: inf
ROOT
ATOM      1  C   UNL     1     -23.968   6.332 -14.411  1.00  0.00     0.312 C 
ENDROOT
BRANCH   1   2
ATOM      2  N   UNL     1     -24.500   6.362 -13.050  1.00  0.00    -0.353 N 
ATOM      3  H   UNL     1     -24.238   7.259 -12.582  1.00  0.00     0.344 HD
ATOM      4  H   UNL     1     -25.541   6.263 -13.069  1.00  0.00     0.344 HD
ATOM      5  H   UNL     1     -24.094   5.566 -12.507  1.00  0.00     0.344 HD
ENDBRANCH   1   2
BRANCH   1   6
ATOM      6  C   UNL     1     -24.614   5.240 -15.207  1.00  0.00     0.096 C 
ATOM      7  O   UNL     1     -25.791   5.378 -15.632  1.00  0.00    -0.544 OA
ATOM      8  O   UNL     1     -23.897   4.093 -15.522  1.00  0.00    -0.544 OA
ENDBRANCH   1   6
TORSDOF 2
ENDMDL
MODEL 7
REMARK VINA RESULT:    -2.918      7.036      7.500
REMARK INTER + INTRA:          -3.174
REMARK INTER:                  -3.174
REMARK INTRA:                   0.000
REMARK UNBOUND:                 0.000
REMARK SMILES [NH3+]CC(=O)[O-]
REMARK SMILES IDX 2 1 1 2 3 6 4 7 5 8
REMARK H PARENT 1 3 1 4 1 5
REMARK Flexibility Score: inf
ROOT
ATOM      1  C   UNL     1     -31.104   9.847 -14.781  1.00  0.00     0.312 C 
ENDROOT
BRANCH   1   2
ATOM      2  N   UNL     1     -30.343  11.062 -15.067  1.00  0.00    -0.353 N 
ATOM      3  H   UNL     1     -30.355  11.260 -16.093  1.00  0.00     0.344 HD
ATOM      4  H   UNL     1     -30.750  11.871 -14.544  1.00  0.00     0.344 HD
ATOM      5  H   UNL     1     -29.352  10.924 -14.760  1.00  0.00     0.344 HD
ENDBRANCH   1   2
BRANCH   1   6
ATOM      6  C   UNL     1     -30.259   8.630 -15.002  1.00  0.00     0.096 C 
ATOM      7  O   UNL     1     -29.009   8.736 -15.098  1.00  0.00    -0.544 OA
ATOM      8  O   UNL     1     -30.850   7.374 -15.048  1.00  0.00    -0.544 OA
ENDBRANCH   1   6
TORSDOF 2
ENDMDL
MODEL 8
REMARK VINA RESULT:    -2.872      1.404      1.784
REMARK INTER + INTRA:          -3.124
REMARK INTER:                  -3.124
REMARK INTRA:                   0.000
REMARK UNBOUND:                 0.000
REMARK SMILES [NH3+]CC(=O)[O-]
REMARK SMILES IDX 2 1 1 2 3 6 4 7 5 8
REMARK H PARENT 1 3 1 4 1 5
REMARK Flexibility Score: inf
ROOT
ATOM      1  C   UNL     1     -23.676   6.037 -14.714  1.00  0.00     0.312 C 
ENDROOT
BRANCH   1   2
ATOM      2  N   UNL     1     -24.185   6.089 -13.345  1.00  0.00    -0.353 N 
ATOM      3  H   UNL     1     -24.960   6.786 -13.276  1.00  0.00     0.344 HD
ATOM      4  H   UNL     1     -24.530   5.145 -13.055  1.00  0.00     0.344 HD
ATOM      5  H   UNL     1     -23.411   6.378 -12.704  1.00  0.00     0.344 HD
ENDBRANCH   1   2
BRANCH   1   6
ATOM      6  C   UNL     1     -24.279   4.886 -15.459  1.00  0.00     0.096 C 
ATOM      7  O   UNL     1     -23.608   3.840 -15.658  1.00  0.00    -0.544 OA
ATOM      8  O   UNL     1     -25.598   4.951 -15.888  1.00  0.00    -0.544 OA
ENDBRANCH   1   6
TORSDOF 2
ENDMDL
MODEL 9
REMARK VINA RESULT:    -2.773      7.333      7.748
REMARK INTER + INTRA:          -3.016
REMARK INTER:                  -3.016
REMARK INTRA:                   0.000
REMARK UNBOUND:                 0.000
REMARK SMILES [NH3+]CC(=O)[O-]
REMARK SMILES IDX 2 1 1 2 3 6 4 7 5 8
REMARK H PARENT 1 3 1 4 1 5
REMARK Flexibility Score: inf
ROOT
ATOM      1  C   UNL     1     -28.965  10.283 -14.219  1.00  0.00     0.312 C 
ENDROOT
BRANCH   1   2
ATOM      2  N   UNL     1     -29.145  11.603 -13.618  1.00  0.00    -0.353 N 
ATOM      3  H   UNL     1     -28.356  12.232 -13.890  1.00  0.00     0.344 HD
ATOM      4  H   UNL     1     -30.053  12.018 -13.930  1.00  0.00     0.344 HD
ATOM      5  H   UNL     1     -29.157  11.505 -12.577  1.00  0.00     0.344 HD
ENDBRANCH   1   2
BRANCH   1   6
ATOM      6  C   UNL     1     -30.271   9.747 -14.720  1.00  0.00     0.096 C 
ATOM      7  O   UNL     1     -31.208  10.534 -15.013  1.00  0.00    -0.544 OA
ATOM      8  O   UNL     1     -30.434   8.381 -14.910  1.00  0.00    -0.544 OA
ENDBRANCH   1   6
TORSDOF 2
ENDMDL
