MODEL 1
REMARK VINA RESULT:    -2.949      0.000      0.000
REMARK INTER + INTRA:          -6.930
REMARK INTER:                  -5.363
REMARK INTRA:                  -1.567
REMARK UNBOUND:                -1.567
REMARK SMILES CCCCCCCCCCCCCCCC(=O)[O-]
REMARK SMILES IDX 9 1 10 2 11 3 12 4 13 5 14 6 15 7 16 8 17 9 18 10 8 11 7 12
REMARK SMILES IDX 6 13 5 14 4 15 3 16 2 17 1 18
REMARK H PARENT
REMARK Flexibility Score: inf
ROOT
ATOM      1  C   UNL     1       5.842 -23.124 -18.315  1.00  0.00     0.000 C 
ENDROOT
BRANCH   1   2
ATOM      2  C   UNL     1       7.240 -22.851 -18.882  1.00  0.00     0.000 C 
BRANCH   2   3
ATOM      3  C   UNL     1       8.261 -22.640 -17.755  1.00  0.00     0.000 C 
BRANCH   3   4
ATOM      4  C   UNL     1       9.584 -22.029 -18.249  1.00  0.00     0.000 C 
BRANCH   4   5
ATOM      5  C   UNL     1       9.907 -22.290 -19.730  1.00  0.00     0.000 C 
BRANCH   5   6
ATOM      6  C   UNL     1      10.525 -21.070 -20.434  1.00  0.00     0.006 C 
BRANCH   6   7
ATOM      7  C   UNL     1       9.534 -20.385 -21.383  1.00  0.00     0.053 C 
BRANCH   7   8
ATOM      8  C   UNL     1       9.208 -21.253 -22.561  1.00  0.00     0.041 C 
ATOM      9  O   UNL     1       8.010 -21.531 -22.831  1.00  0.00    -0.550 OA
ATOM     10  O   UNL     1      10.229 -21.781 -23.339  1.00  0.00    -0.550 OA
ENDBRANCH   7   8
ENDBRANCH   6   7
ENDBRANCH   5   6
ENDBRANCH   4   5
ENDBRANCH   3   4
ENDBRANCH   2   3
ENDBRANCH   1   2
BRANCH   1  11
ATOM     11  C   UNL     1       5.854 -23.094 -16.782  1.00  0.00     0.000 C 
BRANCH  11  12
ATOM     12  C   UNL     1       4.751 -22.176 -16.240  1.00  0.00    -0.000 C 
BRANCH  12  13
ATOM     13  C   UNL     1       5.326 -21.133 -15.274  1.00  0.00    -0.000 C 
BRANCH  13  14
ATOM     14  C   UNL     1       6.371 -20.252 -15.974  1.00  0.00    -0.000 C 
BRANCH  14  15
ATOM     15  C   UNL     1       7.474 -19.771 -15.019  1.00  0.00    -0.000 C 
BRANCH  15  16
ATOM     16  C   UNL     1       8.559 -20.835 -14.785  1.00  0.00    -0.000 C 
BRANCH  16  17
ATOM     17  C   UNL     1       9.871 -20.233 -14.255  1.00  0.00    -0.003 C 
ATOM     18  C   UNL     1      11.103 -20.783 -14.972  1.00  0.00     0.004 C 
ENDBRANCH  16  17
ENDBRANCH  15  16
ENDBRANCH  14  15
ENDBRANCH  13  14
ENDBRANCH  12  13
ENDBRANCH  11  12
ENDBRANCH   1  11
TORSDOF 14
ENDMDL
MODEL 2
REMARK VINA RESULT:    -2.066      3.241      6.895
REMARK INTER + INTRA:          -5.325
REMARK INTER:                  -4.336
REMARK INTRA:                  -0.988
REMARK UNBOUND:                -1.567
REMARK SMILES CCCCCCCCCCCCCCCC(=O)[O-]
REMARK SMILES IDX 9 1 10 2 11 3 12 4 13 5 14 6 15 7 16 8 17 9 18 10 8 11 7 12
REMARK SMILES IDX 6 13 5 14 4 15 3 16 2 17 1 18
REMARK H PARENT
REMARK Flexibility Score: inf
ROOT
ATOM      1  C   UNL     1       7.837 -21.837 -18.707  1.00  0.00     0.000 C 
ENDROOT
BRANCH   1   2
ATOM      2  C   UNL     1       6.998 -23.119 -18.667  1.00  0.00     0.000 C 
BRANCH   2   3
ATOM      3  C   UNL     1       5.741 -22.929 -17.805  1.00  0.00     0.000 C 
BRANCH   3   4
ATOM      4  C   UNL     1       6.062 -22.529 -16.354  1.00  0.00     0.000 C 
BRANCH   4   5
ATOM      5  C   UNL     1       5.814 -21.048 -16.018  1.00  0.00     0.000 C 
BRANCH   5   6
ATOM      6  C   UNL     1       7.053 -20.350 -15.432  1.00  0.00     0.006 C 
BRANCH   6   7
ATOM      7  C   UNL     1       8.244 -21.306 -15.291  1.00  0.00     0.053 C 
BRANCH   7   8
ATOM      8  C   UNL     1       9.324 -20.720 -14.434  1.00  0.00     0.041 C 
ATOM      9  O   UNL     1      10.094 -19.838 -14.898  1.00  0.00    -0.550 OA
ATOM     10  O   UNL     1       9.502 -21.174 -13.133  1.00  0.00    -0.550 OA
ENDBRANCH   7   8
ENDBRANCH   6   7
ENDBRANCH   5   6
ENDBRANCH   4   5
ENDBRANCH   3   4
ENDBRANCH   2   3
ENDBRANCH   1   2
BRANCH   1  11
ATOM     11  C   UNL     1       9.325 -22.146 -18.507  1.00  0.00     0.000 C 
BRANCH  11  12
ATOM     12  C   UNL     1       9.848 -23.076 -19.609  1.00  0.00    -0.000 C 
BRANCH  12  13
ATOM     13  C   UNL     1      11.125 -22.514 -20.245  1.00  0.00    -0.000 C 
BRANCH  13  14
ATOM     14  C   UNL     1      10.807 -21.768 -21.549  1.00  0.00    -0.000 C 
BRANCH  14  15
ATOM     15  C   UNL     1      10.916 -22.670 -22.788  1.00  0.00    -0.000 C 
BRANCH  15  16
ATOM     16  C   UNL     1       9.587 -22.785 -23.554  1.00  0.00    -0.000 C 
BRANCH  16  17
ATOM     17  C   UNL     1       8.363 -22.675 -22.630  1.00  0.00    -0.003 C 
ATOM     18  C   UNL     1       7.821 -21.250 -22.537  1.00  0.00     0.004 C 
ENDBRANCH  16  17
ENDBRANCH  15  16
ENDBRANCH  14  15
ENDBRANCH  13  14
ENDBRANCH  12  13
ENDBRANCH  11  12
ENDBRANCH   1  11
TORSDOF 14
ENDMDL
MODEL 3
REMARK VINA RESULT:    -1.926      2.964      6.259
REMARK INTER + INTRA:          -5.070
REMARK INTER:                  -3.635
REMARK INTRA:                  -1.434
REMARK UNBOUND:                -1.567
REMARK SMILES CCCCCCCCCCCCCCCC(=O)[O-]
REMARK SMILES IDX 9 1 10 2 11 3 12 4 13 5 14 6 15 7 16 8 17 9 18 10 8 11 7 12
REMARK SMILES IDX 6 13 5 14 4 15 3 16 2 17 1 18
REMARK H PARENT
REMARK Flexibility Score: inf
ROOT
ATOM      1  C   UNL     1       6.363 -22.723 -18.138  1.00  0.00     0.000 C 
ENDROOT
BRANCH   1   2
ATOM      2  C   UNL     1       5.555 -23.123 -16.898  1.00  0.00     0.000 C 
BRANCH   2   3
ATOM      3  C   UNL     1       4.826 -21.911 -16.300  1.00  0.00     0.000 C 
BRANCH   3   4
ATOM      4  C   UNL     1       5.694 -21.116 -15.308  1.00  0.00     0.000 C 
BRANCH   4   5
ATOM      5  C   UNL     1       6.204 -19.762 -15.831  1.00  0.00     0.000 C 
BRANCH   5   6
ATOM      6  C   UNL     1       7.656 -19.469 -15.421  1.00  0.00     0.006 C 
BRANCH   6   7
ATOM      7  C   UNL     1       8.395 -20.732 -14.963  1.00  0.00     0.053 C 
BRANCH   7   8
ATOM      8  C   UNL     1       9.881 -20.578 -15.082  1.00  0.00     0.041 C 
ATOM      9  O   UNL     1      10.495 -21.085 -16.057  1.00  0.00    -0.550 OA
ATOM     10  O   UNL     1      10.590 -19.902 -14.098  1.00  0.00    -0.550 OA
ENDBRANCH   7   8
ENDBRANCH   6   7
ENDBRANCH   5   6
ENDBRANCH   4   5
ENDBRANCH   3   4
ENDBRANCH   2   3
ENDBRANCH   1   2
BRANCH   1  11
ATOM     11  C   UNL     1       7.855 -22.600 -17.807  1.00  0.00     0.000 C 
BRANCH  11  12
ATOM     12  C   UNL     1       8.639 -22.041 -19.001  1.00  0.00    -0.000 C 
BRANCH  12  13
ATOM     13  C   UNL     1       8.590 -23.003 -20.193  1.00  0.00    -0.000 C 
BRANCH  13  14
ATOM     14  C   UNL     1       7.771 -22.407 -21.347  1.00  0.00    -0.000 C 
BRANCH  14  15
ATOM     15  C   UNL     1       8.607 -22.200 -22.620  1.00  0.00    -0.000 C 
BRANCH  15  16
ATOM     16  C   UNL     1      10.070 -22.643 -22.445  1.00  0.00    -0.000 C 
BRANCH  16  17
ATOM     17  C   UNL     1      11.062 -21.480 -22.614  1.00  0.00    -0.003 C 
ATOM     18  C   UNL     1      10.941 -20.438 -21.503  1.00  0.00     0.004 C 
ENDBRANCH  16  17
ENDBRANCH  15  16
ENDBRANCH  14  15
ENDBRANCH  13  14
ENDBRANCH  12  13
ENDBRANCH  11  12
ENDBRANCH   1  11
TORSDOF 14
ENDMDL
MODEL 4
REMARK VINA RESULT:    -1.658      8.555     11.503
REMARK INTER + INTRA:          -4.581
REMARK INTER:                  -4.252
REMARK INTRA:                  -0.330
REMARK UNBOUND:                -1.567
REMARK SMILES CCCCCCCCCCCCCCCC(=O)[O-]
REMARK SMILES IDX 9 1 10 2 11 3 12 4 13 5 14 6 15 7 16 8 17 9 18 10 8 11 7 12
REMARK SMILES IDX 6 13 5 14 4 15 3 16 2 17 1 18
REMARK H PARENT
REMARK Flexibility Score: inf
ROOT
ATOM      1  C   UNL     1       0.932 -22.041 -15.845  1.00  0.00     0.000 C 
ENDROOT
BRANCH   1   2
ATOM      2  C   UNL     1      -0.305 -22.940 -15.732  1.00  0.00     0.000 C 
BRANCH   2   3
ATOM      3  C   UNL     1      -1.473 -22.190 -15.075  1.00  0.00     0.000 C 
BRANCH   3   4
ATOM      4  C   UNL     1      -2.814 -22.934 -15.206  1.00  0.00     0.000 C 
BRANCH   4   5
ATOM      5  C   UNL     1      -3.584 -23.123 -13.887  1.00  0.00     0.000 C 
BRANCH   5   6
ATOM      6  C   UNL     1      -5.053 -22.678 -13.980  1.00  0.00     0.006 C 
BRANCH   6   7
ATOM      7  C   UNL     1      -5.812 -22.906 -12.667  1.00  0.00     0.053 C 
BRANCH   7   8
ATOM      8  C   UNL     1      -7.203 -22.353 -12.731  1.00  0.00     0.041 C 
ATOM      9  O   UNL     1      -7.506 -21.320 -12.078  1.00  0.00    -0.550 OA
ATOM     10  O   UNL     1      -8.174 -23.000 -13.484  1.00  0.00    -0.550 OA
ENDBRANCH   7   8
ENDBRANCH   6   7
ENDBRANCH   5   6
ENDBRANCH   4   5
ENDBRANCH   3   4
ENDBRANCH   2   3
ENDBRANCH   1   2
BRANCH   1  11
ATOM     11  C   UNL     1       2.220 -22.871 -15.826  1.00  0.00     0.000 C 
BRANCH  11  12
ATOM     12  C   UNL     1       3.457 -21.968 -15.750  1.00  0.00    -0.000 C 
BRANCH  12  13
ATOM     13  C   UNL     1       4.595 -22.515 -16.620  1.00  0.00    -0.000 C 
BRANCH  13  14
ATOM     14  C   UNL     1       5.963 -22.210 -15.992  1.00  0.00    -0.000 C 
BRANCH  14  15
ATOM     15  C   UNL     1       6.473 -20.803 -16.341  1.00  0.00    -0.000 C 
BRANCH  15  16
ATOM     16  C   UNL     1       7.423 -20.237 -15.272  1.00  0.00    -0.000 C 
BRANCH  16  17
ATOM     17  C   UNL     1       8.809 -20.902 -15.305  1.00  0.00    -0.003 C 
ATOM     18  C   UNL     1       9.794 -20.259 -14.330  1.00  0.00     0.004 C 
ENDBRANCH  16  17
ENDBRANCH  15  16
ENDBRANCH  14  15
ENDBRANCH  13  14
ENDBRANCH  12  13
ENDBRANCH  11  12
ENDBRANCH   1  11
TORSDOF 14
ENDMDL
MODEL 5
REMARK VINA RESULT:    -1.493      5.651      9.068
REMARK INTER + INTRA:          -4.283
REMARK INTER:                  -3.630
REMARK INTRA:                  -0.653
REMARK UNBOUND:                -1.567
REMARK SMILES CCCCCCCCCCCCCCCC(=O)[O-]
REMARK SMILES IDX 9 1 10 2 11 3 12 4 13 5 14 6 15 7 16 8 17 9 18 10 8 11 7 12
REMARK SMILES IDX 6 13 5 14 4 15 3 16 2 17 1 18
REMARK H PARENT
REMARK Flexibility Score: inf
ROOT
ATOM      1  C   UNL     1       5.787 -22.324 -16.500  1.00  0.00     0.000 C 
ENDROOT
BRANCH   1   2
ATOM      2  C   UNL     1       4.576 -21.607 -15.889  1.00  0.00     0.000 C 
BRANCH   2   3
ATOM      3  C   UNL     1       3.281 -22.387 -16.157  1.00  0.00     0.000 C 
BRANCH   3   4
ATOM      4  C   UNL     1       2.067 -21.813 -15.404  1.00  0.00     0.000 C 
BRANCH   4   5
ATOM      5  C   UNL     1       0.723 -21.947 -16.141  1.00  0.00     0.000 C 
BRANCH   5   6
ATOM      6  C   UNL     1      -0.298 -22.803 -15.374  1.00  0.00     0.006 C 
BRANCH   6   7
ATOM      7  C   UNL     1      -1.734 -22.295 -15.556  1.00  0.00     0.053 C 
BRANCH   7   8
ATOM      8  C   UNL     1      -2.618 -22.718 -14.422  1.00  0.00     0.041 C 
ATOM      9  O   UNL     1      -3.817 -23.035 -14.638  1.00  0.00    -0.550 OA
ATOM     10  O   UNL     1      -2.126 -22.729 -13.124  1.00  0.00    -0.550 OA
ENDBRANCH   7   8
ENDBRANCH   6   7
ENDBRANCH   5   6
ENDBRANCH   4   5
ENDBRANCH   3   4
ENDBRANCH   2   3
ENDBRANCH   1   2
BRANCH   1  11
ATOM     11  C   UNL     1       6.946 -21.349 -16.730  1.00  0.00     0.000 C 
BRANCH  11  12
ATOM     12  C   UNL     1       7.806 -21.786 -17.923  1.00  0.00    -0.000 C 
BRANCH  12  13
ATOM     13  C   UNL     1       7.321 -23.125 -18.492  1.00  0.00    -0.000 C 
BRANCH  13  14
ATOM     14  C   UNL     1       7.122 -23.037 -20.012  1.00  0.00    -0.000 C 
BRANCH  14  15
ATOM     15  C   UNL     1       8.449 -23.097 -20.785  1.00  0.00    -0.000 C 
BRANCH  15  16
ATOM     16  C   UNL     1       8.285 -22.725 -22.269  1.00  0.00    -0.000 C 
BRANCH  16  17
ATOM     17  C   UNL     1       8.417 -21.213 -22.515  1.00  0.00    -0.003 C 
ATOM     18  C   UNL     1       9.538 -20.578 -21.694  1.00  0.00     0.004 C 
ENDBRANCH  16  17
ENDBRANCH  15  16
ENDBRANCH  14  15
ENDBRANCH  13  14
ENDBRANCH  12  13
ENDBRANCH  11  12
ENDBRANCH   1  11
TORSDOF 14
ENDMDL
MODEL 6
REMARK VINA RESULT:    -1.355      7.996     10.716
REMARK INTER + INTRA:          -4.030
REMARK INTER:                  -3.687
REMARK INTRA:                  -0.344
REMARK UNBOUND:                -1.567
REMARK SMILES CCCCCCCCCCCCCCCC(=O)[O-]
REMARK SMILES IDX 9 1 10 2 11 3 12 4 13 5 14 6 15 7 16 8 17 9 18 10 8 11 7 12
REMARK SMILES IDX 6 13 5 14 4 15 3 16 2 17 1 18
REMARK H PARENT
REMARK Flexibility Score: inf
ROOT
ATOM      1  C   UNL     1       0.989 -22.040 -16.030  1.00  0.00     0.000 C 
ENDROOT
BRANCH   1   2
ATOM      2  C   UNL     1      -0.187 -22.873 -15.506  1.00  0.00     0.000 C 
BRANCH   2   3
ATOM      3  C   UNL     1      -1.501 -22.083 -15.587  1.00  0.00     0.000 C 
BRANCH   3   4
ATOM      4  C   UNL     1      -2.657 -22.759 -14.828  1.00  0.00     0.000 C 
BRANCH   4   5
ATOM      5  C   UNL     1      -3.941 -22.966 -15.649  1.00  0.00     0.000 C 
BRANCH   5   6
ATOM      6  C   UNL     1      -4.616 -21.644 -16.051  1.00  0.00     0.006 C 
BRANCH   6   7
ATOM      7  C   UNL     1      -5.759 -21.857 -17.051  1.00  0.00     0.053 C 
BRANCH   7   8
ATOM      8  C   UNL     1      -7.096 -21.612 -16.422  1.00  0.00     0.041 C 
ATOM      9  O   UNL     1      -8.119 -21.464 -17.142  1.00  0.00    -0.550 OA
ATOM     10  O   UNL     1      -7.207 -21.514 -15.041  1.00  0.00    -0.550 OA
ENDBRANCH   7   8
ENDBRANCH   6   7
ENDBRANCH   5   6
ENDBRANCH   4   5
ENDBRANCH   3   4
ENDBRANCH   2   3
ENDBRANCH   1   2
BRANCH   1  11
ATOM     11  C   UNL     1       2.308 -22.812 -15.910  1.00  0.00     0.000 C 
BRANCH  11  12
ATOM     12  C   UNL     1       3.428 -21.911 -15.377  1.00  0.00    -0.000 C 
BRANCH  12  13
ATOM     13  C   UNL     1       4.495 -21.663 -16.451  1.00  0.00    -0.000 C 
BRANCH  13  14
ATOM     14  C   UNL     1       5.886 -22.079 -15.951  1.00  0.00    -0.000 C 
BRANCH  14  15
ATOM     15  C   UNL     1       6.788 -20.874 -15.641  1.00  0.00    -0.000 C 
BRANCH  15  16
ATOM     16  C   UNL     1       8.278 -21.250 -15.589  1.00  0.00    -0.000 C 
BRANCH  16  17
ATOM     17  C   UNL     1       9.013 -20.581 -14.416  1.00  0.00    -0.003 C 
ATOM     18  C   UNL     1      10.455 -20.210 -14.759  1.00  0.00     0.004 C 
ENDBRANCH  16  17
ENDBRANCH  15  16
ENDBRANCH  14  15
ENDBRANCH  13  14
ENDBRANCH  12  13
ENDBRANCH  11  12
ENDBRANCH   1  11
TORSDOF 14
ENDMDL
MODEL 7
REMARK VINA RESULT:    -1.313      3.139      5.606
REMARK INTER + INTRA:          -3.955
REMARK INTER:                  -3.110
REMARK INTRA:                  -0.845
REMARK UNBOUND:                -1.567
REMARK SMILES CCCCCCCCCCCCCCCC(=O)[O-]
REMARK SMILES IDX 9 1 10 2 11 3 12 4 13 5 14 6 15 7 16 8 17 9 18 10 8 11 7 12
REMARK SMILES IDX 6 13 5 14 4 15 3 16 2 17 1 18
REMARK H PARENT
REMARK Flexibility Score: inf
ROOT
ATOM      1  C   UNL     1       6.189 -21.010 -15.999  1.00  0.00     0.000 C 
ENDROOT
BRANCH   1   2
ATOM      2  C   UNL     1       7.721 -21.056 -16.049  1.00  0.00     0.000 C 
BRANCH   2   3
ATOM      3  C   UNL     1       8.214 -22.408 -16.585  1.00  0.00     0.000 C 
BRANCH   3   4
ATOM      4  C   UNL     1       9.579 -22.313 -17.291  1.00  0.00     0.000 C 
BRANCH   4   5
ATOM      5  C   UNL     1       9.558 -22.647 -18.793  1.00  0.00     0.000 C 
BRANCH   5   6
ATOM      6  C   UNL     1       8.415 -21.948 -19.547  1.00  0.00     0.006 C 
BRANCH   6   7
ATOM      7  C   UNL     1       7.862 -22.810 -20.690  1.00  0.00     0.053 C 
BRANCH   7   8
ATOM      8  C   UNL     1       8.476 -22.442 -22.006  1.00  0.00     0.041 C 
ATOM      9  O   UNL     1       9.423 -23.125 -22.477  1.00  0.00    -0.550 OA
ATOM     10  O   UNL     1       8.025 -21.323 -22.695  1.00  0.00    -0.550 OA
ENDBRANCH   7   8
ENDBRANCH   6   7
ENDBRANCH   5   6
ENDBRANCH   4   5
ENDBRANCH   3   4
ENDBRANCH   2   3
ENDBRANCH   1   2
BRANCH   1  11
ATOM     11  C   UNL     1       5.575 -21.955 -17.037  1.00  0.00     0.000 C 
BRANCH  11  12
ATOM     12  C   UNL     1       4.521 -22.868 -16.397  1.00  0.00    -0.000 C 
BRANCH  12  13
ATOM     13  C   UNL     1       3.333 -22.054 -15.870  1.00  0.00    -0.000 C 
BRANCH  13  14
ATOM     14  C   UNL     1       2.096 -22.945 -15.684  1.00  0.00    -0.000 C 
BRANCH  14  15
ATOM     15  C   UNL     1       0.786 -22.213 -16.013  1.00  0.00    -0.000 C 
BRANCH  15  16
ATOM     16  C   UNL     1      -0.437 -22.858 -15.338  1.00  0.00    -0.000 C 
BRANCH  16  17
ATOM     17  C   UNL     1      -1.740 -22.096 -15.630  1.00  0.00    -0.003 C 
ATOM     18  C   UNL     1      -2.987 -22.916 -15.305  1.00  0.00     0.004 C 
ENDBRANCH  16  17
ENDBRANCH  15  16
ENDBRANCH  14  15
ENDBRANCH  13  14
ENDBRANCH  12  13
ENDBRANCH  11  12
ENDBRANCH   1  11
TORSDOF 14
ENDMDL
