MODEL 1
REMARK VINA RESULT:    -2.156      0.000      0.000
REMARK INTER + INTRA:          -2.156
REMARK INTER:                  -2.156
REMARK INTRA:                   0.000
REMARK UNBOUND:                 0.000
REMARK SMILES CC(=O)[O-]
REMARK SMILES IDX 1 1 2 2 3 3 4 4
REMARK H PARENT
REMARK Flexibility Score: inf
ROOT
ATOM      1  C   UNL     1      14.851  24.159  33.076  1.00  0.00     0.063 C 
ATOM      2  C   UNL     1      13.977  25.357  33.239  1.00  0.00     0.038 C 
ATOM      3  O   UNL     1      14.486  26.505  33.308  1.00  0.00    -0.550 OA
ATOM      4  O   UNL     1      12.596  25.211  33.259  1.00  0.00    -0.550 OA
ENDROOT
TORSDOF 0
ENDMDL
MODEL 2
REMARK VINA RESULT:    -2.116      1.972      2.137
REMARK INTER + INTRA:          -2.116
REMARK INTER:                  -2.116
REMARK INTRA:                   0.000
REMARK UNBOUND:                 0.000
REMARK SMILES CC(=O)[O-]
REMARK SMILES IDX 1 1 2 2 3 3 4 4
REMARK H PARENT
REMARK Flexibility Score: inf
ROOT
ATOM      1  C   UNL     1      12.884  25.350  33.472  1.00  0.00     0.063 C 
ATOM      2  C   UNL     1      12.771  26.726  34.035  1.00  0.00     0.038 C 
ATOM      3  O   UNL     1      13.797  27.325  34.449  1.00  0.00    -0.550 OA
ATOM      4  O   UNL     1      11.540  27.370  34.054  1.00  0.00    -0.550 OA
ENDROOT
TORSDOF 0
ENDMDL
MODEL 3
REMARK VINA RESULT:    -2.089      1.418      1.775
REMARK INTER + INTRA:          -2.089
REMARK INTER:                  -2.089
REMARK INTRA:                   0.000
REMARK UNBOUND:                 0.000
REMARK SMILES CC(=O)[O-]
REMARK SMILES IDX 1 1 2 2 3 3 4 4
REMARK H PARENT
REMARK Flexibility Score: inf
ROOT
ATOM      1  C   UNL     1      12.694  25.513  33.515  1.00  0.00     0.063 C 
ATOM      2  C   UNL     1      14.149  25.425  33.197  1.00  0.00     0.038 C 
ATOM      3  O   UNL     1      14.849  26.469  33.150  1.00  0.00    -0.550 OA
ATOM      4  O   UNL     1      14.745  24.185  33.007  1.00  0.00    -0.550 OA
ENDROOT
TORSDOF 0
ENDMDL
MODEL 4
REMARK VINA RESULT:    -2.039      1.363      2.200
REMARK INTER + INTRA:          -2.039
REMARK INTER:                  -2.039
REMARK INTRA:                   0.000
REMARK UNBOUND:                 0.000
REMARK SMILES CC(=O)[O-]
REMARK SMILES IDX 1 1 2 2 3 3 4 4
REMARK H PARENT
REMARK Flexibility Score: inf
ROOT
ATOM      1  C   UNL     1      12.671  25.659  33.620  1.00  0.00     0.063 C 
ATOM      2  C   UNL     1      14.103  25.549  33.218  1.00  0.00     0.038 C 
ATOM      3  O   UNL     1      14.563  24.449  32.814  1.00  0.00    -0.550 OA
ATOM      4  O   UNL     1      14.918  26.673  33.235  1.00  0.00    -0.550 OA
ENDROOT
TORSDOF 0
ENDMDL
MODEL 5
REMARK VINA RESULT:    -2.035      2.147      2.497
REMARK INTER + INTRA:          -2.035
REMARK INTER:                  -2.035
REMARK INTRA:                   0.000
REMARK UNBOUND:                 0.000
REMARK SMILES CC(=O)[O-]
REMARK SMILES IDX 1 1 2 2 3 3 4 4
REMARK H PARENT
REMARK Flexibility Score: inf
ROOT
ATOM      1  C   UNL     1      14.071  26.976  34.098  1.00  0.00     0.063 C 
ATOM      2  C   UNL     1      12.669  26.531  33.854  1.00  0.00     0.038 C 
ATOM      3  O   UNL     1      12.442  25.392  33.370  1.00  0.00    -0.550 OA
ATOM      4  O   UNL     1      11.607  27.353  34.213  1.00  0.00    -0.550 OA
ENDROOT
TORSDOF 0
ENDMDL
MODEL 6
REMARK VINA RESULT:    -2.022      3.771      4.106
REMARK INTER + INTRA:          -2.022
REMARK INTER:                  -2.022
REMARK INTRA:                   0.000
REMARK UNBOUND:                 0.000
REMARK SMILES CC(=O)[O-]
REMARK SMILES IDX 1 1 2 2 3 3 4 4
REMARK H PARENT
REMARK Flexibility Score: inf
ROOT
ATOM      1  C   UNL     1      12.247  26.960  34.183  1.00  0.00     0.063 C 
ATOM      2  C   UNL     1      11.620  27.649  35.347  1.00  0.00     0.038 C 
ATOM      3  O   UNL     1      10.966  28.710  35.176  1.00  0.00    -0.550 OA
ATOM      4  O   UNL     1      11.712  27.092  36.616  1.00  0.00    -0.550 OA
ENDROOT
TORSDOF 0
ENDMDL
MODEL 7
REMARK VINA RESULT:    -1.885      3.854      4.298
REMARK INTER + INTRA:          -1.885
REMARK INTER:                  -1.885
REMARK INTRA:                   0.000
REMARK UNBOUND:                 0.000
REMARK SMILES CC(=O)[O-]
REMARK SMILES IDX 1 1 2 2 3 3 4 4
REMARK H PARENT
REMARK Flexibility Score: inf
ROOT
ATOM      1  C   UNL     1      11.880  27.285  36.438  1.00  0.00     0.063 C 
ATOM      2  C   UNL     1      11.527  27.818  35.091  1.00  0.00     0.038 C 
ATOM      3  O   UNL     1      11.840  27.176  34.055  1.00  0.00    -0.550 OA
ATOM      4  O   UNL     1      10.802  28.998  34.978  1.00  0.00    -0.550 OA
ENDROOT
TORSDOF 0
ENDMDL
MODEL 8
REMARK VINA RESULT:    -1.747      1.704      2.497
REMARK INTER + INTRA:          -1.747
REMARK INTER:                  -1.747
REMARK INTRA:                   0.000
REMARK UNBOUND:                 0.000
REMARK SMILES CC(=O)[O-]
REMARK SMILES IDX 1 1 2 2 3 3 4 4
REMARK H PARENT
REMARK Flexibility Score: inf
ROOT
ATOM      1  C   UNL     1      15.969  22.826  33.289  1.00  0.00     0.063 C 
ATOM      2  C   UNL     1      15.456  24.224  33.221  1.00  0.00     0.038 C 
ATOM      3  O   UNL     1      14.217  24.441  33.190  1.00  0.00    -0.550 OA
ATOM      4  O   UNL     1      16.344  25.292  33.249  1.00  0.00    -0.550 OA
ENDROOT
TORSDOF 0
ENDMDL
MODEL 9
REMARK VINA RESULT:    -1.727     10.789     11.327
REMARK INTER + INTRA:          -1.727
REMARK INTER:                  -1.727
REMARK INTRA:                   0.000
REMARK UNBOUND:                 0.000
REMARK SMILES CC(=O)[O-]
REMARK SMILES IDX 1 1 2 2 3 3 4 4
REMARK H PARENT
REMARK Flexibility Score: inf
ROOT
ATOM      1  C   UNL     1      14.517  13.415  32.464  1.00  0.00     0.063 C 
ATOM      2  C   UNL     1      14.563  14.102  33.786  1.00  0.00     0.038 C 
ATOM      3  O   UNL     1      14.925  15.305  33.861  1.00  0.00    -0.550 OA
ATOM      4  O   UNL     1      14.154  13.432  34.933  1.00  0.00    -0.550 OA
ENDROOT
TORSDOF 0
ENDMDL
