MODEL 1
REMARK VINA RESULT:    -3.862      0.000      0.000
REMARK INTER + INTRA:          -7.525
REMARK INTER:                  -6.798
REMARK INTRA:                  -0.727
REMARK UNBOUND:                -0.727
REMARK SMILES CCCCCCCCCCCCCCC(=O)[O-]
REMARK SMILES IDX 9 1 10 2 11 3 12 4 13 5 14 6 15 7 16 8 17 9 8 10 7 11 6 12
REMARK SMILES IDX 5 13 4 14 3 15 2 16 1 17
REMARK H PARENT
REMARK Flexibility Score: inf
ROOT
ATOM      1  C   UNL     1       9.298  -5.277   4.128  1.00  0.00     0.000 C 
ENDROOT
BRANCH   1   2
ATOM      2  C   UNL     1      10.682  -5.614   3.551  1.00  0.00     0.000 C 
BRANCH   2   3
ATOM      3  C   UNL     1      11.607  -6.172   4.639  1.00  0.00     0.000 C 
BRANCH   3   4
ATOM      4  C   UNL     1      13.043  -6.330   4.115  1.00  0.00     0.000 C 
BRANCH   4   5
ATOM      5  C   UNL     1      14.024  -5.344   4.766  1.00  0.00     0.006 C 
BRANCH   5   6
ATOM      6  C   UNL     1      15.421  -5.396   4.136  1.00  0.00     0.053 C 
BRANCH   6   7
ATOM      7  C   UNL     1      16.416  -5.928   5.118  1.00  0.00     0.041 C 
ATOM      8  O   UNL     1      17.002  -7.021   4.897  1.00  0.00    -0.550 OA
ATOM      9  O   UNL     1      16.661  -5.243   6.301  1.00  0.00    -0.550 OA
ENDBRANCH   6   7
ENDBRANCH   5   6
ENDBRANCH   4   5
ENDBRANCH   3   4
ENDBRANCH   2   3
ENDBRANCH   1   2
BRANCH   1  10
ATOM     10  C   UNL     1       8.187  -6.206   3.605  1.00  0.00     0.000 C 
BRANCH  10  11
ATOM     11  C   UNL     1       6.826  -5.523   3.372  1.00  0.00    -0.000 C 
BRANCH  11  12
ATOM     12  C   UNL     1       5.601  -6.344   3.820  1.00  0.00    -0.000 C 
BRANCH  12  13
ATOM     13  C   UNL     1       4.944  -5.821   5.115  1.00  0.00    -0.000 C 
BRANCH  13  14
ATOM     14  C   UNL     1       5.657  -6.331   6.380  1.00  0.00    -0.000 C 
BRANCH  14  15
ATOM     15  C   UNL     1       5.941  -7.841   6.328  1.00  0.00    -0.000 C 
BRANCH  15  16
ATOM     16  C   UNL     1       4.958  -8.653   7.183  1.00  0.00    -0.003 C 
ATOM     17  C   UNL     1       3.785  -9.154   6.348  1.00  0.00     0.004 C 
ENDBRANCH  15  16
ENDBRANCH  14  15
ENDBRANCH  13  14
ENDBRANCH  12  13
ENDBRANCH  11  12
ENDBRANCH  10  11
ENDBRANCH   1  10
TORSDOF 13
ENDMDL
MODEL 2
REMARK VINA RESULT:    -3.451      1.259      2.205
REMARK INTER + INTRA:          -6.801
REMARK INTER:                  -5.914
REMARK INTRA:                  -0.887
REMARK UNBOUND:                -0.727
REMARK SMILES CCCCCCCCCCCCCCC(=O)[O-]
REMARK SMILES IDX 9 1 10 2 11 3 12 4 13 5 14 6 15 7 16 8 17 9 8 10 7 11 6 12
REMARK SMILES IDX 5 13 4 14 3 15 2 16 1 17
REMARK H PARENT
REMARK Flexibility Score: inf
ROOT
ATOM      1  C   UNL     1      10.252  -5.662   3.618  1.00  0.00     0.000 C 
ENDROOT
BRANCH   1   2
ATOM      2  C   UNL     1      11.345  -6.054   4.624  1.00  0.00     0.000 C 
BRANCH   2   3
ATOM      3  C   UNL     1      12.598  -6.561   3.900  1.00  0.00     0.000 C 
BRANCH   3   4
ATOM      4  C   UNL     1      13.825  -5.709   4.259  1.00  0.00     0.000 C 
BRANCH   4   5
ATOM      5  C   UNL     1      15.012  -5.951   3.315  1.00  0.00     0.006 C 
BRANCH   5   6
ATOM      6  C   UNL     1      16.318  -5.339   3.837  1.00  0.00     0.053 C 
BRANCH   6   7
ATOM      7  C   UNL     1      16.752  -6.032   5.091  1.00  0.00     0.041 C 
ATOM      8  O   UNL     1      17.181  -7.215   5.045  1.00  0.00    -0.550 OA
ATOM      9  O   UNL     1      16.637  -5.389   6.316  1.00  0.00    -0.550 OA
ENDBRANCH   6   7
ENDBRANCH   5   6
ENDBRANCH   4   5
ENDBRANCH   3   4
ENDBRANCH   2   3
ENDBRANCH   1   2
BRANCH   1  10
ATOM     10  C   UNL     1       8.829  -5.822   4.185  1.00  0.00     0.000 C 
BRANCH  10  11
ATOM     11  C   UNL     1       7.830  -6.520   3.243  1.00  0.00    -0.000 C 
BRANCH  11  12
ATOM     12  C   UNL     1       6.759  -7.375   3.948  1.00  0.00    -0.000 C 
BRANCH  12  13
ATOM     13  C   UNL     1       6.807  -7.281   5.489  1.00  0.00    -0.000 C 
BRANCH  13  14
ATOM     14  C   UNL     1       5.637  -6.462   6.062  1.00  0.00    -0.000 C 
BRANCH  14  15
ATOM     15  C   UNL     1       4.525  -6.221   5.029  1.00  0.00    -0.000 C 
BRANCH  15  16
ATOM     16  C   UNL     1       4.177  -4.732   4.879  1.00  0.00    -0.003 C 
ATOM     17  C   UNL     1       4.708  -4.172   3.564  1.00  0.00     0.004 C 
ENDBRANCH  15  16
ENDBRANCH  14  15
ENDBRANCH  13  14
ENDBRANCH  12  13
ENDBRANCH  11  12
ENDBRANCH  10  11
ENDBRANCH   1  10
TORSDOF 13
ENDMDL
MODEL 3
REMARK VINA RESULT:    -3.435      4.108      8.991
REMARK INTER + INTRA:          -6.773
REMARK INTER:                  -6.109
REMARK INTRA:                  -0.664
REMARK UNBOUND:                -0.727
REMARK SMILES CCCCCCCCCCCCCCC(=O)[O-]
REMARK SMILES IDX 9 1 10 2 11 3 12 4 13 5 14 6 15 7 16 8 17 9 8 10 7 11 6 12
REMARK SMILES IDX 5 13 4 14 3 15 2 16 1 17
REMARK H PARENT
REMARK Flexibility Score: inf
ROOT
ATOM      1  C   UNL     1       9.059  -4.923   3.611  1.00  0.00     0.000 C 
ENDROOT
BRANCH   1   2
ATOM      2  C   UNL     1       8.322  -6.000   4.422  1.00  0.00     0.000 C 
BRANCH   2   3
ATOM      3  C   UNL     1       7.072  -6.486   3.678  1.00  0.00     0.000 C 
BRANCH   3   4
ATOM      4  C   UNL     1       5.837  -5.668   4.083  1.00  0.00     0.000 C 
BRANCH   4   5
ATOM      5  C   UNL     1       4.884  -6.449   5.001  1.00  0.00     0.006 C 
BRANCH   5   6
ATOM      6  C   UNL     1       5.477  -6.700   6.393  1.00  0.00     0.053 C 
BRANCH   6   7
ATOM      7  C   UNL     1       5.500  -8.166   6.692  1.00  0.00     0.041 C 
ATOM      8  O   UNL     1       4.712  -8.651   7.545  1.00  0.00    -0.550 OA
ATOM      9  O   UNL     1       6.425  -8.989   6.063  1.00  0.00    -0.550 OA
ENDBRANCH   6   7
ENDBRANCH   5   6
ENDBRANCH   4   5
ENDBRANCH   3   4
ENDBRANCH   2   3
ENDBRANCH   1   2
BRANCH   1  10
ATOM     10  C   UNL     1      10.448  -5.381   3.129  1.00  0.00     0.000 C 
BRANCH  10  11
ATOM     11  C   UNL     1      11.345  -5.996   4.221  1.00  0.00    -0.000 C 
BRANCH  11  12
ATOM     12  C   UNL     1      12.812  -6.220   3.808  1.00  0.00    -0.000 C 
BRANCH  12  13
ATOM     13  C   UNL     1      13.439  -5.018   3.068  1.00  0.00    -0.000 C 
BRANCH  13  14
ATOM     14  C   UNL     1      14.977  -5.034   3.124  1.00  0.00    -0.000 C 
BRANCH  14  15
ATOM     15  C   UNL     1      15.513  -5.661   4.421  1.00  0.00    -0.000 C 
BRANCH  15  16
ATOM     16  C   UNL     1      16.966  -6.139   4.284  1.00  0.00    -0.003 C 
ATOM     17  C   UNL     1      17.077  -7.641   4.524  1.00  0.00     0.004 C 
ENDBRANCH  15  16
ENDBRANCH  14  15
ENDBRANCH  13  14
ENDBRANCH  12  13
ENDBRANCH  11  12
ENDBRANCH  10  11
ENDBRANCH   1  10
TORSDOF 13
ENDMDL
MODEL 4
REMARK VINA RESULT:    -3.433      1.164      2.185
REMARK INTER + INTRA:          -6.769
REMARK INTER:                  -6.174
REMARK INTRA:                  -0.595
REMARK UNBOUND:                -0.727
REMARK SMILES CCCCCCCCCCCCCCC(=O)[O-]
REMARK SMILES IDX 9 1 10 2 11 3 12 4 13 5 14 6 15 7 16 8 17 9 8 10 7 11 6 12
REMARK SMILES IDX 5 13 4 14 3 15 2 16 1 17
REMARK H PARENT
REMARK Flexibility Score: inf
ROOT
ATOM      1  C   UNL     1      11.560  -6.328   4.050  1.00  0.00     0.000 C 
ENDROOT
BRANCH   1   2
ATOM      2  C   UNL     1      12.895  -5.687   4.459  1.00  0.00     0.000 C 
BRANCH   2   3
ATOM      3  C   UNL     1      13.457  -4.821   3.325  1.00  0.00     0.000 C 
BRANCH   3   4
ATOM      4  C   UNL     1      14.951  -5.101   3.105  1.00  0.00     0.000 C 
BRANCH   4   5
ATOM      5  C   UNL     1      15.451  -6.315   3.904  1.00  0.00     0.006 C 
BRANCH   5   6
ATOM      6  C   UNL     1      16.980  -6.361   4.014  1.00  0.00     0.053 C 
BRANCH   6   7
ATOM      7  C   UNL     1      17.421  -7.677   4.573  1.00  0.00     0.041 C 
ATOM      8  O   UNL     1      17.552  -8.675   3.815  1.00  0.00    -0.550 OA
ATOM      9  O   UNL     1      17.642  -7.816   5.936  1.00  0.00    -0.550 OA
ENDBRANCH   6   7
ENDBRANCH   5   6
ENDBRANCH   4   5
ENDBRANCH   3   4
ENDBRANCH   2   3
ENDBRANCH   1   2
BRANCH   1  10
ATOM     10  C   UNL     1      10.587  -5.326   3.401  1.00  0.00     0.000 C 
BRANCH  10  11
ATOM     11  C   UNL     1       9.211  -5.222   4.085  1.00  0.00    -0.000 C 
BRANCH  11  12
ATOM     12  C   UNL     1       8.102  -6.084   3.451  1.00  0.00    -0.000 C 
BRANCH  12  13
ATOM     13  C   UNL     1       7.335  -6.956   4.469  1.00  0.00    -0.000 C 
BRANCH  13  14
ATOM     14  C   UNL     1       5.975  -6.348   4.852  1.00  0.00    -0.000 C 
BRANCH  14  15
ATOM     15  C   UNL     1       5.645  -6.534   6.342  1.00  0.00    -0.000 C 
BRANCH  15  16
ATOM     16  C   UNL     1       5.445  -8.010   6.718  1.00  0.00    -0.003 C 
ATOM     17  C   UNL     1       4.386  -8.665   5.838  1.00  0.00     0.004 C 
ENDBRANCH  15  16
ENDBRANCH  14  15
ENDBRANCH  13  14
ENDBRANCH  12  13
ENDBRANCH  11  12
ENDBRANCH  10  11
ENDBRANCH   1  10
TORSDOF 13
ENDMDL
MODEL 5
REMARK VINA RESULT:    -3.179      4.310      9.316
REMARK INTER + INTRA:          -6.323
REMARK INTER:                  -5.822
REMARK INTRA:                  -0.501
REMARK UNBOUND:                -0.727
REMARK SMILES CCCCCCCCCCCCCCC(=O)[O-]
REMARK SMILES IDX 9 1 10 2 11 3 12 4 13 5 14 6 15 7 16 8 17 9 8 10 7 11 6 12
REMARK SMILES IDX 5 13 4 14 3 15 2 16 1 17
REMARK H PARENT
REMARK Flexibility Score: inf
ROOT
ATOM      1  C   UNL     1      11.555  -5.981   3.854  1.00  0.00     0.000 C 
ENDROOT
BRANCH   1   2
ATOM      2  C   UNL     1      10.183  -6.084   3.170  1.00  0.00     0.000 C 
BRANCH   2   3
ATOM      3  C   UNL     1       9.079  -5.516   4.069  1.00  0.00     0.000 C 
BRANCH   3   4
ATOM      4  C   UNL     1       7.805  -5.225   3.262  1.00  0.00     0.000 C 
BRANCH   4   5
ATOM      5  C   UNL     1       6.577  -5.976   3.800  1.00  0.00     0.006 C 
BRANCH   5   6
ATOM      6  C   UNL     1       6.879  -6.760   5.082  1.00  0.00     0.053 C 
BRANCH   6   7
ATOM      7  C   UNL     1       5.703  -6.716   6.008  1.00  0.00     0.041 C 
ATOM      8  O   UNL     1       4.959  -5.701   6.037  1.00  0.00    -0.550 OA
ATOM      9  O   UNL     1       5.457  -7.775   6.871  1.00  0.00    -0.550 OA
ENDBRANCH   6   7
ENDBRANCH   5   6
ENDBRANCH   4   5
ENDBRANCH   3   4
ENDBRANCH   2   3
ENDBRANCH   1   2
BRANCH   1  10
ATOM     10  C   UNL     1      12.661  -5.480   2.907  1.00  0.00     0.000 C 
BRANCH  10  11
ATOM     11  C   UNL     1      13.751  -4.622   3.579  1.00  0.00    -0.000 C 
BRANCH  11  12
ATOM     12  C   UNL     1      14.706  -5.395   4.508  1.00  0.00    -0.000 C 
BRANCH  12  13
ATOM     13  C   UNL     1      16.078  -5.703   3.870  1.00  0.00    -0.000 C 
BRANCH  13  14
ATOM     14  C   UNL     1      16.891  -6.719   4.692  1.00  0.00    -0.000 C 
BRANCH  14  15
ATOM     15  C   UNL     1      17.741  -7.646   3.809  1.00  0.00    -0.000 C 
BRANCH  15  16
ATOM     16  C   UNL     1      17.308  -9.116   3.914  1.00  0.00    -0.003 C 
ATOM     17  C   UNL     1      17.372  -9.607   5.357  1.00  0.00     0.004 C 
ENDBRANCH  15  16
ENDBRANCH  14  15
ENDBRANCH  13  14
ENDBRANCH  12  13
ENDBRANCH  11  12
ENDBRANCH  10  11
ENDBRANCH   1  10
TORSDOF 13
ENDMDL
MODEL 6
REMARK VINA RESULT:    -3.077      2.094      3.346
REMARK INTER + INTRA:          -6.142
REMARK INTER:                  -4.848
REMARK INTRA:                  -1.294
REMARK UNBOUND:                -0.727
REMARK SMILES CCCCCCCCCCCCCCC(=O)[O-]
REMARK SMILES IDX 9 1 10 2 11 3 12 4 13 5 14 6 15 7 16 8 17 9 8 10 7 11 6 12
REMARK SMILES IDX 5 13 4 14 3 15 2 16 1 17
REMARK H PARENT
REMARK Flexibility Score: inf
ROOT
ATOM      1  C   UNL     1       6.348  -5.570   3.279  1.00  0.00     0.000 C 
ENDROOT
BRANCH   1   2
ATOM      2  C   UNL     1       7.464  -6.397   3.935  1.00  0.00     0.000 C 
BRANCH   2   3
ATOM      3  C   UNL     1       8.733  -6.383   3.075  1.00  0.00     0.000 C 
BRANCH   3   4
ATOM      4  C   UNL     1       9.301  -4.961   2.953  1.00  0.00     0.000 C 
BRANCH   4   5
ATOM      5  C   UNL     1      10.835  -4.940   2.875  1.00  0.00     0.006 C 
BRANCH   5   6
ATOM      6  C   UNL     1      11.455  -6.333   3.036  1.00  0.00     0.053 C 
BRANCH   6   7
ATOM      7  C   UNL     1      12.420  -6.344   4.180  1.00  0.00     0.041 C 
ATOM      8  O   UNL     1      13.660  -6.351   3.963  1.00  0.00    -0.550 OA
ATOM      9  O   UNL     1      11.950  -6.395   5.486  1.00  0.00    -0.550 OA
ENDBRANCH   6   7
ENDBRANCH   5   6
ENDBRANCH   4   5
ENDBRANCH   3   4
ENDBRANCH   2   3
ENDBRANCH   1   2
BRANCH   1  10
ATOM     10  C   UNL     1       5.236  -5.172   4.267  1.00  0.00     0.000 C 
BRANCH  10  11
ATOM     11  C   UNL     1       3.824  -5.658   3.885  1.00  0.00    -0.000 C 
BRANCH  11  12
ATOM     12  C   UNL     1       3.743  -7.129   3.434  1.00  0.00    -0.000 C 
BRANCH  12  13
ATOM     13  C   UNL     1       2.857  -8.009   4.342  1.00  0.00    -0.000 C 
BRANCH  13  14
ATOM     14  C   UNL     1       3.623  -9.213   4.919  1.00  0.00    -0.000 C 
BRANCH  14  15
ATOM     15  C   UNL     1       5.147  -9.049   4.807  1.00  0.00    -0.000 C 
BRANCH  15  16
ATOM     16  C   UNL     1       5.793  -8.645   6.141  1.00  0.00    -0.003 C 
ATOM     17  C   UNL     1       4.758  -8.588   7.259  1.00  0.00     0.004 C 
ENDBRANCH  15  16
ENDBRANCH  14  15
ENDBRANCH  13  14
ENDBRANCH  12  13
ENDBRANCH  11  12
ENDBRANCH  10  11
ENDBRANCH   1  10
TORSDOF 13
ENDMDL
MODEL 7
REMARK VINA RESULT:    -2.998      4.344      9.118
REMARK INTER + INTRA:          -6.004
REMARK INTER:                  -5.184
REMARK INTRA:                  -0.820
REMARK UNBOUND:                -0.727
REMARK SMILES CCCCCCCCCCCCCCC(=O)[O-]
REMARK SMILES IDX 9 1 10 2 11 3 12 4 13 5 14 6 15 7 16 8 17 9 8 10 7 11 6 12
REMARK SMILES IDX 5 13 4 14 3 15 2 16 1 17
REMARK H PARENT
REMARK Flexibility Score: inf
ROOT
ATOM      1  C   UNL     1      13.895  -5.389   4.679  1.00  0.00     0.000 C 
ENDROOT
BRANCH   1   2
ATOM      2  C   UNL     1      12.738  -5.211   3.683  1.00  0.00     0.000 C 
BRANCH   2   3
ATOM      3  C   UNL     1      11.523  -6.048   4.099  1.00  0.00     0.000 C 
BRANCH   3   4
ATOM      4  C   UNL     1      10.229  -5.478   3.500  1.00  0.00     0.000 C 
BRANCH   4   5
ATOM      5  C   UNL     1       9.002  -5.733   4.388  1.00  0.00     0.006 C 
BRANCH   5   6
ATOM      6  C   UNL     1       7.679  -5.600   3.622  1.00  0.00     0.053 C 
BRANCH   6   7
ATOM      7  C   UNL     1       6.562  -6.219   4.402  1.00  0.00     0.041 C 
ATOM      8  O   UNL     1       6.760  -7.269   5.069  1.00  0.00    -0.550 OA
ATOM      9  O   UNL     1       5.290  -5.663   4.356  1.00  0.00    -0.550 OA
ENDBRANCH   6   7
ENDBRANCH   5   6
ENDBRANCH   4   5
ENDBRANCH   3   4
ENDBRANCH   2   3
ENDBRANCH   1   2
BRANCH   1  10
ATOM     10  C   UNL     1      15.199  -5.857   4.007  1.00  0.00     0.000 C 
BRANCH  10  11
ATOM     11  C   UNL     1      15.018  -6.934   2.920  1.00  0.00    -0.000 C 
BRANCH  11  12
ATOM     12  C   UNL     1      14.266  -8.199   3.377  1.00  0.00    -0.000 C 
BRANCH  12  13
ATOM     13  C   UNL     1      15.138  -9.473   3.380  1.00  0.00    -0.000 C 
BRANCH  13  14
ATOM     14  C   UNL     1      16.627  -9.163   3.144  1.00  0.00    -0.000 C 
BRANCH  14  15
ATOM     15  C   UNL     1      17.553 -10.002   4.038  1.00  0.00    -0.000 C 
BRANCH  15  16
ATOM     16  C   UNL     1      17.459  -9.602   5.518  1.00  0.00    -0.003 C 
ATOM     17  C   UNL     1      17.699  -8.108   5.701  1.00  0.00     0.004 C 
ENDBRANCH  15  16
ENDBRANCH  14  15
ENDBRANCH  13  14
ENDBRANCH  12  13
ENDBRANCH  11  12
ENDBRANCH  10  11
ENDBRANCH   1  10
TORSDOF 13
ENDMDL
MODEL 8
REMARK VINA RESULT:    -2.883      1.742      3.293
REMARK INTER + INTRA:          -5.801
REMARK INTER:                  -4.998
REMARK INTRA:                  -0.803
REMARK UNBOUND:                -0.727
REMARK SMILES CCCCCCCCCCCCCCC(=O)[O-]
REMARK SMILES IDX 9 1 10 2 11 3 12 4 13 5 14 6 15 7 16 8 17 9 8 10 7 11 6 12
REMARK SMILES IDX 5 13 4 14 3 15 2 16 1 17
REMARK H PARENT
REMARK Flexibility Score: inf
ROOT
ATOM      1  C   UNL     1      12.686  -7.060   4.145  1.00  0.00     0.000 C 
ENDROOT
BRANCH   1   2
ATOM      2  C   UNL     1      13.494  -7.844   3.099  1.00  0.00     0.000 C 
BRANCH   2   3
ATOM      3  C   UNL     1      13.958  -9.192   3.664  1.00  0.00     0.000 C 
BRANCH   3   4
ATOM      4  C   UNL     1      15.490  -9.251   3.761  1.00  0.00     0.000 C 
BRANCH   4   5
ATOM      5  C   UNL     1      16.164  -7.950   3.302  1.00  0.00     0.006 C 
BRANCH   5   6
ATOM      6  C   UNL     1      16.971  -7.276   4.419  1.00  0.00     0.053 C 
BRANCH   6   7
ATOM      7  C   UNL     1      16.408  -5.924   4.725  1.00  0.00     0.041 C 
ATOM      8  O   UNL     1      15.980  -5.191   3.795  1.00  0.00    -0.550 OA
ATOM      9  O   UNL     1      16.399  -5.454   6.032  1.00  0.00    -0.550 OA
ENDBRANCH   6   7
ENDBRANCH   5   6
ENDBRANCH   4   5
ENDBRANCH   3   4
ENDBRANCH   2   3
ENDBRANCH   1   2
BRANCH   1  10
ATOM     10  C   UNL     1      12.396  -5.610   3.715  1.00  0.00     0.000 C 
BRANCH  10  11
ATOM     11  C   UNL     1      11.087  -5.416   2.926  1.00  0.00    -0.000 C 
BRANCH  11  12
ATOM     12  C   UNL     1       9.798  -5.627   3.744  1.00  0.00    -0.000 C 
BRANCH  12  13
ATOM     13  C   UNL     1       8.512  -5.618   2.889  1.00  0.00    -0.000 C 
BRANCH  13  14
ATOM     14  C   UNL     1       7.237  -5.657   3.749  1.00  0.00    -0.000 C 
BRANCH  14  15
ATOM     15  C   UNL     1       7.026  -7.019   4.429  1.00  0.00    -0.000 C 
BRANCH  15  16
ATOM     16  C   UNL     1       5.599  -7.190   4.969  1.00  0.00    -0.003 C 
ATOM     17  C   UNL     1       5.609  -7.571   6.445  1.00  0.00     0.004 C 
ENDBRANCH  15  16
ENDBRANCH  14  15
ENDBRANCH  13  14
ENDBRANCH  12  13
ENDBRANCH  11  12
ENDBRANCH  10  11
ENDBRANCH   1  10
TORSDOF 13
ENDMDL
MODEL 9
REMARK VINA RESULT:    -2.876      1.845      3.654
REMARK INTER + INTRA:          -5.788
REMARK INTER:                  -5.163
REMARK INTRA:                  -0.625
REMARK UNBOUND:                -0.727
REMARK SMILES CCCCCCCCCCCCCCC(=O)[O-]
REMARK SMILES IDX 9 1 10 2 11 3 12 4 13 5 14 6 15 7 16 8 17 9 8 10 7 11 6 12
REMARK SMILES IDX 5 13 4 14 3 15 2 16 1 17
REMARK H PARENT
REMARK Flexibility Score: inf
ROOT
ATOM      1  C   UNL     1      13.044  -5.734   4.666  1.00  0.00     0.000 C 
ENDROOT
BRANCH   1   2
ATOM      2  C   UNL     1      14.049  -6.217   3.609  1.00  0.00     0.000 C 
BRANCH   2   3
ATOM      3  C   UNL     1      15.362  -5.431   3.702  1.00  0.00     0.000 C 
BRANCH   3   4
ATOM      4  C   UNL     1      16.547  -6.275   3.209  1.00  0.00     0.000 C 
BRANCH   4   5
ATOM      5  C   UNL     1      16.236  -7.779   3.189  1.00  0.00     0.006 C 
BRANCH   5   6
ATOM      6  C   UNL     1      17.437  -8.638   3.603  1.00  0.00     0.053 C 
BRANCH   6   7
ATOM      7  C   UNL     1      17.361  -8.972   5.060  1.00  0.00     0.041 C 
ATOM      8  O   UNL     1      16.830 -10.050   5.435  1.00  0.00    -0.550 OA
ATOM      9  O   UNL     1      17.833  -8.071   6.006  1.00  0.00    -0.550 OA
ENDBRANCH   6   7
ENDBRANCH   5   6
ENDBRANCH   4   5
ENDBRANCH   3   4
ENDBRANCH   2   3
ENDBRANCH   1   2
BRANCH   1  10
ATOM     10  C   UNL     1      11.613  -6.240   4.408  1.00  0.00     0.000 C 
BRANCH  10  11
ATOM     11  C   UNL     1      10.931  -5.652   3.157  1.00  0.00    -0.000 C 
BRANCH  11  12
ATOM     12  C   UNL     1       9.578  -4.962   3.418  1.00  0.00    -0.000 C 
BRANCH  12  13
ATOM     13  C   UNL     1       8.371  -5.923   3.362  1.00  0.00    -0.000 C 
BRANCH  13  14
ATOM     14  C   UNL     1       7.864  -6.308   4.763  1.00  0.00    -0.000 C 
BRANCH  14  15
ATOM     15  C   UNL     1       6.345  -6.538   4.797  1.00  0.00    -0.000 C 
BRANCH  15  16
ATOM     16  C   UNL     1       5.578  -5.519   3.942  1.00  0.00    -0.003 C 
ATOM     17  C   UNL     1       4.351  -4.992   4.679  1.00  0.00     0.004 C 
ENDBRANCH  15  16
ENDBRANCH  14  15
ENDBRANCH  13  14
ENDBRANCH  12  13
ENDBRANCH  11  12
ENDBRANCH  10  11
ENDBRANCH   1  10
TORSDOF 13
ENDMDL
