MODEL 1
REMARK VINA RESULT:    -5.223      0.000      0.000
REMARK INTER + INTRA:          -6.735
REMARK INTER:                  -6.445
REMARK INTRA:                  -0.290
REMARK UNBOUND:                -0.290
REMARK SMILES Oc1cc(O)c2cc(O)c(-c3cc(O)c(O)c(O)c3)[o+]c2c1
REMARK SMILES IDX 10 1 20 2 21 3 22 4 2 5 3 6 4 7 6 8 7 9 8 10 11 11 12 12
REMARK SMILES IDX 13 13 19 14 15 15 17 16 14 17 16 19 18 21 9 23 1 25 5 27
REMARK H PARENT 14 18 16 20 18 22 9 24 1 26 5 28
REMARK Flexibility Score: inf
ROOT
ATOM      1  C   UNL     1     -13.235 -15.619  32.271  1.00  0.00     0.402 A 
ATOM      2  O   UNL     1     -12.194 -15.500  33.090  1.00  0.00    -0.202 OA
ATOM      3  C   UNL     1     -12.188 -14.698  34.150  1.00  0.00     0.368 A 
ATOM      4  C   UNL     1     -11.047 -14.642  34.954  1.00  0.00     0.162 A 
ATOM      5  C   UNL     1     -11.015 -13.811  36.077  1.00  0.00     0.128 A 
ATOM      6  C   UNL     1     -12.129 -13.032  36.397  1.00  0.00     0.093 A 
ATOM      7  C   UNL     1     -13.285 -13.070  35.608  1.00  0.00     0.136 A 
ATOM      8  C   UNL     1     -13.322 -13.910  34.465  1.00  0.00     0.125 A 
ATOM      9  C   UNL     1     -14.431 -14.003  33.609  1.00  0.00     0.078 A 
ATOM     10  C   UNL     1     -14.392 -14.851  32.499  1.00  0.00     0.223 A 
ENDROOT
BRANCH   1  11
ATOM     11  C   UNL     1     -13.123 -16.554  31.127  1.00  0.00     0.091 A 
ATOM     12  C   UNL     1     -12.998 -16.086  29.809  1.00  0.00     0.068 A 
ATOM     13  C   UNL     1     -12.916 -16.987  28.737  1.00  0.00     0.162 A 
ATOM     14  C   UNL     1     -13.199 -17.937  31.357  1.00  0.00     0.068 A 
ATOM     15  C   UNL     1     -12.971 -18.370  28.980  1.00  0.00     0.200 A 
ATOM     16  C   UNL     1     -13.116 -18.842  30.290  1.00  0.00     0.162 A 
BRANCH  13  17
ATOM     17  O   UNL     1     -12.785 -16.511  27.433  1.00  0.00    -0.504 OA
ATOM     18  H   UNL     1     -13.581 -16.168  26.909  1.00  0.00     0.293 HD
ENDBRANCH  13  17
BRANCH  15  19
ATOM     19  O   UNL     1     -12.887 -19.286  27.931  1.00  0.00    -0.502 OA
ATOM     20  H   UNL     1     -13.337 -20.193  27.969  1.00  0.00     0.293 HD
ENDBRANCH  15  19
BRANCH  16  21
ATOM     21  O   UNL     1     -13.178 -20.214  30.525  1.00  0.00    -0.504 OA
ATOM     22  H   UNL     1     -13.773 -20.821  29.971  1.00  0.00     0.293 HD
ENDBRANCH  16  21
ENDBRANCH   1  11
BRANCH  10  23
ATOM     23  O   UNL     1     -15.475 -14.905  31.621  1.00  0.00    -0.500 OA
ATOM     24  H   UNL     1     -15.472 -14.405  30.740  1.00  0.00     0.294 HD
ENDBRANCH  10  23
BRANCH   5  25
ATOM     25  O   UNL     1      -9.880 -13.750  36.883  1.00  0.00    -0.507 OA
ATOM     26  H   UNL     1      -9.057 -14.307  36.683  1.00  0.00     0.293 HD
ENDBRANCH   5  25
BRANCH   7  27
ATOM     27  O   UNL     1     -14.358 -12.263  35.998  1.00  0.00    -0.507 OA
ATOM     28  H   UNL     1     -15.219 -12.610  36.395  1.00  0.00     0.293 HD
ENDBRANCH   7  27
TORSDOF 7
ENDMDL
MODEL 2
REMARK VINA RESULT:    -4.089      1.616      7.262
REMARK INTER + INTRA:          -5.336
REMARK INTER:                  -5.028
REMARK INTRA:                  -0.307
REMARK UNBOUND:                -0.290
REMARK SMILES Oc1cc(O)c2cc(O)c(-c3cc(O)c(O)c(O)c3)[o+]c2c1
REMARK SMILES IDX 10 1 20 2 21 3 22 4 2 5 3 6 4 7 6 8 7 9 8 10 11 11 12 12
REMARK SMILES IDX 13 13 19 14 15 15 17 16 14 17 16 19 18 21 9 23 1 25 5 27
REMARK H PARENT 14 18 16 20 18 22 9 24 1 26 5 28
REMARK Flexibility Score: inf
ROOT
ATOM      1  C   UNL     1     -12.655 -16.427  31.563  1.00  0.00     0.402 A 
ATOM      2  O   UNL     1     -12.073 -16.067  30.423  1.00  0.00    -0.202 OA
ATOM      3  C   UNL     1     -12.185 -16.763  29.296  1.00  0.00     0.368 A 
ATOM      4  C   UNL     1     -11.538 -16.303  28.146  1.00  0.00     0.162 A 
ATOM      5  C   UNL     1     -11.642 -17.013  26.947  1.00  0.00     0.128 A 
ATOM      6  C   UNL     1     -12.395 -18.188  26.897  1.00  0.00     0.093 A 
ATOM      7  C   UNL     1     -13.053 -18.670  28.035  1.00  0.00     0.136 A 
ATOM      8  C   UNL     1     -12.949 -17.955  29.256  1.00  0.00     0.125 A 
ATOM      9  C   UNL     1     -13.562 -18.369  30.450  1.00  0.00     0.078 A 
ATOM     10  C   UNL     1     -13.411 -17.613  31.616  1.00  0.00     0.223 A 
ENDROOT
BRANCH   1  11
ATOM     11  C   UNL     1     -12.464 -15.562  32.751  1.00  0.00     0.091 A 
ATOM     12  C   UNL     1     -11.246 -15.539  33.450  1.00  0.00     0.068 A 
ATOM     13  C   UNL     1     -11.091 -14.731  34.586  1.00  0.00     0.162 A 
ATOM     14  C   UNL     1     -13.537 -14.790  33.222  1.00  0.00     0.068 A 
ATOM     15  C   UNL     1     -12.165 -13.944  35.036  1.00  0.00     0.200 A 
ATOM     16  C   UNL     1     -13.388 -13.979  34.355  1.00  0.00     0.162 A 
BRANCH  13  17
ATOM     17  O   UNL     1      -9.876 -14.710  35.269  1.00  0.00    -0.504 OA
ATOM     18  H   UNL     1      -9.357 -13.851  35.406  1.00  0.00     0.293 HD
ENDBRANCH  13  17
BRANCH  15  19
ATOM     19  O   UNL     1     -12.034 -13.128  36.161  1.00  0.00    -0.502 OA
ATOM     20  H   UNL     1     -12.771 -13.038  36.850  1.00  0.00     0.293 HD
ENDBRANCH  15  19
BRANCH  16  21
ATOM     21  O   UNL     1     -14.452 -13.203  34.811  1.00  0.00    -0.504 OA
ATOM     22  H   UNL     1     -14.701 -12.328  34.363  1.00  0.00     0.293 HD
ENDBRANCH  16  21
ENDBRANCH   1  11
BRANCH  10  23
ATOM     23  O   UNL     1     -13.979 -18.051  32.812  1.00  0.00    -0.500 OA
ATOM     24  H   UNL     1     -14.740 -17.552  33.254  1.00  0.00     0.294 HD
ENDBRANCH  10  23
BRANCH   5  25
ATOM     25  O   UNL     1     -11.000 -16.561  25.796  1.00  0.00    -0.507 OA
ATOM     26  H   UNL     1     -10.180 -17.030  25.427  1.00  0.00     0.293 HD
ENDBRANCH   5  25
BRANCH   7  27
ATOM     27  O   UNL     1     -13.789 -19.851  27.902  1.00  0.00    -0.507 OA
ATOM     28  H   UNL     1     -13.828 -20.407  27.060  1.00  0.00     0.293 HD
ENDBRANCH   7  27
TORSDOF 7
ENDMDL
MODEL 3
REMARK VINA RESULT:    -4.074      1.610      7.205
REMARK INTER + INTRA:          -5.317
REMARK INTER:                  -4.978
REMARK INTRA:                  -0.339
REMARK UNBOUND:                -0.290
REMARK SMILES Oc1cc(O)c2cc(O)c(-c3cc(O)c(O)c(O)c3)[o+]c2c1
REMARK SMILES IDX 10 1 20 2 21 3 22 4 2 5 3 6 4 7 6 8 7 9 8 10 11 11 12 12
REMARK SMILES IDX 13 13 19 14 15 15 17 16 14 17 16 19 18 21 9 23 1 25 5 27
REMARK H PARENT 14 18 16 20 18 22 9 24 1 26 5 28
REMARK Flexibility Score: inf
ROOT
ATOM      1  C   UNL     1     -12.696 -16.460  31.602  1.00  0.00     0.402 A 
ATOM      2  O   UNL     1     -12.110 -16.078  30.471  1.00  0.00    -0.202 OA
ATOM      3  C   UNL     1     -12.196 -16.765  29.337  1.00  0.00     0.368 A 
ATOM      4  C   UNL     1     -11.546 -16.282  28.198  1.00  0.00     0.162 A 
ATOM      5  C   UNL     1     -11.624 -16.983  26.991  1.00  0.00     0.128 A 
ATOM      6  C   UNL     1     -12.353 -18.172  26.923  1.00  0.00     0.093 A 
ATOM      7  C   UNL     1     -13.013 -18.677  28.049  1.00  0.00     0.136 A 
ATOM      8  C   UNL     1     -12.936 -17.971  29.278  1.00  0.00     0.125 A 
ATOM      9  C   UNL     1     -13.553 -18.409  30.461  1.00  0.00     0.078 A 
ATOM     10  C   UNL     1     -13.429 -17.661  31.636  1.00  0.00     0.223 A 
ENDROOT
BRANCH   1  11
ATOM     11  C   UNL     1     -12.534 -15.603  32.799  1.00  0.00     0.091 A 
ATOM     12  C   UNL     1     -13.582 -14.791  33.265  1.00  0.00     0.068 A 
ATOM     13  C   UNL     1     -13.401 -13.968  34.387  1.00  0.00     0.162 A 
ATOM     14  C   UNL     1     -11.292 -15.556  33.451  1.00  0.00     0.068 A 
ATOM     15  C   UNL     1     -12.160 -13.946  35.046  1.00  0.00     0.200 A 
ATOM     16  C   UNL     1     -11.107 -14.737  34.574  1.00  0.00     0.162 A 
BRANCH  13  17
ATOM     17  O   UNL     1     -14.450 -13.172  34.845  1.00  0.00    -0.504 OA
ATOM     18  H   UNL     1     -14.416 -12.715  35.748  1.00  0.00     0.293 HD
ENDBRANCH  13  17
BRANCH  15  19
ATOM     19  O   UNL     1     -11.959 -13.139  36.167  1.00  0.00    -0.502 OA
ATOM     20  H   UNL     1     -11.348 -13.415  36.926  1.00  0.00     0.293 HD
ENDBRANCH  15  19
BRANCH  16  21
ATOM     21  O   UNL     1      -9.875 -14.705  35.226  1.00  0.00    -0.504 OA
ATOM     22  H   UNL     1      -9.053 -14.307  34.786  1.00  0.00     0.293 HD
ENDBRANCH  16  21
ENDBRANCH   1  11
BRANCH  10  23
ATOM     23  O   UNL     1     -14.000 -18.121  32.822  1.00  0.00    -0.500 OA
ATOM     24  H   UNL     1     -13.434 -18.369  33.624  1.00  0.00     0.294 HD
ENDBRANCH  10  23
BRANCH   5  25
ATOM     25  O   UNL     1     -10.979 -16.507  25.852  1.00  0.00    -0.507 OA
ATOM     26  H   UNL     1     -11.397 -16.590  24.932  1.00  0.00     0.293 HD
ENDBRANCH   5  25
BRANCH   7  27
ATOM     27  O   UNL     1     -13.724 -19.871  27.897  1.00  0.00    -0.507 OA
ATOM     28  H   UNL     1     -14.148 -20.177  27.033  1.00  0.00     0.293 HD
ENDBRANCH   7  27
TORSDOF 7
ENDMDL
MODEL 4
REMARK VINA RESULT:    -3.145      1.412      6.958
REMARK INTER + INTRA:          -4.170
REMARK INTER:                  -4.495
REMARK INTRA:                   0.325
REMARK UNBOUND:                -0.290
REMARK SMILES Oc1cc(O)c2cc(O)c(-c3cc(O)c(O)c(O)c3)[o+]c2c1
REMARK SMILES IDX 10 1 20 2 21 3 22 4 2 5 3 6 4 7 6 8 7 9 8 10 11 11 12 12
REMARK SMILES IDX 13 13 19 14 15 15 17 16 14 17 16 19 18 21 9 23 1 25 5 27
REMARK H PARENT 14 18 16 20 18 22 9 24 1 26 5 28
REMARK Flexibility Score: inf
ROOT
ATOM      1  C   UNL     1     -12.699 -15.312  32.938  1.00  0.00     0.402 A 
ATOM      2  O   UNL     1     -11.802 -16.273  32.738  1.00  0.00    -0.202 OA
ATOM      3  C   UNL     1     -11.836 -17.098  31.696  1.00  0.00     0.368 A 
ATOM      4  C   UNL     1     -10.847 -18.077  31.571  1.00  0.00     0.162 A 
ATOM      5  C   UNL     1     -10.858 -18.955  30.483  1.00  0.00     0.128 A 
ATOM      6  C   UNL     1     -11.862 -18.854  29.518  1.00  0.00     0.093 A 
ATOM      7  C   UNL     1     -12.865 -17.882  29.620  1.00  0.00     0.136 A 
ATOM      8  C   UNL     1     -12.860 -16.989  30.724  1.00  0.00     0.125 A 
ATOM      9  C   UNL     1     -13.831 -15.994  30.917  1.00  0.00     0.078 A 
ATOM     10  C   UNL     1     -13.763 -15.154  32.032  1.00  0.00     0.223 A 
ENDROOT
BRANCH   1  11
ATOM     11  C   UNL     1     -12.546 -14.450  34.133  1.00  0.00     0.091 A 
ATOM     12  C   UNL     1     -13.617 -13.683  34.623  1.00  0.00     0.068 A 
ATOM     13  C   UNL     1     -13.447 -12.855  35.742  1.00  0.00     0.162 A 
ATOM     14  C   UNL     1     -11.293 -14.351  34.757  1.00  0.00     0.068 A 
ATOM     15  C   UNL     1     -12.194 -12.781  36.374  1.00  0.00     0.200 A 
ATOM     16  C   UNL     1     -11.118 -13.527  35.877  1.00  0.00     0.162 A 
BRANCH  13  17
ATOM     17  O   UNL     1     -14.517 -12.103  36.224  1.00  0.00    -0.504 OA
ATOM     18  H   UNL     1     -15.472 -12.299  35.948  1.00  0.00     0.293 HD
ENDBRANCH  13  17
BRANCH  15  19
ATOM     19  O   UNL     1     -12.001 -11.968  37.492  1.00  0.00    -0.502 OA
ATOM     20  H   UNL     1     -12.347 -11.017  37.533  1.00  0.00     0.293 HD
ENDBRANCH  15  19
BRANCH  16  21
ATOM     21  O   UNL     1      -9.875 -13.444  36.502  1.00  0.00    -0.504 OA
ATOM     22  H   UNL     1      -9.014 -13.612  35.995  1.00  0.00     0.293 HD
ENDBRANCH  16  21
ENDBRANCH   1  11
BRANCH  10  23
ATOM     23  O   UNL     1     -14.756 -14.198  32.249  1.00  0.00    -0.500 OA
ATOM     24  H   UNL     1     -15.384 -13.905  31.511  1.00  0.00     0.294 HD
ENDBRANCH  10  23
BRANCH   5  25
ATOM     25  O   UNL     1      -9.875 -19.933  30.351  1.00  0.00    -0.507 OA
ATOM     26  H   UNL     1      -9.619 -20.309  29.445  1.00  0.00     0.293 HD
ENDBRANCH   5  25
BRANCH   7  27
ATOM     27  O   UNL     1     -13.831 -17.844  28.611  1.00  0.00    -0.507 OA
ATOM     28  H   UNL     1     -14.101 -17.010  28.110  1.00  0.00     0.293 HD
ENDBRANCH   7  27
TORSDOF 7
ENDMDL
MODEL 5
REMARK VINA RESULT:    -2.757      1.316      7.044
REMARK INTER + INTRA:          -3.692
REMARK INTER:                  -3.633
REMARK INTRA:                  -0.059
REMARK UNBOUND:                -0.290
REMARK SMILES Oc1cc(O)c2cc(O)c(-c3cc(O)c(O)c(O)c3)[o+]c2c1
REMARK SMILES IDX 10 1 20 2 21 3 22 4 2 5 3 6 4 7 6 8 7 9 8 10 11 11 12 12
REMARK SMILES IDX 13 13 19 14 15 15 17 16 14 17 16 19 18 21 9 23 1 25 5 27
REMARK H PARENT 14 18 16 20 18 22 9 24 1 26 5 28
REMARK Flexibility Score: inf
ROOT
ATOM      1  C   UNL     1     -12.865 -16.047  32.262  1.00  0.00     0.402 A 
ATOM      2  O   UNL     1     -12.562 -17.332  32.425  1.00  0.00    -0.202 OA
ATOM      3  C   UNL     1     -12.747 -18.250  31.482  1.00  0.00     0.368 A 
ATOM      4  C   UNL     1     -12.396 -19.577  31.746  1.00  0.00     0.162 A 
ATOM      5  C   UNL     1     -12.576 -20.561  30.771  1.00  0.00     0.128 A 
ATOM      6  C   UNL     1     -13.110 -20.219  29.527  1.00  0.00     0.093 A 
ATOM      7  C   UNL     1     -13.471 -18.897  29.237  1.00  0.00     0.136 A 
ATOM      8  C   UNL     1     -13.292 -17.893  30.224  1.00  0.00     0.125 A 
ATOM      9  C   UNL     1     -13.637 -16.546  30.028  1.00  0.00     0.078 A 
ATOM     10  C   UNL     1     -13.435 -15.614  31.050  1.00  0.00     0.223 A 
ENDROOT
BRANCH   1  11
ATOM     11  C   UNL     1     -12.602 -15.118  33.385  1.00  0.00     0.091 A 
ATOM     12  C   UNL     1     -11.348 -15.069  34.017  1.00  0.00     0.068 A 
ATOM     13  C   UNL     1     -11.126 -14.199  35.094  1.00  0.00     0.162 A 
ATOM     14  C   UNL     1     -13.642 -14.308  33.868  1.00  0.00     0.068 A 
ATOM     15  C   UNL     1     -12.168 -13.376  35.555  1.00  0.00     0.200 A 
ATOM     16  C   UNL     1     -13.425 -13.435  34.943  1.00  0.00     0.162 A 
BRANCH  13  17
ATOM     17  O   UNL     1      -9.876 -14.153  35.709  1.00  0.00    -0.504 OA
ATOM     18  H   UNL     1      -9.329 -14.992  35.865  1.00  0.00     0.293 HD
ENDBRANCH  13  17
BRANCH  15  19
ATOM     19  O   UNL     1     -11.970 -12.498  36.622  1.00  0.00    -0.502 OA
ATOM     20  H   UNL     1     -12.510 -11.648  36.729  1.00  0.00     0.293 HD
ENDBRANCH  15  19
BRANCH  16  21
ATOM     21  O   UNL     1     -14.458 -12.623  35.409  1.00  0.00    -0.504 OA
ATOM     22  H   UNL     1     -15.238 -13.004  35.932  1.00  0.00     0.293 HD
ENDBRANCH  16  21
ENDBRANCH   1  11
BRANCH  10  23
ATOM     23  O   UNL     1     -13.824 -14.286  30.873  1.00  0.00    -0.500 OA
ATOM     24  H   UNL     1     -13.224 -13.516  31.141  1.00  0.00     0.294 HD
ENDBRANCH  10  23
BRANCH   5  25
ATOM     25  O   UNL     1     -12.228 -21.886  31.027  1.00  0.00    -0.507 OA
ATOM     26  H   UNL     1     -12.141 -22.565  30.280  1.00  0.00     0.293 HD
ENDBRANCH   5  25
BRANCH   7  27
ATOM     27  O   UNL     1     -13.995 -18.636  27.968  1.00  0.00    -0.507 OA
ATOM     28  H   UNL     1     -13.438 -18.418  27.154  1.00  0.00     0.293 HD
ENDBRANCH   7  27
TORSDOF 7
ENDMDL
MODEL 6
REMARK VINA RESULT:    -2.729      1.568      7.400
REMARK INTER + INTRA:          -3.658
REMARK INTER:                  -3.944
REMARK INTRA:                   0.286
REMARK UNBOUND:                -0.290
REMARK SMILES Oc1cc(O)c2cc(O)c(-c3cc(O)c(O)c(O)c3)[o+]c2c1
REMARK SMILES IDX 10 1 20 2 21 3 22 4 2 5 3 6 4 7 6 8 7 9 8 10 11 11 12 12
REMARK SMILES IDX 13 13 19 14 15 15 17 16 14 17 16 19 18 21 9 23 1 25 5 27
REMARK H PARENT 14 18 16 20 18 22 9 24 1 26 5 28
REMARK Flexibility Score: inf
ROOT
ATOM      1  C   UNL     1     -11.656 -15.798  32.725  1.00  0.00     0.402 A 
ATOM      2  O   UNL     1     -12.361 -15.539  31.627  1.00  0.00    -0.202 OA
ATOM      3  C   UNL     1     -12.278 -16.266  30.518  1.00  0.00     0.368 A 
ATOM      4  C   UNL     1     -13.061 -15.916  29.415  1.00  0.00     0.162 A 
ATOM      5  C   UNL     1     -12.996 -16.666  28.237  1.00  0.00     0.128 A 
ATOM      6  C   UNL     1     -12.143 -17.769  28.161  1.00  0.00     0.093 A 
ATOM      7  C   UNL     1     -11.348 -18.141  29.252  1.00  0.00     0.136 A 
ATOM      8  C   UNL     1     -11.408 -17.382  30.450  1.00  0.00     0.125 A 
ATOM      9  C   UNL     1     -10.638 -17.671  31.588  1.00  0.00     0.078 A 
ATOM     10  C   UNL     1     -10.749 -16.874  32.731  1.00  0.00     0.223 A 
ENDROOT
BRANCH   1  11
ATOM     11  C   UNL     1     -11.844 -14.920  33.902  1.00  0.00     0.091 A 
ATOM     12  C   UNL     1     -13.047 -14.223  34.110  1.00  0.00     0.068 A 
ATOM     13  C   UNL     1     -13.198 -13.378  35.219  1.00  0.00     0.162 A 
ATOM     14  C   UNL     1     -10.783 -14.734  34.801  1.00  0.00     0.068 A 
ATOM     15  C   UNL     1     -12.136 -13.216  36.125  1.00  0.00     0.200 A 
ATOM     16  C   UNL     1     -10.929 -13.892  35.912  1.00  0.00     0.162 A 
BRANCH  13  17
ATOM     17  O   UNL     1     -14.397 -12.696  35.420  1.00  0.00    -0.504 OA
ATOM     18  H   UNL     1     -15.000 -12.900  36.208  1.00  0.00     0.293 HD
ENDBRANCH  13  17
BRANCH  15  19
ATOM     19  O   UNL     1     -12.265 -12.384  37.239  1.00  0.00    -0.502 OA
ATOM     20  H   UNL     1     -12.249 -12.744  38.185  1.00  0.00     0.293 HD
ENDBRANCH  15  19
BRANCH  16  21
ATOM     21  O   UNL     1      -9.876 -13.721  36.809  1.00  0.00    -0.504 OA
ATOM     22  H   UNL     1      -9.933 -14.057  37.764  1.00  0.00     0.293 HD
ENDBRANCH  16  21
ENDBRANCH   1  11
BRANCH  10  23
ATOM     23  O   UNL     1      -9.948 -17.131  33.844  1.00  0.00    -0.500 OA
ATOM     24  H   UNL     1     -10.315 -17.089  34.786  1.00  0.00     0.294 HD
ENDBRANCH  10  23
BRANCH   5  25
ATOM     25  O   UNL     1     -13.774 -16.323  27.134  1.00  0.00    -0.507 OA
ATOM     26  H   UNL     1     -14.330 -17.013  26.642  1.00  0.00     0.293 HD
ENDBRANCH   5  25
BRANCH   7  27
ATOM     27  O   UNL     1     -10.524 -19.259  29.097  1.00  0.00    -0.507 OA
ATOM     28  H   UNL     1     -10.576 -19.904  28.321  1.00  0.00     0.293 HD
ENDBRANCH   7  27
TORSDOF 7
ENDMDL
MODEL 7
REMARK VINA RESULT:    -2.314      3.233      5.802
REMARK INTER + INTRA:          -3.145
REMARK INTER:                  -2.789
REMARK INTRA:                  -0.357
REMARK UNBOUND:                -0.290
REMARK SMILES Oc1cc(O)c2cc(O)c(-c3cc(O)c(O)c(O)c3)[o+]c2c1
REMARK SMILES IDX 10 1 20 2 21 3 22 4 2 5 3 6 4 7 6 8 7 9 8 10 11 11 12 12
REMARK SMILES IDX 13 13 19 14 15 15 17 16 14 17 16 19 18 21 9 23 1 25 5 27
REMARK H PARENT 14 18 16 20 18 22 9 24 1 26 5 28
REMARK Flexibility Score: inf
ROOT
ATOM      1  C   UNL     1     -12.983 -15.875  30.272  1.00  0.00     0.402 A 
ATOM      2  O   UNL     1     -14.113 -15.427  30.814  1.00  0.00    -0.202 OA
ATOM      3  C   UNL     1     -14.923 -14.568  30.205  1.00  0.00     0.368 A 
ATOM      4  C   UNL     1     -16.090 -14.157  30.854  1.00  0.00     0.162 A 
ATOM      5  C   UNL     1     -16.962 -13.257  30.236  1.00  0.00     0.128 A 
ATOM      6  C   UNL     1     -16.666 -12.766  28.962  1.00  0.00     0.093 A 
ATOM      7  C   UNL     1     -15.503 -13.161  28.290  1.00  0.00     0.136 A 
ATOM      8  C   UNL     1     -14.613 -14.073  28.915  1.00  0.00     0.125 A 
ATOM      9  C   UNL     1     -13.418 -14.515  28.324  1.00  0.00     0.078 A 
ATOM     10  C   UNL     1     -12.588 -15.411  29.003  1.00  0.00     0.223 A 
ENDROOT
BRANCH   1  11
ATOM     11  C   UNL     1     -12.168 -16.839  31.047  1.00  0.00     0.091 A 
ATOM     12  C   UNL     1     -12.184 -18.213  30.752  1.00  0.00     0.068 A 
ATOM     13  C   UNL     1     -11.424 -19.114  31.512  1.00  0.00     0.162 A 
ATOM     14  C   UNL     1     -11.408 -16.383  32.134  1.00  0.00     0.068 A 
ATOM     15  C   UNL     1     -10.648 -18.643  32.585  1.00  0.00     0.200 A 
ATOM     16  C   UNL     1     -10.644 -17.278  32.896  1.00  0.00     0.162 A 
BRANCH  13  17
ATOM     17  O   UNL     1     -11.441 -20.474  31.207  1.00  0.00    -0.504 OA
ATOM     18  H   UNL     1     -11.962 -21.138  31.767  1.00  0.00     0.293 HD
ENDBRANCH  13  17
BRANCH  15  19
ATOM     19  O   UNL     1      -9.879 -19.519  33.352  1.00  0.00    -0.502 OA
ATOM     20  H   UNL     1      -8.889 -19.373  33.508  1.00  0.00     0.293 HD
ENDBRANCH  15  19
BRANCH  16  21
ATOM     21  O   UNL     1      -9.879 -16.817  33.966  1.00  0.00    -0.504 OA
ATOM     22  H   UNL     1      -8.902 -16.572  33.853  1.00  0.00     0.293 HD
ENDBRANCH  16  21
ENDBRANCH   1  11
BRANCH  10  23
ATOM     23  O   UNL     1     -11.378 -15.811  28.437  1.00  0.00    -0.500 OA
ATOM     24  H   UNL     1     -10.670 -16.292  28.978  1.00  0.00     0.294 HD
ENDBRANCH  10  23
BRANCH   5  25
ATOM     25  O   UNL     1     -18.128 -12.844  30.877  1.00  0.00    -0.507 OA
ATOM     26  H   UNL     1     -18.169 -11.970  31.390  1.00  0.00     0.293 HD
ENDBRANCH   5  25
BRANCH   7  27
ATOM     27  O   UNL     1     -15.281 -12.627  27.018  1.00  0.00    -0.507 OA
ATOM     28  H   UNL     1     -15.315 -11.641  26.799  1.00  0.00     0.293 HD
ENDBRANCH   7  27
TORSDOF 7
ENDMDL
