MODEL 1
REMARK VINA RESULT:    -4.572      0.000      0.000
REMARK INTER + INTRA:          -4.572
REMARK INTER:                  -4.572
REMARK INTRA:                   0.000
REMARK UNBOUND:                 0.000
REMARK SMILES CC1=CC=CC(C)(C)[C@H]1C
REMARK SMILES IDX 10 1 9 2 2 3 3 4 4 5 5 6 6 7 7 8 8 9 1 10
REMARK H PARENT
REMARK Flexibility Score: inf
ROOT
ATOM      1  C   UNL     1      32.948  11.123  33.667  1.00  0.00     0.013 C 
ATOM      2  C   UNL     1      32.681  10.506  32.276  1.00  0.00     0.021 C 
ATOM      3  C   UNL     1      31.829   9.235  32.359  1.00  0.00    -0.070 C 
ATOM      4  C   UNL     1      31.230   8.775  31.247  1.00  0.00    -0.001 C 
ATOM      5  C   UNL     1      31.270   9.537  29.990  1.00  0.00    -0.004 C 
ATOM      6  C   UNL     1      31.709  10.797  29.964  1.00  0.00    -0.020 C 
ATOM      7  C   UNL     1      32.082  11.531  31.240  1.00  0.00    -0.011 C 
ATOM      8  C   UNL     1      33.122  12.615  30.875  1.00  0.00     0.016 C 
ATOM      9  C   UNL     1      30.810  12.217  31.783  1.00  0.00     0.016 C 
ATOM     10  C   UNL     1      31.786   8.399  33.614  1.00  0.00     0.040 C 
ENDROOT
TORSDOF 0
ENDMDL
MODEL 2
REMARK VINA RESULT:    -4.440      2.029      3.618
REMARK INTER + INTRA:          -4.440
REMARK INTER:                  -4.440
REMARK INTRA:                   0.000
REMARK UNBOUND:                 0.000
REMARK SMILES CC1=CC=CC(C)(C)[C@H]1C
REMARK SMILES IDX 10 1 9 2 2 3 3 4 4 5 5 6 6 7 7 8 8 9 1 10
REMARK H PARENT
REMARK Flexibility Score: inf
ROOT
ATOM      1  C   UNL     1      30.389   7.940  34.908  1.00  0.00     0.013 C 
ATOM      2  C   UNL     1      31.585   8.798  34.437  1.00  0.00     0.021 C 
ATOM      3  C   UNL     1      31.807   8.703  32.924  1.00  0.00    -0.070 C 
ATOM      4  C   UNL     1      32.568   9.628  32.315  1.00  0.00    -0.001 C 
ATOM      5  C   UNL     1      33.080  10.796  33.048  1.00  0.00    -0.004 C 
ATOM      6  C   UNL     1      32.632  11.089  34.271  1.00  0.00    -0.020 C 
ATOM      7  C   UNL     1      31.505  10.298  34.912  1.00  0.00    -0.011 C 
ATOM      8  C   UNL     1      31.670  10.400  36.446  1.00  0.00     0.016 C 
ATOM      9  C   UNL     1      30.171  10.959  34.504  1.00  0.00     0.016 C 
ATOM     10  C   UNL     1      31.335   7.507  32.135  1.00  0.00     0.040 C 
ENDROOT
TORSDOF 0
ENDMDL
MODEL 3
REMARK VINA RESULT:    -4.412      0.779      2.135
REMARK INTER + INTRA:          -4.412
REMARK INTER:                  -4.412
REMARK INTRA:                   0.000
REMARK UNBOUND:                 0.000
REMARK SMILES CC1=CC=CC(C)(C)[C@H]1C
REMARK SMILES IDX 10 1 9 2 2 3 3 4 4 5 5 6 6 7 7 8 8 9 1 10
REMARK H PARENT
REMARK Flexibility Score: inf
ROOT
ATOM      1  C   UNL     1      33.096  12.493  31.113  1.00  0.00     0.013 C 
ATOM      2  C   UNL     1      32.776  10.981  31.137  1.00  0.00     0.021 C 
ATOM      3  C   UNL     1      32.534  10.462  32.558  1.00  0.00    -0.070 C 
ATOM      4  C   UNL     1      31.922   9.277  32.726  1.00  0.00    -0.001 C 
ATOM      5  C   UNL     1      31.368   8.537  31.583  1.00  0.00    -0.004 C 
ATOM      6  C   UNL     1      31.259   9.110  30.382  1.00  0.00    -0.020 C 
ATOM      7  C   UNL     1      31.601  10.574  30.170  1.00  0.00    -0.011 C 
ATOM      8  C   UNL     1      32.017  10.753  28.692  1.00  0.00     0.016 C 
ATOM      9  C   UNL     1      30.325  11.402  30.437  1.00  0.00     0.016 C 
ATOM     10  C   UNL     1      33.115  11.165  33.761  1.00  0.00     0.040 C 
ENDROOT
TORSDOF 0
ENDMDL
MODEL 4
REMARK VINA RESULT:    -4.291      1.058      3.739
REMARK INTER + INTRA:          -4.291
REMARK INTER:                  -4.291
REMARK INTRA:                   0.000
REMARK UNBOUND:                 0.000
REMARK SMILES CC1=CC=CC(C)(C)[C@H]1C
REMARK SMILES IDX 10 1 9 2 2 3 3 4 4 5 5 6 6 7 7 8 8 9 1 10
REMARK H PARENT
REMARK Flexibility Score: inf
ROOT
ATOM      1  C   UNL     1      30.377   8.192  30.534  1.00  0.00     0.013 C 
ATOM      2  C   UNL     1      31.594   9.000  31.035  1.00  0.00     0.021 C 
ATOM      3  C   UNL     1      31.666  10.394  30.404  1.00  0.00    -0.070 C 
ATOM      4  C   UNL     1      32.446  11.330  30.971  1.00  0.00    -0.001 C 
ATOM      5  C   UNL     1      33.125  11.082  32.251  1.00  0.00    -0.004 C 
ATOM      6  C   UNL     1      32.820  10.016  32.994  1.00  0.00    -0.020 C 
ATOM      7  C   UNL     1      31.692   9.076  32.605  1.00  0.00    -0.011 C 
ATOM      8  C   UNL     1      32.007   7.687  33.206  1.00  0.00     0.016 C 
ATOM      9  C   UNL     1      30.389   9.614  33.236  1.00  0.00     0.016 C 
ATOM     10  C   UNL     1      31.019  10.687  29.072  1.00  0.00     0.040 C 
ENDROOT
TORSDOF 0
ENDMDL
MODEL 5
REMARK VINA RESULT:    -4.259      1.682      3.619
REMARK INTER + INTRA:          -4.259
REMARK INTER:                  -4.259
REMARK INTRA:                   0.000
REMARK UNBOUND:                 0.000
REMARK SMILES CC1=CC=CC(C)(C)[C@H]1C
REMARK SMILES IDX 10 1 9 2 2 3 3 4 4 5 5 6 6 7 7 8 8 9 1 10
REMARK H PARENT
REMARK Flexibility Score: inf
ROOT
ATOM      1  C   UNL     1      29.917   8.572  34.628  1.00  0.00     0.013 C 
ATOM      2  C   UNL     1      30.743   9.569  33.785  1.00  0.00     0.021 C 
ATOM      3  C   UNL     1      31.731  10.371  34.639  1.00  0.00    -0.070 C 
ATOM      4  C   UNL     1      32.741  11.019  34.034  1.00  0.00    -0.001 C 
ATOM      5  C   UNL     1      32.990  10.867  32.593  1.00  0.00    -0.004 C 
ATOM      6  C   UNL     1      32.367   9.923  31.885  1.00  0.00    -0.020 C 
ATOM      7  C   UNL     1      31.460   8.902  32.552  1.00  0.00    -0.011 C 
ATOM      8  C   UNL     1      30.427   8.431  31.502  1.00  0.00     0.016 C 
ATOM      9  C   UNL     1      32.331   7.700  32.976  1.00  0.00     0.016 C 
ATOM     10  C   UNL     1      31.498  10.588  36.114  1.00  0.00     0.040 C 
ENDROOT
TORSDOF 0
ENDMDL
MODEL 6
REMARK VINA RESULT:    -4.215      0.866      2.549
REMARK INTER + INTRA:          -4.215
REMARK INTER:                  -4.215
REMARK INTRA:                   0.000
REMARK UNBOUND:                 0.000
REMARK SMILES CC1=CC=CC(C)(C)[C@H]1C
REMARK SMILES IDX 10 1 9 2 2 3 3 4 4 5 5 6 6 7 7 8 8 9 1 10
REMARK H PARENT
REMARK Flexibility Score: inf
ROOT
ATOM      1  C   UNL     1      31.224   8.707  32.481  1.00  0.00     0.013 C 
ATOM      2  C   UNL     1      31.994   9.686  31.567  1.00  0.00     0.021 C 
ATOM      3  C   UNL     1      31.394   9.760  30.159  1.00  0.00    -0.070 C 
ATOM      4  C   UNL     1      31.722  10.791  29.362  1.00  0.00    -0.001 C 
ATOM      5  C   UNL     1      32.536  11.910  29.859  1.00  0.00    -0.004 C 
ATOM      6  C   UNL     1      32.791  12.047  31.162  1.00  0.00    -0.020 C 
ATOM      7  C   UNL     1      32.168  11.121  32.192  1.00  0.00    -0.011 C 
ATOM      8  C   UNL     1      33.108  11.077  33.419  1.00  0.00     0.016 C 
ATOM      9  C   UNL     1      30.814  11.729  32.618  1.00  0.00     0.016 C 
ATOM     10  C   UNL     1      30.584   8.621  29.590  1.00  0.00     0.040 C 
ENDROOT
TORSDOF 0
ENDMDL
MODEL 7
REMARK VINA RESULT:    -4.153      1.088      2.691
REMARK INTER + INTRA:          -4.153
REMARK INTER:                  -4.153
REMARK INTRA:                   0.000
REMARK UNBOUND:                 0.000
REMARK SMILES CC1=CC=CC(C)(C)[C@H]1C
REMARK SMILES IDX 10 1 9 2 2 3 3 4 4 5 5 6 6 7 7 8 8 9 1 10
REMARK H PARENT
REMARK Flexibility Score: inf
ROOT
ATOM      1  C   UNL     1      29.962   8.831  30.768  1.00  0.00     0.013 C 
ATOM      2  C   UNL     1      30.820   9.882  31.507  1.00  0.00     0.021 C 
ATOM      3  C   UNL     1      31.989   9.247  32.267  1.00  0.00    -0.070 C 
ATOM      4  C   UNL     1      33.007  10.026  32.671  1.00  0.00    -0.001 C 
ATOM      5  C   UNL     1      33.081  11.443  32.286  1.00  0.00    -0.004 C 
ATOM      6  C   UNL     1      32.268  11.944  31.353  1.00  0.00    -0.020 C 
ATOM      7  C   UNL     1      31.310  11.056  30.579  1.00  0.00    -0.011 C 
ATOM      8  C   UNL     1      30.119  11.931  30.123  1.00  0.00     0.016 C 
ATOM      9  C   UNL     1      32.054  10.530  29.333  1.00  0.00     0.016 C 
ATOM     10  C   UNL     1      31.943   7.808  32.718  1.00  0.00     0.040 C 
ENDROOT
TORSDOF 0
ENDMDL
MODEL 8
REMARK VINA RESULT:    -4.116      2.313      5.264
REMARK INTER + INTRA:          -4.116
REMARK INTER:                  -4.116
REMARK INTRA:                   0.000
REMARK UNBOUND:                 0.000
REMARK SMILES CC1=CC=CC(C)(C)[C@H]1C
REMARK SMILES IDX 10 1 9 2 2 3 3 4 4 5 5 6 6 7 7 8 8 9 1 10
REMARK H PARENT
REMARK Flexibility Score: inf
ROOT
ATOM      1  C   UNL     1      31.165   7.317  33.248  1.00  0.00     0.013 C 
ATOM      2  C   UNL     1      31.664   8.267  34.359  1.00  0.00     0.021 C 
ATOM      3  C   UNL     1      31.611   9.737  33.932  1.00  0.00    -0.070 C 
ATOM      4  C   UNL     1      31.683  10.695  34.873  1.00  0.00    -0.001 C 
ATOM      5  C   UNL     1      31.679  10.358  36.304  1.00  0.00    -0.004 C 
ATOM      6  C   UNL     1      31.387   9.123  36.718  1.00  0.00    -0.020 C 
ATOM      7  C   UNL     1      30.945   8.045  35.743  1.00  0.00    -0.011 C 
ATOM      8  C   UNL     1      31.327   6.675  36.348  1.00  0.00     0.016 C 
ATOM      9  C   UNL     1      29.409   8.127  35.611  1.00  0.00     0.016 C 
ATOM     10  C   UNL     1      31.652  10.135  32.477  1.00  0.00     0.040 C 
ENDROOT
TORSDOF 0
ENDMDL
