MODEL 1
REMARK VINA RESULT:    -4.990      0.000      0.000
REMARK INTER + INTRA:          -5.136
REMARK INTER:                  -5.136
REMARK INTRA:                   0.000
REMARK UNBOUND:                 0.000
REMARK SMILES Oc1ccc2[nH]ccc2c1
REMARK SMILES IDX 3 1 4 2 5 3 9 4 8 5 7 6 6 7 10 8 2 9 1 11
REMARK H PARENT 6 10 1 12
REMARK Flexibility Score: inf
ROOT
ATOM      1  C   UNL     1     116.802 120.943 127.389  1.00  0.00     0.048 A 
ATOM      2  C   UNL     1     117.748 120.020 126.905  1.00  0.00     0.030 A 
ATOM      3  C   UNL     1     118.076 118.937 127.720  1.00  0.00     0.046 A 
ATOM      4  C   UNL     1     117.504 118.764 128.952  1.00  0.00     0.003 A 
ATOM      5  C   UNL     1     118.034 117.614 129.494  1.00  0.00     0.028 A 
ATOM      6  C   UNL     1     118.924 117.137 128.536  1.00  0.00     0.083 A 
ATOM      7  N   UNL     1     118.945 117.949 127.454  1.00  0.00    -0.361 N 
ATOM      8  C   UNL     1     116.565 119.659 129.460  1.00  0.00     0.056 A 
ATOM      9  C   UNL     1     116.210 120.767 128.661  1.00  0.00     0.116 A 
ATOM     10  H   UNL     1     119.522 117.828 126.591  1.00  0.00     0.166 HD
ENDROOT
BRANCH   9  11
ATOM     11  O   UNL     1     115.277 121.695 129.117  1.00  0.00    -0.508 OA
ATOM     12  H   UNL     1     115.564 122.546 129.586  1.00  0.00     0.293 HD
ENDBRANCH   9  11
TORSDOF 1
ENDMDL
MODEL 2
REMARK VINA RESULT:    -4.758     13.147     13.687
REMARK INTER + INTRA:          -4.897
REMARK INTER:                  -4.897
REMARK INTRA:                   0.000
REMARK UNBOUND:                 0.000
REMARK SMILES Oc1ccc2[nH]ccc2c1
REMARK SMILES IDX 3 1 4 2 5 3 9 4 8 5 7 6 6 7 10 8 2 9 1 11
REMARK H PARENT 6 10 1 12
REMARK Flexibility Score: inf
ROOT
ATOM      1  C   UNL     1     118.654 116.497 141.462  1.00  0.00     0.048 A 
ATOM      2  C   UNL     1     118.426 117.796 141.955  1.00  0.00     0.030 A 
ATOM      3  C   UNL     1     117.147 118.332 141.812  1.00  0.00     0.046 A 
ATOM      4  C   UNL     1     116.135 117.628 141.215  1.00  0.00     0.003 A 
ATOM      5  C   UNL     1     115.013 118.427 141.231  1.00  0.00     0.028 A 
ATOM      6  C   UNL     1     115.415 119.605 141.855  1.00  0.00     0.083 A 
ATOM      7  N   UNL     1     116.719 119.541 142.208  1.00  0.00    -0.361 N 
ATOM      8  C   UNL     1     116.327 116.341 140.716  1.00  0.00     0.056 A 
ATOM      9  C   UNL     1     117.610 115.769 140.845  1.00  0.00     0.116 A 
ATOM     10  H   UNL     1     117.275 120.283 142.689  1.00  0.00     0.166 HD
ENDROOT
BRANCH   9  11
ATOM     11  O   UNL     1     117.862 114.485 140.365  1.00  0.00    -0.508 OA
ATOM     12  H   UNL     1     117.838 113.679 140.977  1.00  0.00     0.293 HD
ENDBRANCH   9  11
TORSDOF 1
ENDMDL
MODEL 3
REMARK VINA RESULT:    -4.747     11.911     12.984
REMARK INTER + INTRA:          -4.886
REMARK INTER:                  -4.886
REMARK INTRA:                   0.000
REMARK UNBOUND:                 0.000
REMARK SMILES Oc1ccc2[nH]ccc2c1
REMARK SMILES IDX 3 1 4 2 5 3 9 4 8 5 7 6 6 7 10 8 2 9 1 11
REMARK H PARENT 6 10 1 12
REMARK Flexibility Score: inf
ROOT
ATOM      1  C   UNL     1     118.102 117.146 139.450  1.00  0.00     0.048 A 
ATOM      2  C   UNL     1     116.699 117.252 139.480  1.00  0.00     0.030 A 
ATOM      3  C   UNL     1     116.124 118.002 140.505  1.00  0.00     0.046 A 
ATOM      4  C   UNL     1     116.887 118.623 141.457  1.00  0.00     0.003 A 
ATOM      5  C   UNL     1     116.028 119.273 142.315  1.00  0.00     0.028 A 
ATOM      6  C   UNL     1     114.753 119.006 141.823  1.00  0.00     0.083 A 
ATOM      7  N   UNL     1     114.818 118.229 140.717  1.00  0.00    -0.361 N 
ATOM      8  C   UNL     1     118.278 118.538 141.457  1.00  0.00     0.056 A 
ATOM      9  C   UNL     1     118.893 117.786 140.434  1.00  0.00     0.116 A 
ATOM     10  H   UNL     1     114.014 117.880 140.148  1.00  0.00     0.166 HD
ENDROOT
BRANCH   9  11
ATOM     11  O   UNL     1     120.280 117.666 140.382  1.00  0.00    -0.508 OA
ATOM     12  H   UNL     1     120.725 116.795 140.119  1.00  0.00     0.293 HD
ENDBRANCH   9  11
TORSDOF 1
ENDMDL
MODEL 4
REMARK VINA RESULT:    -4.697     11.913     12.743
REMARK INTER + INTRA:          -4.835
REMARK INTER:                  -4.835
REMARK INTRA:                   0.000
REMARK UNBOUND:                 0.000
REMARK SMILES Oc1ccc2[nH]ccc2c1
REMARK SMILES IDX 3 1 4 2 5 3 9 4 8 5 7 6 6 7 10 8 2 9 1 11
REMARK H PARENT 6 10 1 12
REMARK Flexibility Score: inf
ROOT
ATOM      1  C   UNL     1     116.200 119.111 141.894  1.00  0.00     0.048 A 
ATOM      2  C   UNL     1     115.072 118.445 141.380  1.00  0.00     0.030 A 
ATOM      3  C   UNL     1     115.285 117.399 140.484  1.00  0.00     0.046 A 
ATOM      4  C   UNL     1     116.547 117.019 140.108  1.00  0.00     0.003 A 
ATOM      5  C   UNL     1     116.416 115.971 139.225  1.00  0.00     0.028 A 
ATOM      6  C   UNL     1     115.044 115.763 139.109  1.00  0.00     0.083 A 
ATOM      7  N   UNL     1     114.359 116.638 139.880  1.00  0.00    -0.361 N 
ATOM      8  C   UNL     1     117.684 117.658 140.598  1.00  0.00     0.056 A 
ATOM      9  C   UNL     1     117.504 118.721 141.507  1.00  0.00     0.116 A 
ATOM     10  H   UNL     1     113.321 116.704 139.982  1.00  0.00     0.166 HD
ENDROOT
BRANCH   9  11
ATOM     11  O   UNL     1     118.604 119.397 142.030  1.00  0.00    -0.508 OA
ATOM     12  H   UNL     1     119.441 119.550 141.480  1.00  0.00     0.293 HD
ENDBRANCH   9  11
TORSDOF 1
ENDMDL
MODEL 5
REMARK VINA RESULT:    -4.656      2.600      3.563
REMARK INTER + INTRA:          -4.792
REMARK INTER:                  -4.792
REMARK INTRA:                   0.000
REMARK UNBOUND:                 0.000
REMARK SMILES Oc1ccc2[nH]ccc2c1
REMARK SMILES IDX 3 1 4 2 5 3 9 4 8 5 7 6 6 7 10 8 2 9 1 11
REMARK H PARENT 6 10 1 12
REMARK Flexibility Score: inf
ROOT
ATOM      1  C   UNL     1     118.906 119.286 126.897  1.00  0.00     0.048 A 
ATOM      2  C   UNL     1     117.990 120.354 126.880  1.00  0.00     0.030 A 
ATOM      3  C   UNL     1     117.049 120.421 127.906  1.00  0.00     0.046 A 
ATOM      4  C   UNL     1     117.006 119.487 128.906  1.00  0.00     0.003 A 
ATOM      5  C   UNL     1     115.976 119.834 129.751  1.00  0.00     0.028 A 
ATOM      6  C   UNL     1     115.433 120.993 129.205  1.00  0.00     0.083 A 
ATOM      7  N   UNL     1     116.093 121.348 128.078  1.00  0.00    -0.361 N 
ATOM      8  C   UNL     1     117.899 118.417 128.953  1.00  0.00     0.056 A 
ATOM      9  C   UNL     1     118.864 118.319 127.929  1.00  0.00     0.116 A 
ATOM     10  H   UNL     1     115.895 122.174 127.470  1.00  0.00     0.166 HD
ENDROOT
BRANCH   9  11
ATOM     11  O   UNL     1     119.783 117.271 127.923  1.00  0.00    -0.508 OA
ATOM     12  H   UNL     1     120.263 116.985 128.768  1.00  0.00     0.293 HD
ENDBRANCH   9  11
TORSDOF 1
ENDMDL
MODEL 6
REMARK VINA RESULT:    -4.600      3.632      5.187
REMARK INTER + INTRA:          -4.735
REMARK INTER:                  -4.735
REMARK INTRA:                   0.000
REMARK UNBOUND:                 0.000
REMARK SMILES Oc1ccc2[nH]ccc2c1
REMARK SMILES IDX 3 1 4 2 5 3 9 4 8 5 7 6 6 7 10 8 2 9 1 11
REMARK H PARENT 6 10 1 12
REMARK Flexibility Score: inf
ROOT
ATOM      1  C   UNL     1     118.415 114.182 127.650  1.00  0.00     0.048 A 
ATOM      2  C   UNL     1     117.252 114.900 127.985  1.00  0.00     0.030 A 
ATOM      3  C   UNL     1     117.376 116.269 128.214  1.00  0.00     0.046 A 
ATOM      4  C   UNL     1     118.583 116.909 128.118  1.00  0.00     0.003 A 
ATOM      5  C   UNL     1     118.369 118.240 128.400  1.00  0.00     0.028 A 
ATOM      6  C   UNL     1     117.004 118.341 128.658  1.00  0.00     0.083 A 
ATOM      7  N   UNL     1     116.403 117.134 128.542  1.00  0.00    -0.361 N 
ATOM      8  C   UNL     1     119.753 116.227 127.789  1.00  0.00     0.056 A 
ATOM      9  C   UNL     1     119.663 114.839 127.551  1.00  0.00     0.116 A 
ATOM     10  H   UNL     1     115.389 116.923 128.682  1.00  0.00     0.166 HD
ENDROOT
BRANCH   9  11
ATOM     11  O   UNL     1     120.799 114.105 127.218  1.00  0.00    -0.508 OA
ATOM     12  H   UNL     1     121.167 114.099 126.273  1.00  0.00     0.293 HD
ENDBRANCH   9  11
TORSDOF 1
ENDMDL
MODEL 7
REMARK VINA RESULT:    -4.557      2.935      4.452
REMARK INTER + INTRA:          -4.691
REMARK INTER:                  -4.691
REMARK INTRA:                   0.000
REMARK UNBOUND:                 0.000
REMARK SMILES Oc1ccc2[nH]ccc2c1
REMARK SMILES IDX 3 1 4 2 5 3 9 4 8 5 7 6 6 7 10 8 2 9 1 11
REMARK H PARENT 6 10 1 12
REMARK Flexibility Score: inf
ROOT
ATOM      1  C   UNL     1     119.397 116.201 128.969  1.00  0.00     0.048 A 
ATOM      2  C   UNL     1     118.307 116.823 129.607  1.00  0.00     0.030 A 
ATOM      3  C   UNL     1     117.902 118.070 129.134  1.00  0.00     0.046 A 
ATOM      4  C   UNL     1     118.533 118.682 128.084  1.00  0.00     0.003 A 
ATOM      5  C   UNL     1     117.900 119.885 127.867  1.00  0.00     0.028 A 
ATOM      6  C   UNL     1     116.889 119.942 128.823  1.00  0.00     0.083 A 
ATOM      7  N   UNL     1     116.895 118.830 129.594  1.00  0.00    -0.361 N 
ATOM      8  C   UNL     1     119.615 118.094 127.431  1.00  0.00     0.056 A 
ATOM      9  C   UNL     1     120.051 116.831 127.884  1.00  0.00     0.116 A 
ATOM     10  H   UNL     1     116.247 118.612 130.384  1.00  0.00     0.166 HD
ENDROOT
BRANCH   9  11
ATOM     11  O   UNL     1     121.127 116.194 127.271  1.00  0.00    -0.508 OA
ATOM     12  H   UNL     1     122.004 116.052 127.757  1.00  0.00     0.293 HD
ENDBRANCH   9  11
TORSDOF 1
ENDMDL
MODEL 8
REMARK VINA RESULT:    -4.496      1.121      1.935
REMARK INTER + INTRA:          -4.627
REMARK INTER:                  -4.627
REMARK INTRA:                   0.000
REMARK UNBOUND:                 0.000
REMARK SMILES Oc1ccc2[nH]ccc2c1
REMARK SMILES IDX 3 1 4 2 5 3 9 4 8 5 7 6 6 7 10 8 2 9 1 11
REMARK H PARENT 6 10 1 12
REMARK Flexibility Score: inf
ROOT
ATOM      1  C   UNL     1     115.714 119.209 128.737  1.00  0.00     0.048 A 
ATOM      2  C   UNL     1     116.451 118.059 128.399  1.00  0.00     0.030 A 
ATOM      3  C   UNL     1     117.704 118.237 127.814  1.00  0.00     0.046 A 
ATOM      4  C   UNL     1     118.213 119.485 127.571  1.00  0.00     0.003 A 
ATOM      5  C   UNL     1     119.453 119.319 126.993  1.00  0.00     0.028 A 
ATOM      6  C   UNL     1     119.635 117.941 126.915  1.00  0.00     0.083 A 
ATOM      7  N   UNL     1     118.564 117.285 127.419  1.00  0.00    -0.361 N 
ATOM      8  C   UNL     1     117.509 120.644 127.892  1.00  0.00     0.056 A 
ATOM      9  C   UNL     1     116.238 120.499 128.486  1.00  0.00     0.116 A 
ATOM     10  H   UNL     1     118.436 116.250 127.483  1.00  0.00     0.166 HD
ENDROOT
BRANCH   9  11
ATOM     11  O   UNL     1     115.487 121.622 128.830  1.00  0.00    -0.508 OA
ATOM     12  H   UNL     1     115.722 122.542 128.478  1.00  0.00     0.293 HD
ENDBRANCH   9  11
TORSDOF 1
ENDMDL
MODEL 9
REMARK VINA RESULT:    -4.476     12.795     13.812
REMARK INTER + INTRA:          -4.607
REMARK INTER:                  -4.607
REMARK INTRA:                   0.000
REMARK UNBOUND:                 0.000
REMARK SMILES Oc1ccc2[nH]ccc2c1
REMARK SMILES IDX 3 1 4 2 5 3 9 4 8 5 7 6 6 7 10 8 2 9 1 11
REMARK H PARENT 6 10 1 12
REMARK Flexibility Score: inf
ROOT
ATOM      1  C   UNL     1     116.761 117.371 143.612  1.00  0.00     0.048 A 
ATOM      2  C   UNL     1     117.878 116.695 143.087  1.00  0.00     0.030 A 
ATOM      3  C   UNL     1     118.382 117.124 141.860  1.00  0.00     0.046 A 
ATOM      4  C   UNL     1     117.819 118.169 141.177  1.00  0.00     0.003 A 
ATOM      5  C   UNL     1     118.541 118.340 140.017  1.00  0.00     0.028 A 
ATOM      6  C   UNL     1     119.533 117.364 140.059  1.00  0.00     0.083 A 
ATOM      7  N   UNL     1     119.431 116.625 141.188  1.00  0.00    -0.361 N 
ATOM      8  C   UNL     1     116.712 118.859 141.668  1.00  0.00     0.056 A 
ATOM      9  C   UNL     1     116.177 118.450 142.908  1.00  0.00     0.116 A 
ATOM     10  H   UNL     1     120.044 115.828 141.473  1.00  0.00     0.166 HD
ENDROOT
BRANCH   9  11
ATOM     11  O   UNL     1     115.071 119.102 143.449  1.00  0.00    -0.508 OA
ATOM     12  H   UNL     1     114.920 119.144 144.449  1.00  0.00     0.293 HD
ENDBRANCH   9  11
TORSDOF 1
ENDMDL
