MODEL 1
REMARK VINA RESULT:     0.304      0.000      0.000
REMARK INTER + INTRA:          -0.729
REMARK INTER:                   0.429
REMARK INTRA:                  -1.158
REMARK UNBOUND:                -1.158
REMARK SMILES C=CC(=C)CCC=C(C)CCC=C(C)C
REMARK SMILES IDX 8 1 7 2 9 3 10 4 11 5 12 6 14 7 13 8 15 9 6 10 5 11 3 12
REMARK SMILES IDX 4 13 2 14 1 15
REMARK H PARENT
REMARK Flexibility Score: inf
ROOT
ATOM      1  C   UNL     1       6.570   4.919  13.600  1.00  0.00    -0.077 C 
ATOM      2  C   UNL     1       5.226   4.875  13.458  1.00  0.00    -0.028 C 
ATOM      3  C   UNL     1       7.146   4.901  14.992  1.00  0.00     0.039 C 
ENDROOT
BRANCH   1   4
ATOM      4  C   UNL     1       7.519   4.964  12.414  1.00  0.00     0.034 C 
BRANCH   4   5
ATOM      5  C   UNL     1       7.630   6.375  11.818  1.00  0.00     0.032 C 
BRANCH   5   6
ATOM      6  C   UNL     1       8.774   7.154  12.421  1.00  0.00    -0.028 C 
ATOM      7  C   UNL     1       7.353   8.189  14.205  1.00  0.00     0.039 C 
ATOM      8  C   UNL     1       8.672   7.947  13.510  1.00  0.00    -0.080 C 
ATOM      9  C   UNL     1       9.917   8.621  14.026  1.00  0.00     0.039 C 
ENDBRANCH   5   6
ENDBRANCH   4   5
ENDBRANCH   1   4
BRANCH   2  10
ATOM     10  C   UNL     1       4.521   4.922  12.125  1.00  0.00     0.032 C 
BRANCH  10  11
ATOM     11  C   UNL     1       3.443   6.012  12.105  1.00  0.00     0.039 C 
BRANCH  11  12
ATOM     12  C   UNL     1       4.060   7.380  12.301  1.00  0.00    -0.055 C 
ATOM     13  C   UNL     1       4.106   7.902  13.532  1.00  0.00     0.012 C 
BRANCH  12  14
ATOM     14  C   UNL     1       4.660   8.147  11.179  1.00  0.00    -0.005 C 
ATOM     15  C   UNL     1       5.531   9.144  11.338  1.00  0.00     0.009 C 
ENDBRANCH  12  14
ENDBRANCH  11  12
ENDBRANCH  10  11
ENDBRANCH   2  10
TORSDOF 7
ENDMDL
MODEL 2
REMARK VINA RESULT:     0.903      2.277      6.665
REMARK INTER + INTRA:           0.115
REMARK INTER:                   0.395
REMARK INTRA:                  -0.280
REMARK UNBOUND:                -1.158
REMARK SMILES C=CC(=C)CCC=C(C)CCC=C(C)C
REMARK SMILES IDX 8 1 7 2 9 3 10 4 11 5 12 6 14 7 13 8 15 9 6 10 5 11 3 12
REMARK SMILES IDX 4 13 2 14 1 15
REMARK H PARENT
REMARK Flexibility Score: inf
ROOT
ATOM      1  C   UNL     1       8.051   8.193  13.426  1.00  0.00    -0.077 C 
ATOM      2  C   UNL     1       9.173   8.897  13.699  1.00  0.00    -0.028 C 
ATOM      3  C   UNL     1       6.765   8.948  13.207  1.00  0.00     0.039 C 
ENDROOT
BRANCH   1   4
ATOM      4  C   UNL     1       8.042   6.678  13.310  1.00  0.00     0.034 C 
BRANCH   4   5
ATOM      5  C   UNL     1       7.284   6.201  12.062  1.00  0.00     0.032 C 
BRANCH   5   6
ATOM      6  C   UNL     1       6.071   5.377  12.420  1.00  0.00    -0.028 C 
ATOM      7  C   UNL     1       4.475   7.283  12.114  1.00  0.00     0.039 C 
ATOM      8  C   UNL     1       4.801   5.840  12.418  1.00  0.00    -0.080 C 
ATOM      9  C   UNL     1       3.688   4.881  12.750  1.00  0.00     0.039 C 
ENDBRANCH   5   6
ENDBRANCH   4   5
ENDBRANCH   1   4
BRANCH   2  10
ATOM     10  C   UNL     1      10.515   8.265  13.972  1.00  0.00     0.032 C 
BRANCH  10  11
ATOM     11  C   UNL     1      11.040   8.654  15.359  1.00  0.00     0.039 C 
BRANCH  11  12
ATOM     12  C   UNL     1      12.528   8.394  15.463  1.00  0.00    -0.055 C 
ATOM     13  C   UNL     1      13.100   7.539  14.609  1.00  0.00     0.012 C 
BRANCH  12  14
ATOM     14  C   UNL     1      13.386   9.093  16.454  1.00  0.00    -0.005 C 
ATOM     15  C   UNL     1      14.455   9.823  16.132  1.00  0.00     0.009 C 
ENDBRANCH  12  14
ENDBRANCH  11  12
ENDBRANCH  10  11
ENDBRANCH   2  10
TORSDOF 7
ENDMDL
MODEL 3
REMARK VINA RESULT:     0.923      0.887      1.624
REMARK INTER + INTRA:           0.144
REMARK INTER:                   1.158
REMARK INTRA:                  -1.015
REMARK UNBOUND:                -1.158
REMARK SMILES C=CC(=C)CCC=C(C)CCC=C(C)C
REMARK SMILES IDX 8 1 7 2 9 3 10 4 11 5 12 6 14 7 13 8 15 9 6 10 5 11 3 12
REMARK SMILES IDX 4 13 2 14 1 15
REMARK H PARENT
REMARK Flexibility Score: inf
ROOT
ATOM      1  C   UNL     1       6.575   5.080  12.887  1.00  0.00    -0.077 C 
ATOM      2  C   UNL     1       5.395   4.909  12.248  1.00  0.00    -0.028 C 
ATOM      3  C   UNL     1       7.849   4.879  12.107  1.00  0.00     0.039 C 
ENDROOT
BRANCH   1   4
ATOM      4  C   UNL     1       6.665   5.486  14.348  1.00  0.00     0.034 C 
BRANCH   4   5
ATOM      5  C   UNL     1       6.592   7.009  14.528  1.00  0.00     0.032 C 
BRANCH   5   6
ATOM      6  C   UNL     1       7.965   7.635  14.595  1.00  0.00    -0.028 C 
ATOM      7  C   UNL     1       8.021   8.185  12.153  1.00  0.00     0.039 C 
ATOM      8  C   UNL     1       8.606   8.194  13.545  1.00  0.00    -0.080 C 
ATOM      9  C   UNL     1       9.953   8.826  13.781  1.00  0.00     0.039 C 
ENDBRANCH   5   6
ENDBRANCH   4   5
ENDBRANCH   1   4
BRANCH   2  10
ATOM     10  C   UNL     1       4.050   5.045  12.918  1.00  0.00     0.032 C 
BRANCH  10  11
ATOM     11  C   UNL     1       3.240   6.195  12.310  1.00  0.00     0.039 C 
BRANCH  11  12
ATOM     12  C   UNL     1       3.698   7.527  12.865  1.00  0.00    -0.055 C 
ATOM     13  C   UNL     1       3.183   7.961  14.021  1.00  0.00     0.012 C 
BRANCH  12  14
ATOM     14  C   UNL     1       4.736   8.350  12.194  1.00  0.00    -0.005 C 
ATOM     15  C   UNL     1       4.772   8.583  10.881  1.00  0.00     0.009 C 
ENDBRANCH  12  14
ENDBRANCH  11  12
ENDBRANCH  10  11
ENDBRANCH   2  10
TORSDOF 7
ENDMDL
MODEL 4
REMARK VINA RESULT:     1.515      1.095      2.721
REMARK INTER + INTRA:           0.977
REMARK INTER:                   1.199
REMARK INTRA:                  -0.221
REMARK UNBOUND:                -1.158
REMARK SMILES C=CC(=C)CCC=C(C)CCC=C(C)C
REMARK SMILES IDX 8 1 7 2 9 3 10 4 11 5 12 6 14 7 13 8 15 9 6 10 5 11 3 12
REMARK SMILES IDX 4 13 2 14 1 15
REMARK H PARENT
REMARK Flexibility Score: inf
ROOT
ATOM      1  C   UNL     1       7.225   6.259  12.674  1.00  0.00    -0.077 C 
ATOM      2  C   UNL     1       6.927   7.050  11.619  1.00  0.00    -0.028 C 
ATOM      3  C   UNL     1       7.826   4.903  12.407  1.00  0.00     0.039 C 
ENDROOT
BRANCH   1   4
ATOM      4  C   UNL     1       6.997   6.691  14.112  1.00  0.00     0.034 C 
BRANCH   4   5
ATOM      5  C   UNL     1       7.364   8.165  14.336  1.00  0.00     0.032 C 
BRANCH   5   6
ATOM      6  C   UNL     1       8.715   8.316  14.995  1.00  0.00    -0.028 C 
ATOM      7  C   UNL     1       9.968   8.268  12.828  1.00  0.00     0.039 C 
ATOM      8  C   UNL     1       9.889   8.395  14.331  1.00  0.00    -0.080 C 
ATOM      9  C   UNL     1      11.151   8.596  15.127  1.00  0.00     0.039 C 
ENDBRANCH   5   6
ENDBRANCH   4   5
ENDBRANCH   1   4
BRANCH   2  10
ATOM     10  C   UNL     1       6.291   8.414  11.744  1.00  0.00     0.032 C 
BRANCH  10  11
ATOM     11  C   UNL     1       4.785   8.351  11.470  1.00  0.00     0.039 C 
BRANCH  11  12
ATOM     12  C   UNL     1       4.118   7.328  12.365  1.00  0.00    -0.055 C 
ATOM     13  C   UNL     1       3.675   7.707  13.568  1.00  0.00     0.012 C 
BRANCH  12  14
ATOM     14  C   UNL     1       3.895   5.924  11.933  1.00  0.00    -0.005 C 
ATOM     15  C   UNL     1       3.929   4.875  12.757  1.00  0.00     0.009 C 
ENDBRANCH  12  14
ENDBRANCH  11  12
ENDBRANCH  10  11
ENDBRANCH   2  10
TORSDOF 7
ENDMDL
MODEL 5
REMARK VINA RESULT:     1.583      1.846      3.646
REMARK INTER + INTRA:           1.073
REMARK INTER:                   1.004
REMARK INTRA:                   0.069
REMARK UNBOUND:                -1.158
REMARK SMILES C=CC(=C)CCC=C(C)CCC=C(C)C
REMARK SMILES IDX 8 1 7 2 9 3 10 4 11 5 12 6 14 7 13 8 15 9 6 10 5 11 3 12
REMARK SMILES IDX 4 13 2 14 1 15
REMARK H PARENT
REMARK Flexibility Score: inf
ROOT
ATOM      1  C   UNL     1       8.129   8.181  14.199  1.00  0.00    -0.077 C 
ATOM      2  C   UNL     1       7.406   7.064  13.961  1.00  0.00    -0.028 C 
ATOM      3  C   UNL     1       7.810   8.993  15.428  1.00  0.00     0.039 C 
ENDROOT
BRANCH   1   4
ATOM      4  C   UNL     1       9.259   8.635  13.291  1.00  0.00     0.034 C 
BRANCH   4   5
ATOM      5  C   UNL     1      10.592   7.962  13.651  1.00  0.00     0.032 C 
BRANCH   5   6
ATOM      6  C   UNL     1      11.237   8.597  14.860  1.00  0.00    -0.028 C 
ATOM      7  C   UNL     1      13.328   7.232  14.674  1.00  0.00     0.039 C 
ATOM      8  C   UNL     1      12.475   8.303  15.313  1.00  0.00    -0.080 C 
ATOM      9  C   UNL     1      13.002   9.059  16.504  1.00  0.00     0.039 C 
ENDBRANCH   5   6
ENDBRANCH   4   5
ENDBRANCH   1   4
BRANCH   2  10
ATOM     10  C   UNL     1       7.598   6.181  12.752  1.00  0.00     0.032 C 
BRANCH  10  11
ATOM     11  C   UNL     1       6.530   5.083  12.691  1.00  0.00     0.039 C 
BRANCH  11  12
ATOM     12  C   UNL     1       5.148   5.685  12.560  1.00  0.00    -0.055 C 
ATOM     13  C   UNL     1       4.102   4.875  12.360  1.00  0.00     0.012 C 
BRANCH  12  14
ATOM     14  C   UNL     1       4.904   7.144  12.692  1.00  0.00    -0.005 C 
ATOM     15  C   UNL     1       4.781   7.978  11.659  1.00  0.00     0.009 C 
ENDBRANCH  12  14
ENDBRANCH  11  12
ENDBRANCH  10  11
ENDBRANCH   2  10
TORSDOF 7
ENDMDL
MODEL 6
REMARK VINA RESULT:     1.639      1.078      4.921
REMARK INTER + INTRA:           1.152
REMARK INTER:                   0.776
REMARK INTRA:                   0.377
REMARK UNBOUND:                -1.158
REMARK SMILES C=CC(=C)CCC=C(C)CCC=C(C)C
REMARK SMILES IDX 8 1 7 2 9 3 10 4 11 5 12 6 14 7 13 8 15 9 6 10 5 11 3 12
REMARK SMILES IDX 4 13 2 14 1 15
REMARK H PARENT
REMARK Flexibility Score: inf
ROOT
ATOM      1  C   UNL     1       7.371   5.632  12.888  1.00  0.00    -0.077 C 
ATOM      2  C   UNL     1       7.883   6.837  13.225  1.00  0.00    -0.028 C 
ATOM      3  C   UNL     1       8.008   4.875  11.751  1.00  0.00     0.039 C 
ENDROOT
BRANCH   1   4
ATOM      4  C   UNL     1       6.199   5.004  13.623  1.00  0.00     0.034 C 
BRANCH   4   5
ATOM      5  C   UNL     1       4.885   5.151  12.842  1.00  0.00     0.032 C 
BRANCH   5   6
ATOM      6  C   UNL     1       4.914   6.337  11.908  1.00  0.00    -0.028 C 
ATOM      7  C   UNL     1       3.907   7.900  13.586  1.00  0.00     0.039 C 
ATOM      8  C   UNL     1       4.507   7.583  12.237  1.00  0.00    -0.080 C 
ATOM      9  C   UNL     1       4.645   8.677  11.210  1.00  0.00     0.039 C 
ENDBRANCH   5   6
ENDBRANCH   4   5
ENDBRANCH   1   4
BRANCH   2  10
ATOM     10  C   UNL     1       7.320   7.712  14.319  1.00  0.00     0.032 C 
BRANCH  10  11
ATOM     11  C   UNL     1       8.249   8.894  14.617  1.00  0.00     0.039 C 
BRANCH  11  12
ATOM     12  C   UNL     1       9.690   8.530  14.333  1.00  0.00    -0.055 C 
ATOM     13  C   UNL     1      10.048   8.220  13.082  1.00  0.00     0.012 C 
BRANCH  12  14
ATOM     14  C   UNL     1      10.735   8.551  15.389  1.00  0.00    -0.005 C 
ATOM     15  C   UNL     1      12.045   8.506  15.144  1.00  0.00     0.009 C 
ENDBRANCH  12  14
ENDBRANCH  11  12
ENDBRANCH  10  11
ENDBRANCH   2  10
TORSDOF 7
ENDMDL
MODEL 7
REMARK VINA RESULT:     2.550      1.517      5.475
REMARK INTER + INTRA:           2.436
REMARK INTER:                   2.910
REMARK INTRA:                  -0.474
REMARK UNBOUND:                -1.158
REMARK SMILES C=CC(=C)CCC=C(C)CCC=C(C)C
REMARK SMILES IDX 8 1 7 2 9 3 10 4 11 5 12 6 14 7 13 8 15 9 6 10 5 11 3 12
REMARK SMILES IDX 4 13 2 14 1 15
REMARK H PARENT
REMARK Flexibility Score: inf
ROOT
ATOM      1  C   UNL     1       7.653   6.423  12.672  1.00  0.00    -0.077 C 
ATOM      2  C   UNL     1       7.979   6.886  13.899  1.00  0.00    -0.028 C 
ATOM      3  C   UNL     1       7.243   4.980  12.534  1.00  0.00     0.039 C 
ENDROOT
BRANCH   1   4
ATOM      4  C   UNL     1       7.663   7.305  11.434  1.00  0.00     0.034 C 
BRANCH   4   5
ATOM      5  C   UNL     1       6.243   7.640  10.955  1.00  0.00     0.032 C 
BRANCH   5   6
ATOM      6  C   UNL     1       5.365   8.121  12.085  1.00  0.00    -0.028 C 
ATOM      7  C   UNL     1       4.165   5.935  12.311  1.00  0.00     0.039 C 
ATOM      8  C   UNL     1       4.450   7.360  12.724  1.00  0.00    -0.080 C 
ATOM      9  C   UNL     1       3.684   7.968  13.870  1.00  0.00     0.039 C 
ENDBRANCH   5   6
ENDBRANCH   4   5
ENDBRANCH   1   4
BRANCH   2  10
ATOM     10  C   UNL     1       8.439   8.298  14.170  1.00  0.00     0.032 C 
BRANCH  10  11
ATOM     11  C   UNL     1       9.838   8.546  13.595  1.00  0.00     0.039 C 
BRANCH  11  12
ATOM     12  C   UNL     1      10.890   8.447  14.679  1.00  0.00    -0.055 C 
ATOM     13  C   UNL     1      10.571   8.800  15.929  1.00  0.00     0.012 C 
BRANCH  12  14
ATOM     14  C   UNL     1      12.255   7.924  14.412  1.00  0.00    -0.005 C 
ATOM     15  C   UNL     1      13.241   7.919  15.309  1.00  0.00     0.009 C 
ENDBRANCH  12  14
ENDBRANCH  11  12
ENDBRANCH  10  11
ENDBRANCH   2  10
TORSDOF 7
ENDMDL
MODEL 8
REMARK VINA RESULT:     2.580      1.010      2.095
REMARK INTER + INTRA:           2.478
REMARK INTER:                   3.390
REMARK INTRA:                  -0.912
REMARK UNBOUND:                -1.158
REMARK SMILES C=CC(=C)CCC=C(C)CCC=C(C)C
REMARK SMILES IDX 8 1 7 2 9 3 10 4 11 5 12 6 14 7 13 8 15 9 6 10 5 11 3 12
REMARK SMILES IDX 4 13 2 14 1 15
REMARK H PARENT
REMARK Flexibility Score: inf
ROOT
ATOM      1  C   UNL     1       7.329   6.146  12.809  1.00  0.00    -0.077 C 
ATOM      2  C   UNL     1       6.361   5.291  12.411  1.00  0.00    -0.028 C 
ATOM      3  C   UNL     1       8.595   6.226  11.994  1.00  0.00     0.039 C 
ENDROOT
BRANCH   1   4
ATOM      4  C   UNL     1       7.183   7.042  14.027  1.00  0.00     0.034 C 
BRANCH   4   5
ATOM      5  C   UNL     1       7.910   8.383  13.847  1.00  0.00     0.032 C 
BRANCH   5   6
ATOM      6  C   UNL     1       9.044   8.546  14.831  1.00  0.00    -0.028 C 
ATOM      7  C   UNL     1      10.819   8.111  13.118  1.00  0.00     0.039 C 
ATOM      8  C   UNL     1      10.354   8.458  14.513  1.00  0.00    -0.080 C 
ATOM      9  C   UNL     1      11.373   8.696  15.598  1.00  0.00     0.039 C 
ENDBRANCH   5   6
ENDBRANCH   4   5
ENDBRANCH   1   4
BRANCH   2  10
ATOM     10  C   UNL     1       5.063   5.088  13.154  1.00  0.00     0.032 C 
BRANCH  10  11
ATOM     11  C   UNL     1       3.904   5.805  12.452  1.00  0.00     0.039 C 
BRANCH  11  12
ATOM     12  C   UNL     1       3.987   7.301  12.669  1.00  0.00    -0.055 C 
ATOM     13  C   UNL     1       3.809   7.790  13.901  1.00  0.00     0.012 C 
BRANCH  12  14
ATOM     14  C   UNL     1       4.306   8.244  11.566  1.00  0.00    -0.005 C 
ATOM     15  C   UNL     1       5.546   8.582  11.208  1.00  0.00     0.009 C 
ENDBRANCH  12  14
ENDBRANCH  11  12
ENDBRANCH  10  11
ENDBRANCH   2  10
TORSDOF 7
ENDMDL
