MODEL 1
REMARK VINA RESULT:    -7.944      0.000      0.000
REMARK INTER + INTRA:          -9.182
REMARK INTER:                  -9.105
REMARK INTRA:                  -0.077
REMARK UNBOUND:                -0.077
REMARK SMILES CC1(C)CC[C@@]23CO[C@]4(C=C[C@@H]5[C@@]6(C)CC[C@H](O)[C@@](C)(CO)[C@H]6CC[C@@]5(C)[C@]4(C)C[C@@H]2O)[C@H]3C1
REMARK SMILES IDX 1 1 2 2 4 3 5 4 6 5 7 6 8 7 9 8 33 9 34 10 10 11 11 12 12 13
REMARK SMILES IDX 13 14 15 15 16 16 17 17 19 18 23 19 24 20 25 21 26 22 28 23
REMARK SMILES IDX 30 24 31 25 29 26 27 27 20 28 14 29 3 30 32 31 21 33 22 34
REMARK SMILES IDX 18 36
REMARK H PARENT 32 32 22 35 18 37
REMARK Flexibility Score: inf
ROOT
ATOM      1  C   UNL     1      21.895  -5.266 -13.256  1.00  0.00     0.011 C 
ATOM      2  C   UNL     1      22.531  -3.896 -13.579  1.00  0.00    -0.035 C 
ATOM      3  C   UNL     1      22.758  -3.125 -12.238  1.00  0.00     0.007 C 
ATOM      4  C   UNL     1      23.741  -1.928 -12.329  1.00  0.00     0.013 C 
ATOM      5  C   UNL     1      25.054  -2.274 -13.083  1.00  0.00     0.026 C 
ATOM      6  C   UNL     1      25.797  -1.024 -13.599  1.00  0.00     0.171 C 
ATOM      7  O   UNL     1      26.428  -1.365 -14.826  1.00  0.00    -0.369 OA
ATOM      8  C   UNL     1      26.089  -2.716 -15.125  1.00  0.00     0.096 C 
ATOM      9  C   UNL     1      24.719  -2.863 -14.422  1.00  0.00     0.037 C 
ATOM     10  C   UNL     1      23.875  -4.151 -14.336  1.00  0.00     0.014 C 
ATOM     11  C   UNL     1      25.897  -2.792 -16.636  1.00  0.00     0.005 C 
ATOM     12  C   UNL     1      26.689  -3.480 -17.473  1.00  0.00    -0.024 C 
ATOM     13  C   UNL     1      27.883  -4.273 -16.980  1.00  0.00     0.024 C 
ATOM     14  C   UNL     1      28.572  -5.213 -18.068  1.00  0.00    -0.022 C 
ATOM     15  C   UNL     1      29.123  -4.284 -19.202  1.00  0.00     0.010 C 
ATOM     16  C   UNL     1      30.021  -4.964 -20.254  1.00  0.00     0.033 C 
ATOM     17  C   UNL     1      30.771  -6.216 -19.766  1.00  0.00     0.123 C 
ATOM     18  C   UNL     1      31.109  -6.164 -18.244  1.00  0.00     0.020 C 
ATOM     19  C   UNL     1      29.765  -6.050 -17.402  1.00  0.00     0.006 C 
ATOM     20  C   UNL     1      30.036  -5.639 -15.931  1.00  0.00     0.005 C 
ATOM     21  C   UNL     1      28.776  -5.780 -15.072  1.00  0.00     0.008 C 
ATOM     22  C   UNL     1      27.569  -4.901 -15.565  1.00  0.00    -0.017 C 
ATOM     23  C   UNL     1      27.257  -3.671 -14.552  1.00  0.00     0.009 C 
ATOM     24  C   UNL     1      26.902  -4.163 -13.101  1.00  0.00     0.043 C 
ATOM     25  C   UNL     1      26.069  -3.163 -12.249  1.00  0.00     0.124 C 
ATOM     26  C   UNL     1      28.560  -2.800 -14.352  1.00  0.00     0.015 C 
ATOM     27  C   UNL     1      26.351  -5.870 -15.706  1.00  0.00     0.013 C 
ATOM     28  C   UNL     1      31.841  -7.488 -17.875  1.00  0.00     0.017 C 
ATOM     29  C   UNL     1      27.522  -6.175 -18.729  1.00  0.00     0.012 C 
ATOM     30  C   UNL     1      21.535  -3.110 -14.466  1.00  0.00     0.011 C 
ENDROOT
BRANCH  25  31
ATOM     31  O   UNL     1      25.415  -3.875 -11.232  1.00  0.00    -0.392 OA
ATOM     32  H   UNL     1      25.674  -3.460 -10.364  1.00  0.00     0.210 HD
ENDBRANCH  25  31
BRANCH  18  33
ATOM     33  C   UNL     1      32.114  -5.000 -17.950  1.00  0.00     0.165 C 
BRANCH  33  34
ATOM     34  O   UNL     1      33.170  -5.000 -18.876  1.00  0.00    -0.396 OA
ATOM     35  H   UNL     1      33.253  -4.063 -19.200  1.00  0.00     0.210 HD
ENDBRANCH  33  34
ENDBRANCH  18  33
BRANCH  17  36
ATOM     36  O   UNL     1      30.000  -7.358 -20.061  1.00  0.00    -0.392 OA
ATOM     37  H   UNL     1      30.613  -8.141 -20.060  1.00  0.00     0.210 HD
ENDBRANCH  17  36
TORSDOF 4
ENDMDL
MODEL 2
REMARK VINA RESULT:    -7.942      9.673     12.736
REMARK INTER + INTRA:          -9.180
REMARK INTER:                  -9.287
REMARK INTRA:                   0.106
REMARK UNBOUND:                -0.077
REMARK SMILES CC1(C)CC[C@@]23CO[C@]4(C=C[C@@H]5[C@@]6(C)CC[C@H](O)[C@@](C)(CO)[C@H]6CC[C@@]5(C)[C@]4(C)C[C@@H]2O)[C@H]3C1
REMARK SMILES IDX 1 1 2 2 4 3 5 4 6 5 7 6 8 7 9 8 33 9 34 10 10 11 11 12 12 13
REMARK SMILES IDX 13 14 15 15 16 16 17 17 19 18 23 19 24 20 25 21 26 22 28 23
REMARK SMILES IDX 30 24 31 25 29 26 27 27 20 28 14 29 3 30 32 31 21 33 22 34
REMARK SMILES IDX 18 36
REMARK H PARENT 32 32 22 35 18 37
REMARK Flexibility Score: inf
ROOT
ATOM      1  C   UNL     1      21.501   7.383 -17.746  1.00  0.00     0.011 C 
ATOM      2  C   UNL     1      22.356   6.104 -17.600  1.00  0.00    -0.035 C 
ATOM      3  C   UNL     1      22.381   5.363 -18.976  1.00  0.00     0.007 C 
ATOM      4  C   UNL     1      23.501   4.300 -19.127  1.00  0.00     0.013 C 
ATOM      5  C   UNL     1      24.892   4.810 -18.663  1.00  0.00     0.026 C 
ATOM      6  C   UNL     1      25.877   3.665 -18.349  1.00  0.00     0.171 C 
ATOM      7  O   UNL     1      26.711   4.085 -17.277  1.00  0.00    -0.369 OA
ATOM      8  C   UNL     1      26.281   5.385 -16.881  1.00  0.00     0.096 C 
ATOM      9  C   UNL     1      24.784   5.357 -17.270  1.00  0.00     0.037 C 
ATOM     10  C   UNL     1      23.790   6.528 -17.143  1.00  0.00     0.014 C 
ATOM     11  C   UNL     1      26.412   5.441 -15.363  1.00  0.00     0.005 C 
ATOM     12  C   UNL     1      27.275   6.226 -14.698  1.00  0.00    -0.024 C 
ATOM     13  C   UNL     1      28.227   7.161 -15.417  1.00  0.00     0.024 C 
ATOM     14  C   UNL     1      29.014   8.183 -14.480  1.00  0.00    -0.022 C 
ATOM     15  C   UNL     1      29.906   7.335 -13.513  1.00  0.00     0.010 C 
ATOM     16  C   UNL     1      30.919   8.125 -12.661  1.00  0.00     0.033 C 
ATOM     17  C   UNL     1      31.386   9.459 -13.269  1.00  0.00     0.123 C 
ATOM     18  C   UNL     1      31.392   9.445 -14.829  1.00  0.00     0.020 C 
ATOM     19  C   UNL     1      29.923   9.160 -15.367  1.00  0.00     0.006 C 
ATOM     20  C   UNL     1      29.918   8.782 -16.871  1.00  0.00     0.005 C 
ATOM     21  C   UNL     1      28.495   8.761 -17.436  1.00  0.00     0.008 C 
ATOM     22  C   UNL     1      27.541   7.739 -16.716  1.00  0.00    -0.017 C 
ATOM     23  C   UNL     1      27.172   6.477 -17.668  1.00  0.00     0.009 C 
ATOM     24  C   UNL     1      26.454   6.915 -18.997  1.00  0.00     0.043 C 
ATOM     25  C   UNL     1      25.587   5.816 -19.675  1.00  0.00     0.124 C 
ATOM     26  C   UNL     1      28.498   5.775 -18.163  1.00  0.00     0.015 C 
ATOM     27  C   UNL     1      26.272   8.549 -16.295  1.00  0.00     0.013 C 
ATOM     28  C   UNL     1      31.858  10.850 -15.315  1.00  0.00     0.017 C 
ATOM     29  C   UNL     1      28.020   9.008 -13.587  1.00  0.00     0.012 C 
ATOM     30  C   UNL     1      21.679   5.203 -16.539  1.00  0.00     0.011 C 
ENDROOT
BRANCH  25  31
ATOM     31  O   UNL     1      24.646   6.437 -20.511  1.00  0.00    -0.392 OA
ATOM     32  H   UNL     1      25.105   7.195 -20.963  1.00  0.00     0.210 HD
ENDBRANCH  25  31
BRANCH  18  33
ATOM     33  C   UNL     1      32.445   8.415 -15.359  1.00  0.00     0.165 C 
BRANCH  33  34
ATOM     34  O   UNL     1      33.035   8.866 -16.552  1.00  0.00    -0.396 OA
ATOM     35  H   UNL     1      32.294   8.961 -17.208  1.00  0.00     0.210 HD
ENDBRANCH  33  34
ENDBRANCH  18  33
BRANCH  17  36
ATOM     36  O   UNL     1      30.562  10.497 -12.789  1.00  0.00    -0.392 OA
ATOM     37  H   UNL     1      31.107  11.046 -12.164  1.00  0.00     0.210 HD
ENDBRANCH  17  36
TORSDOF 4
ENDMDL
MODEL 3
REMARK VINA RESULT:    -7.885      5.016      9.654
REMARK INTER + INTRA:          -9.114
REMARK INTER:                  -9.113
REMARK INTRA:                  -0.001
REMARK UNBOUND:                -0.077
REMARK SMILES CC1(C)CC[C@@]23CO[C@]4(C=C[C@@H]5[C@@]6(C)CC[C@H](O)[C@@](C)(CO)[C@H]6CC[C@@]5(C)[C@]4(C)C[C@@H]2O)[C@H]3C1
REMARK SMILES IDX 1 1 2 2 4 3 5 4 6 5 7 6 8 7 9 8 33 9 34 10 10 11 11 12 12 13
REMARK SMILES IDX 13 14 15 15 16 16 17 17 19 18 23 19 24 20 25 21 26 22 28 23
REMARK SMILES IDX 30 24 31 25 29 26 27 27 20 28 14 29 3 30 32 31 21 33 22 34
REMARK SMILES IDX 18 36
REMARK H PARENT 32 32 22 35 18 37
REMARK Flexibility Score: inf
ROOT
ATOM      1  C   UNL     1      26.627  -3.500 -20.455  1.00  0.00     0.011 C 
ATOM      2  C   UNL     1      25.881  -2.420 -19.640  1.00  0.00    -0.035 C 
ATOM      3  C   UNL     1      25.558  -1.218 -20.585  1.00  0.00     0.007 C 
ATOM      4  C   UNL     1      24.475  -0.241 -20.056  1.00  0.00     0.013 C 
ATOM      5  C   UNL     1      23.215  -0.964 -19.509  1.00  0.00     0.026 C 
ATOM      6  C   UNL     1      22.377  -0.079 -18.564  1.00  0.00     0.171 C 
ATOM      7  O   UNL     1      21.806  -0.918 -17.569  1.00  0.00    -0.369 OA
ATOM      8  C   UNL     1      22.268  -2.245 -17.807  1.00  0.00     0.096 C 
ATOM      9  C   UNL     1      23.630  -1.989 -18.494  1.00  0.00     0.037 C 
ATOM     10  C   UNL     1      24.581  -3.064 -19.056  1.00  0.00     0.014 C 
ATOM     11  C   UNL     1      22.499  -2.876 -16.438  1.00  0.00     0.005 C 
ATOM     12  C   UNL     1      21.789  -3.900 -15.939  1.00  0.00    -0.024 C 
ATOM     13  C   UNL     1      20.659  -4.547 -16.714  1.00  0.00     0.024 C 
ATOM     14  C   UNL     1      20.078  -5.889 -16.078  1.00  0.00    -0.022 C 
ATOM     15  C   UNL     1      19.473  -5.518 -14.683  1.00  0.00     0.010 C 
ATOM     16  C   UNL     1      18.662  -6.627 -13.983  1.00  0.00     0.033 C 
ATOM     17  C   UNL     1      18.014  -7.658 -14.923  1.00  0.00     0.123 C 
ATOM     18  C   UNL     1      17.639  -7.057 -16.313  1.00  0.00     0.020 C 
ATOM     19  C   UNL     1      18.948  -6.510 -17.030  1.00  0.00     0.006 C 
ATOM     20  C   UNL     1      18.611  -5.593 -18.235  1.00  0.00     0.005 C 
ATOM     21  C   UNL     1      19.858  -5.282 -19.065  1.00  0.00     0.008 C 
ATOM     22  C   UNL     1      20.994  -4.554 -18.257  1.00  0.00    -0.017 C 
ATOM     23  C   UNL     1      21.175  -3.008 -18.717  1.00  0.00     0.009 C 
ATOM     24  C   UNL     1      21.540  -2.873 -20.241  1.00  0.00     0.043 C 
ATOM     25  C   UNL     1      22.263  -1.553 -20.634  1.00  0.00     0.124 C 
ATOM     26  C   UNL     1      19.797  -2.246 -18.585  1.00  0.00     0.015 C 
ATOM     27  C   UNL     1      22.296  -5.391 -18.482  1.00  0.00     0.013 C 
ATOM     28  C   UNL     1      17.017  -8.199 -17.172  1.00  0.00     0.017 C 
ATOM     29  C   UNL     1      21.223  -6.933 -15.823  1.00  0.00     0.012 C 
ATOM     30  C   UNL     1      26.823  -1.949 -18.506  1.00  0.00     0.011 C 
ENDROOT
BRANCH  25  31
ATOM     31  O   UNL     1      22.955  -1.760 -21.838  1.00  0.00    -0.392 OA
ATOM     32  H   UNL     1      22.326  -2.203 -22.469  1.00  0.00     0.210 HD
ENDBRANCH  25  31
BRANCH  18  33
ATOM     33  C   UNL     1      16.530  -5.964 -16.152  1.00  0.00     0.165 C 
BRANCH  33  34
ATOM     34  O   UNL     1      15.545  -6.095 -17.145  1.00  0.00    -0.396 OA
ATOM     35  H   UNL     1      14.671  -5.997 -16.682  1.00  0.00     0.210 HD
ENDBRANCH  33  34
ENDBRANCH  18  33
BRANCH  17  36
ATOM     36  O   UNL     1      18.888  -8.752 -15.079  1.00  0.00    -0.392 OA
ATOM     37  H   UNL     1      19.494  -8.546 -15.840  1.00  0.00     0.210 HD
ENDBRANCH  17  36
TORSDOF 4
ENDMDL
MODEL 4
REMARK VINA RESULT:    -7.802      9.151     14.105
REMARK INTER + INTRA:          -9.020
REMARK INTER:                  -8.961
REMARK INTRA:                  -0.059
REMARK UNBOUND:                -0.077
REMARK SMILES CC1(C)CC[C@@]23CO[C@]4(C=C[C@@H]5[C@@]6(C)CC[C@H](O)[C@@](C)(CO)[C@H]6CC[C@@]5(C)[C@]4(C)C[C@@H]2O)[C@H]3C1
REMARK SMILES IDX 1 1 2 2 4 3 5 4 6 5 7 6 8 7 9 8 33 9 34 10 10 11 11 12 12 13
REMARK SMILES IDX 13 14 15 15 16 16 17 17 19 18 23 19 24 20 25 21 26 22 28 23
REMARK SMILES IDX 30 24 31 25 29 26 27 27 20 28 14 29 3 30 32 31 21 33 22 34
REMARK SMILES IDX 18 36
REMARK H PARENT 32 32 22 35 18 37
REMARK Flexibility Score: inf
ROOT
ATOM      1  C   UNL     1      27.874   6.406 -11.876  1.00  0.00     0.011 C 
ATOM      2  C   UNL     1      27.090   5.213 -12.468  1.00  0.00    -0.035 C 
ATOM      3  C   UNL     1      27.176   4.016 -11.467  1.00  0.00     0.007 C 
ATOM      4  C   UNL     1      26.131   2.893 -11.696  1.00  0.00     0.013 C 
ATOM      5  C   UNL     1      24.690   3.435 -11.902  1.00  0.00     0.026 C 
ATOM      6  C   UNL     1      23.760   2.418 -12.596  1.00  0.00     0.171 C 
ATOM      7  O   UNL     1      22.851   3.143 -13.413  1.00  0.00    -0.369 OA
ATOM      8  C   UNL     1      23.183   4.525 -13.307  1.00  0.00     0.096 C 
ATOM      9  C   UNL     1      24.696   4.465 -12.993  1.00  0.00     0.037 C 
ATOM     10  C   UNL     1      25.612   5.670 -12.699  1.00  0.00     0.014 C 
ATOM     11  C   UNL     1      22.974   5.129 -14.691  1.00  0.00     0.005 C 
ATOM     12  C   UNL     1      22.033   6.038 -14.995  1.00  0.00    -0.024 C 
ATOM     13  C   UNL     1      21.065   6.569 -13.957  1.00  0.00     0.024 C 
ATOM     14  C   UNL     1      20.173   7.805 -14.426  1.00  0.00    -0.022 C 
ATOM     15  C   UNL     1      19.285   7.311 -15.617  1.00  0.00     0.010 C 
ATOM     16  C   UNL     1      18.186   8.284 -16.088  1.00  0.00     0.033 C 
ATOM     17  C   UNL     1      17.672   9.260 -15.016  1.00  0.00     0.123 C 
ATOM     18  C   UNL     1      17.745   8.669 -13.574  1.00  0.00     0.020 C 
ATOM     19  C   UNL     1      19.253   8.315 -13.217  1.00  0.00     0.006 C 
ATOM     20  C   UNL     1      19.355   7.408 -11.963  1.00  0.00     0.005 C 
ATOM     21  C   UNL     1      20.803   7.284 -11.481  1.00  0.00     0.008 C 
ATOM     22  C   UNL     1      21.779   6.674 -12.552  1.00  0.00    -0.017 C 
ATOM     23  C   UNL     1      22.270   5.180 -12.149  1.00  0.00     0.009 C 
ATOM     24  C   UNL     1      23.026   5.147 -10.770  1.00  0.00     0.043 C 
ATOM     25  C   UNL     1      23.989   3.941 -10.572  1.00  0.00     0.124 C 
ATOM     26  C   UNL     1      21.014   4.249 -11.919  1.00  0.00     0.015 C 
ATOM     27  C   UNL     1      22.976   7.673 -12.673  1.00  0.00     0.013 C 
ATOM     28  C   UNL     1      17.221   9.756 -12.589  1.00  0.00     0.017 C 
ATOM     29  C   UNL     1      21.070   8.972 -14.971  1.00  0.00     0.012 C 
ATOM     30  C   UNL     1      27.765   4.821 -13.804  1.00  0.00     0.011 C 
ENDROOT
BRANCH  25  31
ATOM     31  O   UNL     1      24.932   4.276  -9.588  1.00  0.00    -0.392 OA
ATOM     32  H   UNL     1      25.643   3.580  -9.608  1.00  0.00     0.210 HD
ENDBRANCH  25  31
BRANCH  18  33
ATOM     33  C   UNL     1      16.782   7.442 -13.440  1.00  0.00     0.165 C 
BRANCH  33  34
ATOM     34  O   UNL     1      15.547   7.700 -14.058  1.00  0.00    -0.396 OA
ATOM     35  H   UNL     1      15.390   6.947 -14.687  1.00  0.00     0.210 HD
ENDBRANCH  33  34
ENDBRANCH  18  33
BRANCH  17  36
ATOM     36  O   UNL     1      18.408  10.459 -15.095  1.00  0.00    -0.392 OA
ATOM     37  H   UNL     1      19.339  10.259 -14.808  1.00  0.00     0.210 HD
ENDBRANCH  17  36
TORSDOF 4
ENDMDL
MODEL 5
REMARK VINA RESULT:    -7.647     10.221     13.046
REMARK INTER + INTRA:          -8.842
REMARK INTER:                  -8.747
REMARK INTRA:                  -0.096
REMARK UNBOUND:                -0.077
REMARK SMILES CC1(C)CC[C@@]23CO[C@]4(C=C[C@@H]5[C@@]6(C)CC[C@H](O)[C@@](C)(CO)[C@H]6CC[C@@]5(C)[C@]4(C)C[C@@H]2O)[C@H]3C1
REMARK SMILES IDX 1 1 2 2 4 3 5 4 6 5 7 6 8 7 9 8 33 9 34 10 10 11 11 12 12 13
REMARK SMILES IDX 13 14 15 15 16 16 17 17 19 18 23 19 24 20 25 21 26 22 28 23
REMARK SMILES IDX 30 24 31 25 29 26 27 27 20 28 14 29 3 30 32 31 21 33 22 34
REMARK SMILES IDX 18 36
REMARK H PARENT 32 32 22 35 18 37
REMARK Flexibility Score: inf
ROOT
ATOM      1  C   UNL     1      18.846   9.686 -12.248  1.00  0.00     0.011 C 
ATOM      2  C   UNL     1      18.433   8.538 -13.196  1.00  0.00    -0.035 C 
ATOM      3  C   UNL     1      17.240   9.027 -14.079  1.00  0.00     0.007 C 
ATOM      4  C   UNL     1      16.967   8.170 -15.344  1.00  0.00     0.013 C 
ATOM      5  C   UNL     1      18.253   7.848 -16.151  1.00  0.00     0.026 C 
ATOM      6  C   UNL     1      18.084   6.636 -17.091  1.00  0.00     0.171 C 
ATOM      7  O   UNL     1      19.328   5.952 -17.153  1.00  0.00    -0.369 OA
ATOM      8  C   UNL     1      20.235   6.626 -16.284  1.00  0.00     0.096 C 
ATOM      9  C   UNL     1      19.276   7.238 -15.236  1.00  0.00     0.037 C 
ATOM     10  C   UNL     1      19.677   8.153 -14.062  1.00  0.00     0.014 C 
ATOM     11  C   UNL     1      21.088   5.548 -15.625  1.00  0.00     0.005 C 
ATOM     12  C   UNL     1      22.406   5.386 -15.826  1.00  0.00    -0.024 C 
ATOM     13  C   UNL     1      23.194   6.291 -16.752  1.00  0.00     0.024 C 
ATOM     14  C   UNL     1      24.777   6.111 -16.696  1.00  0.00    -0.022 C 
ATOM     15  C   UNL     1      25.094   4.650 -17.165  1.00  0.00     0.010 C 
ATOM     16  C   UNL     1      26.582   4.324 -17.395  1.00  0.00     0.033 C 
ATOM     17  C   UNL     1      27.467   5.527 -17.765  1.00  0.00     0.123 C 
ATOM     18  C   UNL     1      26.692   6.631 -18.549  1.00  0.00     0.020 C 
ATOM     19  C   UNL     1      25.490   7.174 -17.660  1.00  0.00     0.006 C 
ATOM     20  C   UNL     1      24.477   8.000 -18.494  1.00  0.00     0.005 C 
ATOM     21  C   UNL     1      23.474   8.725 -17.594  1.00  0.00     0.008 C 
ATOM     22  C   UNL     1      22.623   7.763 -16.687  1.00  0.00    -0.017 C 
ATOM     23  C   UNL     1      21.070   7.698 -17.155  1.00  0.00     0.009 C 
ATOM     24  C   UNL     1      20.370   9.105 -17.112  1.00  0.00     0.043 C 
ATOM     25  C   UNL     1      18.819   9.070 -16.990  1.00  0.00     0.124 C 
ATOM     26  C   UNL     1      20.988   7.277 -18.676  1.00  0.00     0.015 C 
ATOM     27  C   UNL     1      22.774   8.294 -15.224  1.00  0.00     0.013 C 
ATOM     28  C   UNL     1      27.686   7.794 -18.841  1.00  0.00     0.017 C 
ATOM     29  C   UNL     1      25.308   6.250 -15.226  1.00  0.00     0.012 C 
ATOM     30  C   UNL     1      17.976   7.346 -12.322  1.00  0.00     0.011 C 
ENDROOT
BRANCH  25  31
ATOM     31  O   UNL     1      18.380  10.297 -16.472  1.00  0.00    -0.392 OA
ATOM     32  H   UNL     1      18.826  11.018 -16.995  1.00  0.00     0.210 HD
ENDBRANCH  25  31
BRANCH  18  33
ATOM     33  C   UNL     1      26.222   6.083 -19.938  1.00  0.00     0.165 C 
BRANCH  33  34
ATOM     34  O   UNL     1      27.299   5.535 -20.654  1.00  0.00    -0.396 OA
ATOM     35  H   UNL     1      28.015   5.361 -19.987  1.00  0.00     0.210 HD
ENDBRANCH  33  34
ENDBRANCH  18  33
BRANCH  17  36
ATOM     36  O   UNL     1      28.032   6.062 -16.590  1.00  0.00    -0.392 OA
ATOM     37  H   UNL     1      27.707   6.997 -16.500  1.00  0.00     0.210 HD
ENDBRANCH  17  36
TORSDOF 4
ENDMDL
MODEL 6
REMARK VINA RESULT:    -7.610      3.319      8.737
REMARK INTER + INTRA:          -8.800
REMARK INTER:                  -8.704
REMARK INTRA:                  -0.096
REMARK UNBOUND:                -0.077
REMARK SMILES CC1(C)CC[C@@]23CO[C@]4(C=C[C@@H]5[C@@]6(C)CC[C@H](O)[C@@](C)(CO)[C@H]6CC[C@@]5(C)[C@]4(C)C[C@@H]2O)[C@H]3C1
REMARK SMILES IDX 1 1 2 2 4 3 5 4 6 5 7 6 8 7 9 8 33 9 34 10 10 11 11 12 12 13
REMARK SMILES IDX 13 14 15 15 16 16 17 17 19 18 23 19 24 20 25 21 26 22 28 23
REMARK SMILES IDX 30 24 31 25 29 26 27 27 20 28 14 29 3 30 32 31 21 33 22 34
REMARK SMILES IDX 18 36
REMARK H PARENT 32 32 22 35 18 37
REMARK Flexibility Score: inf
ROOT
ATOM      1  C   UNL     1      28.416  -5.760 -12.883  1.00  0.00     0.011 C 
ATOM      2  C   UNL     1      27.836  -4.350 -13.135  1.00  0.00    -0.035 C 
ATOM      3  C   UNL     1      28.563  -3.727 -14.370  1.00  0.00     0.007 C 
ATOM      4  C   UNL     1      27.844  -2.509 -15.008  1.00  0.00     0.013 C 
ATOM      5  C   UNL     1      26.325  -2.745 -15.228  1.00  0.00     0.026 C 
ATOM      6  C   UNL     1      25.531  -1.432 -15.389  1.00  0.00     0.171 C 
ATOM      7  O   UNL     1      24.245  -1.623 -14.814  1.00  0.00    -0.369 OA
ATOM      8  C   UNL     1      24.208  -2.940 -14.270  1.00  0.00     0.096 C 
ATOM      9  C   UNL     1      25.698  -3.190 -13.938  1.00  0.00     0.037 C 
ATOM     10  C   UNL     1      26.298  -4.495 -13.379  1.00  0.00     0.014 C 
ATOM     11  C   UNL     1      23.406  -2.854 -12.977  1.00  0.00     0.005 C 
ATOM     12  C   UNL     1      22.209  -3.430 -12.779  1.00  0.00    -0.024 C 
ATOM     13  C   UNL     1      21.525  -4.250 -13.854  1.00  0.00     0.024 C 
ATOM     14  C   UNL     1      20.231  -5.051 -13.380  1.00  0.00    -0.022 C 
ATOM     15  C   UNL     1      19.173  -3.993 -12.920  1.00  0.00     0.010 C 
ATOM     16  C   UNL     1      17.761  -4.536 -12.623  1.00  0.00     0.033 C 
ATOM     17  C   UNL     1      17.379  -5.819 -13.381  1.00  0.00     0.123 C 
ATOM     18  C   UNL     1      18.073  -5.928 -14.774  1.00  0.00     0.020 C 
ATOM     19  C   UNL     1      19.652  -5.932 -14.586  1.00  0.00     0.006 C 
ATOM     20  C   UNL     1      20.396  -5.680 -15.923  1.00  0.00     0.005 C 
ATOM     21  C   UNL     1      21.899  -5.939 -15.782  1.00  0.00     0.008 C 
ATOM     22  C   UNL     1      22.600  -5.034 -14.704  1.00  0.00    -0.017 C 
ATOM     23  C   UNL     1      23.579  -3.930 -15.380  1.00  0.00     0.009 C 
ATOM     24  C   UNL     1      24.721  -4.584 -16.241  1.00  0.00     0.043 C 
ATOM     25  C   UNL     1      25.984  -3.700 -16.448  1.00  0.00     0.124 C 
ATOM     26  C   UNL     1      22.767  -3.061 -16.420  1.00  0.00     0.015 C 
ATOM     27  C   UNL     1      23.376  -6.006 -13.756  1.00  0.00     0.013 C 
ATOM     28  C   UNL     1      17.625  -7.270 -15.424  1.00  0.00     0.017 C 
ATOM     29  C   UNL     1      20.552  -5.954 -12.137  1.00  0.00     0.012 C 
ATOM     30  C   UNL     1      28.120  -3.491 -11.879  1.00  0.00     0.011 C 
ENDROOT
BRANCH  25  31
ATOM     31  O   UNL     1      27.068  -4.532 -16.769  1.00  0.00    -0.392 OA
ATOM     32  H   UNL     1      27.873  -4.159 -16.317  1.00  0.00     0.210 HD
ENDBRANCH  25  31
BRANCH  18  33
ATOM     33  C   UNL     1      17.575  -4.784 -15.720  1.00  0.00     0.165 C 
BRANCH  33  34
ATOM     34  O   UNL     1      16.173  -4.769 -15.798  1.00  0.00    -0.396 OA
ATOM     35  H   UNL     1      15.921  -3.846 -16.071  1.00  0.00     0.210 HD
ENDBRANCH  33  34
ENDBRANCH  18  33
BRANCH  17  36
ATOM     36  O   UNL     1      17.697  -6.936 -12.584  1.00  0.00    -0.392 OA
ATOM     37  H   UNL     1      16.969  -7.044 -11.916  1.00  0.00     0.210 HD
ENDBRANCH  17  36
TORSDOF 4
ENDMDL
MODEL 7
REMARK VINA RESULT:    -7.578      9.992     14.447
REMARK INTER + INTRA:          -8.763
REMARK INTER:                  -8.668
REMARK INTRA:                  -0.096
REMARK UNBOUND:                -0.077
REMARK SMILES CC1(C)CC[C@@]23CO[C@]4(C=C[C@@H]5[C@@]6(C)CC[C@H](O)[C@@](C)(CO)[C@H]6CC[C@@]5(C)[C@]4(C)C[C@@H]2O)[C@H]3C1
REMARK SMILES IDX 1 1 2 2 4 3 5 4 6 5 7 6 8 7 9 8 33 9 34 10 10 11 11 12 12 13
REMARK SMILES IDX 13 14 15 15 16 16 17 17 19 18 23 19 24 20 25 21 26 22 28 23
REMARK SMILES IDX 30 24 31 25 29 26 27 27 20 28 14 29 3 30 32 31 21 33 22 34
REMARK SMILES IDX 18 36
REMARK H PARENT 32 32 22 35 18 37
REMARK Flexibility Score: inf
ROOT
ATOM      1  C   UNL     1      28.041   8.125 -19.644  1.00  0.00     0.011 C 
ATOM      2  C   UNL     1      27.485   6.744 -19.232  1.00  0.00    -0.035 C 
ATOM      3  C   UNL     1      28.484   6.086 -18.225  1.00  0.00     0.007 C 
ATOM      4  C   UNL     1      27.904   4.903 -17.406  1.00  0.00     0.013 C 
ATOM      5  C   UNL     1      26.510   5.209 -16.795  1.00  0.00     0.026 C 
ATOM      6  C   UNL     1      25.728   3.935 -16.415  1.00  0.00     0.171 C 
ATOM      7  O   UNL     1      24.346   4.187 -16.632  1.00  0.00    -0.369 OA
ATOM      8  C   UNL     1      24.227   5.504 -17.161  1.00  0.00     0.096 C 
ATOM      9  C   UNL     1      25.585   5.684 -17.878  1.00  0.00     0.037 C 
ATOM     10  C   UNL     1      26.075   6.960 -18.591  1.00  0.00     0.014 C 
ATOM     11  C   UNL     1      23.107   5.457 -18.196  1.00  0.00     0.005 C 
ATOM     12  C   UNL     1      21.929   6.089 -18.077  1.00  0.00    -0.024 C 
ATOM     13  C   UNL     1      21.591   6.938 -16.869  1.00  0.00     0.024 C 
ATOM     14  C   UNL     1      20.256   7.800 -16.994  1.00  0.00    -0.022 C 
ATOM     15  C   UNL     1      19.066   6.793 -17.145  1.00  0.00     0.010 C 
ATOM     16  C   UNL     1      17.652   7.402 -17.065  1.00  0.00     0.033 C 
ATOM     17  C   UNL     1      17.544   8.701 -16.248  1.00  0.00     0.123 C 
ATOM     18  C   UNL     1      18.585   8.776 -15.089  1.00  0.00     0.020 C 
ATOM     19  C   UNL     1      20.057   8.707 -15.687  1.00  0.00     0.006 C 
ATOM     20  C   UNL     1      21.116   8.419 -14.592  1.00  0.00     0.005 C 
ATOM     21  C   UNL     1      22.538   8.607 -15.128  1.00  0.00     0.008 C 
ATOM     22  C   UNL     1      22.888   7.671 -16.342  1.00  0.00    -0.017 C 
ATOM     23  C   UNL     1      23.959   6.521 -15.937  1.00  0.00     0.009 C 
ATOM     24  C   UNL     1      25.317   7.121 -15.416  1.00  0.00     0.043 C 
ATOM     25  C   UNL     1      26.548   6.179 -15.540  1.00  0.00     0.124 C 
ATOM     26  C   UNL     1      23.412   5.691 -14.709  1.00  0.00     0.015 C 
ATOM     27  C   UNL     1      23.428   8.606 -17.473  1.00  0.00     0.013 C 
ATOM     28  C   UNL     1      18.386  10.137 -14.359  1.00  0.00     0.017 C 
ATOM     29  C   UNL     1      20.277   8.688 -18.288  1.00  0.00     0.012 C 
ATOM     30  C   UNL     1      27.387   5.874 -20.508  1.00  0.00     0.011 C 
ENDROOT
BRANCH  25  31
ATOM     31  O   UNL     1      27.714   6.958 -15.526  1.00  0.00    -0.392 OA
ATOM     32  H   UNL     1      28.444   6.396 -15.149  1.00  0.00     0.210 HD
ENDBRANCH  25  31
BRANCH  18  33
ATOM     33  C   UNL     1      18.304   7.656 -14.032  1.00  0.00     0.165 C 
BRANCH  33  34
ATOM     34  O   UNL     1      16.972   7.703 -13.589  1.00  0.00    -0.396 OA
ATOM     35  H   UNL     1      16.610   6.784 -13.704  1.00  0.00     0.210 HD
ENDBRANCH  33  34
ENDBRANCH  18  33
BRANCH  17  36
ATOM     36  O   UNL     1      17.689   9.803 -17.114  1.00  0.00    -0.392 OA
ATOM     37  H   UNL     1      18.201   9.493 -17.908  1.00  0.00     0.210 HD
ENDBRANCH  17  36
TORSDOF 4
ENDMDL
MODEL 8
REMARK VINA RESULT:    -7.576      9.542     11.614
REMARK INTER + INTRA:          -8.761
REMARK INTER:                  -8.667
REMARK INTRA:                  -0.093
REMARK UNBOUND:                -0.077
REMARK SMILES CC1(C)CC[C@@]23CO[C@]4(C=C[C@@H]5[C@@]6(C)CC[C@H](O)[C@@](C)(CO)[C@H]6CC[C@@]5(C)[C@]4(C)C[C@@H]2O)[C@H]3C1
REMARK SMILES IDX 1 1 2 2 4 3 5 4 6 5 7 6 8 7 9 8 33 9 34 10 10 11 11 12 12 13
REMARK SMILES IDX 13 14 15 15 16 16 17 17 19 18 23 19 24 20 25 21 26 22 28 23
REMARK SMILES IDX 30 24 31 25 29 26 27 27 20 28 14 29 3 30 32 31 21 33 22 34
REMARK SMILES IDX 18 36
REMARK H PARENT 32 32 22 35 18 37
REMARK Flexibility Score: inf
ROOT
ATOM      1  C   UNL     1      21.606   6.451  -9.622  1.00  0.00     0.011 C 
ATOM      2  C   UNL     1      22.045   5.261 -10.504  1.00  0.00    -0.035 C 
ATOM      3  C   UNL     1      21.012   5.094 -11.665  1.00  0.00     0.007 C 
ATOM      4  C   UNL     1      21.500   4.230 -12.857  1.00  0.00     0.013 C 
ATOM      5  C   UNL     1      22.928   4.605 -13.338  1.00  0.00     0.026 C 
ATOM      6  C   UNL     1      23.601   3.483 -14.155  1.00  0.00     0.171 C 
ATOM      7  O   UNL     1      24.995   3.516 -13.880  1.00  0.00    -0.369 OA
ATOM      8  C   UNL     1      25.221   4.545 -12.921  1.00  0.00     0.096 C 
ATOM      9  C   UNL     1      23.870   4.582 -12.169  1.00  0.00     0.037 C 
ATOM     10  C   UNL     1      23.482   5.561 -11.044  1.00  0.00     0.014 C 
ATOM     11  C   UNL     1      26.311   4.034 -11.985  1.00  0.00     0.005 C 
ATOM     12  C   UNL     1      27.543   4.558 -11.887  1.00  0.00    -0.024 C 
ATOM     13  C   UNL     1      27.979   5.746 -12.721  1.00  0.00     0.024 C 
ATOM     14  C   UNL     1      29.383   6.384 -12.317  1.00  0.00    -0.022 C 
ATOM     15  C   UNL     1      30.475   5.286 -12.546  1.00  0.00     0.010 C 
ATOM     16  C   UNL     1      31.939   5.754 -12.424  1.00  0.00     0.033 C 
ATOM     17  C   UNL     1      32.178   7.242 -12.731  1.00  0.00     0.123 C 
ATOM     18  C   UNL     1      31.171   7.816 -13.774  1.00  0.00     0.020 C 
ATOM     19  C   UNL     1      29.687   7.672 -13.220  1.00  0.00     0.006 C 
ATOM     20  C   UNL     1      28.628   7.887 -14.333  1.00  0.00     0.005 C 
ATOM     21  C   UNL     1      27.219   8.001 -13.746  1.00  0.00     0.008 C 
ATOM     22  C   UNL     1      26.763   6.732 -12.937  1.00  0.00    -0.017 C 
ATOM     23  C   UNL     1      25.602   5.901 -13.710  1.00  0.00     0.009 C 
ATOM     24  C   UNL     1      24.314   6.766 -13.967  1.00  0.00     0.043 C 
ATOM     25  C   UNL     1      23.001   5.955 -14.169  1.00  0.00     0.124 C 
ATOM     26  C   UNL     1      26.097   5.512 -15.159  1.00  0.00     0.015 C 
ATOM     27  C   UNL     1      26.285   7.251 -11.542  1.00  0.00     0.013 C 
ATOM     28  C   UNL     1      31.504   9.324 -13.978  1.00  0.00     0.017 C 
ATOM     29  C   UNL     1      29.415   6.756 -10.792  1.00  0.00     0.012 C 
ATOM     30  C   UNL     1      22.040   3.991  -9.620  1.00  0.00     0.011 C 
ENDROOT
BRANCH  25  31
ATOM     31  O   UNL     1      21.909   6.791 -13.891  1.00  0.00    -0.392 OA
ATOM     32  H   UNL     1      21.264   6.697 -14.643  1.00  0.00     0.210 HD
ENDBRANCH  25  31
BRANCH  18  33
ATOM     33  C   UNL     1      31.372   7.121 -15.163  1.00  0.00     0.165 C 
BRANCH  33  34
ATOM     34  O   UNL     1      32.699   7.254 -15.605  1.00  0.00    -0.396 OA
ATOM     35  H   UNL     1      33.101   6.347 -15.550  1.00  0.00     0.210 HD
ENDBRANCH  33  34
ENDBRANCH  18  33
BRANCH  17  36
ATOM     36  O   UNL     1      32.114   7.975 -11.529  1.00  0.00    -0.392 OA
ATOM     37  H   UNL     1      32.081   8.940 -11.768  1.00  0.00     0.210 HD
ENDBRANCH  17  36
TORSDOF 4
ENDMDL
MODEL 9
REMARK VINA RESULT:    -7.534      3.294      4.349
REMARK INTER + INTRA:          -8.712
REMARK INTER:                  -8.620
REMARK INTRA:                  -0.092
REMARK UNBOUND:                -0.077
REMARK SMILES CC1(C)CC[C@@]23CO[C@]4(C=C[C@@H]5[C@@]6(C)CC[C@H](O)[C@@](C)(CO)[C@H]6CC[C@@]5(C)[C@]4(C)C[C@@H]2O)[C@H]3C1
REMARK SMILES IDX 1 1 2 2 4 3 5 4 6 5 7 6 8 7 9 8 33 9 34 10 10 11 11 12 12 13
REMARK SMILES IDX 13 14 15 15 16 16 17 17 19 18 23 19 24 20 25 21 26 22 28 23
REMARK SMILES IDX 30 24 31 25 29 26 27 27 20 28 14 29 3 30 32 31 21 33 22 34
REMARK SMILES IDX 18 36
REMARK H PARENT 32 32 22 35 18 37
REMARK Flexibility Score: inf
ROOT
ATOM      1  C   UNL     1      19.609  -4.627 -20.395  1.00  0.00     0.011 C 
ATOM      2  C   UNL     1      20.407  -3.351 -20.048  1.00  0.00    -0.035 C 
ATOM      3  C   UNL     1      19.772  -2.696 -18.779  1.00  0.00     0.007 C 
ATOM      4  C   UNL     1      20.669  -1.656 -18.059  1.00  0.00     0.013 C 
ATOM      5  C   UNL     1      22.125  -2.151 -17.846  1.00  0.00     0.026 C 
ATOM      6  C   UNL     1      23.121  -0.999 -17.595  1.00  0.00     0.171 C 
ATOM      7  O   UNL     1      24.367  -1.362 -18.174  1.00  0.00    -0.369 OA
ATOM      8  C   UNL     1      24.197  -2.630 -18.802  1.00  0.00     0.096 C 
ATOM      9  C   UNL     1      22.693  -2.610 -19.158  1.00  0.00     0.037 C 
ATOM     10  C   UNL     1      21.896  -3.761 -19.805  1.00  0.00     0.014 C 
ATOM     11  C   UNL     1      25.024  -2.594 -20.083  1.00  0.00     0.005 C 
ATOM     12  C   UNL     1      26.114  -3.345 -20.311  1.00  0.00    -0.024 C 
ATOM     13  C   UNL     1      26.637  -4.333 -19.287  1.00  0.00     0.024 C 
ATOM     14  C   UNL     1      27.790  -5.304 -19.806  1.00  0.00    -0.022 C 
ATOM     15  C   UNL     1      29.015  -4.407 -20.189  1.00  0.00     0.010 C 
ATOM     16  C   UNL     1      30.324  -5.154 -20.513  1.00  0.00     0.033 C 
ATOM     17  C   UNL     1      30.478  -6.528 -19.838  1.00  0.00     0.123 C 
ATOM     18  C   UNL     1      29.753  -6.610 -18.459  1.00  0.00     0.020 C 
ATOM     19  C   UNL     1      28.198  -6.343 -18.656  1.00  0.00     0.006 C 
ATOM     20  C   UNL     1      27.483  -6.058 -17.310  1.00  0.00     0.005 C 
ATOM     21  C   UNL     1      25.961  -6.057 -17.476  1.00  0.00     0.008 C 
ATOM     22  C   UNL     1      25.434  -4.983 -18.497  1.00  0.00    -0.017 C 
ATOM     23  C   UNL     1      24.638  -3.778 -17.756  1.00  0.00     0.009 C 
ATOM     24  C   UNL     1      23.390  -4.289 -16.946  1.00  0.00     0.043 C 
ATOM     25  C   UNL     1      22.285  -3.225 -16.689  1.00  0.00     0.124 C 
ATOM     26  C   UNL     1      25.564  -3.121 -16.657  1.00  0.00     0.015 C 
ATOM     27  C   UNL     1      24.526  -5.752 -19.510  1.00  0.00     0.013 C 
ATOM     28  C   UNL     1      29.965  -8.046 -17.895  1.00  0.00     0.017 C 
ATOM     29  C   UNL     1      27.347  -6.062 -21.107  1.00  0.00     0.012 C 
ATOM     30  C   UNL     1      20.288  -2.379 -21.247  1.00  0.00     0.011 C 
ENDROOT
BRANCH  25  31
ATOM     31  O   UNL     1      21.076  -3.886 -16.429  1.00  0.00    -0.392 OA
ATOM     32  H   UNL     1      20.340  -3.234 -16.587  1.00  0.00     0.210 HD
ENDBRANCH  25  31
BRANCH  18  33
ATOM     33  C   UNL     1      30.415  -5.626 -17.438  1.00  0.00     0.165 C 
BRANCH  33  34
ATOM     34  O   UNL     1      31.777  -5.922 -17.263  1.00  0.00    -0.396 OA
ATOM     35  H   UNL     1      31.949  -6.752 -17.781  1.00  0.00     0.210 HD
ENDBRANCH  33  34
ENDBRANCH  18  33
BRANCH  17  36
ATOM     36  O   UNL     1      29.995  -7.525 -20.708  1.00  0.00    -0.392 OA
ATOM     37  H   UNL     1      29.689  -7.074 -21.540  1.00  0.00     0.210 HD
ENDBRANCH  17  36
TORSDOF 4
ENDMDL
