MODEL 1
REMARK VINA RESULT:    -3.741      0.000      0.000
REMARK INTER + INTRA:          -4.959
REMARK INTER:                  -4.834
REMARK INTRA:                  -0.125
REMARK UNBOUND:                -0.125
REMARK SMILES C=CC(=O)CCCCC
REMARK SMILES IDX 6 1 7 2 8 3 9 4 5 5 3 6 4 7 2 8 1 9
REMARK H PARENT
REMARK Flexibility Score: inf
ROOT
ATOM      1  C   UNL     1      21.157  23.640  25.515  1.00  0.00     0.008 C 
ENDROOT
BRANCH   1   2
ATOM      2  C   UNL     1      20.730  24.684  26.558  1.00  0.00     0.000 C 
BRANCH   2   3
ATOM      3  C   UNL     1      21.477  24.527  27.891  1.00  0.00    -0.003 C 
ATOM      4  C   UNL     1      21.046  25.557  28.935  1.00  0.00     0.004 C 
ENDBRANCH   2   3
ENDBRANCH   1   2
BRANCH   1   5
ATOM      5  C   UNL     1      21.727  24.318  24.264  1.00  0.00     0.080 C 
BRANCH   5   6
ATOM      6  C   UNL     1      22.202  23.291  23.280  1.00  0.00     0.155 C 
ATOM      7  O   UNL     1      23.441  23.127  23.106  1.00  0.00    -0.295 OA
BRANCH   6   8
ATOM      8  C   UNL     1      21.225  22.515  22.491  1.00  0.00     0.039 C 
ATOM      9  C   UNL     1      21.570  21.441  21.782  1.00  0.00     0.012 C 
ENDBRANCH   6   8
ENDBRANCH   5   6
ENDBRANCH   1   5
TORSDOF 5
ENDMDL
MODEL 2
REMARK VINA RESULT:    -3.446      3.531      6.004
REMARK INTER + INTRA:          -4.579
REMARK INTER:                  -4.347
REMARK INTRA:                  -0.231
REMARK UNBOUND:                -0.125
REMARK SMILES C=CC(=O)CCCCC
REMARK SMILES IDX 6 1 7 2 8 3 9 4 5 5 3 6 4 7 2 8 1 9
REMARK H PARENT
REMARK Flexibility Score: inf
ROOT
ATOM      1  C   UNL     1      21.003  25.319  28.787  1.00  0.00     0.008 C 
ENDROOT
BRANCH   1   2
ATOM      2  C   UNL     1      20.188  25.255  27.487  1.00  0.00     0.000 C 
BRANCH   2   3
ATOM      3  C   UNL     1      20.325  23.903  26.770  1.00  0.00    -0.003 C 
ATOM      4  C   UNL     1      21.222  23.978  25.534  1.00  0.00     0.004 C 
ENDBRANCH   2   3
ENDBRANCH   1   2
BRANCH   1   5
ATOM      5  C   UNL     1      22.367  25.975  28.547  1.00  0.00     0.080 C 
BRANCH   5   6
ATOM      6  C   UNL     1      22.315  27.435  28.884  1.00  0.00     0.155 C 
ATOM      7  O   UNL     1      21.378  27.871  29.608  1.00  0.00    -0.295 OA
BRANCH   6   8
ATOM      8  C   UNL     1      23.327  28.357  28.333  1.00  0.00     0.039 C 
ATOM      9  C   UNL     1      24.128  28.020  27.323  1.00  0.00     0.012 C 
ENDBRANCH   6   8
ENDBRANCH   5   6
ENDBRANCH   1   5
TORSDOF 5
ENDMDL
MODEL 3
REMARK VINA RESULT:    -3.437      3.734      5.342
REMARK INTER + INTRA:          -4.567
REMARK INTER:                  -4.076
REMARK INTRA:                  -0.491
REMARK UNBOUND:                -0.125
REMARK SMILES C=CC(=O)CCCCC
REMARK SMILES IDX 6 1 7 2 8 3 9 4 5 5 3 6 4 7 2 8 1 9
REMARK H PARENT
REMARK Flexibility Score: inf
ROOT
ATOM      1  C   UNL     1      20.641  27.939  28.643  1.00  0.00     0.008 C 
ENDROOT
BRANCH   1   2
ATOM      2  C   UNL     1      19.153  28.313  28.582  1.00  0.00     0.000 C 
BRANCH   2   3
ATOM      3  C   UNL     1      18.414  27.612  27.432  1.00  0.00    -0.003 C 
ATOM      4  C   UNL     1      17.417  26.563  27.922  1.00  0.00     0.004 C 
ENDBRANCH   2   3
ENDBRANCH   1   2
BRANCH   1   5
ATOM      5  C   UNL     1      20.841  26.596  29.354  1.00  0.00     0.080 C 
BRANCH   5   6
ATOM      6  C   UNL     1      21.822  25.745  28.604  1.00  0.00     0.155 C 
ATOM      7  O   UNL     1      23.035  26.086  28.567  1.00  0.00    -0.295 OA
BRANCH   6   8
ATOM      8  C   UNL     1      21.357  24.546  27.880  1.00  0.00     0.039 C 
ATOM      9  C   UNL     1      20.619  24.619  26.773  1.00  0.00     0.012 C 
ENDBRANCH   6   8
ENDBRANCH   5   6
ENDBRANCH   1   5
TORSDOF 5
ENDMDL
MODEL 4
REMARK VINA RESULT:    -3.429      3.382      4.850
REMARK INTER + INTRA:          -4.557
REMARK INTER:                  -4.238
REMARK INTRA:                  -0.319
REMARK UNBOUND:                -0.125
REMARK SMILES C=CC(=O)CCCCC
REMARK SMILES IDX 6 1 7 2 8 3 9 4 5 5 3 6 4 7 2 8 1 9
REMARK H PARENT
REMARK Flexibility Score: inf
ROOT
ATOM      1  C   UNL     1      18.918  26.580  27.631  1.00  0.00     0.008 C 
ENDROOT
BRANCH   1   2
ATOM      2  C   UNL     1      17.400  26.633  27.859  1.00  0.00     0.000 C 
BRANCH   2   3
ATOM      3  C   UNL     1      16.795  25.246  28.125  1.00  0.00    -0.003 C 
ATOM      4  C   UNL     1      15.626  24.923  27.194  1.00  0.00     0.004 C 
ENDBRANCH   2   3
ENDBRANCH   1   2
BRANCH   1   5
ATOM      5  C   UNL     1      19.572  25.527  28.533  1.00  0.00     0.080 C 
BRANCH   5   6
ATOM      6  C   UNL     1      20.679  24.826  27.805  1.00  0.00     0.155 C 
ATOM      7  O   UNL     1      21.875  25.039  28.144  1.00  0.00    -0.295 OA
BRANCH   6   8
ATOM      8  C   UNL     1      20.369  23.930  26.673  1.00  0.00     0.039 C 
ATOM      9  C   UNL     1      21.115  23.886  25.570  1.00  0.00     0.012 C 
ENDBRANCH   6   8
ENDBRANCH   5   6
ENDBRANCH   1   5
TORSDOF 5
ENDMDL
MODEL 5
REMARK VINA RESULT:    -3.386      4.540      6.446
REMARK INTER + INTRA:          -4.501
REMARK INTER:                  -3.982
REMARK INTRA:                  -0.519
REMARK UNBOUND:                -0.125
REMARK SMILES C=CC(=O)CCCCC
REMARK SMILES IDX 6 1 7 2 8 3 9 4 5 5 3 6 4 7 2 8 1 9
REMARK H PARENT
REMARK Flexibility Score: inf
ROOT
ATOM      1  C   UNL     1      21.137  27.174  28.922  1.00  0.00     0.008 C 
ENDROOT
BRANCH   1   2
ATOM      2  C   UNL     1      21.075  25.656  29.146  1.00  0.00     0.000 C 
BRANCH   2   3
ATOM      3  C   UNL     1      21.500  24.858  27.905  1.00  0.00    -0.003 C 
ATOM      4  C   UNL     1      20.310  24.383  27.071  1.00  0.00     0.004 C 
ENDBRANCH   2   3
ENDBRANCH   1   2
BRANCH   1   5
ATOM      5  C   UNL     1      19.886  27.862  29.477  1.00  0.00     0.080 C 
BRANCH   5   6
ATOM      6  C   UNL     1      19.095  28.491  28.369  1.00  0.00     0.155 C 
ATOM      7  O   UNL     1      19.127  29.743  28.220  1.00  0.00    -0.295 OA
BRANCH   6   8
ATOM      8  C   UNL     1      18.254  27.653  27.493  1.00  0.00     0.039 C 
ATOM      9  C   UNL     1      17.495  26.664  27.963  1.00  0.00     0.012 C 
ENDBRANCH   6   8
ENDBRANCH   5   6
ENDBRANCH   1   5
TORSDOF 5
ENDMDL
MODEL 6
REMARK VINA RESULT:    -3.376      4.394      5.979
REMARK INTER + INTRA:          -4.488
REMARK INTER:                  -3.977
REMARK INTRA:                  -0.511
REMARK UNBOUND:                -0.125
REMARK SMILES C=CC(=O)CCCCC
REMARK SMILES IDX 6 1 7 2 8 3 9 4 5 5 3 6 4 7 2 8 1 9
REMARK H PARENT
REMARK Flexibility Score: inf
ROOT
ATOM      1  C   UNL     1      21.225  25.032  27.944  1.00  0.00     0.008 C 
ENDROOT
BRANCH   1   2
ATOM      2  C   UNL     1      19.796  25.220  27.415  1.00  0.00     0.000 C 
BRANCH   2   3
ATOM      3  C   UNL     1      18.944  26.122  28.322  1.00  0.00    -0.003 C 
ATOM      4  C   UNL     1      18.360  27.323  27.579  1.00  0.00     0.004 C 
ENDBRANCH   2   3
ENDBRANCH   1   2
BRANCH   1   5
ATOM      5  C   UNL     1      21.527  26.023  29.074  1.00  0.00     0.080 C 
BRANCH   5   6
ATOM      6  C   UNL     1      22.668  26.920  28.697  1.00  0.00     0.155 C 
ATOM      7  O   UNL     1      23.816  26.425  28.530  1.00  0.00    -0.295 OA
BRANCH   6   8
ATOM      8  C   UNL     1      22.452  28.375  28.567  1.00  0.00     0.039 C 
ATOM      9  C   UNL     1      21.338  28.973  28.985  1.00  0.00     0.012 C 
ENDBRANCH   6   8
ENDBRANCH   5   6
ENDBRANCH   1   5
TORSDOF 5
ENDMDL
MODEL 7
REMARK VINA RESULT:    -3.375      3.547      5.299
REMARK INTER + INTRA:          -4.487
REMARK INTER:                  -4.173
REMARK INTRA:                  -0.314
REMARK UNBOUND:                -0.125
REMARK SMILES C=CC(=O)CCCCC
REMARK SMILES IDX 6 1 7 2 8 3 9 4 5 5 3 6 4 7 2 8 1 9
REMARK H PARENT
REMARK Flexibility Score: inf
ROOT
ATOM      1  C   UNL     1      20.990  27.740  28.817  1.00  0.00     0.008 C 
ENDROOT
BRANCH   1   2
ATOM      2  C   UNL     1      22.349  28.455  28.810  1.00  0.00     0.000 C 
BRANCH   2   3
ATOM      3  C   UNL     1      23.507  27.520  28.428  1.00  0.00    -0.003 C 
ATOM      4  C   UNL     1      24.295  28.020  27.218  1.00  0.00     0.004 C 
ENDBRANCH   2   3
ENDBRANCH   1   2
BRANCH   1   5
ATOM      5  C   UNL     1      21.132  26.296  29.308  1.00  0.00     0.080 C 
BRANCH   5   6
ATOM      6  C   UNL     1      20.447  25.350  28.368  1.00  0.00     0.155 C 
ATOM      7  O   UNL     1      19.187  25.334  28.315  1.00  0.00    -0.295 OA
BRANCH   6   8
ATOM      8  C   UNL     1      21.244  24.417  27.547  1.00  0.00     0.039 C 
ATOM      9  C   UNL     1      20.946  24.148  26.277  1.00  0.00     0.012 C 
ENDBRANCH   6   8
ENDBRANCH   5   6
ENDBRANCH   1   5
TORSDOF 5
ENDMDL
MODEL 8
REMARK VINA RESULT:    -3.332      4.889      5.985
REMARK INTER + INTRA:          -4.431
REMARK INTER:                  -4.010
REMARK INTRA:                  -0.421
REMARK UNBOUND:                -0.125
REMARK SMILES C=CC(=O)CCCCC
REMARK SMILES IDX 6 1 7 2 8 3 9 4 5 5 3 6 4 7 2 8 1 9
REMARK H PARENT
REMARK Flexibility Score: inf
ROOT
ATOM      1  C   UNL     1      17.040  25.507  28.487  1.00  0.00     0.008 C 
ENDROOT
BRANCH   1   2
ATOM      2  C   UNL     1      18.288  26.153  27.867  1.00  0.00     0.000 C 
BRANCH   2   3
ATOM      3  C   UNL     1      19.588  25.454  28.292  1.00  0.00    -0.003 C 
ATOM      4  C   UNL     1      20.177  24.578  27.187  1.00  0.00     0.004 C 
ENDBRANCH   2   3
ENDBRANCH   1   2
BRANCH   1   5
ATOM      5  C   UNL     1      15.955  25.282  27.427  1.00  0.00     0.080 C 
BRANCH   5   6
ATOM      6  C   UNL     1      15.673  23.819  27.265  1.00  0.00     0.155 C 
ATOM      7  O   UNL     1      15.131  23.184  28.212  1.00  0.00    -0.295 OA
BRANCH   6   8
ATOM      8  C   UNL     1      16.068  23.122  26.026  1.00  0.00     0.039 C 
ATOM      9  C   UNL     1      17.285  22.607  25.852  1.00  0.00     0.012 C 
ENDBRANCH   6   8
ENDBRANCH   5   6
ENDBRANCH   1   5
TORSDOF 5
ENDMDL
MODEL 9
REMARK VINA RESULT:    -3.320      8.745     10.644
REMARK INTER + INTRA:          -4.416
REMARK INTER:                  -3.870
REMARK INTRA:                  -0.546
REMARK UNBOUND:                -0.125
REMARK SMILES C=CC(=O)CCCCC
REMARK SMILES IDX 6 1 7 2 8 3 9 4 5 5 3 6 4 7 2 8 1 9
REMARK H PARENT
REMARK Flexibility Score: inf
ROOT
ATOM      1  C   UNL     1      17.931  33.733  29.400  1.00  0.00     0.008 C 
ENDROOT
BRANCH   1   2
ATOM      2  C   UNL     1      16.637  33.028  28.966  1.00  0.00     0.000 C 
BRANCH   2   3
ATOM      3  C   UNL     1      15.968  32.262  30.117  1.00  0.00    -0.003 C 
ATOM      4  C   UNL     1      15.483  30.874  29.699  1.00  0.00     0.004 C 
ENDBRANCH   2   3
ENDBRANCH   1   2
BRANCH   1   5
ATOM      5  C   UNL     1      18.701  32.888  30.420  1.00  0.00     0.080 C 
BRANCH   5   6
ATOM      6  C   UNL     1      19.917  32.278  29.788  1.00  0.00     0.155 C 
ATOM      7  O   UNL     1      20.878  33.023  29.452  1.00  0.00    -0.295 OA
BRANCH   6   8
ATOM      8  C   UNL     1      19.964  30.827  29.523  1.00  0.00     0.039 C 
ATOM      9  C   UNL     1      19.086  30.217  28.728  1.00  0.00     0.012 C 
ENDBRANCH   6   8
ENDBRANCH   5   6
ENDBRANCH   1   5
TORSDOF 5
ENDMDL
