MODEL 1
REMARK VINA RESULT:    -4.063      0.000      0.000
REMARK INTER + INTRA:          -5.064
REMARK INTER:                  -4.776
REMARK INTRA:                  -0.288
REMARK UNBOUND:                -0.288
REMARK SMILES COc1cc2ccc(=O)oc2c(OC)c1OC
REMARK SMILES IDX 3 1 15 2 12 3 11 4 5 5 4 6 6 7 7 8 8 9 9 10 10 11 2 12 1 13
REMARK SMILES IDX 16 14 17 15 13 16 14 17
REMARK H PARENT
REMARK Flexibility Score: inf
ROOT
ATOM      1  C   UNL     1       3.686  -4.152  -7.420  1.00  0.00     0.165 A 
ATOM      2  C   UNL     1       4.019  -2.843  -7.040  1.00  0.00     0.207 A 
ATOM      3  C   UNL     1       4.845  -2.617  -5.902  1.00  0.00     0.208 A 
ATOM      4  C   UNL     1       5.321  -3.732  -5.164  1.00  0.00     0.184 A 
ATOM      5  C   UNL     1       4.973  -5.042  -5.564  1.00  0.00     0.025 A 
ATOM      6  C   UNL     1       4.163  -5.245  -6.681  1.00  0.00     0.062 A 
ATOM      7  C   UNL     1       5.454  -6.125  -4.820  1.00  0.00     0.020 A 
ATOM      8  C   UNL     1       6.260  -5.892  -3.710  1.00  0.00     0.094 A 
ATOM      9  C   UNL     1       6.567  -4.574  -3.369  1.00  0.00     0.336 A 
ATOM     10  O   UNL     1       7.295  -4.337  -2.369  1.00  0.00    -0.246 OA
ATOM     11  O   UNL     1       6.096  -3.565  -4.093  1.00  0.00    -0.419 OA
ENDROOT
BRANCH   1  12
ATOM     12  O   UNL     1       2.868  -4.325  -8.550  1.00  0.00    -0.493 OA
ATOM     13  C   UNL     1       1.508  -4.746  -8.510  1.00  0.00     0.278 C 
ENDBRANCH   1  12
BRANCH   2  14
ATOM     14  O   UNL     1       3.494  -1.810  -7.842  1.00  0.00    -0.490 OA
ATOM     15  C   UNL     1       2.414  -0.940  -7.522  1.00  0.00     0.278 C 
ENDBRANCH   2  14
BRANCH   3  16
ATOM     16  O   UNL     1       5.160  -1.290  -5.550  1.00  0.00    -0.490 OA
ATOM     17  C   UNL     1       6.257  -0.514  -6.020  1.00  0.00     0.278 C 
ENDBRANCH   3  16
TORSDOF 3
ENDMDL
MODEL 2
REMARK VINA RESULT:    -3.802     18.011     18.946
REMARK INTER + INTRA:          -4.757
REMARK INTER:                  -4.748
REMARK INTRA:                  -0.008
REMARK UNBOUND:                -0.288
REMARK SMILES COc1cc2ccc(=O)oc2c(OC)c1OC
REMARK SMILES IDX 3 1 15 2 12 3 11 4 5 5 4 6 6 7 7 8 8 9 9 10 10 11 2 12 1 13
REMARK SMILES IDX 16 14 17 15 13 16 14 17
REMARK H PARENT
REMARK Flexibility Score: inf
ROOT
ATOM      1  C   UNL     1     -12.123   3.575  -3.906  1.00  0.00     0.165 A 
ATOM      2  C   UNL     1     -12.124   4.910  -4.341  1.00  0.00     0.207 A 
ATOM      3  C   UNL     1     -12.124   5.208  -5.732  1.00  0.00     0.208 A 
ATOM      4  C   UNL     1     -12.123   4.140  -6.666  1.00  0.00     0.184 A 
ATOM      5  C   UNL     1     -12.121   2.803  -6.208  1.00  0.00     0.025 A 
ATOM      6  C   UNL     1     -12.122   2.528  -4.840  1.00  0.00     0.062 A 
ATOM      7  C   UNL     1     -12.120   1.766  -7.148  1.00  0.00     0.020 A 
ATOM      8  C   UNL     1     -12.120   2.071  -8.505  1.00  0.00     0.094 A 
ATOM      9  C   UNL     1     -12.122   3.411  -8.893  1.00  0.00     0.336 A 
ATOM     10  O   UNL     1     -12.122   3.712 -10.115  1.00  0.00    -0.246 OA
ATOM     11  O   UNL     1     -12.123   4.375  -7.978  1.00  0.00    -0.419 OA
ENDROOT
BRANCH   1  12
ATOM     12  O   UNL     1     -12.123   3.329  -2.522  1.00  0.00    -0.493 OA
ATOM     13  C   UNL     1     -11.677   2.122  -1.913  1.00  0.00     0.278 C 
ENDBRANCH   1  12
BRANCH   2  14
ATOM     14  O   UNL     1     -12.125   5.892  -3.331  1.00  0.00    -0.490 OA
ATOM     15  C   UNL     1     -11.045   6.741  -2.958  1.00  0.00     0.278 C 
ENDBRANCH   2  14
BRANCH   3  16
ATOM     16  O   UNL     1     -12.125   6.559  -6.133  1.00  0.00    -0.490 OA
ATOM     17  C   UNL     1     -11.209   7.193  -7.019  1.00  0.00     0.278 C 
ENDBRANCH   3  16
TORSDOF 3
ENDMDL
MODEL 3
REMARK VINA RESULT:    -3.793      1.347      4.799
REMARK INTER + INTRA:          -4.747
REMARK INTER:                  -4.440
REMARK INTRA:                  -0.307
REMARK UNBOUND:                -0.288
REMARK SMILES COc1cc2ccc(=O)oc2c(OC)c1OC
REMARK SMILES IDX 3 1 15 2 12 3 11 4 5 5 4 6 6 7 7 8 8 9 9 10 10 11 2 12 1 13
REMARK SMILES IDX 16 14 17 15 13 16 14 17
REMARK H PARENT
REMARK Flexibility Score: inf
ROOT
ATOM      1  C   UNL     1       5.612  -3.889  -4.526  1.00  0.00     0.165 A 
ATOM      2  C   UNL     1       5.823  -2.552  -4.898  1.00  0.00     0.207 A 
ATOM      3  C   UNL     1       5.159  -2.012  -6.035  1.00  0.00     0.208 A 
ATOM      4  C   UNL     1       4.285  -2.844  -6.781  1.00  0.00     0.184 A 
ATOM      5  C   UNL     1       4.086  -4.188  -6.391  1.00  0.00     0.025 A 
ATOM      6  C   UNL     1       4.745  -4.700  -5.273  1.00  0.00     0.062 A 
ATOM      7  C   UNL     1       3.220  -4.989  -7.143  1.00  0.00     0.020 A 
ATOM      8  C   UNL     1       2.576  -4.450  -8.252  1.00  0.00     0.094 A 
ATOM      9  C   UNL     1       2.815  -3.116  -8.585  1.00  0.00     0.336 A 
ATOM     10  O   UNL     1       2.244  -2.606  -9.584  1.00  0.00    -0.246 OA
ATOM     11  O   UNL     1       3.643  -2.379  -7.853  1.00  0.00    -0.419 OA
ENDROOT
BRANCH   1  12
ATOM     12  O   UNL     1       6.290  -4.377  -3.396  1.00  0.00    -0.493 OA
ATOM     13  C   UNL     1       7.263  -5.417  -3.421  1.00  0.00     0.278 C 
ENDBRANCH   1  12
BRANCH   2  14
ATOM     14  O   UNL     1       6.710  -1.815  -4.088  1.00  0.00    -0.490 OA
ATOM     15  C   UNL     1       8.102  -1.609  -4.306  1.00  0.00     0.278 C 
ENDBRANCH   2  14
BRANCH   3  16
ATOM     16  O   UNL     1       5.395  -0.666  -6.378  1.00  0.00    -0.490 OA
ATOM     17  C   UNL     1       6.353  -0.173  -7.307  1.00  0.00     0.278 C 
ENDBRANCH   3  16
TORSDOF 3
ENDMDL
MODEL 4
REMARK VINA RESULT:    -3.783      1.511      2.216
REMARK INTER + INTRA:          -4.734
REMARK INTER:                  -4.432
REMARK INTRA:                  -0.301
REMARK UNBOUND:                -0.288
REMARK SMILES COc1cc2ccc(=O)oc2c(OC)c1OC
REMARK SMILES IDX 3 1 15 2 12 3 11 4 5 5 4 6 6 7 7 8 8 9 9 10 10 11 2 12 1 13
REMARK SMILES IDX 16 14 17 15 13 16 14 17
REMARK H PARENT
REMARK Flexibility Score: inf
ROOT
ATOM      1  C   UNL     1       2.403  -4.550  -8.483  1.00  0.00     0.165 A 
ATOM      2  C   UNL     1       2.456  -3.148  -8.514  1.00  0.00     0.207 A 
ATOM      3  C   UNL     1       3.286  -2.443  -7.598  1.00  0.00     0.208 A 
ATOM      4  C   UNL     1       4.054  -3.178  -6.658  1.00  0.00     0.184 A 
ATOM      5  C   UNL     1       3.987  -4.589  -6.643  1.00  0.00     0.025 A 
ATOM      6  C   UNL     1       3.168  -5.265  -7.548  1.00  0.00     0.062 A 
ATOM      7  C   UNL     1       4.754  -5.292  -5.707  1.00  0.00     0.020 A 
ATOM      8  C   UNL     1       5.562  -4.592  -4.817  1.00  0.00     0.094 A 
ATOM      9  C   UNL     1       5.584  -3.199  -4.883  1.00  0.00     0.336 A 
ATOM     10  O   UNL     1       6.307  -2.543  -4.089  1.00  0.00    -0.246 OA
ATOM     11  O   UNL     1       4.845  -2.557  -5.783  1.00  0.00    -0.419 OA
ENDROOT
BRANCH   1  12
ATOM     12  O   UNL     1       1.569  -5.202  -9.406  1.00  0.00    -0.493 OA
ATOM     13  C   UNL     1       0.319  -5.805  -9.086  1.00  0.00     0.278 C 
ENDBRANCH   1  12
BRANCH   2  14
ATOM     14  O   UNL     1       1.653  -2.518  -9.486  1.00  0.00    -0.490 OA
ATOM     15  C   UNL     1       0.374  -1.926  -9.290  1.00  0.00     0.278 C 
ENDBRANCH   2  14
BRANCH   3  16
ATOM     16  O   UNL     1       3.314  -1.036  -7.658  1.00  0.00    -0.490 OA
ATOM     17  C   UNL     1       4.176  -0.228  -8.452  1.00  0.00     0.278 C 
ENDBRANCH   3  16
TORSDOF 3
ENDMDL
MODEL 5
REMARK VINA RESULT:    -3.735      2.280      3.766
REMARK INTER + INTRA:          -4.678
REMARK INTER:                  -4.411
REMARK INTRA:                  -0.266
REMARK UNBOUND:                -0.288
REMARK SMILES COc1cc2ccc(=O)oc2c(OC)c1OC
REMARK SMILES IDX 3 1 15 2 12 3 11 4 5 5 4 6 6 7 7 8 8 9 9 10 10 11 2 12 1 13
REMARK SMILES IDX 16 14 17 15 13 16 14 17
REMARK H PARENT
REMARK Flexibility Score: inf
ROOT
ATOM      1  C   UNL     1       5.489  -0.310  -7.142  1.00  0.00     0.165 A 
ATOM      2  C   UNL     1       6.103   0.013  -5.922  1.00  0.00     0.207 A 
ATOM      3  C   UNL     1       6.153  -0.944  -4.870  1.00  0.00     0.208 A 
ATOM      4  C   UNL     1       5.575  -2.224  -5.076  1.00  0.00     0.184 A 
ATOM      5  C   UNL     1       4.961  -2.529  -6.312  1.00  0.00     0.025 A 
ATOM      6  C   UNL     1       4.921  -1.578  -7.332  1.00  0.00     0.062 A 
ATOM      7  C   UNL     1       4.397  -3.798  -6.491  1.00  0.00     0.020 A 
ATOM      8  C   UNL     1       4.452  -4.726  -5.456  1.00  0.00     0.094 A 
ATOM      9  C   UNL     1       5.073  -4.362  -4.261  1.00  0.00     0.336 A 
ATOM     10  O   UNL     1       5.136  -5.184  -3.310  1.00  0.00    -0.246 OA
ATOM     11  O   UNL     1       5.600  -3.150  -4.119  1.00  0.00    -0.419 OA
ENDROOT
BRANCH   1  12
ATOM     12  O   UNL     1       5.463   0.669  -8.150  1.00  0.00    -0.493 OA
ATOM     13  C   UNL     1       4.487   0.743  -9.184  1.00  0.00     0.278 C 
ENDBRANCH   1  12
BRANCH   2  14
ATOM     14  O   UNL     1       6.645   1.311  -5.824  1.00  0.00    -0.490 OA
ATOM     15  C   UNL     1       8.002   1.691  -6.024  1.00  0.00     0.278 C 
ENDBRANCH   2  14
BRANCH   3  16
ATOM     16  O   UNL     1       6.777  -0.586  -3.660  1.00  0.00    -0.490 OA
ATOM     17  C   UNL     1       8.125  -0.841  -3.281  1.00  0.00     0.278 C 
ENDBRANCH   3  16
TORSDOF 3
ENDMDL
MODEL 6
REMARK VINA RESULT:    -3.527      2.209      5.712
REMARK INTER + INTRA:          -4.434
REMARK INTER:                  -4.167
REMARK INTRA:                  -0.267
REMARK UNBOUND:                -0.288
REMARK SMILES COc1cc2ccc(=O)oc2c(OC)c1OC
REMARK SMILES IDX 3 1 15 2 12 3 11 4 5 5 4 6 6 7 7 8 8 9 9 10 10 11 2 12 1 13
REMARK SMILES IDX 16 14 17 15 13 16 14 17
REMARK H PARENT
REMARK Flexibility Score: inf
ROOT
ATOM      1  C   UNL     1       3.686  -4.370  -7.351  1.00  0.00     0.165 A 
ATOM      2  C   UNL     1       3.394  -3.079  -7.818  1.00  0.00     0.207 A 
ATOM      3  C   UNL     1       2.113  -2.790  -8.367  1.00  0.00     0.208 A 
ATOM      4  C   UNL     1       1.144  -3.824  -8.435  1.00  0.00     0.184 A 
ATOM      5  C   UNL     1       1.458  -5.117  -7.960  1.00  0.00     0.025 A 
ATOM      6  C   UNL     1       2.718  -5.383  -7.424  1.00  0.00     0.062 A 
ATOM      7  C   UNL     1       0.485  -6.120  -8.037  1.00  0.00     0.020 A 
ATOM      8  C   UNL     1      -0.763  -5.826  -8.576  1.00  0.00     0.094 A 
ATOM      9  C   UNL     1      -1.011  -4.529  -9.027  1.00  0.00     0.336 A 
ATOM     10  O   UNL     1      -2.132  -4.238  -9.518  1.00  0.00    -0.246 OA
ATOM     11  O   UNL     1      -0.068  -3.597  -8.941  1.00  0.00    -0.419 OA
ENDROOT
BRANCH   1  12
ATOM     12  O   UNL     1       4.965  -4.607  -6.818  1.00  0.00    -0.493 OA
ATOM     13  C   UNL     1       5.216  -5.189  -5.543  1.00  0.00     0.278 C 
ENDBRANCH   1  12
BRANCH   2  14
ATOM     14  O   UNL     1       4.428  -2.128  -7.704  1.00  0.00    -0.490 OA
ATOM     15  C   UNL     1       4.522  -1.072  -6.754  1.00  0.00     0.278 C 
ENDBRANCH   2  14
BRANCH   3  16
ATOM     16  O   UNL     1       1.855  -1.483  -8.826  1.00  0.00    -0.490 OA
ATOM     17  C   UNL     1       2.111  -0.963 -10.125  1.00  0.00     0.278 C 
ENDBRANCH   3  16
TORSDOF 3
ENDMDL
MODEL 7
REMARK VINA RESULT:    -3.527      2.378      6.464
REMARK INTER + INTRA:          -4.433
REMARK INTER:                  -4.171
REMARK INTRA:                  -0.262
REMARK UNBOUND:                -0.288
REMARK SMILES COc1cc2ccc(=O)oc2c(OC)c1OC
REMARK SMILES IDX 3 1 15 2 12 3 11 4 5 5 4 6 6 7 7 8 8 9 9 10 10 11 2 12 1 13
REMARK SMILES IDX 16 14 17 15 13 16 14 17
REMARK H PARENT
REMARK Flexibility Score: inf
ROOT
ATOM      1  C   UNL     1       6.717  -0.790  -4.573  1.00  0.00     0.165 A 
ATOM      2  C   UNL     1       5.653  -1.570  -5.053  1.00  0.00     0.207 A 
ATOM      3  C   UNL     1       4.998  -1.218  -6.266  1.00  0.00     0.208 A 
ATOM      4  C   UNL     1       5.437  -0.071  -6.978  1.00  0.00     0.184 A 
ATOM      5  C   UNL     1       6.510   0.701  -6.478  1.00  0.00     0.025 A 
ATOM      6  C   UNL     1       7.141   0.341  -5.287  1.00  0.00     0.062 A 
ATOM      7  C   UNL     1       6.925   1.827  -7.198  1.00  0.00     0.020 A 
ATOM      8  C   UNL     1       6.278   2.161  -8.383  1.00  0.00     0.094 A 
ATOM      9  C   UNL     1       5.225   1.358  -8.823  1.00  0.00     0.336 A 
ATOM     10  O   UNL     1       4.624   1.639  -9.892  1.00  0.00    -0.246 OA
ATOM     11  O   UNL     1       4.853   0.294  -8.119  1.00  0.00    -0.419 OA
ENDROOT
BRANCH   1  12
ATOM     12  O   UNL     1       7.332  -1.177  -3.370  1.00  0.00    -0.493 OA
ATOM     13  C   UNL     1       8.123  -0.321  -2.552  1.00  0.00     0.278 C 
ENDBRANCH   1  12
BRANCH   2  14
ATOM     14  O   UNL     1       5.298  -2.685  -4.269  1.00  0.00    -0.490 OA
ATOM     15  C   UNL     1       5.718  -4.033  -4.453  1.00  0.00     0.278 C 
ENDBRANCH   2  14
BRANCH   3  16
ATOM     16  O   UNL     1       3.934  -2.023  -6.718  1.00  0.00    -0.490 OA
ATOM     17  C   UNL     1       4.014  -3.130  -7.609  1.00  0.00     0.278 C 
ENDBRANCH   3  16
TORSDOF 3
ENDMDL
MODEL 8
REMARK VINA RESULT:    -3.497      1.604      5.163
REMARK INTER + INTRA:          -4.399
REMARK INTER:                  -4.135
REMARK INTRA:                  -0.263
REMARK UNBOUND:                -0.288
REMARK SMILES COc1cc2ccc(=O)oc2c(OC)c1OC
REMARK SMILES IDX 3 1 15 2 12 3 11 4 5 5 4 6 6 7 7 8 8 9 9 10 10 11 2 12 1 13
REMARK SMILES IDX 16 14 17 15 13 16 14 17
REMARK H PARENT
REMARK Flexibility Score: inf
ROOT
ATOM      1  C   UNL     1       5.582  -1.626  -5.961  1.00  0.00     0.165 A 
ATOM      2  C   UNL     1       5.673  -2.741  -5.113  1.00  0.00     0.207 A 
ATOM      3  C   UNL     1       4.887  -3.899  -5.367  1.00  0.00     0.208 A 
ATOM      4  C   UNL     1       4.015  -3.907  -6.486  1.00  0.00     0.184 A 
ATOM      5  C   UNL     1       3.937  -2.775  -7.327  1.00  0.00     0.025 A 
ATOM      6  C   UNL     1       4.715  -1.647  -7.064  1.00  0.00     0.062 A 
ATOM      7  C   UNL     1       3.069  -2.807  -8.425  1.00  0.00     0.020 A 
ATOM      8  C   UNL     1       2.305  -3.945  -8.663  1.00  0.00     0.094 A 
ATOM      9  C   UNL     1       2.428  -5.030  -7.794  1.00  0.00     0.336 A 
ATOM     10  O   UNL     1       1.748  -6.071  -7.989  1.00  0.00    -0.246 OA
ATOM     11  O   UNL     1       3.261  -4.972  -6.760  1.00  0.00    -0.419 OA
ENDROOT
BRANCH   1  12
ATOM     12  O   UNL     1       6.377  -0.505  -5.670  1.00  0.00    -0.493 OA
ATOM     13  C   UNL     1       6.302   0.743  -6.352  1.00  0.00     0.278 C 
ENDBRANCH   1  12
BRANCH   2  14
ATOM     14  O   UNL     1       6.571  -2.626  -4.032  1.00  0.00    -0.490 OA
ATOM     15  C   UNL     1       7.915  -3.090  -3.981  1.00  0.00     0.278 C 
ENDBRANCH   2  14
BRANCH   3  16
ATOM     16  O   UNL     1       5.005  -4.999  -4.495  1.00  0.00    -0.490 OA
ATOM     17  C   UNL     1       5.862  -6.125  -4.645  1.00  0.00     0.278 C 
ENDBRANCH   3  16
TORSDOF 3
ENDMDL
MODEL 9
REMARK VINA RESULT:    -3.456      2.855      6.667
REMARK INTER + INTRA:          -4.350
REMARK INTER:                  -4.083
REMARK INTRA:                  -0.267
REMARK UNBOUND:                -0.288
REMARK SMILES COc1cc2ccc(=O)oc2c(OC)c1OC
REMARK SMILES IDX 3 1 15 2 12 3 11 4 5 5 4 6 6 7 7 8 8 9 9 10 10 11 2 12 1 13
REMARK SMILES IDX 16 14 17 15 13 16 14 17
REMARK H PARENT
REMARK Flexibility Score: inf
ROOT
ATOM      1  C   UNL     1       2.329  -1.575  -8.216  1.00  0.00     0.165 A 
ATOM      2  C   UNL     1       2.840  -2.875  -8.074  1.00  0.00     0.207 A 
ATOM      3  C   UNL     1       1.995  -4.001  -8.279  1.00  0.00     0.208 A 
ATOM      4  C   UNL     1       0.635  -3.788  -8.625  1.00  0.00     0.184 A 
ATOM      5  C   UNL     1       0.141  -2.471  -8.762  1.00  0.00     0.025 A 
ATOM      6  C   UNL     1       0.983  -1.378  -8.559  1.00  0.00     0.062 A 
ATOM      7  C   UNL     1      -1.204  -2.287  -9.104  1.00  0.00     0.020 A 
ATOM      8  C   UNL     1      -2.020  -3.396  -9.301  1.00  0.00     0.094 A 
ATOM      9  C   UNL     1      -1.471  -4.670  -9.151  1.00  0.00     0.336 A 
ATOM     10  O   UNL     1      -2.189  -5.688  -9.324  1.00  0.00    -0.246 OA
ATOM     11  O   UNL     1      -0.191  -4.815  -8.826  1.00  0.00    -0.419 OA
ENDROOT
BRANCH   1  12
ATOM     12  O   UNL     1       3.202  -0.494  -8.004  1.00  0.00    -0.493 OA
ATOM     13  C   UNL     1       3.461   0.538  -8.951  1.00  0.00     0.278 C 
ENDBRANCH   1  12
BRANCH   2  14
ATOM     14  O   UNL     1       4.203  -2.972  -7.729  1.00  0.00    -0.490 OA
ATOM     15  C   UNL     1       4.744  -3.229  -6.437  1.00  0.00     0.278 C 
ENDBRANCH   2  14
BRANCH   3  16
ATOM     16  O   UNL     1       2.541  -5.291  -8.129  1.00  0.00    -0.490 OA
ATOM     17  C   UNL     1       3.160  -6.083  -9.136  1.00  0.00     0.278 C 
ENDBRANCH   3  16
TORSDOF 3
ENDMDL
