MODEL 1
REMARK VINA RESULT:    -4.207      0.000      0.000
REMARK INTER + INTRA:          -5.391
REMARK INTER:                  -5.191
REMARK INTRA:                  -0.200
REMARK UNBOUND:                -0.200
REMARK SMILES C=CC[C@H](C)C(=O)CC
REMARK SMILES IDX 4 1 5 2 6 3 7 4 8 5 9 6 3 7 2 8 1 9
REMARK H PARENT
REMARK Flexibility Score: inf
ROOT
ATOM      1  C   UNL     1     -27.048  19.823 -34.108  1.00  0.00     0.057 C 
ATOM      2  C   UNL     1     -27.274  21.236 -33.557  1.00  0.00     0.016 C 
ENDROOT
BRANCH   1   3
ATOM      3  C   UNL     1     -28.213  18.914 -33.766  1.00  0.00     0.135 C 
ATOM      4  O   UNL     1     -29.357  19.277 -34.001  1.00  0.00    -0.299 OA
BRANCH   3   5
ATOM      5  C   UNL     1     -27.989  17.555 -33.155  1.00  0.00     0.072 C 
ATOM      6  C   UNL     1     -29.018  16.555 -33.670  1.00  0.00     0.012 C 
ENDBRANCH   3   5
ENDBRANCH   1   3
BRANCH   1   7
ATOM      7  C   UNL     1     -25.701  19.216 -33.654  1.00  0.00     0.038 C 
BRANCH   7   8
ATOM      8  C   UNL     1     -24.494  19.889 -34.259  1.00  0.00    -0.034 C 
ATOM      9  C   UNL     1     -23.449  20.263 -33.517  1.00  0.00     0.004 C 
ENDBRANCH   7   8
ENDBRANCH   1   7
TORSDOF 4
ENDMDL
MODEL 2
REMARK VINA RESULT:    -4.143      1.740      4.329
REMARK INTER + INTRA:          -5.312
REMARK INTER:                  -5.137
REMARK INTRA:                  -0.176
REMARK UNBOUND:                -0.200
REMARK SMILES C=CC[C@H](C)C(=O)CC
REMARK SMILES IDX 4 1 5 2 6 3 7 4 8 5 9 6 3 7 2 8 1 9
REMARK H PARENT
REMARK Flexibility Score: inf
ROOT
ATOM      1  C   UNL     1     -26.537  19.678 -33.643  1.00  0.00     0.057 C 
ATOM      2  C   UNL     1     -27.478  20.370 -34.636  1.00  0.00     0.016 C 
ENDROOT
BRANCH   1   3
ATOM      3  C   UNL     1     -25.148  19.518 -34.232  1.00  0.00     0.135 C 
ATOM      4  O   UNL     1     -24.971  19.694 -35.428  1.00  0.00    -0.299 OA
BRANCH   3   5
ATOM      5  C   UNL     1     -23.970  19.160 -33.363  1.00  0.00     0.072 C 
ATOM      6  C   UNL     1     -23.059  20.367 -33.165  1.00  0.00     0.012 C 
ENDBRANCH   3   5
ENDBRANCH   1   3
BRANCH   1   7
ATOM      7  C   UNL     1     -27.097  18.331 -33.132  1.00  0.00     0.038 C 
BRANCH   7   8
ATOM      8  C   UNL     1     -28.521  18.065 -33.550  1.00  0.00    -0.034 C 
ATOM      9  C   UNL     1     -28.999  16.825 -33.679  1.00  0.00     0.004 C 
ENDBRANCH   7   8
ENDBRANCH   1   7
TORSDOF 4
ENDMDL
MODEL 3
REMARK VINA RESULT:    -3.985      7.003      9.229
REMARK INTER + INTRA:          -5.117
REMARK INTER:                  -4.790
REMARK INTRA:                  -0.327
REMARK UNBOUND:                -0.200
REMARK SMILES C=CC[C@H](C)C(=O)CC
REMARK SMILES IDX 4 1 5 2 6 3 7 4 8 5 9 6 3 7 2 8 1 9
REMARK H PARENT
REMARK Flexibility Score: inf
ROOT
ATOM      1  C   UNL     1     -26.731  11.492 -28.896  1.00  0.00     0.057 C 
ATOM      2  C   UNL     1     -26.023  10.642 -27.833  1.00  0.00     0.016 C 
ENDROOT
BRANCH   1   3
ATOM      3  C   UNL     1     -25.747  12.397 -29.612  1.00  0.00     0.135 C 
ATOM      4  O   UNL     1     -24.556  12.335 -29.342  1.00  0.00    -0.299 OA
BRANCH   3   5
ATOM      5  C   UNL     1     -26.206  13.366 -30.670  1.00  0.00     0.072 C 
ATOM      6  C   UNL     1     -25.668  14.765 -30.392  1.00  0.00     0.012 C 
ENDBRANCH   3   5
ENDBRANCH   1   3
BRANCH   1   7
ATOM      7  C   UNL     1     -27.924  12.289 -28.322  1.00  0.00     0.038 C 
BRANCH   7   8
ATOM      8  C   UNL     1     -29.263  11.861 -28.867  1.00  0.00    -0.034 C 
ATOM      9  C   UNL     1     -29.718  12.296 -30.045  1.00  0.00     0.004 C 
ENDBRANCH   7   8
ENDBRANCH   1   7
TORSDOF 4
ENDMDL
MODEL 4
REMARK VINA RESULT:    -3.955      5.880      7.097
REMARK INTER + INTRA:          -5.080
REMARK INTER:                  -4.886
REMARK INTRA:                  -0.194
REMARK UNBOUND:                -0.200
REMARK SMILES C=CC[C@H](C)C(=O)CC
REMARK SMILES IDX 4 1 5 2 6 3 7 4 8 5 9 6 3 7 2 8 1 9
REMARK H PARENT
REMARK Flexibility Score: inf
ROOT
ATOM      1  C   UNL     1     -26.765  13.315 -30.804  1.00  0.00     0.057 C 
ATOM      2  C   UNL     1     -27.991  14.083 -31.315  1.00  0.00     0.016 C 
ENDROOT
BRANCH   1   3
ATOM      3  C   UNL     1     -27.183  12.076 -30.037  1.00  0.00     0.135 C 
ATOM      4  O   UNL     1     -27.026  10.970 -30.534  1.00  0.00    -0.299 OA
BRANCH   3   5
ATOM      5  C   UNL     1     -27.775  12.177 -28.654  1.00  0.00     0.072 C 
ATOM      6  C   UNL     1     -29.263  11.845 -28.679  1.00  0.00     0.012 C 
ENDBRANCH   3   5
ENDBRANCH   1   3
BRANCH   1   7
ATOM      7  C   UNL     1     -25.811  14.204 -29.975  1.00  0.00     0.038 C 
BRANCH   7   8
ATOM      8  C   UNL     1     -25.194  15.334 -30.760  1.00  0.00    -0.034 C 
ATOM      9  C   UNL     1     -25.510  16.611 -30.527  1.00  0.00     0.004 C 
ENDBRANCH   7   8
ENDBRANCH   1   7
TORSDOF 4
ENDMDL
MODEL 5
REMARK VINA RESULT:    -3.946      2.157      4.314
REMARK INTER + INTRA:          -5.069
REMARK INTER:                  -4.824
REMARK INTRA:                  -0.246
REMARK UNBOUND:                -0.200
REMARK SMILES C=CC[C@H](C)C(=O)CC
REMARK SMILES IDX 4 1 5 2 6 3 7 4 8 5 9 6 3 7 2 8 1 9
REMARK H PARENT
REMARK Flexibility Score: inf
ROOT
ATOM      1  C   UNL     1     -26.015  18.974 -33.995  1.00  0.00     0.057 C 
ATOM      2  C   UNL     1     -27.098  18.364 -33.095  1.00  0.00     0.016 C 
ENDROOT
BRANCH   1   3
ATOM      3  C   UNL     1     -24.686  19.049 -33.269  1.00  0.00     0.135 C 
ATOM      4  O   UNL     1     -24.391  18.193 -32.448  1.00  0.00    -0.299 OA
BRANCH   3   5
ATOM      5  C   UNL     1     -23.704  20.156 -33.555  1.00  0.00     0.072 C 
ATOM      6  C   UNL     1     -22.563  20.140 -32.544  1.00  0.00     0.012 C 
ENDBRANCH   3   5
ENDBRANCH   1   3
BRANCH   1   7
ATOM      7  C   UNL     1     -26.427  20.346 -34.574  1.00  0.00     0.038 C 
BRANCH   7   8
ATOM      8  C   UNL     1     -27.700  20.900 -33.986  1.00  0.00    -0.034 C 
ATOM      9  C   UNL     1     -27.702  21.973 -33.190  1.00  0.00     0.004 C 
ENDBRANCH   7   8
ENDBRANCH   1   7
TORSDOF 4
ENDMDL
MODEL 6
REMARK VINA RESULT:    -3.886      6.992      8.809
REMARK INTER + INTRA:          -4.995
REMARK INTER:                  -4.569
REMARK INTRA:                  -0.426
REMARK UNBOUND:                -0.200
REMARK SMILES C=CC[C@H](C)C(=O)CC
REMARK SMILES IDX 4 1 5 2 6 3 7 4 8 5 9 6 3 7 2 8 1 9
REMARK H PARENT
REMARK Flexibility Score: inf
ROOT
ATOM      1  C   UNL     1     -26.341  13.191 -29.802  1.00  0.00     0.057 C 
ATOM      2  C   UNL     1     -25.843  14.521 -30.381  1.00  0.00     0.016 C 
ENDROOT
BRANCH   1   3
ATOM      3  C   UNL     1     -25.213  12.181 -29.713  1.00  0.00     0.135 C 
ATOM      4  O   UNL     1     -24.064  12.530 -29.943  1.00  0.00    -0.299 OA
BRANCH   3   5
ATOM      5  C   UNL     1     -25.478  10.748 -29.328  1.00  0.00     0.072 C 
ATOM      6  C   UNL     1     -25.703  10.626 -27.826  1.00  0.00     0.012 C 
ENDBRANCH   3   5
ENDBRANCH   1   3
BRANCH   1   7
ATOM      7  C   UNL     1     -27.554  12.624 -30.572  1.00  0.00     0.038 C 
BRANCH   7   8
ATOM      8  C   UNL     1     -28.859  12.741 -29.826  1.00  0.00    -0.034 C 
ATOM      9  C   UNL     1     -29.139  11.978 -28.766  1.00  0.00     0.004 C 
ENDBRANCH   7   8
ENDBRANCH   1   7
TORSDOF 4
ENDMDL
MODEL 7
REMARK VINA RESULT:    -3.857      7.010      8.733
REMARK INTER + INTRA:          -4.960
REMARK INTER:                  -4.497
REMARK INTRA:                  -0.463
REMARK UNBOUND:                -0.200
REMARK SMILES C=CC[C@H](C)C(=O)CC
REMARK SMILES IDX 4 1 5 2 6 3 7 4 8 5 9 6 3 7 2 8 1 9
REMARK H PARENT
REMARK Flexibility Score: inf
ROOT
ATOM      1  C   UNL     1     -26.290  11.711 -29.233  1.00  0.00     0.057 C 
ATOM      2  C   UNL     1     -26.116  10.818 -30.469  1.00  0.00     0.016 C 
ENDROOT
BRANCH   1   3
ATOM      3  C   UNL     1     -27.497  11.283 -28.421  1.00  0.00     0.135 C 
ATOM      4  O   UNL     1     -27.424  10.305 -27.692  1.00  0.00    -0.299 OA
BRANCH   3   5
ATOM      5  C   UNL     1     -28.790  12.055 -28.480  1.00  0.00     0.072 C 
ATOM      6  C   UNL     1     -29.693  11.511 -29.581  1.00  0.00     0.012 C 
ENDBRANCH   3   5
ENDBRANCH   1   3
BRANCH   1   7
ATOM      7  C   UNL     1     -26.346  13.214 -29.588  1.00  0.00     0.038 C 
BRANCH   7   8
ATOM      8  C   UNL     1     -26.706  13.488 -31.026  1.00  0.00    -0.034 C 
ATOM      9  C   UNL     1     -27.808  14.164 -31.363  1.00  0.00     0.004 C 
ENDBRANCH   7   8
ENDBRANCH   1   7
TORSDOF 4
ENDMDL
MODEL 8
REMARK VINA RESULT:    -3.851      5.903      7.921
REMARK INTER + INTRA:          -4.952
REMARK INTER:                  -4.723
REMARK INTRA:                  -0.229
REMARK UNBOUND:                -0.200
REMARK SMILES C=CC[C@H](C)C(=O)CC
REMARK SMILES IDX 4 1 5 2 6 3 7 4 8 5 9 6 3 7 2 8 1 9
REMARK H PARENT
REMARK Flexibility Score: inf
ROOT
ATOM      1  C   UNL     1     -25.559  13.050 -30.551  1.00  0.00     0.057 C 
ATOM      2  C   UNL     1     -24.791  12.244 -29.495  1.00  0.00     0.016 C 
ENDROOT
BRANCH   1   3
ATOM      3  C   UNL     1     -24.919  14.407 -30.769  1.00  0.00     0.135 C 
ATOM      4  O   UNL     1     -23.787  14.480 -31.224  1.00  0.00    -0.299 OA
BRANCH   3   5
ATOM      5  C   UNL     1     -25.662  15.679 -30.450  1.00  0.00     0.072 C 
ATOM      6  C   UNL     1     -25.040  16.865 -31.180  1.00  0.00     0.012 C 
ENDBRANCH   3   5
ENDBRANCH   1   3
BRANCH   1   7
ATOM      7  C   UNL     1     -27.064  13.175 -30.225  1.00  0.00     0.038 C 
BRANCH   7   8
ATOM      8  C   UNL     1     -27.461  12.534 -28.919  1.00  0.00    -0.034 C 
ATOM      9  C   UNL     1     -28.661  11.974 -28.743  1.00  0.00     0.004 C 
ENDBRANCH   7   8
ENDBRANCH   1   7
TORSDOF 4
ENDMDL
MODEL 9
REMARK VINA RESULT:    -3.847      7.459      8.833
REMARK INTER + INTRA:          -4.947
REMARK INTER:                  -4.456
REMARK INTRA:                  -0.491
REMARK UNBOUND:                -0.200
REMARK SMILES C=CC[C@H](C)C(=O)CC
REMARK SMILES IDX 4 1 5 2 6 3 7 4 8 5 9 6 3 7 2 8 1 9
REMARK H PARENT
REMARK Flexibility Score: inf
ROOT
ATOM      1  C   UNL     1     -28.172  11.996 -30.075  1.00  0.00     0.057 C 
ATOM      2  C   UNL     1     -28.997  12.496 -28.882  1.00  0.00     0.016 C 
ENDROOT
BRANCH   1   3
ATOM      3  C   UNL     1     -27.402  10.740 -29.714  1.00  0.00     0.135 C 
ATOM      4  O   UNL     1     -26.826  10.107 -30.587  1.00  0.00    -0.299 OA
BRANCH   3   5
ATOM      5  C   UNL     1     -27.317  10.261 -28.288  1.00  0.00     0.072 C 
ATOM      6  C   UNL     1     -25.872  10.265 -27.802  1.00  0.00     0.012 C 
ENDBRANCH   3   5
ENDBRANCH   1   3
BRANCH   1   7
ATOM      7  C   UNL     1     -27.244  13.086 -30.655  1.00  0.00     0.038 C 
BRANCH   7   8
ATOM      8  C   UNL     1     -26.117  13.482 -29.735  1.00  0.00    -0.034 C 
ATOM      9  C   UNL     1     -24.836  13.325 -30.078  1.00  0.00     0.004 C 
ENDBRANCH   7   8
ENDBRANCH   1   7
TORSDOF 4
ENDMDL
