MODEL 1
REMARK VINA RESULT:    -6.459      0.000      0.000
REMARK INTER + INTRA:          -7.260
REMARK INTER:                  -7.025
REMARK INTRA:                  -0.235
REMARK UNBOUND:                -0.235
REMARK SMILES CC1=C2C[C@H](C(C)(C)O)CC[C@@]2(C)CCC1
REMARK SMILES IDX 6 1 7 2 8 3 5 4 1 5 2 6 3 7 16 8 4 9 12 10 15 11 11 12 14 13
REMARK SMILES IDX 13 14 10 15 9 16
REMARK H PARENT 9 17
REMARK Flexibility Score: inf
ROOT
ATOM      1  C   UNL     1      -3.132  19.266  48.722  1.00  0.00     0.062 C 
ATOM      2  C   UNL     1      -1.878  19.397  47.834  1.00  0.00     0.042 C 
ATOM      3  C   UNL     1      -4.019  18.135  48.138  1.00  0.00     0.042 C 
ENDROOT
BRANCH   1   4
ATOM      4  C   UNL     1      -3.882  20.648  48.814  1.00  0.00     0.024 C 
ATOM      5  C   UNL     1      -2.935  23.390  51.550  1.00  0.00     0.039 C 
ATOM      6  C   UNL     1      -3.822  23.774  50.386  1.00  0.00    -0.074 C 
ATOM      7  C   UNL     1      -3.761  23.126  49.181  1.00  0.00    -0.065 C 
ATOM      8  C   UNL     1      -4.758  24.943  50.603  1.00  0.00     0.031 C 
ATOM      9  C   UNL     1      -2.935  21.858  48.999  1.00  0.00     0.038 C 
ATOM     10  C   UNL     1      -4.707  23.465  48.011  1.00  0.00    -0.011 C 
ATOM     11  C   UNL     1      -6.015  24.812  49.757  1.00  0.00     0.005 C 
ATOM     12  C   UNL     1      -5.610  22.225  47.755  1.00  0.00     0.011 C 
ATOM     13  C   UNL     1      -5.611  24.704  48.293  1.00  0.00     0.011 C 
ATOM     14  C   UNL     1      -3.884  23.792  46.740  1.00  0.00     0.016 C 
ATOM     15  C   UNL     1      -4.830  20.903  47.612  1.00  0.00     0.008 C 
ENDBRANCH   1   4
BRANCH   1  16
ATOM     16  O   UNL     1      -2.669  18.899  50.003  1.00  0.00    -0.390 OA
ATOM     17  H   UNL     1      -1.932  18.242  49.905  1.00  0.00     0.211 HD
ENDBRANCH   1  16
TORSDOF 2
ENDMDL
MODEL 2
REMARK VINA RESULT:    -6.030      1.743      3.121
REMARK INTER + INTRA:          -6.793
REMARK INTER:                  -6.550
REMARK INTRA:                  -0.243
REMARK UNBOUND:                -0.235
REMARK SMILES CC1=C2C[C@H](C(C)(C)O)CC[C@@]2(C)CCC1
REMARK SMILES IDX 6 1 7 2 8 3 5 4 1 5 2 6 3 7 16 8 4 9 12 10 15 11 11 12 14 13
REMARK SMILES IDX 13 14 10 15 9 16
REMARK H PARENT 9 17
REMARK Flexibility Score: inf
ROOT
ATOM      1  C   UNL     1      -3.842  21.603  48.537  1.00  0.00     0.062 C 
ATOM      2  C   UNL     1      -2.635  21.762  47.591  1.00  0.00     0.042 C 
ATOM      3  C   UNL     1      -5.124  21.512  47.668  1.00  0.00     0.042 C 
ENDROOT
BRANCH   1   4
ATOM      4  C   UNL     1      -3.886  22.790  49.571  1.00  0.00     0.024 C 
ATOM      5  C   UNL     1      -0.896  23.489  52.115  1.00  0.00     0.039 C 
ATOM      6  C   UNL     1      -1.966  24.539  51.918  1.00  0.00    -0.074 C 
ATOM      7  C   UNL     1      -2.675  24.643  50.750  1.00  0.00    -0.065 C 
ATOM      8  C   UNL     1      -2.192  25.502  53.062  1.00  0.00     0.031 C 
ATOM      9  C   UNL     1      -2.564  23.591  49.653  1.00  0.00     0.038 C 
ATOM     10  C   UNL     1      -3.814  25.667  50.563  1.00  0.00    -0.011 C 
ATOM     11  C   UNL     1      -3.630  25.993  53.099  1.00  0.00     0.005 C 
ATOM     12  C   UNL     1      -5.141  24.874  50.393  1.00  0.00     0.011 C 
ATOM     13  C   UNL     1      -3.959  26.650  51.765  1.00  0.00     0.011 C 
ATOM     14  C   UNL     1      -3.550  26.532  49.306  1.00  0.00     0.016 C 
ATOM     15  C   UNL     1      -5.072  23.761  49.329  1.00  0.00     0.008 C 
ENDBRANCH   1   4
BRANCH   1  16
ATOM     16  O   UNL     1      -3.644  20.389  49.227  1.00  0.00    -0.390 OA
ATOM     17  H   UNL     1      -2.674  20.271  49.402  1.00  0.00     0.211 HD
ENDBRANCH   1  16
TORSDOF 2
ENDMDL
MODEL 3
REMARK VINA RESULT:    -5.980      1.525      1.859
REMARK INTER + INTRA:          -6.739
REMARK INTER:                  -6.520
REMARK INTRA:                  -0.219
REMARK UNBOUND:                -0.235
REMARK SMILES CC1=C2C[C@H](C(C)(C)O)CC[C@@]2(C)CCC1
REMARK SMILES IDX 6 1 7 2 8 3 5 4 1 5 2 6 3 7 16 8 4 9 12 10 15 11 11 12 14 13
REMARK SMILES IDX 13 14 10 15 9 16
REMARK H PARENT 9 17
REMARK Flexibility Score: inf
ROOT
ATOM      1  C   UNL     1      -2.939  19.509  46.935  1.00  0.00     0.062 C 
ATOM      2  C   UNL     1      -3.551  18.190  47.446  1.00  0.00     0.042 C 
ATOM      3  C   UNL     1      -1.395  19.392  47.027  1.00  0.00     0.042 C 
ENDROOT
BRANCH   1   4
ATOM      4  C   UNL     1      -3.510  20.729  47.751  1.00  0.00     0.024 C 
ATOM      5  C   UNL     1      -1.287  22.739  50.382  1.00  0.00     0.039 C 
ATOM      6  C   UNL     1      -2.607  23.319  49.926  1.00  0.00    -0.074 C 
ATOM      7  C   UNL     1      -3.148  23.021  48.704  1.00  0.00    -0.065 C 
ATOM      8  C   UNL     1      -3.289  24.282  50.873  1.00  0.00     0.031 C 
ATOM      9  C   UNL     1      -2.550  21.942  47.809  1.00  0.00     0.038 C 
ATOM     10  C   UNL     1      -4.525  23.553  48.257  1.00  0.00    -0.011 C 
ATOM     11  C   UNL     1      -4.800  24.244  50.710  1.00  0.00     0.005 C 
ATOM     12  C   UNL     1      -5.481  22.335  48.111  1.00  0.00     0.011 C 
ATOM     13  C   UNL     1      -5.146  24.570  49.264  1.00  0.00     0.011 C 
ATOM     14  C   UNL     1      -4.396  24.289  46.900  1.00  0.00     0.016 C 
ATOM     15  C   UNL     1      -4.906  21.189  47.255  1.00  0.00     0.008 C 
ENDBRANCH   1   4
BRANCH   1  16
ATOM     16  O   UNL     1      -3.331  19.626  45.584  1.00  0.00    -0.390 OA
ATOM     17  H   UNL     1      -3.258  20.576  45.307  1.00  0.00     0.211 HD
ENDBRANCH   1  16
TORSDOF 2
ENDMDL
MODEL 4
REMARK VINA RESULT:    -5.788      1.609      2.455
REMARK INTER + INTRA:          -6.530
REMARK INTER:                  -6.321
REMARK INTRA:                  -0.209
REMARK UNBOUND:                -0.235
REMARK SMILES CC1=C2C[C@H](C(C)(C)O)CC[C@@]2(C)CCC1
REMARK SMILES IDX 6 1 7 2 8 3 5 4 1 5 2 6 3 7 16 8 4 9 12 10 15 11 11 12 14 13
REMARK SMILES IDX 13 14 10 15 9 16
REMARK H PARENT 9 17
REMARK Flexibility Score: inf
ROOT
ATOM      1  C   UNL     1      -1.980  17.512  48.807  1.00  0.00     0.062 C 
ATOM      2  C   UNL     1      -2.612  16.459  47.876  1.00  0.00     0.042 C 
ATOM      3  C   UNL     1      -1.944  16.926  50.243  1.00  0.00     0.042 C 
ENDROOT
BRANCH   1   4
ATOM      4  C   UNL     1      -2.776  18.868  48.719  1.00  0.00     0.024 C 
ATOM      5  C   UNL     1      -1.263  22.301  50.071  1.00  0.00     0.039 C 
ATOM      6  C   UNL     1      -2.492  22.325  49.190  1.00  0.00    -0.074 C 
ATOM      7  C   UNL     1      -2.751  21.337  48.277  1.00  0.00    -0.065 C 
ATOM      8  C   UNL     1      -3.409  23.520  49.336  1.00  0.00     0.031 C 
ATOM      9  C   UNL     1      -1.919  20.060  48.227  1.00  0.00     0.038 C 
ATOM     10  C   UNL     1      -4.034  21.317  47.422  1.00  0.00    -0.011 C 
ATOM     11  C   UNL     1      -4.849  23.157  49.010  1.00  0.00     0.005 C 
ATOM     12  C   UNL     1      -4.868  20.074  47.844  1.00  0.00     0.011 C 
ATOM     13  C   UNL     1      -4.907  22.599  47.595  1.00  0.00     0.011 C 
ATOM     14  C   UNL     1      -3.670  21.224  45.919  1.00  0.00     0.016 C 
ATOM     15  C   UNL     1      -4.064  18.759  47.860  1.00  0.00     0.008 C 
ENDBRANCH   1   4
BRANCH   1  16
ATOM     16  O   UNL     1      -0.664  17.712  48.338  1.00  0.00    -0.390 OA
ATOM     17  H   UNL     1      -0.665  17.676  47.346  1.00  0.00     0.211 HD
ENDBRANCH   1  16
TORSDOF 2
ENDMDL
MODEL 5
REMARK VINA RESULT:    -5.696      2.374      4.863
REMARK INTER + INTRA:          -6.431
REMARK INTER:                  -6.217
REMARK INTRA:                  -0.214
REMARK UNBOUND:                -0.235
REMARK SMILES CC1=C2C[C@H](C(C)(C)O)CC[C@@]2(C)CCC1
REMARK SMILES IDX 6 1 7 2 8 3 5 4 1 5 2 6 3 7 16 8 4 9 12 10 15 11 11 12 14 13
REMARK SMILES IDX 13 14 10 15 9 16
REMARK H PARENT 9 17
REMARK Flexibility Score: inf
ROOT
ATOM      1  C   UNL     1      -4.795  24.837  50.319  1.00  0.00     0.062 C 
ATOM      2  C   UNL     1      -4.491  26.318  50.017  1.00  0.00     0.042 C 
ATOM      3  C   UNL     1      -4.137  24.478  51.677  1.00  0.00     0.042 C 
ENDROOT
BRANCH   1   4
ATOM      4  C   UNL     1      -4.296  23.925  49.137  1.00  0.00     0.024 C 
ATOM      5  C   UNL     1      -0.422  23.235  48.489  1.00  0.00     0.039 C 
ATOM      6  C   UNL     1      -1.457  22.385  47.787  1.00  0.00    -0.074 C 
ATOM      7  C   UNL     1      -2.702  22.171  48.317  1.00  0.00    -0.065 C 
ATOM      8  C   UNL     1      -1.038  21.744  46.482  1.00  0.00     0.031 C 
ATOM      9  C   UNL     1      -3.185  22.928  49.548  1.00  0.00     0.038 C 
ATOM     10  C   UNL     1      -3.787  21.361  47.578  1.00  0.00    -0.011 C 
ATOM     11  C   UNL     1      -2.226  21.548  45.553  1.00  0.00     0.005 C 
ATOM     12  C   UNL     1      -4.951  22.332  47.232  1.00  0.00     0.011 C 
ATOM     13  C   UNL     1      -3.270  20.698  46.264  1.00  0.00     0.011 C 
ATOM     14  C   UNL     1      -4.305  20.216  48.483  1.00  0.00     0.016 C 
ATOM     15  C   UNL     1      -5.449  23.163  48.431  1.00  0.00     0.008 C 
ENDBRANCH   1   4
BRANCH   1  16
ATOM     16  O   UNL     1      -6.199  24.738  50.426  1.00  0.00    -0.390 OA
ATOM     17  H   UNL     1      -6.504  23.933  49.933  1.00  0.00     0.211 HD
ENDBRANCH   1  16
TORSDOF 2
ENDMDL
MODEL 6
REMARK VINA RESULT:    -5.632      2.911      5.484
REMARK INTER + INTRA:          -6.360
REMARK INTER:                  -6.133
REMARK INTRA:                  -0.228
REMARK UNBOUND:                -0.235
REMARK SMILES CC1=C2C[C@H](C(C)(C)O)CC[C@@]2(C)CCC1
REMARK SMILES IDX 6 1 7 2 8 3 5 4 1 5 2 6 3 7 16 8 4 9 12 10 15 11 11 12 14 13
REMARK SMILES IDX 13 14 10 15 9 16
REMARK H PARENT 9 17
REMARK Flexibility Score: inf
ROOT
ATOM      1  C   UNL     1      -6.346  27.015  49.323  1.00  0.00     0.062 C 
ATOM      2  C   UNL     1      -7.731  26.646  48.756  1.00  0.00     0.042 C 
ATOM      3  C   UNL     1      -5.967  28.422  48.789  1.00  0.00     0.042 C 
ENDROOT
BRANCH   1   4
ATOM      4  C   UNL     1      -5.288  25.911  48.946  1.00  0.00     0.024 C 
ATOM      5  C   UNL     1      -3.040  24.108  51.702  1.00  0.00     0.039 C 
ATOM      6  C   UNL     1      -3.108  23.533  50.305  1.00  0.00    -0.074 C 
ATOM      7  C   UNL     1      -4.197  23.721  49.495  1.00  0.00    -0.065 C 
ATOM      8  C   UNL     1      -1.927  22.702  49.854  1.00  0.00     0.031 C 
ATOM      9  C   UNL     1      -5.321  24.676  49.878  1.00  0.00     0.038 C 
ATOM     10  C   UNL     1      -4.248  23.197  48.045  1.00  0.00    -0.011 C 
ATOM     11  C   UNL     1      -1.737  22.780  48.347  1.00  0.00     0.005 C 
ATOM     12  C   UNL     1      -4.302  24.428  47.096  1.00  0.00     0.011 C 
ATOM     13  C   UNL     1      -3.018  22.316  47.667  1.00  0.00     0.011 C 
ATOM     14  C   UNL     1      -5.507  22.317  47.842  1.00  0.00     0.016 C 
ATOM     15  C   UNL     1      -5.391  25.454  47.467  1.00  0.00     0.008 C 
ENDBRANCH   1   4
BRANCH   1  16
ATOM     16  O   UNL     1      -6.495  27.060  50.726  1.00  0.00    -0.390 OA
ATOM     17  H   UNL     1      -7.383  27.445  50.945  1.00  0.00     0.211 HD
ENDBRANCH   1  16
TORSDOF 2
ENDMDL
MODEL 7
REMARK VINA RESULT:    -5.539      3.240      5.939
REMARK INTER + INTRA:          -6.259
REMARK INTER:                  -6.032
REMARK INTRA:                  -0.227
REMARK UNBOUND:                -0.235
REMARK SMILES CC1=C2C[C@H](C(C)(C)O)CC[C@@]2(C)CCC1
REMARK SMILES IDX 6 1 7 2 8 3 5 4 1 5 2 6 3 7 16 8 4 9 12 10 15 11 11 12 14 13
REMARK SMILES IDX 13 14 10 15 9 16
REMARK H PARENT 9 17
REMARK Flexibility Score: inf
ROOT
ATOM      1  C   UNL     1      -3.067  27.049  52.619  1.00  0.00     0.062 C 
ATOM      2  C   UNL     1      -1.699  27.736  52.441  1.00  0.00     0.042 C 
ATOM      3  C   UNL     1      -3.253  26.728  54.125  1.00  0.00     0.042 C 
ENDROOT
BRANCH   1   4
ATOM      4  C   UNL     1      -3.159  25.770  51.704  1.00  0.00     0.024 C 
ATOM      5  C   UNL     1      -6.259  25.122  49.280  1.00  0.00     0.039 C 
ATOM      6  C   UNL     1      -5.003  24.295  49.120  1.00  0.00    -0.074 C 
ATOM      7  C   UNL     1      -3.771  24.766  49.489  1.00  0.00    -0.065 C 
ATOM      8  C   UNL     1      -5.166  22.928  48.493  1.00  0.00     0.031 C 
ATOM      9  C   UNL     1      -3.614  26.074  50.256  1.00  0.00     0.038 C 
ATOM     10  C   UNL     1      -2.494  23.906  49.391  1.00  0.00    -0.011 C 
ATOM     11  C   UNL     1      -4.111  21.956  48.997  1.00  0.00     0.005 C 
ATOM     12  C   UNL     1      -1.975  23.663  50.837  1.00  0.00     0.011 C 
ATOM     13  C   UNL     1      -2.733  22.530  48.698  1.00  0.00     0.011 C 
ATOM     14  C   UNL     1      -1.417  24.646  48.560  1.00  0.00     0.016 C 
ATOM     15  C   UNL     1      -1.843  24.948  51.678  1.00  0.00     0.008 C 
ENDBRANCH   1   4
BRANCH   1  16
ATOM     16  O   UNL     1      -4.035  27.989  52.206  1.00  0.00    -0.390 OA
ATOM     17  H   UNL     1      -4.033  28.754  52.838  1.00  0.00     0.211 HD
ENDBRANCH   1  16
TORSDOF 2
ENDMDL
MODEL 8
REMARK VINA RESULT:    -5.461      2.549      4.660
REMARK INTER + INTRA:          -6.175
REMARK INTER:                  -5.958
REMARK INTRA:                  -0.217
REMARK UNBOUND:                -0.235
REMARK SMILES CC1=C2C[C@H](C(C)(C)O)CC[C@@]2(C)CCC1
REMARK SMILES IDX 6 1 7 2 8 3 5 4 1 5 2 6 3 7 16 8 4 9 12 10 15 11 11 12 14 13
REMARK SMILES IDX 13 14 10 15 9 16
REMARK H PARENT 9 17
REMARK Flexibility Score: inf
ROOT
ATOM      1  C   UNL     1      -4.887  23.333  47.959  1.00  0.00     0.062 C 
ATOM      2  C   UNL     1      -5.265  21.858  47.717  1.00  0.00     0.042 C 
ATOM      3  C   UNL     1      -4.180  23.864  46.684  1.00  0.00     0.042 C 
ENDROOT
BRANCH   1   4
ATOM      4  C   UNL     1      -3.997  23.463  49.252  1.00  0.00     0.024 C 
ATOM      5  C   UNL     1      -0.074  22.744  49.199  1.00  0.00     0.039 C 
ATOM      6  C   UNL     1      -0.688  23.439  50.394  1.00  0.00    -0.074 C 
ATOM      7  C   UNL     1      -1.832  24.186  50.292  1.00  0.00    -0.065 C 
ATOM      8  C   UNL     1       0.047  23.304  51.709  1.00  0.00     0.031 C 
ATOM      9  C   UNL     1      -2.659  24.206  49.012  1.00  0.00     0.038 C 
ATOM     10  C   UNL     1      -2.502  24.843  51.516  1.00  0.00    -0.011 C 
ATOM     11  C   UNL     1      -0.909  23.378  52.889  1.00  0.00     0.005 C 
ATOM     12  C   UNL     1      -3.887  24.165  51.719  1.00  0.00     0.011 C 
ATOM     13  C   UNL     1      -1.667  24.697  52.825  1.00  0.00     0.011 C 
ATOM     14  C   UNL     1      -2.687  26.361  51.270  1.00  0.00     0.016 C 
ATOM     15  C   UNL     1      -4.750  24.112  50.443  1.00  0.00     0.008 C 
ENDBRANCH   1   4
BRANCH   1  16
ATOM     16  O   UNL     1      -6.102  24.022  48.157  1.00  0.00    -0.390 OA
ATOM     17  H   UNL     1      -6.831  23.362  48.285  1.00  0.00     0.211 HD
ENDBRANCH   1  16
TORSDOF 2
ENDMDL
MODEL 9
REMARK VINA RESULT:    -4.899      2.297      3.825
REMARK INTER + INTRA:          -5.563
REMARK INTER:                  -5.315
REMARK INTRA:                  -0.249
REMARK UNBOUND:                -0.235
REMARK SMILES CC1=C2C[C@H](C(C)(C)O)CC[C@@]2(C)CCC1
REMARK SMILES IDX 6 1 7 2 8 3 5 4 1 5 2 6 3 7 16 8 4 9 12 10 15 11 11 12 14 13
REMARK SMILES IDX 13 14 10 15 9 16
REMARK H PARENT 9 17
REMARK Flexibility Score: inf
ROOT
ATOM      1  C   UNL     1      -2.358  17.002  46.265  1.00  0.00     0.062 C 
ATOM      2  C   UNL     1      -0.951  16.886  45.647  1.00  0.00     0.042 C 
ATOM      3  C   UNL     1      -3.395  16.951  45.113  1.00  0.00     0.042 C 
ENDROOT
BRANCH   1   4
ATOM      4  C   UNL     1      -2.468  18.313  47.131  1.00  0.00     0.024 C 
ATOM      5  C   UNL     1      -0.152  21.489  46.461  1.00  0.00     0.039 C 
ATOM      6  C   UNL     1      -1.361  21.626  47.359  1.00  0.00    -0.074 C 
ATOM      7  C   UNL     1      -2.460  20.819  47.225  1.00  0.00    -0.065 C 
ATOM      8  C   UNL     1      -1.317  22.729  48.393  1.00  0.00     0.031 C 
ATOM      9  C   UNL     1      -2.455  19.614  46.292  1.00  0.00     0.038 C 
ATOM     10  C   UNL     1      -3.669  20.905  48.179  1.00  0.00    -0.011 C 
ATOM     11  C   UNL     1      -2.139  22.371  49.622  1.00  0.00     0.005 C 
ATOM     12  C   UNL     1      -3.747  19.569  48.970  1.00  0.00     0.011 C 
ATOM     13  C   UNL     1      -3.571  22.090  49.189  1.00  0.00     0.011 C 
ATOM     14  C   UNL     1      -4.972  21.116  47.367  1.00  0.00     0.016 C 
ATOM     15  C   UNL     1      -3.696  18.312  48.079  1.00  0.00     0.008 C 
ENDBRANCH   1   4
BRANCH   1  16
ATOM     16  O   UNL     1      -2.514  15.875  47.101  1.00  0.00    -0.390 OA
ATOM     17  H   UNL     1      -2.365  15.053  46.565  1.00  0.00     0.211 HD
ENDBRANCH   1  16
TORSDOF 2
ENDMDL
