MODEL 1
REMARK VINA RESULT:    -4.321      0.000      0.000
REMARK INTER + INTRA:          -6.107
REMARK INTER:                  -5.836
REMARK INTRA:                  -0.271
REMARK UNBOUND:                -0.271
REMARK SMILES O=C[C@@H](O)[C@H](O)[C@@H](O)CO
REMARK SMILES IDX 7 1 9 2 10 3 5 5 3 6 2 7 1 8 4 9 6 11 8 13
REMARK H PARENT 10 4 4 10 6 12 8 14
REMARK Flexibility Score: inf
ROOT
ATOM      1  C   UNL     1      -2.085 -13.751  21.464  1.00  0.00     0.171 C 
ENDROOT
BRANCH   1   2
ATOM      2  C   UNL     1      -1.780 -12.974  22.760  1.00  0.00     0.190 C 
BRANCH   2   3
ATOM      3  O   UNL     1      -1.019 -13.743  23.654  1.00  0.00    -0.394 OA
ATOM      4  H   UNL     1      -0.993 -13.247  24.513  1.00  0.00     0.210 HD
ENDBRANCH   2   3
ENDBRANCH   1   2
BRANCH   1   5
ATOM      5  C   UNL     1      -3.146 -14.874  21.632  1.00  0.00     0.181 C 
BRANCH   5   6
ATOM      6  C   UNL     1      -4.217 -14.530  22.700  1.00  0.00     0.209 C 
BRANCH   6   7
ATOM      7  C   UNL     1      -5.594 -14.989  22.289  1.00  0.00     0.258 C 
ATOM      8  O   UNL     1      -6.577 -14.351  22.625  1.00  0.00    -0.300 OA
ENDBRANCH   6   7
BRANCH   6   9
ATOM      9  O   UNL     1      -3.878 -15.063  23.956  1.00  0.00    -0.383 OA
ATOM     10  H   UNL     1      -3.361 -15.897  23.801  1.00  0.00     0.211 HD
ENDBRANCH   6   9
ENDBRANCH   5   6
BRANCH   5  11
ATOM     11  O   UNL     1      -2.483 -16.062  21.992  1.00  0.00    -0.387 OA
ATOM     12  H   UNL     1      -2.277 -16.009  22.961  1.00  0.00     0.211 HD
ENDBRANCH   5  11
ENDBRANCH   1   5
BRANCH   1  13
ATOM     13  O   UNL     1      -2.471 -12.859  20.447  1.00  0.00    -0.388 OA
ATOM     14  H   UNL     1      -1.695 -12.271  20.250  1.00  0.00     0.211 HD
ENDBRANCH   1  13
TORSDOF 8
ENDMDL
MODEL 2
REMARK VINA RESULT:    -4.233     16.667     17.865
REMARK INTER + INTRA:          -5.988
REMARK INTER:                  -5.825
REMARK INTRA:                  -0.163
REMARK UNBOUND:                -0.271
REMARK SMILES O=C[C@@H](O)[C@H](O)[C@@H](O)CO
REMARK SMILES IDX 7 1 9 2 10 3 5 5 3 6 2 7 1 8 4 9 6 11 8 13
REMARK H PARENT 10 4 4 10 6 12 8 14
REMARK Flexibility Score: inf
ROOT
ATOM      1  C   UNL     1      -9.525  -3.683   9.696  1.00  0.00     0.171 C 
ENDROOT
BRANCH   1   2
ATOM      2  C   UNL     1     -10.791  -3.123   9.018  1.00  0.00     0.190 C 
BRANCH   2   3
ATOM      3  O   UNL     1     -10.470  -2.226   7.988  1.00  0.00    -0.394 OA
ATOM      4  H   UNL     1     -11.081  -2.423   7.232  1.00  0.00     0.210 HD
ENDBRANCH   2   3
ENDBRANCH   1   2
BRANCH   1   5
ATOM      5  C   UNL     1      -9.391  -3.310  11.198  1.00  0.00     0.181 C 
BRANCH   5   6
ATOM      6  C   UNL     1     -10.143  -2.002  11.559  1.00  0.00     0.209 C 
BRANCH   6   7
ATOM      7  C   UNL     1     -10.754  -2.063  12.936  1.00  0.00     0.258 C 
ATOM      8  O   UNL     1     -10.316  -1.359  13.831  1.00  0.00    -0.300 OA
ENDBRANCH   6   7
BRANCH   6   9
ATOM      9  O   UNL     1      -9.302  -0.880  11.446  1.00  0.00    -0.383 OA
ATOM     10  H   UNL     1      -9.749  -0.226  10.846  1.00  0.00     0.211 HD
ENDBRANCH   6   9
ENDBRANCH   5   6
BRANCH   5  11
ATOM     11  O   UNL     1      -8.024  -3.170  11.501  1.00  0.00    -0.387 OA
ATOM     12  H   UNL     1      -7.870  -3.581  12.391  1.00  0.00     0.211 HD
ENDBRANCH   5  11
ENDBRANCH   1   5
BRANCH   1  13
ATOM     13  O   UNL     1      -9.466  -5.078   9.528  1.00  0.00    -0.388 OA
ATOM     14  H   UNL     1      -9.116  -5.469  10.371  1.00  0.00     0.211 HD
ENDBRANCH   1  13
TORSDOF 8
ENDMDL
MODEL 3
REMARK VINA RESULT:    -4.082     16.400     17.320
REMARK INTER + INTRA:          -5.785
REMARK INTER:                  -5.368
REMARK INTRA:                  -0.417
REMARK UNBOUND:                -0.271
REMARK SMILES O=C[C@@H](O)[C@H](O)[C@@H](O)CO
REMARK SMILES IDX 7 1 9 2 10 3 5 5 3 6 2 7 1 8 4 9 6 11 8 13
REMARK H PARENT 10 4 4 10 6 12 8 14
REMARK Flexibility Score: inf
ROOT
ATOM      1  C   UNL     1     -10.876  -2.065  13.027  1.00  0.00     0.171 C 
ENDROOT
BRANCH   1   2
ATOM      2  C   UNL     1     -10.364  -0.949  13.960  1.00  0.00     0.190 C 
BRANCH   2   3
ATOM      3  O   UNL     1      -9.009  -1.128  14.280  1.00  0.00    -0.394 OA
ATOM      4  H   UNL     1      -8.502  -1.072  13.430  1.00  0.00     0.210 HD
ENDBRANCH   2   3
ENDBRANCH   1   2
BRANCH   1   5
ATOM      5  C   UNL     1     -10.214  -2.072  11.622  1.00  0.00     0.181 C 
BRANCH   5   6
ATOM      6  C   UNL     1      -9.391  -3.359  11.355  1.00  0.00     0.209 C 
BRANCH   6   7
ATOM      7  C   UNL     1      -9.743  -3.991  10.032  1.00  0.00     0.258 C 
ATOM      8  O   UNL     1     -10.188  -3.305   9.126  1.00  0.00    -0.300 OA
ENDBRANCH   6   7
BRANCH   6   9
ATOM      9  O   UNL     1      -8.009  -3.107  11.425  1.00  0.00    -0.383 OA
ATOM     10  H   UNL     1      -7.847  -2.525  12.214  1.00  0.00     0.211 HD
ENDBRANCH   6   9
ENDBRANCH   5   6
BRANCH   5  11
ATOM     11  O   UNL     1      -9.377  -0.944  11.520  1.00  0.00    -0.387 OA
ATOM     12  H   UNL     1      -9.449  -0.600  10.591  1.00  0.00     0.211 HD
ENDBRANCH   5  11
ENDBRANCH   1   5
BRANCH   1  13
ATOM     13  O   UNL     1     -10.724  -3.318  13.648  1.00  0.00    -0.388 OA
ATOM     14  H   UNL     1     -10.021  -3.817  13.155  1.00  0.00     0.211 HD
ENDBRANCH   1  13
TORSDOF 8
ENDMDL
MODEL 4
REMARK VINA RESULT:    -3.856      1.118      3.944
REMARK INTER + INTRA:          -5.480
REMARK INTER:                  -5.145
REMARK INTRA:                  -0.335
REMARK UNBOUND:                -0.271
REMARK SMILES O=C[C@@H](O)[C@H](O)[C@@H](O)CO
REMARK SMILES IDX 7 1 9 2 10 3 5 5 3 6 2 7 1 8 4 9 6 11 8 13
REMARK H PARENT 10 4 4 10 6 12 8 14
REMARK Flexibility Score: inf
ROOT
ATOM      1  C   UNL     1      -3.562 -15.210  21.929  1.00  0.00     0.171 C 
ENDROOT
BRANCH   1   2
ATOM      2  C   UNL     1      -5.045 -15.436  22.286  1.00  0.00     0.190 C 
BRANCH   2   3
ATOM      3  O   UNL     1      -5.773 -14.237  22.240  1.00  0.00    -0.394 OA
ATOM      4  H   UNL     1      -6.360 -14.225  23.040  1.00  0.00     0.210 HD
ENDBRANCH   2   3
ENDBRANCH   1   2
BRANCH   1   5
ATOM      5  C   UNL     1      -2.917 -13.989  22.640  1.00  0.00     0.181 C 
BRANCH   5   6
ATOM      6  C   UNL     1      -2.409 -12.915  21.642  1.00  0.00     0.209 C 
BRANCH   6   7
ATOM      7  C   UNL     1      -1.319 -12.060  22.238  1.00  0.00     0.258 C 
ATOM      8  O   UNL     1      -1.425 -11.642  23.379  1.00  0.00    -0.300 OA
ENDBRANCH   6   7
BRANCH   6   9
ATOM      9  O   UNL     1      -1.971 -13.500  20.440  1.00  0.00    -0.383 OA
ATOM     10  H   UNL     1      -1.147 -14.018  20.639  1.00  0.00     0.211 HD
ENDBRANCH   6   9
ENDBRANCH   5   6
BRANCH   5  11
ATOM     11  O   UNL     1      -1.845 -14.449  23.428  1.00  0.00    -0.387 OA
ATOM     12  H   UNL     1      -1.552 -15.321  23.057  1.00  0.00     0.211 HD
ENDBRANCH   5  11
ENDBRANCH   1   5
BRANCH   1  13
ATOM     13  O   UNL     1      -2.821 -16.378  22.189  1.00  0.00    -0.388 OA
ATOM     14  H   UNL     1      -2.745 -16.883  21.338  1.00  0.00     0.211 HD
ENDBRANCH   1  13
TORSDOF 8
ENDMDL
MODEL 5
REMARK VINA RESULT:    -3.193      1.504      2.511
REMARK INTER + INTRA:          -4.584
REMARK INTER:                  -4.039
REMARK INTRA:                  -0.545
REMARK UNBOUND:                -0.271
REMARK SMILES O=C[C@@H](O)[C@H](O)[C@@H](O)CO
REMARK SMILES IDX 7 1 9 2 10 3 5 5 3 6 2 7 1 8 4 9 6 11 8 13
REMARK H PARENT 10 4 4 10 6 12 8 14
REMARK Flexibility Score: inf
ROOT
ATOM      1  C   UNL     1      -2.769 -14.743  22.208  1.00  0.00     0.171 C 
ENDROOT
BRANCH   1   2
ATOM      2  C   UNL     1      -2.465 -14.227  20.787  1.00  0.00     0.190 C 
BRANCH   2   3
ATOM      3  O   UNL     1      -2.066 -12.881  20.804  1.00  0.00    -0.394 OA
ATOM      4  H   UNL     1      -1.525 -12.750  21.625  1.00  0.00     0.210 HD
ENDBRANCH   2   3
ENDBRANCH   1   2
BRANCH   1   5
ATOM      5  C   UNL     1      -4.098 -14.207  22.806  1.00  0.00     0.181 C 
BRANCH   5   6
ATOM      6  C   UNL     1      -5.300 -15.149  22.534  1.00  0.00     0.209 C 
BRANCH   6   7
ATOM      7  C   UNL     1      -6.534 -14.725  23.290  1.00  0.00     0.258 C 
ATOM      8  O   UNL     1      -7.296 -13.904  22.805  1.00  0.00    -0.300 OA
ENDBRANCH   6   7
BRANCH   6   9
ATOM      9  O   UNL     1      -5.576 -15.243  21.158  1.00  0.00    -0.383 OA
ATOM     10  H   UNL     1      -6.327 -15.883  21.043  1.00  0.00     0.211 HD
ENDBRANCH   6   9
ENDBRANCH   5   6
BRANCH   5  11
ATOM     11  O   UNL     1      -4.356 -12.939  22.253  1.00  0.00    -0.387 OA
ATOM     12  H   UNL     1      -3.909 -12.901  21.367  1.00  0.00     0.211 HD
ENDBRANCH   5  11
ENDBRANCH   1   5
BRANCH   1  13
ATOM     13  O   UNL     1      -2.755 -16.150  22.222  1.00  0.00    -0.388 OA
ATOM     14  H   UNL     1      -3.696 -16.462  22.153  1.00  0.00     0.211 HD
ENDBRANCH   1  13
TORSDOF 8
ENDMDL
MODEL 6
REMARK VINA RESULT:    -3.083     17.365     18.564
REMARK INTER + INTRA:          -4.435
REMARK INTER:                  -4.364
REMARK INTRA:                  -0.071
REMARK UNBOUND:                -0.271
REMARK SMILES O=C[C@@H](O)[C@H](O)[C@@H](O)CO
REMARK SMILES IDX 7 1 9 2 10 3 5 5 3 6 2 7 1 8 4 9 6 11 8 13
REMARK H PARENT 10 4 4 10 6 12 8 14
REMARK Flexibility Score: inf
ROOT
ATOM      1  C   UNL     1     -10.130  -2.491   8.616  1.00  0.00     0.171 C 
ENDROOT
BRANCH   1   2
ATOM      2  C   UNL     1     -11.125  -1.329   8.811  1.00  0.00     0.190 C 
BRANCH   2   3
ATOM      3  O   UNL     1     -10.710  -0.177   8.126  1.00  0.00    -0.394 OA
ATOM      4  H   UNL     1     -10.862   0.592   8.735  1.00  0.00     0.210 HD
ENDBRANCH   2   3
ENDBRANCH   1   2
BRANCH   1   5
ATOM      5  C   UNL     1     -10.117  -3.517   9.783  1.00  0.00     0.181 C 
BRANCH   5   6
ATOM      6  C   UNL     1      -9.209  -3.073  10.960  1.00  0.00     0.209 C 
BRANCH   6   7
ATOM      7  C   UNL     1      -9.982  -2.328  12.019  1.00  0.00     0.258 C 
ATOM      8  O   UNL     1      -9.753  -1.147  12.226  1.00  0.00    -0.300 OA
ENDBRANCH   6   7
BRANCH   6   9
ATOM      9  O   UNL     1      -8.533  -4.168  11.527  1.00  0.00    -0.383 OA
ATOM     10  H   UNL     1      -7.879  -4.500  10.856  1.00  0.00     0.211 HD
ENDBRANCH   6   9
ENDBRANCH   5   6
BRANCH   5  11
ATOM     11  O   UNL     1      -9.671  -4.754   9.281  1.00  0.00    -0.387 OA
ATOM     12  H   UNL     1      -9.454  -4.629   8.321  1.00  0.00     0.211 HD
ENDBRANCH   5  11
ENDBRANCH   1   5
BRANCH   1  13
ATOM     13  O   UNL     1     -10.381  -3.140   7.394  1.00  0.00    -0.388 OA
ATOM     14  H   UNL     1     -10.305  -2.464   6.671  1.00  0.00     0.211 HD
ENDBRANCH   1  13
TORSDOF 8
ENDMDL
MODEL 7
REMARK VINA RESULT:    -3.034      1.258      4.062
REMARK INTER + INTRA:          -4.369
REMARK INTER:                  -4.050
REMARK INTRA:                  -0.319
REMARK UNBOUND:                -0.271
REMARK SMILES O=C[C@@H](O)[C@H](O)[C@@H](O)CO
REMARK SMILES IDX 7 1 9 2 10 3 5 5 3 6 2 7 1 8 4 9 6 11 8 13
REMARK H PARENT 10 4 4 10 6 12 8 14
REMARK Flexibility Score: inf
ROOT
ATOM      1  C   UNL     1      -5.891 -14.886  22.065  1.00  0.00     0.171 C 
ENDROOT
BRANCH   1   2
ATOM      2  C   UNL     1      -7.071 -14.060  22.615  1.00  0.00     0.190 C 
BRANCH   2   3
ATOM      3  O   UNL     1      -7.473 -14.517  23.879  1.00  0.00    -0.394 OA
ATOM      4  H   UNL     1      -8.320 -15.018  23.749  1.00  0.00     0.210 HD
ENDBRANCH   2   3
ENDBRANCH   1   2
BRANCH   1   5
ATOM      5  C   UNL     1      -4.526 -14.568  22.736  1.00  0.00     0.181 C 
BRANCH   5   6
ATOM      6  C   UNL     1      -3.320 -15.105  21.922  1.00  0.00     0.209 C 
BRANCH   6   7
ATOM      7  C   UNL     1      -2.501 -13.990  21.322  1.00  0.00     0.258 C 
ATOM      8  O   UNL     1      -2.507 -12.883  21.835  1.00  0.00    -0.300 OA
ENDBRANCH   6   7
BRANCH   6   9
ATOM      9  O   UNL     1      -2.506 -15.944  22.705  1.00  0.00    -0.383 OA
ATOM     10  H   UNL     1      -2.806 -16.879  22.558  1.00  0.00     0.211 HD
ENDBRANCH   6   9
ENDBRANCH   5   6
BRANCH   5  11
ATOM     11  O   UNL     1      -4.521 -15.138  24.023  1.00  0.00    -0.387 OA
ATOM     12  H   UNL     1      -4.183 -14.450  24.654  1.00  0.00     0.211 HD
ENDBRANCH   5  11
ENDBRANCH   1   5
BRANCH   1  13
ATOM     13  O   UNL     1      -6.178 -16.260  22.162  1.00  0.00    -0.388 OA
ATOM     14  H   UNL     1      -5.358 -16.718  22.484  1.00  0.00     0.211 HD
ENDBRANCH   1  13
TORSDOF 8
ENDMDL
