MODEL 1
REMARK VINA RESULT:    -6.404      0.000      0.000
REMARK INTER + INTRA:         -11.780
REMARK INTER:                  -9.773
REMARK INTRA:                  -2.006
REMARK UNBOUND:                -2.006
REMARK SMILES CC(=O)CCC=C(C)CCC=C(C)CCC=C(C)C
REMARK SMILES IDX 10 1 11 2 12 3 13 4 14 5 15 6 16 7 18 8 17 9 19 10 9 11 7 12
REMARK SMILES IDX 6 13 8 14 5 15 4 16 2 17 3 18 1 19
REMARK H PARENT
REMARK Flexibility Score: inf
ROOT
ATOM      1  C   UNL     1     -16.870 -40.516  -9.053  1.00  0.00     0.032 C 
ENDROOT
BRANCH   1   2
ATOM      2  C   UNL     1     -15.999 -39.937  -7.964  1.00  0.00    -0.028 C 
ATOM      3  C   UNL     1     -15.800 -40.496  -6.750  1.00  0.00    -0.077 C 
ATOM      4  C   UNL     1     -16.494 -41.770  -6.332  1.00  0.00     0.039 C 
BRANCH   3   5
ATOM      5  C   UNL     1     -14.890 -39.797  -5.764  1.00  0.00     0.034 C 
BRANCH   5   6
ATOM      6  C   UNL     1     -15.361 -38.366  -5.473  1.00  0.00     0.032 C 
BRANCH   6   7
ATOM      7  C   UNL     1     -16.693 -38.368  -4.758  1.00  0.00    -0.028 C 
ATOM      8  C   UNL     1     -16.425 -36.050  -3.848  1.00  0.00     0.039 C 
ATOM      9  C   UNL     1     -17.191 -37.335  -4.043  1.00  0.00    -0.080 C 
ATOM     10  C   UNL     1     -18.563 -37.482  -3.434  1.00  0.00     0.039 C 
ENDBRANCH   6   7
ENDBRANCH   5   6
ENDBRANCH   3   5
ENDBRANCH   1   2
BRANCH   1  11
ATOM     11  C   UNL     1     -18.179 -39.734  -9.235  1.00  0.00     0.034 C 
BRANCH  11  12
ATOM     12  C   UNL     1     -19.171 -40.037  -8.131  1.00  0.00    -0.077 C 
ATOM     13  C   UNL     1     -19.394 -39.109  -7.173  1.00  0.00    -0.028 C 
ATOM     14  C   UNL     1     -19.828 -41.393  -8.098  1.00  0.00     0.039 C 
BRANCH  13  15
ATOM     15  C   UNL     1     -20.282 -39.318  -5.973  1.00  0.00     0.035 C 
BRANCH  15  16
ATOM     16  C   UNL     1     -21.688 -38.773  -6.235  1.00  0.00     0.079 C 
BRANCH  16  17
ATOM     17  C   UNL     1     -21.786 -37.349  -5.761  1.00  0.00     0.130 C 
ATOM     18  O   UNL     1     -21.790 -37.115  -4.564  1.00  0.00    -0.300 OA
ATOM     19  C   UNL     1     -21.949 -36.219  -6.734  1.00  0.00     0.087 C 
ENDBRANCH  16  17
ENDBRANCH  15  16
ENDBRANCH  13  15
ENDBRANCH  11  12
ENDBRANCH   1  11
TORSDOF 9
ENDMDL
MODEL 2
REMARK VINA RESULT:    -6.314      2.238      5.514
REMARK INTER + INTRA:         -11.642
REMARK INTER:                 -10.078
REMARK INTRA:                  -1.565
REMARK UNBOUND:                -2.006
REMARK SMILES CC(=O)CCC=C(C)CCC=C(C)CCC=C(C)C
REMARK SMILES IDX 10 1 11 2 12 3 13 4 14 5 15 6 16 7 18 8 17 9 19 10 9 11 7 12
REMARK SMILES IDX 6 13 8 14 5 15 4 16 2 17 3 18 1 19
REMARK H PARENT
REMARK Flexibility Score: inf
ROOT
ATOM      1  C   UNL     1     -16.109 -38.056  -4.610  1.00  0.00     0.032 C 
ENDROOT
BRANCH   1   2
ATOM      2  C   UNL     1     -17.576 -37.960  -4.263  1.00  0.00    -0.028 C 
ATOM      3  C   UNL     1     -18.227 -36.815  -3.958  1.00  0.00    -0.077 C 
ATOM      4  C   UNL     1     -17.515 -35.486  -3.880  1.00  0.00     0.039 C 
BRANCH   3   5
ATOM      5  C   UNL     1     -19.705 -36.879  -3.638  1.00  0.00     0.034 C 
BRANCH   5   6
ATOM      6  C   UNL     1     -20.566 -36.534  -4.860  1.00  0.00     0.032 C 
BRANCH   6   7
ATOM      7  C   UNL     1     -21.504 -37.669  -5.200  1.00  0.00    -0.028 C 
ATOM      8  C   UNL     1     -19.936 -38.729  -6.840  1.00  0.00     0.039 C 
ATOM      9  C   UNL     1     -21.231 -38.668  -6.068  1.00  0.00    -0.080 C 
ATOM     10  C   UNL     1     -22.259 -39.755  -6.255  1.00  0.00     0.039 C 
ENDBRANCH   6   7
ENDBRANCH   5   6
ENDBRANCH   3   5
ENDBRANCH   1   2
BRANCH   1  11
ATOM     11  C   UNL     1     -15.724 -39.442  -5.150  1.00  0.00     0.034 C 
BRANCH  11  12
ATOM     12  C   UNL     1     -15.527 -39.422  -6.651  1.00  0.00    -0.077 C 
ATOM     13  C   UNL     1     -16.520 -39.871  -7.452  1.00  0.00    -0.028 C 
ATOM     14  C   UNL     1     -14.201 -38.965  -7.203  1.00  0.00     0.039 C 
BRANCH  13  15
ATOM     15  C   UNL     1     -16.418 -39.992  -8.951  1.00  0.00     0.035 C 
BRANCH  15  16
ATOM     16  C   UNL     1     -17.806 -40.123  -9.581  1.00  0.00     0.079 C 
BRANCH  16  17
ATOM     17  C   UNL     1     -18.364 -41.496  -9.319  1.00  0.00     0.130 C 
ATOM     18  O   UNL     1     -17.648 -42.472  -9.469  1.00  0.00    -0.300 OA
ATOM     19  C   UNL     1     -19.803 -41.689  -8.945  1.00  0.00     0.087 C 
ENDBRANCH  16  17
ENDBRANCH  15  16
ENDBRANCH  13  15
ENDBRANCH  11  12
ENDBRANCH   1  11
TORSDOF 9
ENDMDL
MODEL 3
REMARK VINA RESULT:    -6.180      1.948      4.781
REMARK INTER + INTRA:         -11.439
REMARK INTER:                  -9.239
REMARK INTRA:                  -2.200
REMARK UNBOUND:                -2.006
REMARK SMILES CC(=O)CCC=C(C)CCC=C(C)CCC=C(C)C
REMARK SMILES IDX 10 1 11 2 12 3 13 4 14 5 15 6 16 7 18 8 17 9 19 10 9 11 7 12
REMARK SMILES IDX 6 13 8 14 5 15 4 16 2 17 3 18 1 19
REMARK H PARENT
REMARK Flexibility Score: inf
ROOT
ATOM      1  C   UNL     1     -20.937 -36.571  -4.696  1.00  0.00     0.032 C 
ENDROOT
BRANCH   1   2
ATOM      2  C   UNL     1     -19.478 -36.211  -4.551  1.00  0.00    -0.028 C 
ATOM      3  C   UNL     1     -18.546 -36.980  -3.944  1.00  0.00    -0.077 C 
ATOM      4  C   UNL     1     -18.898 -38.291  -3.285  1.00  0.00     0.039 C 
BRANCH   3   5
ATOM      5  C   UNL     1     -17.118 -36.485  -3.883  1.00  0.00     0.034 C 
BRANCH   5   6
ATOM      6  C   UNL     1     -16.115 -37.646  -3.874  1.00  0.00     0.032 C 
BRANCH   6   7
ATOM      7  C   UNL     1     -15.712 -38.025  -5.280  1.00  0.00    -0.028 C 
ATOM      8  C   UNL     1     -16.468 -40.402  -5.062  1.00  0.00     0.039 C 
ATOM      9  C   UNL     1     -15.880 -39.247  -5.832  1.00  0.00    -0.080 C 
ATOM     10  C   UNL     1     -15.469 -39.445  -7.270  1.00  0.00     0.039 C 
ENDBRANCH   6   7
ENDBRANCH   5   6
ENDBRANCH   3   5
ENDBRANCH   1   2
BRANCH   1  11
ATOM     11  C   UNL     1     -21.288 -37.039  -6.116  1.00  0.00     0.034 C 
BRANCH  11  12
ATOM     12  C   UNL     1     -21.074 -38.529  -6.283  1.00  0.00    -0.077 C 
ATOM     13  C   UNL     1     -19.895 -38.975  -6.776  1.00  0.00    -0.028 C 
ATOM     14  C   UNL     1     -22.208 -39.467  -5.958  1.00  0.00     0.039 C 
BRANCH  13  15
ATOM     15  C   UNL     1     -19.588 -40.419  -7.076  1.00  0.00     0.035 C 
BRANCH  15  16
ATOM     16  C   UNL     1     -19.718 -40.702  -8.574  1.00  0.00     0.079 C 
BRANCH  16  17
ATOM     17  C   UNL     1     -18.358 -40.717  -9.217  1.00  0.00     0.130 C 
ATOM     18  O   UNL     1     -17.975 -39.735  -9.832  1.00  0.00    -0.300 OA
ATOM     19  C   UNL     1     -17.493 -41.942  -9.173  1.00  0.00     0.087 C 
ENDBRANCH  16  17
ENDBRANCH  15  16
ENDBRANCH  13  15
ENDBRANCH  11  12
ENDBRANCH   1  11
TORSDOF 9
ENDMDL
MODEL 4
REMARK VINA RESULT:    -6.165      1.827      4.928
REMARK INTER + INTRA:         -11.414
REMARK INTER:                  -9.224
REMARK INTRA:                  -2.190
REMARK UNBOUND:                -2.006
REMARK SMILES CC(=O)CCC=C(C)CCC=C(C)CCC=C(C)C
REMARK SMILES IDX 10 1 11 2 12 3 13 4 14 5 15 6 16 7 18 8 17 9 19 10 9 11 7 12
REMARK SMILES IDX 6 13 8 14 5 15 4 16 2 17 3 18 1 19
REMARK H PARENT
REMARK Flexibility Score: inf
ROOT
ATOM      1  C   UNL     1     -19.309 -40.634  -8.205  1.00  0.00     0.032 C 
ENDROOT
BRANCH   1   2
ATOM      2  C   UNL     1     -20.720 -40.523  -7.679  1.00  0.00    -0.028 C 
ATOM      3  C   UNL     1     -21.210 -41.206  -6.621  1.00  0.00    -0.077 C 
ATOM      4  C   UNL     1     -20.380 -42.219  -5.869  1.00  0.00     0.039 C 
BRANCH   3   5
ATOM      5  C   UNL     1     -22.649 -40.982  -6.209  1.00  0.00     0.034 C 
BRANCH   5   6
ATOM      6  C   UNL     1     -23.124 -39.565  -6.554  1.00  0.00     0.032 C 
BRANCH   6   7
ATOM      7  C   UNL     1     -23.070 -38.664  -5.342  1.00  0.00    -0.028 C 
ATOM      8  C   UNL     1     -22.161 -36.700  -6.602  1.00  0.00     0.039 C 
ATOM      9  C   UNL     1     -22.661 -37.377  -5.350  1.00  0.00    -0.080 C 
ATOM     10  C   UNL     1     -22.719 -36.599  -4.058  1.00  0.00     0.039 C 
ENDBRANCH   6   7
ENDBRANCH   5   6
ENDBRANCH   3   5
ENDBRANCH   1   2
BRANCH   1  11
ATOM     11  C   UNL     1     -18.470 -39.383  -7.904  1.00  0.00     0.034 C 
BRANCH  11  12
ATOM     12  C   UNL     1     -18.140 -39.271  -6.430  1.00  0.00    -0.077 C 
ATOM     13  C   UNL     1     -18.931 -38.518  -5.632  1.00  0.00    -0.028 C 
ATOM     14  C   UNL     1     -16.898 -39.949  -5.911  1.00  0.00     0.039 C 
BRANCH  13  15
ATOM     15  C   UNL     1     -18.664 -38.250  -4.174  1.00  0.00     0.035 C 
BRANCH  15  16
ATOM     16  C   UNL     1     -19.012 -36.804  -3.814  1.00  0.00     0.079 C 
BRANCH  16  17
ATOM     17  C   UNL     1     -17.788 -35.936  -3.925  1.00  0.00     0.130 C 
ATOM     18  O   UNL     1     -17.917 -34.742  -4.139  1.00  0.00    -0.300 OA
ATOM     19  C   UNL     1     -16.411 -36.525  -3.848  1.00  0.00     0.087 C 
ENDBRANCH  16  17
ENDBRANCH  15  16
ENDBRANCH  13  15
ENDBRANCH  11  12
ENDBRANCH   1  11
TORSDOF 9
ENDMDL
MODEL 5
REMARK VINA RESULT:    -6.152      1.709      4.772
REMARK INTER + INTRA:         -11.395
REMARK INTER:                  -9.679
REMARK INTRA:                  -1.716
REMARK UNBOUND:                -2.006
REMARK SMILES CC(=O)CCC=C(C)CCC=C(C)CCC=C(C)C
REMARK SMILES IDX 10 1 11 2 12 3 13 4 14 5 15 6 16 7 18 8 17 9 19 10 9 11 7 12
REMARK SMILES IDX 6 13 8 14 5 15 4 16 2 17 3 18 1 19
REMARK H PARENT
REMARK Flexibility Score: inf
ROOT
ATOM      1  C   UNL     1     -19.396 -37.038  -3.507  1.00  0.00     0.032 C 
ENDROOT
BRANCH   1   2
ATOM      2  C   UNL     1     -18.259 -37.846  -4.087  1.00  0.00    -0.028 C 
ATOM      3  C   UNL     1     -16.986 -37.410  -4.219  1.00  0.00    -0.077 C 
ATOM      4  C   UNL     1     -16.577 -36.008  -3.836  1.00  0.00     0.039 C 
BRANCH   3   5
ATOM      5  C   UNL     1     -15.953 -38.342  -4.814  1.00  0.00     0.034 C 
BRANCH   5   6
ATOM      6  C   UNL     1     -16.574 -39.678  -5.242  1.00  0.00     0.032 C 
BRANCH   6   7
ATOM      7  C   UNL     1     -16.284 -39.969  -6.696  1.00  0.00    -0.028 C 
ATOM      8  C   UNL     1     -18.557 -39.276  -7.486  1.00  0.00     0.039 C 
ATOM      9  C   UNL     1     -17.153 -39.778  -7.713  1.00  0.00    -0.080 C 
ATOM     10  C   UNL     1     -16.687 -40.071  -9.118  1.00  0.00     0.039 C 
ENDBRANCH   6   7
ENDBRANCH   5   6
ENDBRANCH   3   5
ENDBRANCH   1   2
BRANCH   1  11
ATOM     11  C   UNL     1     -20.186 -36.281  -4.585  1.00  0.00     0.034 C 
BRANCH  11  12
ATOM     12  C   UNL     1     -21.538 -36.916  -4.837  1.00  0.00    -0.077 C 
ATOM     13  C   UNL     1     -21.641 -37.904  -5.754  1.00  0.00    -0.028 C 
ATOM     14  C   UNL     1     -22.740 -36.378  -4.104  1.00  0.00     0.039 C 
BRANCH  13  15
ATOM     15  C   UNL     1     -22.937 -38.554  -6.166  1.00  0.00     0.035 C 
BRANCH  15  16
ATOM     16  C   UNL     1     -22.983 -40.013  -5.706  1.00  0.00     0.079 C 
BRANCH  16  17
ATOM     17  C   UNL     1     -21.822 -40.774  -6.286  1.00  0.00     0.130 C 
ATOM     18  O   UNL     1     -21.769 -40.958  -7.491  1.00  0.00    -0.300 OA
ATOM     19  C   UNL     1     -20.766 -41.369  -5.403  1.00  0.00     0.087 C 
ENDBRANCH  16  17
ENDBRANCH  15  16
ENDBRANCH  13  15
ENDBRANCH  11  12
ENDBRANCH   1  11
TORSDOF 9
ENDMDL
MODEL 6
REMARK VINA RESULT:    -6.139      2.127      6.638
REMARK INTER + INTRA:         -11.375
REMARK INTER:                  -9.898
REMARK INTRA:                  -1.478
REMARK UNBOUND:                -2.006
REMARK SMILES CC(=O)CCC=C(C)CCC=C(C)CCC=C(C)C
REMARK SMILES IDX 10 1 11 2 12 3 13 4 14 5 15 6 16 7 18 8 17 9 19 10 9 11 7 12
REMARK SMILES IDX 6 13 8 14 5 15 4 16 2 17 3 18 1 19
REMARK H PARENT
REMARK Flexibility Score: inf
ROOT
ATOM      1  C   UNL     1     -20.102 -36.466  -4.658  1.00  0.00     0.032 C 
ENDROOT
BRANCH   1   2
ATOM      2  C   UNL     1     -21.027 -37.608  -5.007  1.00  0.00    -0.028 C 
ATOM      3  C   UNL     1     -21.985 -37.568  -5.959  1.00  0.00    -0.077 C 
ATOM      4  C   UNL     1     -22.268 -36.318  -6.756  1.00  0.00     0.039 C 
BRANCH   3   5
ATOM      5  C   UNL     1     -22.831 -38.800  -6.197  1.00  0.00     0.034 C 
BRANCH   5   6
ATOM      6  C   UNL     1     -22.062 -40.087  -5.872  1.00  0.00     0.032 C 
BRANCH   6   7
ATOM      7  C   UNL     1     -21.703 -40.838  -7.134  1.00  0.00    -0.028 C 
ATOM      8  C   UNL     1     -19.432 -39.801  -7.334  1.00  0.00     0.039 C 
ATOM      9  C   UNL     1     -20.526 -40.736  -7.788  1.00  0.00    -0.080 C 
ATOM     10  C   UNL     1     -20.308 -41.596  -9.008  1.00  0.00     0.039 C 
ENDBRANCH   6   7
ENDBRANCH   5   6
ENDBRANCH   3   5
ENDBRANCH   1   2
BRANCH   1  11
ATOM     11  C   UNL     1     -19.149 -36.812  -3.505  1.00  0.00     0.034 C 
BRANCH  11  12
ATOM     12  C   UNL     1     -17.734 -37.038  -3.996  1.00  0.00    -0.077 C 
ATOM     13  C   UNL     1     -17.394 -38.249  -4.492  1.00  0.00    -0.028 C 
ATOM     14  C   UNL     1     -16.731 -35.922  -3.853  1.00  0.00     0.039 C 
BRANCH  13  15
ATOM     15  C   UNL     1     -16.003 -38.632  -4.926  1.00  0.00     0.035 C 
BRANCH  15  16
ATOM     16  C   UNL     1     -16.043 -39.816  -5.895  1.00  0.00     0.079 C 
BRANCH  16  17
ATOM     17  C   UNL     1     -15.308 -39.471  -7.162  1.00  0.00     0.130 C 
ATOM     18  O   UNL     1     -15.807 -39.750  -8.239  1.00  0.00    -0.300 OA
ATOM     19  C   UNL     1     -13.942 -38.852  -7.121  1.00  0.00     0.087 C 
ENDBRANCH  16  17
ENDBRANCH  15  16
ENDBRANCH  13  15
ENDBRANCH  11  12
ENDBRANCH   1  11
TORSDOF 9
ENDMDL
MODEL 7
REMARK VINA RESULT:    -6.085      1.798      2.314
REMARK INTER + INTRA:         -11.294
REMARK INTER:                  -8.977
REMARK INTRA:                  -2.316
REMARK UNBOUND:                -2.006
REMARK SMILES CC(=O)CCC=C(C)CCC=C(C)CCC=C(C)C
REMARK SMILES IDX 10 1 11 2 12 3 13 4 14 5 15 6 16 7 18 8 17 9 19 10 9 11 7 12
REMARK SMILES IDX 6 13 8 14 5 15 4 16 2 17 3 18 1 19
REMARK H PARENT
REMARK Flexibility Score: inf
ROOT
ATOM      1  C   UNL     1     -16.776 -40.534  -9.077  1.00  0.00     0.032 C 
ENDROOT
BRANCH   1   2
ATOM      2  C   UNL     1     -15.976 -39.957  -7.934  1.00  0.00    -0.028 C 
ATOM      3  C   UNL     1     -15.870 -40.510  -6.705  1.00  0.00    -0.077 C 
ATOM      4  C   UNL     1     -16.608 -41.773  -6.330  1.00  0.00     0.039 C 
BRANCH   3   5
ATOM      5  C   UNL     1     -15.023 -39.815  -5.661  1.00  0.00     0.034 C 
BRANCH   5   6
ATOM      6  C   UNL     1     -15.492 -38.374  -5.419  1.00  0.00     0.032 C 
BRANCH   6   7
ATOM      7  C   UNL     1     -16.838 -38.350  -4.732  1.00  0.00    -0.028 C 
ATOM      8  C   UNL     1     -16.565 -36.019  -3.859  1.00  0.00     0.039 C 
ATOM      9  C   UNL     1     -17.340 -37.299  -4.047  1.00  0.00    -0.080 C 
ATOM     10  C   UNL     1     -18.726 -37.421  -3.464  1.00  0.00     0.039 C 
ENDBRANCH   6   7
ENDBRANCH   5   6
ENDBRANCH   3   5
ENDBRANCH   1   2
BRANCH   1  11
ATOM     11  C   UNL     1     -18.037 -39.713  -9.385  1.00  0.00     0.034 C 
BRANCH  11  12
ATOM     12  C   UNL     1     -19.171 -40.054  -8.442  1.00  0.00    -0.077 C 
ATOM     13  C   UNL     1     -19.358 -39.299  -7.335  1.00  0.00    -0.028 C 
ATOM     14  C   UNL     1     -20.016 -41.268  -8.733  1.00  0.00     0.039 C 
BRANCH  13  15
ATOM     15  C   UNL     1     -20.388 -39.585  -6.272  1.00  0.00     0.035 C 
BRANCH  15  16
ATOM     16  C   UNL     1     -19.808 -40.491  -5.184  1.00  0.00     0.079 C 
BRANCH  16  17
ATOM     17  C   UNL     1     -20.513 -41.820  -5.191  1.00  0.00     0.130 C 
ATOM     18  O   UNL     1     -19.857 -42.847  -5.117  1.00  0.00    -0.300 OA
ATOM     19  C   UNL     1     -22.001 -41.908  -5.358  1.00  0.00     0.087 C 
ENDBRANCH  16  17
ENDBRANCH  15  16
ENDBRANCH  13  15
ENDBRANCH  11  12
ENDBRANCH   1  11
TORSDOF 9
ENDMDL
MODEL 8
REMARK VINA RESULT:    -6.061      1.408      4.864
REMARK INTER + INTRA:         -11.256
REMARK INTER:                  -9.597
REMARK INTRA:                  -1.659
REMARK UNBOUND:                -2.006
REMARK SMILES CC(=O)CCC=C(C)CCC=C(C)CCC=C(C)C
REMARK SMILES IDX 10 1 11 2 12 3 13 4 14 5 15 6 16 7 18 8 17 9 19 10 9 11 7 12
REMARK SMILES IDX 6 13 8 14 5 15 4 16 2 17 3 18 1 19
REMARK H PARENT
REMARK Flexibility Score: inf
ROOT
ATOM      1  C   UNL     1     -15.628 -38.652  -4.568  1.00  0.00     0.032 C 
ENDROOT
BRANCH   1   2
ATOM      2  C   UNL     1     -16.591 -37.512  -4.339  1.00  0.00    -0.028 C 
ATOM      3  C   UNL     1     -17.927 -37.645  -4.182  1.00  0.00    -0.077 C 
ATOM      4  C   UNL     1     -18.614 -38.986  -4.276  1.00  0.00     0.039 C 
BRANCH   3   5
ATOM      5  C   UNL     1     -18.763 -36.405  -3.953  1.00  0.00     0.034 C 
BRANCH   5   6
ATOM      6  C   UNL     1     -20.260 -36.734  -3.885  1.00  0.00     0.032 C 
BRANCH   6   7
ATOM      7  C   UNL     1     -20.999 -36.141  -5.062  1.00  0.00    -0.028 C 
ATOM      8  C   UNL     1     -21.871 -38.345  -5.871  1.00  0.00     0.039 C 
ATOM      9  C   UNL     1     -21.739 -36.844  -5.947  1.00  0.00    -0.080 C 
ATOM     10  C   UNL     1     -22.458 -36.090  -7.038  1.00  0.00     0.039 C 
ENDBRANCH   6   7
ENDBRANCH   5   6
ENDBRANCH   3   5
ENDBRANCH   1   2
BRANCH   1  11
ATOM     11  C   UNL     1     -15.105 -38.698  -6.012  1.00  0.00     0.034 C 
BRANCH  11  12
ATOM     12  C   UNL     1     -15.736 -39.827  -6.800  1.00  0.00    -0.077 C 
ATOM     13  C   UNL     1     -15.908 -39.684  -8.134  1.00  0.00    -0.028 C 
ATOM     14  C   UNL     1     -16.215 -41.049  -6.059  1.00  0.00     0.039 C 
BRANCH  13  15
ATOM     15  C   UNL     1     -16.603 -40.689  -9.016  1.00  0.00     0.035 C 
BRANCH  15  16
ATOM     16  C   UNL     1     -17.921 -40.124  -9.550  1.00  0.00     0.079 C 
BRANCH  16  17
ATOM     17  C   UNL     1     -18.937 -40.052  -8.443  1.00  0.00     0.130 C 
ATOM     18  O   UNL     1     -19.065 -39.015  -7.813  1.00  0.00    -0.300 OA
ATOM     19  C   UNL     1     -19.745 -41.254  -8.053  1.00  0.00     0.087 C 
ENDBRANCH  16  17
ENDBRANCH  15  16
ENDBRANCH  13  15
ENDBRANCH  11  12
ENDBRANCH   1  11
TORSDOF 9
ENDMDL
MODEL 9
REMARK VINA RESULT:    -6.010      1.323      2.409
REMARK INTER + INTRA:         -11.178
REMARK INTER:                  -9.671
REMARK INTRA:                  -1.508
REMARK UNBOUND:                -2.006
REMARK SMILES CC(=O)CCC=C(C)CCC=C(C)CCC=C(C)C
REMARK SMILES IDX 10 1 11 2 12 3 13 4 14 5 15 6 16 7 18 8 17 9 19 10 9 11 7 12
REMARK SMILES IDX 6 13 8 14 5 15 4 16 2 17 3 18 1 19
REMARK H PARENT
REMARK Flexibility Score: inf
ROOT
ATOM      1  C   UNL     1     -19.432 -40.199  -7.943  1.00  0.00     0.032 C 
ENDROOT
BRANCH   1   2
ATOM      2  C   UNL     1     -18.178 -40.038  -7.116  1.00  0.00    -0.028 C 
ATOM      3  C   UNL     1     -16.925 -39.956  -7.617  1.00  0.00    -0.077 C 
ATOM      4  C   UNL     1     -16.645 -40.074  -9.095  1.00  0.00     0.039 C 
BRANCH   3   5
ATOM      5  C   UNL     1     -15.765 -39.789  -6.659  1.00  0.00     0.034 C 
BRANCH   5   6
ATOM      6  C   UNL     1     -16.245 -39.621  -5.211  1.00  0.00     0.032 C 
BRANCH   6   7
ATOM      7  C   UNL     1     -16.018 -38.208  -4.725  1.00  0.00    -0.028 C 
ATOM      8  C   UNL     1     -18.439 -37.778  -4.248  1.00  0.00     0.039 C 
ATOM      9  C   UNL     1     -16.984 -37.378  -4.274  1.00  0.00    -0.080 C 
ATOM     10  C   UNL     1     -16.580 -36.013  -3.775  1.00  0.00     0.039 C 
ENDBRANCH   6   7
ENDBRANCH   5   6
ENDBRANCH   3   5
ENDBRANCH   1   2
BRANCH   1  11
ATOM     11  C   UNL     1     -20.495 -41.053  -7.236  1.00  0.00     0.034 C 
BRANCH  11  12
ATOM     12  C   UNL     1     -21.716 -40.236  -6.868  1.00  0.00    -0.077 C 
ATOM     13  C   UNL     1     -21.552 -38.979  -6.399  1.00  0.00    -0.028 C 
ATOM     14  C   UNL     1     -23.076 -40.877  -6.974  1.00  0.00     0.039 C 
BRANCH  13  15
ATOM     15  C   UNL     1     -22.672 -38.096  -5.912  1.00  0.00     0.035 C 
BRANCH  15  16
ATOM     16  C   UNL     1     -22.385 -36.628  -6.231  1.00  0.00     0.079 C 
BRANCH  16  17
ATOM     17  C   UNL     1     -21.700 -35.971  -5.064  1.00  0.00     0.130 C 
ATOM     18  O   UNL     1     -20.811 -35.160  -5.270  1.00  0.00    -0.300 OA
ATOM     19  C   UNL     1     -22.041 -36.346  -3.653  1.00  0.00     0.087 C 
ENDBRANCH  16  17
ENDBRANCH  15  16
ENDBRANCH  13  15
ENDBRANCH  11  12
ENDBRANCH   1  11
TORSDOF 9
ENDMDL
