MODEL 1
REMARK VINA RESULT:    -2.304      0.000      0.000
REMARK INTER + INTRA:          -2.304
REMARK INTER:                  -2.304
REMARK INTRA:                   0.000
REMARK UNBOUND:                 0.000
REMARK SMILES CC(C)=C1CC[C@@H](C)CC1=O
REMARK SMILES IDX 8 1 7 2 6 3 5 4 4 5 2 6 1 7 3 8 10 9 11 10 9 11
REMARK H PARENT
REMARK Flexibility Score: inf
ROOT
ATOM      1  C   UNL     1       3.132  34.729 -25.378  1.00  0.00     0.008 C 
ATOM      2  C   UNL     1       4.042  33.567 -24.967  1.00  0.00    -0.006 C 
ATOM      3  C   UNL     1       5.423  34.086 -24.538  1.00  0.00     0.008 C 
ATOM      4  C   UNL     1       6.314  32.946 -24.026  1.00  0.00     0.039 C 
ATOM      5  C   UNL     1       6.405  31.790 -25.012  1.00  0.00    -0.006 C 
ATOM      6  C   UNL     1       7.535  31.028 -25.111  1.00  0.00    -0.070 C 
ATOM      7  C   UNL     1       8.736  31.292 -24.232  1.00  0.00     0.039 C 
ATOM      8  C   UNL     1       7.658  29.914 -26.125  1.00  0.00     0.039 C 
ATOM      9  C   UNL     1       5.157  31.472 -25.769  1.00  0.00     0.159 C 
ATOM     10  O   UNL     1       4.884  30.292 -26.117  1.00  0.00    -0.295 OA
ATOM     11  C   UNL     1       4.194  32.568 -26.124  1.00  0.00     0.084 C 
ENDROOT
TORSDOF 0
ENDMDL
MODEL 2
REMARK VINA RESULT:    -1.235      2.673      5.987
REMARK INTER + INTRA:          -1.235
REMARK INTER:                  -1.235
REMARK INTRA:                   0.000
REMARK UNBOUND:                 0.000
REMARK SMILES CC(C)=C1CC[C@@H](C)CC1=O
REMARK SMILES IDX 8 1 7 2 6 3 5 4 4 5 2 6 1 7 3 8 10 9 11 10 9 11
REMARK H PARENT
REMARK Flexibility Score: inf
ROOT
ATOM      1  C   UNL     1       5.919  32.576 -24.927  1.00  0.00     0.008 C 
ATOM      2  C   UNL     1       4.528  33.212 -24.826  1.00  0.00    -0.006 C 
ATOM      3  C   UNL     1       4.177  33.956 -26.124  1.00  0.00     0.008 C 
ATOM      4  C   UNL     1       2.748  34.514 -26.080  1.00  0.00     0.039 C 
ATOM      5  C   UNL     1       2.488  35.353 -24.837  1.00  0.00    -0.006 C 
ATOM      6  C   UNL     1       1.623  36.410 -24.862  1.00  0.00    -0.070 C 
ATOM      7  C   UNL     1       0.875  36.780 -26.122  1.00  0.00     0.039 C 
ATOM      8  C   UNL     1       1.399  37.285 -23.650  1.00  0.00     0.039 C 
ATOM      9  C   UNL     1       3.139  34.881 -23.578  1.00  0.00     0.159 C 
ATOM     10  O   UNL     1       2.594  35.053 -22.455  1.00  0.00    -0.295 OA
ATOM     11  C   UNL     1       4.465  34.179 -23.634  1.00  0.00     0.084 C 
ENDROOT
TORSDOF 0
ENDMDL
MODEL 3
REMARK VINA RESULT:    -1.097     17.376     18.296
REMARK INTER + INTRA:          -1.097
REMARK INTER:                  -1.097
REMARK INTRA:                   0.000
REMARK UNBOUND:                 0.000
REMARK SMILES CC(C)=C1CC[C@@H](C)CC1=O
REMARK SMILES IDX 8 1 7 2 6 3 5 4 4 5 2 6 1 7 3 8 10 9 11 10 9 11
REMARK H PARENT
REMARK Flexibility Score: inf
ROOT
ATOM      1  C   UNL     1       6.010  23.377  -6.242  1.00  0.00     0.008 C 
ATOM      2  C   UNL     1       5.642  23.674  -7.700  1.00  0.00    -0.006 C 
ATOM      3  C   UNL     1       4.551  24.754  -7.774  1.00  0.00     0.008 C 
ATOM      4  C   UNL     1       4.242  25.138  -9.227  1.00  0.00     0.039 C 
ATOM      5  C   UNL     1       3.926  23.927 -10.095  1.00  0.00    -0.006 C 
ATOM      6  C   UNL     1       3.053  24.013 -11.142  1.00  0.00    -0.070 C 
ATOM      7  C   UNL     1       2.377  25.318 -11.493  1.00  0.00     0.039 C 
ATOM      8  C   UNL     1       2.688  22.806 -11.976  1.00  0.00     0.039 C 
ATOM      9  C   UNL     1       4.710  22.689  -9.806  1.00  0.00     0.159 C 
ATOM     10  O   UNL     1       5.011  21.876 -10.720  1.00  0.00    -0.295 OA
ATOM     11  C   UNL     1       5.163  22.396  -8.405  1.00  0.00     0.084 C 
ENDROOT
TORSDOF 0
ENDMDL
