MODEL 1
REMARK VINA RESULT:    -3.838      0.000      0.000
REMARK INTER + INTRA:          -4.847
REMARK INTER:                  -4.624
REMARK INTRA:                  -0.223
REMARK UNBOUND:                -0.223
REMARK SMILES OCC(O)CO
REMARK SMILES IDX 3 1 5 2 6 3 2 5 1 6 4 8
REMARK H PARENT 6 4 1 7 4 9
REMARK Flexibility Score: inf
ROOT
ATOM      1  C   UNL     1      46.420  54.036  67.963  1.00  0.00     0.165 C 
ENDROOT
BRANCH   1   2
ATOM      2  C   UNL     1      46.357  52.539  68.314  1.00  0.00     0.190 C 
BRANCH   2   3
ATOM      3  O   UNL     1      46.772  51.747  67.233  1.00  0.00    -0.394 OA
ATOM      4  H   UNL     1      47.641  52.114  66.926  1.00  0.00     0.210 HD
ENDBRANCH   2   3
ENDBRANCH   1   2
BRANCH   1   5
ATOM      5  C   UNL     1      46.804  54.246  66.492  1.00  0.00     0.190 C 
BRANCH   5   6
ATOM      6  O   UNL     1      48.190  54.109  66.326  1.00  0.00    -0.394 OA
ATOM      7  H   UNL     1      48.618  54.624  67.058  1.00  0.00     0.210 HD
ENDBRANCH   5   6
ENDBRANCH   1   5
BRANCH   1   8
ATOM      8  O   UNL     1      47.350  54.687  68.789  1.00  0.00    -0.388 OA
ATOM      9  H   UNL     1      47.743  55.425  68.253  1.00  0.00     0.211 HD
ENDBRANCH   1   8
TORSDOF 5
ENDMDL
MODEL 2
REMARK VINA RESULT:    -3.828     13.967     14.827
REMARK INTER + INTRA:          -4.834
REMARK INTER:                  -4.612
REMARK INTRA:                  -0.222
REMARK UNBOUND:                -0.223
REMARK SMILES OCC(O)CO
REMARK SMILES IDX 3 1 5 2 6 3 2 5 1 6 4 8
REMARK H PARENT 6 4 1 7 4 9
REMARK Flexibility Score: inf
ROOT
ATOM      1  C   UNL     1      32.851  49.281  68.394  1.00  0.00     0.165 C 
ENDROOT
BRANCH   1   2
ATOM      2  C   UNL     1      31.772  49.809  69.354  1.00  0.00     0.190 C 
BRANCH   2   3
ATOM      3  O   UNL     1      32.204  49.747  70.688  1.00  0.00    -0.394 OA
ATOM      4  H   UNL     1      32.151  50.670  71.048  1.00  0.00     0.210 HD
ENDBRANCH   2   3
ENDBRANCH   1   2
BRANCH   1   5
ATOM      5  C   UNL     1      34.213  49.171  69.096  1.00  0.00     0.190 C 
BRANCH   5   6
ATOM      6  O   UNL     1      34.341  47.921  69.718  1.00  0.00    -0.394 OA
ATOM      7  H   UNL     1      34.929  47.371  69.137  1.00  0.00     0.210 HD
ENDBRANCH   5   6
ENDBRANCH   1   5
BRANCH   1   8
ATOM      8  O   UNL     1      32.964  50.129  67.281  1.00  0.00    -0.388 OA
ATOM      9  H   UNL     1      32.577  49.640  66.508  1.00  0.00     0.211 HD
ENDBRANCH   1   8
TORSDOF 5
ENDMDL
MODEL 3
REMARK VINA RESULT:    -3.813      1.448      3.046
REMARK INTER + INTRA:          -4.817
REMARK INTER:                  -4.597
REMARK INTRA:                  -0.219
REMARK UNBOUND:                -0.223
REMARK SMILES OCC(O)CO
REMARK SMILES IDX 3 1 5 2 6 3 2 5 1 6 4 8
REMARK H PARENT 6 4 1 7 4 9
REMARK Flexibility Score: inf
ROOT
ATOM      1  C   UNL     1      47.250  54.457  67.430  1.00  0.00     0.165 C 
ENDROOT
BRANCH   1   2
ATOM      2  C   UNL     1      48.327  55.208  68.232  1.00  0.00     0.190 C 
BRANCH   2   3
ATOM      3  O   UNL     1      48.218  54.938  69.605  1.00  0.00    -0.394 OA
ATOM      4  H   UNL     1      47.634  54.141  69.694  1.00  0.00     0.210 HD
ENDBRANCH   2   3
ENDBRANCH   1   2
BRANCH   1   5
ATOM      5  C   UNL     1      46.532  53.418  68.302  1.00  0.00     0.190 C 
BRANCH   5   6
ATOM      6  O   UNL     1      45.435  54.001  68.954  1.00  0.00    -0.394 OA
ATOM      7  H   UNL     1      44.913  54.482  68.260  1.00  0.00     0.210 HD
ENDBRANCH   5   6
ENDBRANCH   1   5
BRANCH   1   8
ATOM      8  O   UNL     1      47.830  53.820  66.321  1.00  0.00    -0.388 OA
ATOM      9  H   UNL     1      48.076  54.533  65.676  1.00  0.00     0.211 HD
ENDBRANCH   1   8
TORSDOF 5
ENDMDL
MODEL 4
REMARK VINA RESULT:    -3.771      2.376      3.138
REMARK INTER + INTRA:          -4.766
REMARK INTER:                  -4.763
REMARK INTRA:                  -0.002
REMARK UNBOUND:                -0.223
REMARK SMILES OCC(O)CO
REMARK SMILES IDX 3 1 5 2 6 3 2 5 1 6 4 8
REMARK H PARENT 6 4 1 7 4 9
REMARK Flexibility Score: inf
ROOT
ATOM      1  C   UNL     1      48.134  54.755  66.878  1.00  0.00     0.165 C 
ENDROOT
BRANCH   1   2
ATOM      2  C   UNL     1      47.002  54.698  65.838  1.00  0.00     0.190 C 
BRANCH   2   3
ATOM      3  O   UNL     1      47.205  55.637  64.815  1.00  0.00    -0.394 OA
ATOM      4  H   UNL     1      48.158  55.571  64.551  1.00  0.00     0.210 HD
ENDBRANCH   2   3
ENDBRANCH   1   2
BRANCH   1   5
ATOM      5  C   UNL     1      47.579  54.682  68.308  1.00  0.00     0.190 C 
BRANCH   5   6
ATOM      6  O   UNL     1      48.449  55.322  69.202  1.00  0.00    -0.394 OA
ATOM      7  H   UNL     1      48.998  55.952  68.666  1.00  0.00     0.210 HD
ENDBRANCH   5   6
ENDBRANCH   1   5
BRANCH   1   8
ATOM      8  O   UNL     1      48.874  55.938  66.722  1.00  0.00    -0.388 OA
ATOM      9  H   UNL     1      49.601  55.739  66.075  1.00  0.00     0.211 HD
ENDBRANCH   1   8
TORSDOF 5
ENDMDL
MODEL 5
REMARK VINA RESULT:    -3.742     12.691     13.516
REMARK INTER + INTRA:          -4.731
REMARK INTER:                  -4.722
REMARK INTRA:                  -0.009
REMARK UNBOUND:                -0.223
REMARK SMILES OCC(O)CO
REMARK SMILES IDX 3 1 5 2 6 3 2 5 1 6 4 8
REMARK H PARENT 6 4 1 7 4 9
REMARK Flexibility Score: inf
ROOT
ATOM      1  C   UNL     1      34.589  49.580  68.709  1.00  0.00     0.165 C 
ENDROOT
BRANCH   1   2
ATOM      2  C   UNL     1      35.376  48.505  69.477  1.00  0.00     0.190 C 
BRANCH   2   3
ATOM      3  O   UNL     1      34.668  47.294  69.526  1.00  0.00    -0.394 OA
ATOM      4  H   UNL     1      34.176  47.285  70.387  1.00  0.00     0.210 HD
ENDBRANCH   2   3
ENDBRANCH   1   2
BRANCH   1   5
ATOM      5  C   UNL     1      33.409  48.963  67.943  1.00  0.00     0.190 C 
BRANCH   5   6
ATOM      6  O   UNL     1      32.840  49.910  67.079  1.00  0.00    -0.394 OA
ATOM      7  H   UNL     1      33.005  49.589  66.154  1.00  0.00     0.210 HD
ENDBRANCH   5   6
ENDBRANCH   1   5
BRANCH   1   8
ATOM      8  O   UNL     1      35.435  50.247  67.809  1.00  0.00    -0.388 OA
ATOM      9  H   UNL     1      35.827  49.555  67.215  1.00  0.00     0.211 HD
ENDBRANCH   1   8
TORSDOF 5
ENDMDL
MODEL 6
REMARK VINA RESULT:    -3.724      1.235      2.135
REMARK INTER + INTRA:          -4.709
REMARK INTER:                  -4.699
REMARK INTRA:                  -0.010
REMARK UNBOUND:                -0.223
REMARK SMILES OCC(O)CO
REMARK SMILES IDX 3 1 5 2 6 3 2 5 1 6 4 8
REMARK H PARENT 6 4 1 7 4 9
REMARK Flexibility Score: inf
ROOT
ATOM      1  C   UNL     1      46.721  52.777  67.942  1.00  0.00     0.165 C 
ENDROOT
BRANCH   1   2
ATOM      2  C   UNL     1      45.463  52.755  68.827  1.00  0.00     0.190 C 
BRANCH   2   3
ATOM      3  O   UNL     1      44.816  54.001  68.820  1.00  0.00    -0.394 OA
ATOM      4  H   UNL     1      45.475  54.663  68.487  1.00  0.00     0.210 HD
ENDBRANCH   2   3
ENDBRANCH   1   2
BRANCH   1   5
ATOM      5  C   UNL     1      46.864  54.120  67.213  1.00  0.00     0.190 C 
BRANCH   5   6
ATOM      6  O   UNL     1      47.769  54.003  66.147  1.00  0.00    -0.394 OA
ATOM      7  H   UNL     1      48.233  54.876  66.068  1.00  0.00     0.210 HD
ENDBRANCH   5   6
ENDBRANCH   1   5
BRANCH   1   8
ATOM      8  O   UNL     1      46.669  51.735  67.002  1.00  0.00    -0.388 OA
ATOM      9  H   UNL     1      45.946  51.964  66.360  1.00  0.00     0.211 HD
ENDBRANCH   1   8
TORSDOF 5
ENDMDL
MODEL 7
REMARK VINA RESULT:    -3.714     12.310     13.334
REMARK INTER + INTRA:          -4.696
REMARK INTER:                  -4.478
REMARK INTRA:                  -0.218
REMARK UNBOUND:                -0.223
REMARK SMILES OCC(O)CO
REMARK SMILES IDX 3 1 5 2 6 3 2 5 1 6 4 8
REMARK H PARENT 6 4 1 7 4 9
REMARK Flexibility Score: inf
ROOT
ATOM      1  C   UNL     1      44.630  41.177  68.635  1.00  0.00     0.165 C 
ENDROOT
BRANCH   1   2
ATOM      2  C   UNL     1      43.160  41.626  68.689  1.00  0.00     0.190 C 
BRANCH   2   3
ATOM      3  O   UNL     1      42.440  41.141  67.586  1.00  0.00    -0.394 OA
ATOM      4  H   UNL     1      42.796  40.236  67.389  1.00  0.00     0.210 HD
ENDBRANCH   2   3
ENDBRANCH   1   2
BRANCH   1   5
ATOM      5  C   UNL     1      44.767  39.683  68.963  1.00  0.00     0.190 C 
BRANCH   5   6
ATOM      6  O   UNL     1      44.455  38.906  67.838  1.00  0.00    -0.394 OA
ATOM      7  H   UNL     1      43.485  38.702  67.890  1.00  0.00     0.210 HD
ENDBRANCH   5   6
ENDBRANCH   1   5
BRANCH   1   8
ATOM      8  O   UNL     1      45.398  41.928  69.539  1.00  0.00    -0.388 OA
ATOM      9  H   UNL     1      45.481  41.384  70.366  1.00  0.00     0.211 HD
ENDBRANCH   1   8
TORSDOF 5
ENDMDL
MODEL 8
REMARK VINA RESULT:    -3.666     12.634     14.110
REMARK INTER + INTRA:          -4.639
REMARK INTER:                  -4.469
REMARK INTRA:                  -0.170
REMARK UNBOUND:                -0.223
REMARK SMILES OCC(O)CO
REMARK SMILES IDX 3 1 5 2 6 3 2 5 1 6 4 8
REMARK H PARENT 6 4 1 7 4 9
REMARK Flexibility Score: inf
ROOT
ATOM      1  C   UNL     1      44.595  39.777  67.821  1.00  0.00     0.165 C 
ENDROOT
BRANCH   1   2
ATOM      2  C   UNL     1      44.772  38.450  68.579  1.00  0.00     0.190 C 
BRANCH   2   3
ATOM      3  O   UNL     1      44.818  38.660  69.966  1.00  0.00    -0.394 OA
ATOM      4  H   UNL     1      43.881  38.781  70.267  1.00  0.00     0.210 HD
ENDBRANCH   2   3
ENDBRANCH   1   2
BRANCH   1   5
ATOM      5  C   UNL     1      44.206  40.915  68.776  1.00  0.00     0.190 C 
BRANCH   5   6
ATOM      6  O   UNL     1      45.333  41.684  69.102  1.00  0.00    -0.394 OA
ATOM      7  H   UNL     1      45.301  41.837  70.082  1.00  0.00     0.210 HD
ENDBRANCH   5   6
ENDBRANCH   1   5
BRANCH   1   8
ATOM      8  O   UNL     1      43.610  39.640  66.830  1.00  0.00    -0.388 OA
ATOM      9  H   UNL     1      43.063  40.468  66.851  1.00  0.00     0.211 HD
ENDBRANCH   1   8
TORSDOF 5
ENDMDL
MODEL 9
REMARK VINA RESULT:    -3.658     13.179     13.982
REMARK INTER + INTRA:          -4.630
REMARK INTER:                  -4.412
REMARK INTRA:                  -0.218
REMARK UNBOUND:                -0.223
REMARK SMILES OCC(O)CO
REMARK SMILES IDX 3 1 5 2 6 3 2 5 1 6 4 8
REMARK H PARENT 6 4 1 7 4 9
REMARK Flexibility Score: inf
ROOT
ATOM      1  C   UNL     1      33.663  48.900  68.894  1.00  0.00     0.165 C 
ENDROOT
BRANCH   1   2
ATOM      2  C   UNL     1      35.061  49.508  69.101  1.00  0.00     0.190 C 
BRANCH   2   3
ATOM      3  O   UNL     1      35.467  50.242  67.976  1.00  0.00    -0.394 OA
ATOM      4  H   UNL     1      34.651  50.663  67.600  1.00  0.00     0.210 HD
ENDBRANCH   2   3
ENDBRANCH   1   2
BRANCH   1   5
ATOM      5  C   UNL     1      33.192  49.072  67.443  1.00  0.00     0.190 C 
BRANCH   5   6
ATOM      6  O   UNL     1      32.527  50.297  67.287  1.00  0.00    -0.394 OA
ATOM      7  H   UNL     1      32.713  50.608  66.363  1.00  0.00     0.210 HD
ENDBRANCH   5   6
ENDBRANCH   1   5
BRANCH   1   8
ATOM      8  O   UNL     1      32.740  49.506  69.762  1.00  0.00    -0.388 OA
ATOM      9  H   UNL     1      33.262  49.884  70.518  1.00  0.00     0.211 HD
ENDBRANCH   1   8
TORSDOF 5
ENDMDL
