MODEL 1
REMARK VINA RESULT:    -4.296      0.000      0.000
REMARK INTER + INTRA:          -5.404
REMARK INTER:                  -5.174
REMARK INTRA:                  -0.230
REMARK UNBOUND:                -0.230
REMARK SMILES NC(=O)C[C@H]([NH3+])C(=O)[O-]
REMARK SMILES IDX 4 1 5 2 6 3 7 7 8 8 9 9 2 10 3 11 1 12
REMARK H PARENT 6 4 6 5 6 6 1 13 1 14
REMARK Flexibility Score: inf
ROOT
ATOM      1  C   UNL     1       9.303  23.272  18.763  1.00  0.00     0.171 C 
ENDROOT
BRANCH   1   2
ATOM      2  C   UNL     1      10.376  24.349  19.026  1.00  0.00     0.237 C 
BRANCH   2   3
ATOM      3  N   UNL     1      10.133  25.013  20.312  1.00  0.00    -0.350 N 
ATOM      4  H   UNL     1       9.616  25.909  20.157  1.00  0.00     0.345 HD
ATOM      5  H   UNL     1       9.574  24.399  20.948  1.00  0.00     0.345 HD
ATOM      6  H   UNL     1      11.046  25.238  20.771  1.00  0.00     0.345 HD
ENDBRANCH   2   3
BRANCH   2   7
ATOM      7  C   UNL     1      10.408  25.365  17.913  1.00  0.00     0.100 C 
ATOM      8  O   UNL     1       9.341  25.734  17.353  1.00  0.00    -0.544 OA
ATOM      9  O   UNL     1      11.622  25.887  17.484  1.00  0.00    -0.544 OA
ENDBRANCH   2   7
ENDBRANCH   1   2
BRANCH   1  10
ATOM     10  C   UNL     1       9.020  22.461  19.995  1.00  0.00     0.223 C 
ATOM     11  O   UNL     1       8.341  22.960  20.930  1.00  0.00    -0.275 OA
ATOM     12  N   UNL     1       9.549  21.141  20.130  1.00  0.00    -0.369 N 
ATOM     13  H   UNL     1       9.363  20.585  20.994  1.00  0.00     0.159 HD
ATOM     14  H   UNL     1      10.130  20.719  19.373  1.00  0.00     0.159 HD
ENDBRANCH   1  10
TORSDOF 4
ENDMDL
MODEL 2
REMARK VINA RESULT:    -4.196      3.776      4.957
REMARK INTER + INTRA:          -5.284
REMARK INTER:                  -5.169
REMARK INTRA:                  -0.115
REMARK UNBOUND:                -0.230
REMARK SMILES NC(=O)C[C@H]([NH3+])C(=O)[O-]
REMARK SMILES IDX 4 1 5 2 6 3 7 7 8 8 9 9 2 10 3 11 1 12
REMARK H PARENT 6 4 6 5 6 6 1 13 1 14
REMARK Flexibility Score: inf
ROOT
ATOM      1  C   UNL     1      11.238  27.466  17.004  1.00  0.00     0.171 C 
ENDROOT
BRANCH   1   2
ATOM      2  C   UNL     1      12.209  27.620  15.814  1.00  0.00     0.237 C 
BRANCH   2   3
ATOM      3  N   UNL     1      13.168  28.700  16.070  1.00  0.00    -0.350 N 
ATOM      4  H   UNL     1      14.080  28.482  15.606  1.00  0.00     0.345 HD
ATOM      5  H   UNL     1      12.807  29.612  15.706  1.00  0.00     0.345 HD
ATOM      6  H   UNL     1      13.338  28.787  17.099  1.00  0.00     0.345 HD
ENDBRANCH   2   3
BRANCH   2   7
ATOM      7  C   UNL     1      11.458  27.882  14.533  1.00  0.00     0.100 C 
ATOM      8  O   UNL     1      10.748  26.982  14.012  1.00  0.00    -0.544 OA
ATOM      9  O   UNL     1      11.561  29.120  13.910  1.00  0.00    -0.544 OA
ENDBRANCH   2   7
ENDBRANCH   1   2
BRANCH   1  10
ATOM     10  C   UNL     1      11.137  26.037  17.454  1.00  0.00     0.223 C 
ATOM     11  O   UNL     1      10.007  25.486  17.535  1.00  0.00    -0.275 OA
ATOM     12  N   UNL     1      12.308  25.310  17.828  1.00  0.00    -0.369 N 
ATOM     13  H   UNL     1      12.232  24.322  18.155  1.00  0.00     0.159 HD
ATOM     14  H   UNL     1      13.250  25.758  17.786  1.00  0.00     0.159 HD
ENDBRANCH   1  10
TORSDOF 4
ENDMDL
MODEL 3
REMARK VINA RESULT:    -4.127      4.089      6.057
REMARK INTER + INTRA:          -5.202
REMARK INTER:                  -4.980
REMARK INTRA:                  -0.221
REMARK UNBOUND:                -0.230
REMARK SMILES NC(=O)C[C@H]([NH3+])C(=O)[O-]
REMARK SMILES IDX 4 1 5 2 6 3 7 7 8 8 9 9 2 10 3 11 1 12
REMARK H PARENT 6 4 6 5 6 6 1 13 1 14
REMARK Flexibility Score: inf
ROOT
ATOM      1  C   UNL     1      11.282  27.928  16.664  1.00  0.00     0.171 C 
ENDROOT
BRANCH   1   2
ATOM      2  C   UNL     1      11.009  26.493  16.166  1.00  0.00     0.237 C 
BRANCH   2   3
ATOM      3  N   UNL     1      10.551  26.512  14.772  1.00  0.00    -0.350 N 
ATOM      4  H   UNL     1       9.518  26.355  14.735  1.00  0.00     0.345 HD
ATOM      5  H   UNL     1      10.776  27.428  14.319  1.00  0.00     0.345 HD
ATOM      6  H   UNL     1      11.017  25.743  14.236  1.00  0.00     0.345 HD
ENDBRANCH   2   3
BRANCH   2   7
ATOM      7  C   UNL     1       9.994  25.800  17.038  1.00  0.00     0.100 C 
ATOM      8  O   UNL     1       8.894  25.416  16.559  1.00  0.00    -0.544 OA
ATOM      9  O   UNL     1      10.262  25.597  18.386  1.00  0.00    -0.544 OA
ENDBRANCH   2   7
ENDBRANCH   1   2
BRANCH   1  10
ATOM     10  C   UNL     1      12.166  28.684  15.716  1.00  0.00     0.223 C 
ATOM     11  O   UNL     1      11.715  29.050  14.597  1.00  0.00    -0.275 OA
ATOM     12  N   UNL     1      13.526  28.959  16.055  1.00  0.00    -0.369 N 
ATOM     13  H   UNL     1      14.142  29.473  15.387  1.00  0.00     0.159 HD
ATOM     14  H   UNL     1      13.920  28.647  16.969  1.00  0.00     0.159 HD
ENDBRANCH   1  10
TORSDOF 4
ENDMDL
MODEL 4
REMARK VINA RESULT:    -4.077      1.766      4.207
REMARK INTER + INTRA:          -5.141
REMARK INTER:                  -4.900
REMARK INTRA:                  -0.241
REMARK UNBOUND:                -0.230
REMARK SMILES NC(=O)C[C@H]([NH3+])C(=O)[O-]
REMARK SMILES IDX 4 1 5 2 6 3 7 7 8 8 9 9 2 10 3 11 1 12
REMARK H PARENT 6 4 6 5 6 6 1 13 1 14
REMARK Flexibility Score: inf
ROOT
ATOM      1  C   UNL     1      10.116  24.678  19.194  1.00  0.00     0.171 C 
ENDROOT
BRANCH   1   2
ATOM      2  C   UNL     1       9.668  23.263  18.771  1.00  0.00     0.237 C 
BRANCH   2   3
ATOM      3  N   UNL     1       8.570  23.340  17.802  1.00  0.00    -0.350 N 
ATOM      4  H   UNL     1       8.245  24.331  17.710  1.00  0.00     0.345 HD
ATOM      5  H   UNL     1       8.876  22.991  16.864  1.00  0.00     0.345 HD
ATOM      6  H   UNL     1       7.763  22.762  18.133  1.00  0.00     0.345 HD
ENDBRANCH   2   3
BRANCH   2   7
ATOM      7  C   UNL     1       9.251  22.447  19.968  1.00  0.00     0.100 C 
ATOM      8  O   UNL     1       9.591  21.238  20.067  1.00  0.00    -0.544 OA
ATOM      9  O   UNL     1       8.470  23.022  20.962  1.00  0.00    -0.544 OA
ENDBRANCH   2   7
ENDBRANCH   1   2
BRANCH   1  10
ATOM     10  C   UNL     1      10.809  25.397  18.073  1.00  0.00     0.223 C 
ATOM     11  O   UNL     1      10.134  26.074  17.253  1.00  0.00    -0.275 OA
ATOM     12  N   UNL     1      12.223  25.287  17.906  1.00  0.00    -0.369 N 
ATOM     13  H   UNL     1      12.700  25.776  17.117  1.00  0.00     0.159 HD
ATOM     14  H   UNL     1      12.795  24.714  18.565  1.00  0.00     0.159 HD
ENDBRANCH   1  10
TORSDOF 4
ENDMDL
MODEL 5
REMARK VINA RESULT:    -4.065      2.214      2.597
REMARK INTER + INTRA:          -5.127
REMARK INTER:                  -5.254
REMARK INTRA:                   0.127
REMARK UNBOUND:                -0.230
REMARK SMILES NC(=O)C[C@H]([NH3+])C(=O)[O-]
REMARK SMILES IDX 4 1 5 2 6 3 7 7 8 8 9 9 2 10 3 11 1 12
REMARK H PARENT 6 4 6 5 6 6 1 13 1 14
REMARK Flexibility Score: inf
ROOT
ATOM      1  C   UNL     1       8.690  22.273  18.469  1.00  0.00     0.171 C 
ENDROOT
BRANCH   1   2
ATOM      2  C   UNL     1       9.505  22.751  19.688  1.00  0.00     0.237 C 
BRANCH   2   3
ATOM      3  N   UNL     1       8.724  22.599  20.920  1.00  0.00    -0.350 N 
ATOM      4  H   UNL     1       8.338  21.628  20.979  1.00  0.00     0.345 HD
ATOM      5  H   UNL     1       9.317  22.784  21.762  1.00  0.00     0.345 HD
ATOM      6  H   UNL     1       7.920  23.269  20.915  1.00  0.00     0.345 HD
ENDBRANCH   2   3
BRANCH   2   7
ATOM      7  C   UNL     1       9.941  24.184  19.521  1.00  0.00     0.100 C 
ATOM      8  O   UNL     1       9.914  24.979  20.498  1.00  0.00    -0.544 OA
ATOM      9  O   UNL     1      10.359  24.642  18.277  1.00  0.00    -0.544 OA
ENDBRANCH   2   7
ENDBRANCH   1   2
BRANCH   1  10
ATOM     10  C   UNL     1       8.756  20.782  18.308  1.00  0.00     0.223 C 
ATOM     11  O   UNL     1       8.273  20.242  17.278  1.00  0.00    -0.275 OA
ATOM     12  N   UNL     1       9.328  19.967  19.333  1.00  0.00    -0.369 N 
ATOM     13  H   UNL     1       9.359  18.930  19.224  1.00  0.00     0.159 HD
ATOM     14  H   UNL     1       9.716  20.397  20.201  1.00  0.00     0.159 HD
ENDBRANCH   1  10
TORSDOF 4
ENDMDL
MODEL 6
REMARK VINA RESULT:    -4.005      5.503      6.694
REMARK INTER + INTRA:          -5.055
REMARK INTER:                  -5.157
REMARK INTRA:                   0.102
REMARK UNBOUND:                -0.230
REMARK SMILES NC(=O)C[C@H]([NH3+])C(=O)[O-]
REMARK SMILES IDX 4 1 5 2 6 3 7 7 8 8 9 9 2 10 3 11 1 12
REMARK H PARENT 6 4 6 5 6 6 1 13 1 14
REMARK Flexibility Score: inf
ROOT
ATOM      1  C   UNL     1      10.951  27.218  15.420  1.00  0.00     0.171 C 
ENDROOT
BRANCH   1   2
ATOM      2  C   UNL     1      10.585  26.505  14.102  1.00  0.00     0.237 C 
BRANCH   2   3
ATOM      3  N   UNL     1      10.233  27.485  13.068  1.00  0.00    -0.350 N 
ATOM      4  H   UNL     1       9.214  27.715  13.129  1.00  0.00     0.345 HD
ATOM      5  H   UNL     1      10.791  28.363  13.183  1.00  0.00     0.345 HD
ATOM      6  H   UNL     1      10.420  27.083  12.120  1.00  0.00     0.345 HD
ENDBRANCH   2   3
BRANCH   2   7
ATOM      7  C   UNL     1       9.451  25.534  14.308  1.00  0.00     0.100 C 
ATOM      8  O   UNL     1       8.857  25.470  15.417  1.00  0.00    -0.544 OA
ATOM      9  O   UNL     1       9.065  24.688  13.276  1.00  0.00    -0.544 OA
ENDBRANCH   2   7
ENDBRANCH   1   2
BRANCH   1  10
ATOM     10  C   UNL     1      11.964  28.304  15.199  1.00  0.00     0.223 C 
ATOM     11  O   UNL     1      11.805  29.125  14.257  1.00  0.00    -0.275 OA
ATOM     12  N   UNL     1      13.126  28.390  16.024  1.00  0.00    -0.369 N 
ATOM     13  H   UNL     1      13.836  29.138  15.858  1.00  0.00     0.159 HD
ATOM     14  H   UNL     1      13.284  27.706  16.797  1.00  0.00     0.159 HD
ENDBRANCH   1  10
TORSDOF 4
ENDMDL
MODEL 7
REMARK VINA RESULT:    -3.978      2.208      4.067
REMARK INTER + INTRA:          -5.022
REMARK INTER:                  -4.767
REMARK INTRA:                  -0.255
REMARK UNBOUND:                -0.230
REMARK SMILES NC(=O)C[C@H]([NH3+])C(=O)[O-]
REMARK SMILES IDX 4 1 5 2 6 3 7 7 8 8 9 9 2 10 3 11 1 12
REMARK H PARENT 6 4 6 5 6 6 1 13 1 14
REMARK Flexibility Score: inf
ROOT
ATOM      1  C   UNL     1       8.803  23.323  17.625  1.00  0.00     0.171 C 
ENDROOT
BRANCH   1   2
ATOM      2  C   UNL     1       9.296  23.846  18.990  1.00  0.00     0.237 C 
BRANCH   2   3
ATOM      3  N   UNL     1      10.713  24.219  18.916  1.00  0.00    -0.350 N 
ATOM      4  H   UNL     1      10.801  25.232  18.668  1.00  0.00     0.345 HD
ATOM      5  H   UNL     1      11.191  24.047  19.832  1.00  0.00     0.345 HD
ATOM      6  H   UNL     1      11.188  23.658  18.172  1.00  0.00     0.345 HD
ENDBRANCH   2   3
BRANCH   2   7
ATOM      7  C   UNL     1       9.083  22.818  20.072  1.00  0.00     0.100 C 
ATOM      8  O   UNL     1       9.611  21.678  19.984  1.00  0.00    -0.544 OA
ATOM      9  O   UNL     1       8.284  23.120  21.168  1.00  0.00    -0.544 OA
ENDBRANCH   2   7
ENDBRANCH   1   2
BRANCH   1  10
ATOM     10  C   UNL     1       8.432  24.449  16.703  1.00  0.00     0.223 C 
ATOM     11  O   UNL     1       9.190  25.449  16.601  1.00  0.00    -0.275 OA
ATOM     12  N   UNL     1       7.207  24.412  15.970  1.00  0.00    -0.369 N 
ATOM     13  H   UNL     1       6.945  25.202  15.341  1.00  0.00     0.159 HD
ATOM     14  H   UNL     1       6.557  23.599  16.057  1.00  0.00     0.159 HD
ENDBRANCH   1  10
TORSDOF 4
ENDMDL
MODEL 8
REMARK VINA RESULT:    -3.858      2.122      2.932
REMARK INTER + INTRA:          -4.877
REMARK INTER:                  -4.620
REMARK INTRA:                  -0.257
REMARK UNBOUND:                -0.230
REMARK SMILES NC(=O)C[C@H]([NH3+])C(=O)[O-]
REMARK SMILES IDX 4 1 5 2 6 3 7 7 8 8 9 9 2 10 3 11 1 12
REMARK H PARENT 6 4 6 5 6 6 1 13 1 14
REMARK Flexibility Score: inf
ROOT
ATOM      1  C   UNL     1      10.992  25.192  18.155  1.00  0.00     0.171 C 
ENDROOT
BRANCH   1   2
ATOM      2  C   UNL     1      10.130  26.150  17.308  1.00  0.00     0.237 C 
BRANCH   2   3
ATOM      3  N   UNL     1       9.043  25.418  16.649  1.00  0.00    -0.350 N 
ATOM      4  H   UNL     1       9.221  24.389  16.708  1.00  0.00     0.345 HD
ATOM      5  H   UNL     1       8.123  25.633  17.101  1.00  0.00     0.345 HD
ATOM      6  H   UNL     1       8.997  25.684  15.639  1.00  0.00     0.345 HD
ENDBRANCH   2   3
BRANCH   2   7
ATOM      7  C   UNL     1      10.969  26.870  16.283  1.00  0.00     0.100 C 
ATOM      8  O   UNL     1      11.757  27.789  16.632  1.00  0.00    -0.544 OA
ATOM      9  O   UNL     1      10.862  26.534  14.939  1.00  0.00    -0.544 OA
ENDBRANCH   2   7
ENDBRANCH   1   2
BRANCH   1  10
ATOM     10  C   UNL     1      10.159  24.422  19.139  1.00  0.00     0.223 C 
ATOM     11  O   UNL     1       9.479  23.437  18.747  1.00  0.00    -0.275 OA
ATOM     12  N   UNL     1      10.101  24.822  20.509  1.00  0.00    -0.369 N 
ATOM     13  H   UNL     1       9.509  24.294  21.187  1.00  0.00     0.159 HD
ATOM     14  H   UNL     1      10.643  25.648  20.847  1.00  0.00     0.159 HD
ENDBRANCH   1  10
TORSDOF 4
ENDMDL
MODEL 9
REMARK VINA RESULT:    -3.848      5.224      5.946
REMARK INTER + INTRA:          -4.866
REMARK INTER:                  -4.630
REMARK INTRA:                  -0.236
REMARK UNBOUND:                -0.230
REMARK SMILES NC(=O)C[C@H]([NH3+])C(=O)[O-]
REMARK SMILES IDX 4 1 5 2 6 3 7 7 8 8 9 9 2 10 3 11 1 12
REMARK H PARENT 6 4 6 5 6 6 1 13 1 14
REMARK Flexibility Score: inf
ROOT
ATOM      1  C   UNL     1       8.012  25.689  14.107  1.00  0.00     0.171 C 
ENDROOT
BRANCH   1   2
ATOM      2  C   UNL     1       9.389  25.622  13.413  1.00  0.00     0.237 C 
BRANCH   2   3
ATOM      3  N   UNL     1      10.108  26.891  13.572  1.00  0.00    -0.350 N 
ATOM      4  H   UNL     1       9.464  27.691  13.375  1.00  0.00     0.345 HD
ATOM      5  H   UNL     1      10.485  26.985  14.544  1.00  0.00     0.345 HD
ATOM      6  H   UNL     1      10.902  26.936  12.892  1.00  0.00     0.345 HD
ENDBRANCH   2   3
BRANCH   2   7
ATOM      7  C   UNL     1       9.242  25.285  11.951  1.00  0.00     0.100 C 
ATOM      8  O   UNL     1       8.108  25.295  11.403  1.00  0.00    -0.544 OA
ATOM      9  O   UNL     1      10.362  24.944  11.202  1.00  0.00    -0.544 OA
ENDBRANCH   2   7
ENDBRANCH   1   2
BRANCH   1  10
ATOM     10  C   UNL     1       8.071  25.149  15.506  1.00  0.00     0.223 C 
ATOM     11  O   UNL     1       9.039  25.452  16.253  1.00  0.00    -0.275 OA
ATOM     12  N   UNL     1       7.058  24.263  15.984  1.00  0.00    -0.369 N 
ATOM     13  H   UNL     1       7.110  23.878  16.953  1.00  0.00     0.159 HD
ATOM     14  H   UNL     1       6.260  23.986  15.372  1.00  0.00     0.159 HD
ENDBRANCH   1  10
TORSDOF 4
ENDMDL
