MODEL 1
REMARK VINA RESULT:    -3.438      0.000      0.000
REMARK INTER + INTRA:          -3.656
REMARK INTER:                  -3.639
REMARK INTRA:                  -0.016
REMARK UNBOUND:                -0.016
REMARK SMILES O=C([O-])c1cccnc1
REMARK SMILES IDX 4 1 5 2 9 3 6 4 8 5 7 6 2 7 1 8 3 9
REMARK H PARENT
REMARK Flexibility Score: inf
ROOT
ATOM      1  C   UNL     1       2.215 -12.640 -30.112  1.00  0.00     0.016 A 
ATOM      2  C   UNL     1       3.385 -11.869 -30.200  1.00  0.00     0.013 A 
ATOM      3  C   UNL     1       1.846 -13.425 -31.220  1.00  0.00     0.120 A 
ATOM      4  C   UNL     1       4.154 -11.892 -31.365  1.00  0.00     0.021 A 
ATOM      5  N   UNL     1       2.614 -13.429 -32.343  1.00  0.00    -0.264 NA
ATOM      6  C   UNL     1       3.748 -12.687 -32.438  1.00  0.00     0.111 A 
ENDROOT
BRANCH   1   7
ATOM      7  C   UNL     1       1.392 -12.624 -28.883  1.00  0.00     0.073 C 
ATOM      8  O   UNL     1       0.288 -12.016 -28.859  1.00  0.00    -0.545 OA
ATOM      9  O   UNL     1       1.826 -13.280 -27.738  1.00  0.00    -0.545 OA
ENDBRANCH   1   7
TORSDOF 1
ENDMDL
MODEL 2
REMARK VINA RESULT:    -3.328      2.067      2.601
REMARK INTER + INTRA:          -3.540
REMARK INTER:                  -3.516
REMARK INTRA:                  -0.023
REMARK UNBOUND:                -0.016
REMARK SMILES O=C([O-])c1cccnc1
REMARK SMILES IDX 4 1 5 2 9 3 6 4 8 5 7 6 2 7 1 8 3 9
REMARK H PARENT
REMARK Flexibility Score: inf
ROOT
ATOM      1  C   UNL     1       2.981 -12.702 -32.458  1.00  0.00     0.016 A 
ATOM      2  C   UNL     1       4.311 -12.305 -32.249  1.00  0.00     0.013 A 
ATOM      3  C   UNL     1       2.465 -12.652 -33.766  1.00  0.00     0.120 A 
ATOM      4  C   UNL     1       5.091 -11.874 -33.324  1.00  0.00     0.021 A 
ATOM      5  N   UNL     1       3.247 -12.227 -34.795  1.00  0.00    -0.264 NA
ATOM      6  C   UNL     1       4.535 -11.841 -34.604  1.00  0.00     0.111 A 
ENDROOT
BRANCH   1   7
ATOM      7  C   UNL     1       2.144 -13.162 -31.328  1.00  0.00     0.073 C 
ATOM      8  O   UNL     1       1.055 -13.759 -31.539  1.00  0.00    -0.545 OA
ATOM      9  O   UNL     1       2.550 -12.940 -30.018  1.00  0.00    -0.545 OA
ENDBRANCH   1   7
TORSDOF 1
ENDMDL
MODEL 3
REMARK VINA RESULT:    -3.279      3.058      3.877
REMARK INTER + INTRA:          -3.487
REMARK INTER:                  -3.471
REMARK INTRA:                  -0.017
REMARK UNBOUND:                -0.016
REMARK SMILES O=C([O-])c1cccnc1
REMARK SMILES IDX 4 1 5 2 9 3 6 4 8 5 7 6 2 7 1 8 3 9
REMARK H PARENT
REMARK Flexibility Score: inf
ROOT
ATOM      1  C   UNL     1       3.585 -12.263 -31.339  1.00  0.00     0.016 A 
ATOM      2  C   UNL     1       3.576 -11.593 -30.105  1.00  0.00     0.013 A 
ATOM      3  C   UNL     1       2.470 -13.047 -31.683  1.00  0.00     0.120 A 
ATOM      4  C   UNL     1       2.479 -11.713 -29.250  1.00  0.00     0.021 A 
ATOM      5  N   UNL     1       1.413 -13.147 -30.831  1.00  0.00    -0.264 NA
ATOM      6  C   UNL     1       1.395 -12.504 -29.635  1.00  0.00     0.111 A 
ENDROOT
BRANCH   1   7
ATOM      7  C   UNL     1       4.742 -12.143 -32.253  1.00  0.00     0.073 C 
ATOM      8  O   UNL     1       5.497 -13.130 -32.463  1.00  0.00    -0.545 OA
ATOM      9  O   UNL     1       5.011 -10.939 -32.894  1.00  0.00    -0.545 OA
ENDBRANCH   1   7
TORSDOF 1
ENDMDL
MODEL 4
REMARK VINA RESULT:    -3.274      3.852      4.783
REMARK INTER + INTRA:          -3.482
REMARK INTER:                  -3.462
REMARK INTRA:                  -0.020
REMARK UNBOUND:                -0.016
REMARK SMILES O=C([O-])c1cccnc1
REMARK SMILES IDX 4 1 5 2 9 3 6 4 8 5 7 6 2 7 1 8 3 9
REMARK H PARENT
REMARK Flexibility Score: inf
ROOT
ATOM      1  C   UNL     1       3.185 -12.351 -33.518  1.00  0.00     0.016 A 
ATOM      2  C   UNL     1       3.596 -12.910 -32.297  1.00  0.00     0.013 A 
ATOM      3  C   UNL     1       1.807 -12.212 -33.759  1.00  0.00     0.120 A 
ATOM      4  C   UNL     1       2.648 -13.313 -31.355  1.00  0.00     0.021 A 
ATOM      5  N   UNL     1       0.903 -12.612 -32.824  1.00  0.00    -0.264 NA
ATOM      6  C   UNL     1       1.290 -13.154 -31.640  1.00  0.00     0.111 A 
ENDROOT
BRANCH   1   7
ATOM      7  C   UNL     1       4.181 -11.920 -34.523  1.00  0.00     0.073 C 
ATOM      8  O   UNL     1       5.181 -11.234 -34.181  1.00  0.00    -0.545 OA
ATOM      9  O   UNL     1       4.025 -12.267 -35.860  1.00  0.00    -0.545 OA
ENDBRANCH   1   7
TORSDOF 1
ENDMDL
MODEL 5
REMARK VINA RESULT:    -3.265      4.436      5.308
REMARK INTER + INTRA:          -3.473
REMARK INTER:                  -3.454
REMARK INTRA:                  -0.019
REMARK UNBOUND:                -0.016
REMARK SMILES O=C([O-])c1cccnc1
REMARK SMILES IDX 4 1 5 2 9 3 6 4 8 5 7 6 2 7 1 8 3 9
REMARK H PARENT
REMARK Flexibility Score: inf
ROOT
ATOM      1  C   UNL     1       3.632 -12.139 -34.398  1.00  0.00     0.016 A 
ATOM      2  C   UNL     1       4.809 -11.939 -33.658  1.00  0.00     0.013 A 
ATOM      3  C   UNL     1       2.493 -12.616 -33.725  1.00  0.00     0.120 A 
ATOM      4  C   UNL     1       4.832 -12.211 -32.290  1.00  0.00     0.021 A 
ATOM      5  N   UNL     1       2.542 -12.873 -32.390  1.00  0.00    -0.264 NA
ATOM      6  C   UNL     1       3.675 -12.683 -31.666  1.00  0.00     0.111 A 
ENDROOT
BRANCH   1   7
ATOM      7  C   UNL     1       3.595 -11.854 -35.849  1.00  0.00     0.073 C 
ATOM      8  O   UNL     1       3.115 -12.696 -36.654  1.00  0.00    -0.545 OA
ATOM      9  O   UNL     1       4.090 -10.654 -36.343  1.00  0.00    -0.545 OA
ENDBRANCH   1   7
TORSDOF 1
ENDMDL
MODEL 6
REMARK VINA RESULT:    -3.262      3.236      3.964
REMARK INTER + INTRA:          -3.469
REMARK INTER:                  -3.446
REMARK INTRA:                  -0.023
REMARK UNBOUND:                -0.016
REMARK SMILES O=C([O-])c1cccnc1
REMARK SMILES IDX 4 1 5 2 9 3 6 4 8 5 7 6 2 7 1 8 3 9
REMARK H PARENT
REMARK Flexibility Score: inf
ROOT
ATOM      1  C   UNL     1       2.390 -12.463 -32.593  1.00  0.00     0.016 A 
ATOM      2  C   UNL     1       3.485 -11.917 -31.903  1.00  0.00     0.013 A 
ATOM      3  C   UNL     1       1.352 -13.046 -31.846  1.00  0.00     0.120 A 
ATOM      4  C   UNL     1       3.526 -11.960 -30.509  1.00  0.00     0.021 A 
ATOM      5  N   UNL     1       1.417 -13.074 -30.487  1.00  0.00    -0.264 NA
ATOM      6  C   UNL     1       2.471 -12.549 -29.810  1.00  0.00     0.111 A 
ENDROOT
BRANCH   1   7
ATOM      7  C   UNL     1       2.335 -12.423 -34.071  1.00  0.00     0.073 C 
ATOM      8  O   UNL     1       1.238 -12.565 -34.675  1.00  0.00    -0.545 OA
ATOM      9  O   UNL     1       3.493 -12.230 -34.813  1.00  0.00    -0.545 OA
ENDBRANCH   1   7
TORSDOF 1
ENDMDL
MODEL 7
REMARK VINA RESULT:    -3.246      2.430      3.354
REMARK INTER + INTRA:          -3.453
REMARK INTER:                  -3.430
REMARK INTRA:                  -0.023
REMARK UNBOUND:                -0.016
REMARK SMILES O=C([O-])c1cccnc1
REMARK SMILES IDX 4 1 5 2 9 3 6 4 8 5 7 6 2 7 1 8 3 9
REMARK H PARENT
REMARK Flexibility Score: inf
ROOT
ATOM      1  C   UNL     1       3.143 -12.582 -32.733  1.00  0.00     0.016 A 
ATOM      2  C   UNL     1       2.455 -12.629 -33.956  1.00  0.00     0.013 A 
ATOM      3  C   UNL     1       4.482 -12.150 -32.735  1.00  0.00     0.120 A 
ATOM      4  C   UNL     1       3.097 -12.252 -35.137  1.00  0.00     0.021 A 
ATOM      5  N   UNL     1       5.084 -11.789 -33.901  1.00  0.00    -0.264 NA
ATOM      6  C   UNL     1       4.427 -11.830 -35.088  1.00  0.00     0.111 A 
ENDROOT
BRANCH   1   7
ATOM      7  C   UNL     1       2.474 -12.978 -31.475  1.00  0.00     0.073 C 
ATOM      8  O   UNL     1       2.920 -12.589 -30.362  1.00  0.00    -0.545 OA
ATOM      9  O   UNL     1       1.344 -13.786 -31.504  1.00  0.00    -0.545 OA
ENDBRANCH   1   7
TORSDOF 1
ENDMDL
MODEL 8
REMARK VINA RESULT:    -3.230      3.054      4.109
REMARK INTER + INTRA:          -3.435
REMARK INTER:                  -3.417
REMARK INTRA:                  -0.019
REMARK UNBOUND:                -0.016
REMARK SMILES O=C([O-])c1cccnc1
REMARK SMILES IDX 4 1 5 2 9 3 6 4 8 5 7 6 2 7 1 8 3 9
REMARK H PARENT
REMARK Flexibility Score: inf
ROOT
ATOM      1  C   UNL     1       3.364 -12.220 -30.888  1.00  0.00     0.016 A 
ATOM      2  C   UNL     1       2.305 -12.961 -30.339  1.00  0.00     0.013 A 
ATOM      3  C   UNL     1       3.879 -11.141 -30.149  1.00  0.00     0.120 A 
ATOM      4  C   UNL     1       1.787 -12.622 -29.088  1.00  0.00     0.021 A 
ATOM      5  N   UNL     1       3.355 -10.832 -28.932  1.00  0.00    -0.264 NA
ATOM      6  C   UNL     1       2.331 -11.542 -28.392  1.00  0.00     0.111 A 
ENDROOT
BRANCH   1   7
ATOM      7  C   UNL     1       3.922 -12.570 -32.213  1.00  0.00     0.073 C 
ATOM      8  O   UNL     1       5.161 -12.748 -32.359  1.00  0.00    -0.545 OA
ATOM      9  O   UNL     1       3.086 -12.707 -33.314  1.00  0.00    -0.545 OA
ENDBRANCH   1   7
TORSDOF 1
ENDMDL
MODEL 9
REMARK VINA RESULT:    -3.213      2.897      3.566
REMARK INTER + INTRA:          -3.418
REMARK INTER:                  -3.396
REMARK INTRA:                  -0.022
REMARK UNBOUND:                -0.016
REMARK SMILES O=C([O-])c1cccnc1
REMARK SMILES IDX 4 1 5 2 9 3 6 4 8 5 7 6 2 7 1 8 3 9
REMARK H PARENT
REMARK Flexibility Score: inf
ROOT
ATOM      1  C   UNL     1       3.994 -11.416 -30.543  1.00  0.00     0.016 A 
ATOM      2  C   UNL     1       4.200 -12.225 -31.672  1.00  0.00     0.013 A 
ATOM      3  C   UNL     1       2.851 -11.643 -29.756  1.00  0.00     0.120 A 
ATOM      4  C   UNL     1       3.283 -13.228 -31.991  1.00  0.00     0.021 A 
ATOM      5  N   UNL     1       1.973 -12.627 -30.091  1.00  0.00    -0.264 NA
ATOM      6  C   UNL     1       2.163 -13.416 -31.180  1.00  0.00     0.111 A 
ENDROOT
BRANCH   1   7
ATOM      7  C   UNL     1       4.958 -10.350 -30.193  1.00  0.00     0.073 C 
ATOM      8  O   UNL     1       5.130 -10.010 -28.992  1.00  0.00    -0.545 OA
ATOM      9  O   UNL     1       5.688  -9.708 -31.187  1.00  0.00    -0.545 OA
ENDBRANCH   1   7
TORSDOF 1
ENDMDL
