MODEL 1
REMARK VINA RESULT:    -4.108      0.000      0.000
REMARK INTER + INTRA:          -5.630
REMARK INTER:                  -5.308
REMARK INTRA:                  -0.321
REMARK UNBOUND:                -0.321
REMARK SMILES CCCCCCC(=O)[O-]
REMARK SMILES IDX 5 1 6 2 7 3 8 4 9 5 4 6 3 7 2 8 1 9
REMARK H PARENT
REMARK Flexibility Score: inf
ROOT
ATOM      1  C   UNL     1       5.804   1.125  16.133  1.00  0.00     0.006 C 
ENDROOT
BRANCH   1   2
ATOM      2  C   UNL     1       4.666   2.151  16.054  1.00  0.00     0.053 C 
BRANCH   2   3
ATOM      3  C   UNL     1       3.611   1.840  17.069  1.00  0.00     0.041 C 
ATOM      4  O   UNL     1       3.916   1.731  18.286  1.00  0.00    -0.550 OA
ATOM      5  O   UNL     1       2.300   1.619  16.666  1.00  0.00    -0.550 OA
ENDBRANCH   2   3
ENDBRANCH   1   2
BRANCH   1   6
ATOM      6  C   UNL     1       5.446  -0.207  15.455  1.00  0.00     0.000 C 
BRANCH   6   7
ATOM      7  C   UNL     1       5.840  -1.428  16.305  1.00  0.00    -0.000 C 
BRANCH   7   8
ATOM      8  C   UNL     1       5.212  -1.394  17.707  1.00  0.00    -0.003 C 
ATOM      9  C   UNL     1       6.258  -1.351  18.821  1.00  0.00     0.004 C 
ENDBRANCH   7   8
ENDBRANCH   6   7
ENDBRANCH   1   6
TORSDOF 5
ENDMDL
MODEL 2
REMARK VINA RESULT:    -4.019      2.952      4.233
REMARK INTER + INTRA:          -5.515
REMARK INTER:                  -5.161
REMARK INTRA:                  -0.354
REMARK UNBOUND:                -0.321
REMARK SMILES CCCCCCC(=O)[O-]
REMARK SMILES IDX 5 1 6 2 7 3 8 4 9 5 4 6 3 7 2 8 1 9
REMARK H PARENT
REMARK Flexibility Score: inf
ROOT
ATOM      1  C   UNL     1       3.548   0.404  13.570  1.00  0.00     0.006 C 
ENDROOT
BRANCH   1   2
ATOM      2  C   UNL     1       3.144  -0.113  14.957  1.00  0.00     0.053 C 
BRANCH   2   3
ATOM      3  C   UNL     1       1.699   0.176  15.222  1.00  0.00     0.041 C 
ATOM      4  O   UNL     1       1.367   0.899  16.197  1.00  0.00    -0.550 OA
ATOM      5  O   UNL     1       0.718  -0.394  14.421  1.00  0.00    -0.550 OA
ENDBRANCH   2   3
ENDBRANCH   1   2
BRANCH   1   6
ATOM      6  C   UNL     1       4.458   1.640  13.643  1.00  0.00     0.000 C 
BRANCH   6   7
ATOM      7  C   UNL     1       4.785   2.049  15.090  1.00  0.00    -0.000 C 
BRANCH   7   8
ATOM      8  C   UNL     1       4.326   3.480  15.414  1.00  0.00    -0.003 C 
ATOM      9  C   UNL     1       3.093   3.899  14.614  1.00  0.00     0.004 C 
ENDBRANCH   7   8
ENDBRANCH   6   7
ENDBRANCH   1   6
TORSDOF 5
ENDMDL
MODEL 3
REMARK VINA RESULT:    -3.915      1.880      2.351
REMARK INTER + INTRA:          -5.380
REMARK INTER:                  -5.168
REMARK INTRA:                  -0.212
REMARK UNBOUND:                -0.321
REMARK SMILES CCCCCCC(=O)[O-]
REMARK SMILES IDX 5 1 6 2 7 3 8 4 9 5 4 6 3 7 2 8 1 9
REMARK H PARENT
REMARK Flexibility Score: inf
ROOT
ATOM      1  C   UNL     1       4.113   1.459  15.196  1.00  0.00     0.006 C 
ENDROOT
BRANCH   1   2
ATOM      2  C   UNL     1       3.326   0.321  14.532  1.00  0.00     0.053 C 
BRANCH   2   3
ATOM      3  C   UNL     1       1.915   0.303  15.030  1.00  0.00     0.041 C 
ATOM      4  O   UNL     1       1.620   0.863  16.118  1.00  0.00    -0.550 OA
ATOM      5  O   UNL     1       0.934  -0.376  14.316  1.00  0.00    -0.550 OA
ENDBRANCH   2   3
ENDBRANCH   1   2
BRANCH   1   6
ATOM      6  C   UNL     1       5.426   0.976  15.831  1.00  0.00     0.000 C 
BRANCH   6   7
ATOM      7  C   UNL     1       5.245   0.519  17.289  1.00  0.00    -0.000 C 
BRANCH   7   8
ATOM      8  C   UNL     1       5.425  -0.997  17.457  1.00  0.00    -0.003 C 
ATOM      9  C   UNL     1       6.230  -1.363  18.703  1.00  0.00     0.004 C 
ENDBRANCH   7   8
ENDBRANCH   6   7
ENDBRANCH   1   6
TORSDOF 5
ENDMDL
MODEL 4
REMARK VINA RESULT:    -3.912      2.178      3.083
REMARK INTER + INTRA:          -5.377
REMARK INTER:                  -5.080
REMARK INTRA:                  -0.297
REMARK UNBOUND:                -0.321
REMARK SMILES CCCCCCC(=O)[O-]
REMARK SMILES IDX 5 1 6 2 7 3 8 4 9 5 4 6 3 7 2 8 1 9
REMARK H PARENT
REMARK Flexibility Score: inf
ROOT
ATOM      1  C   UNL     1       3.850   1.261  14.587  1.00  0.00     0.006 C 
ENDROOT
BRANCH   1   2
ATOM      2  C   UNL     1       2.875   0.211  14.040  1.00  0.00     0.053 C 
BRANCH   2   3
ATOM      3  C   UNL     1       1.675   0.100  14.928  1.00  0.00     0.041 C 
ATOM      4  O   UNL     1       0.710  -0.639  14.600  1.00  0.00    -0.550 OA
ATOM      5  O   UNL     1       1.602   0.851  16.095  1.00  0.00    -0.550 OA
ENDBRANCH   2   3
ENDBRANCH   1   2
BRANCH   1   6
ATOM      6  C   UNL     1       5.212   0.660  14.968  1.00  0.00     0.000 C 
BRANCH   6   7
ATOM      7  C   UNL     1       5.767   1.238  16.282  1.00  0.00    -0.000 C 
BRANCH   7   8
ATOM      8  C   UNL     1       5.070   0.656  17.521  1.00  0.00    -0.003 C 
ATOM      9  C   UNL     1       4.239   1.695  18.274  1.00  0.00     0.004 C 
ENDBRANCH   7   8
ENDBRANCH   6   7
ENDBRANCH   1   6
TORSDOF 5
ENDMDL
MODEL 5
REMARK VINA RESULT:    -3.807      1.947      3.812
REMARK INTER + INTRA:          -5.241
REMARK INTER:                  -4.879
REMARK INTRA:                  -0.362
REMARK UNBOUND:                -0.321
REMARK SMILES CCCCCCC(=O)[O-]
REMARK SMILES IDX 5 1 6 2 7 3 8 4 9 5 4 6 3 7 2 8 1 9
REMARK H PARENT
REMARK Flexibility Score: inf
ROOT
ATOM      1  C   UNL     1       5.881   0.298  15.029  1.00  0.00     0.006 C 
ENDROOT
BRANCH   1   2
ATOM      2  C   UNL     1       5.803   1.086  16.343  1.00  0.00     0.053 C 
BRANCH   2   3
ATOM      3  C   UNL     1       4.570   0.712  17.104  1.00  0.00     0.041 C 
ATOM      4  O   UNL     1       4.040  -0.417  16.934  1.00  0.00    -0.550 OA
ATOM      5  O   UNL     1       3.977   1.629  17.963  1.00  0.00    -0.550 OA
ENDBRANCH   2   3
ENDBRANCH   1   2
BRANCH   1   6
ATOM      6  C   UNL     1       5.827   1.207  13.791  1.00  0.00     0.000 C 
BRANCH   6   7
ATOM      7  C   UNL     1       4.400   1.687  13.472  1.00  0.00    -0.000 C 
BRANCH   7   8
ATOM      8  C   UNL     1       4.249   3.210  13.606  1.00  0.00    -0.003 C 
ATOM      9  C   UNL     1       3.344   3.613  14.770  1.00  0.00     0.004 C 
ENDBRANCH   7   8
ENDBRANCH   6   7
ENDBRANCH   1   6
TORSDOF 5
ENDMDL
MODEL 6
REMARK VINA RESULT:    -3.796      1.990      4.142
REMARK INTER + INTRA:          -5.227
REMARK INTER:                  -5.076
REMARK INTRA:                  -0.151
REMARK UNBOUND:                -0.321
REMARK SMILES CCCCCCC(=O)[O-]
REMARK SMILES IDX 5 1 6 2 7 3 8 4 9 5 4 6 3 7 2 8 1 9
REMARK H PARENT
REMARK Flexibility Score: inf
ROOT
ATOM      1  C   UNL     1       5.638   0.863  16.714  1.00  0.00     0.006 C 
ENDROOT
BRANCH   1   2
ATOM      2  C   UNL     1       5.442  -0.559  17.256  1.00  0.00     0.053 C 
BRANCH   2   3
ATOM      3  C   UNL     1       5.531  -0.565  18.750  1.00  0.00     0.041 C 
ATOM      4  O   UNL     1       4.718   0.110  19.434  1.00  0.00    -0.550 OA
ATOM      5  O   UNL     1       6.542  -1.276  19.384  1.00  0.00    -0.550 OA
ENDBRANCH   2   3
ENDBRANCH   1   2
BRANCH   1   6
ATOM      6  C   UNL     1       5.833   0.892  15.189  1.00  0.00     0.000 C 
BRANCH   6   7
ATOM      7  C   UNL     1       4.803   1.788  14.479  1.00  0.00    -0.000 C 
BRANCH   7   8
ATOM      8  C   UNL     1       4.362   2.978  15.345  1.00  0.00    -0.003 C 
ATOM      9  C   UNL     1       3.223   3.778  14.714  1.00  0.00     0.004 C 
ENDBRANCH   7   8
ENDBRANCH   6   7
ENDBRANCH   1   6
TORSDOF 5
ENDMDL
MODEL 7
REMARK VINA RESULT:    -3.768      3.140      4.699
REMARK INTER + INTRA:          -5.190
REMARK INTER:                  -4.957
REMARK INTRA:                  -0.234
REMARK UNBOUND:                -0.321
REMARK SMILES CCCCCCC(=O)[O-]
REMARK SMILES IDX 5 1 6 2 7 3 8 4 9 5 4 6 3 7 2 8 1 9
REMARK H PARENT
REMARK Flexibility Score: inf
ROOT
ATOM      1  C   UNL     1       2.849   1.618  16.054  1.00  0.00     0.006 C 
ENDROOT
BRANCH   1   2
ATOM      2  C   UNL     1       2.879   0.199  15.471  1.00  0.00     0.053 C 
BRANCH   2   3
ATOM      3  C   UNL     1       1.511  -0.210  15.024  1.00  0.00     0.041 C 
ATOM      4  O   UNL     1       0.515   0.510  15.294  1.00  0.00    -0.550 OA
ATOM      5  O   UNL     1       1.330  -1.413  14.352  1.00  0.00    -0.550 OA
ENDBRANCH   2   3
ENDBRANCH   1   2
BRANCH   1   6
ATOM      6  C   UNL     1       4.254   2.219  16.220  1.00  0.00     0.000 C 
BRANCH   6   7
ATOM      7  C   UNL     1       4.414   3.561  15.485  1.00  0.00    -0.000 C 
BRANCH   7   8
ATOM      8  C   UNL     1       3.726   3.564  14.111  1.00  0.00    -0.003 C 
ATOM      9  C   UNL     1       4.665   3.148  12.979  1.00  0.00     0.004 C 
ENDBRANCH   7   8
ENDBRANCH   6   7
ENDBRANCH   1   6
TORSDOF 5
ENDMDL
MODEL 8
REMARK VINA RESULT:    -3.725      2.054      3.201
REMARK INTER + INTRA:          -5.135
REMARK INTER:                  -4.706
REMARK INTRA:                  -0.429
REMARK UNBOUND:                -0.321
REMARK SMILES CCCCCCC(=O)[O-]
REMARK SMILES IDX 5 1 6 2 7 3 8 4 9 5 4 6 3 7 2 8 1 9
REMARK H PARENT
REMARK Flexibility Score: inf
ROOT
ATOM      1  C   UNL     1       5.709   0.606  15.136  1.00  0.00     0.006 C 
ENDROOT
BRANCH   1   2
ATOM      2  C   UNL     1       5.815   1.240  16.528  1.00  0.00     0.053 C 
BRANCH   2   3
ATOM      3  C   UNL     1       4.692   0.773  17.401  1.00  0.00     0.041 C 
ATOM      4  O   UNL     1       4.016   1.604  18.062  1.00  0.00    -0.550 OA
ATOM      5  O   UNL     1       4.424  -0.585  17.523  1.00  0.00    -0.550 OA
ENDBRANCH   2   3
ENDBRANCH   1   2
BRANCH   1   6
ATOM      6  C   UNL     1       4.786   1.395  14.195  1.00  0.00     0.000 C 
BRANCH   6   7
ATOM      7  C   UNL     1       3.872   0.482  13.359  1.00  0.00    -0.000 C 
BRANCH   7   8
ATOM      8  C   UNL     1       2.934  -0.367  14.231  1.00  0.00    -0.003 C 
ATOM      9  C   UNL     1       1.913   0.475  14.995  1.00  0.00     0.004 C 
ENDBRANCH   7   8
ENDBRANCH   6   7
ENDBRANCH   1   6
TORSDOF 5
ENDMDL
MODEL 9
REMARK VINA RESULT:    -3.642      1.512      2.189
REMARK INTER + INTRA:          -5.027
REMARK INTER:                  -4.606
REMARK INTRA:                  -0.421
REMARK UNBOUND:                -0.321
REMARK SMILES CCCCCCC(=O)[O-]
REMARK SMILES IDX 5 1 6 2 7 3 8 4 9 5 4 6 3 7 2 8 1 9
REMARK H PARENT
REMARK Flexibility Score: inf
ROOT
ATOM      1  C   UNL     1       4.456   1.972  14.450  1.00  0.00     0.006 C 
ENDROOT
BRANCH   1   2
ATOM      2  C   UNL     1       3.212   2.530  15.154  1.00  0.00     0.053 C 
BRANCH   2   3
ATOM      3  C   UNL     1       2.820   1.648  16.298  1.00  0.00     0.041 C 
ATOM      4  O   UNL     1       3.600   1.493  17.274  1.00  0.00    -0.550 OA
ATOM      5  O   UNL     1       1.616   0.956  16.263  1.00  0.00    -0.550 OA
ENDBRANCH   2   3
ENDBRANCH   1   2
BRANCH   1   6
ATOM      6  C   UNL     1       4.117   0.856  13.450  1.00  0.00     0.000 C 
BRANCH   6   7
ATOM      7  C   UNL     1       4.567  -0.532  13.938  1.00  0.00    -0.000 C 
BRANCH   7   8
ATOM      8  C   UNL     1       5.705  -0.453  14.966  1.00  0.00    -0.003 C 
ATOM      9  C   UNL     1       5.474  -1.363  16.173  1.00  0.00     0.004 C 
ENDBRANCH   7   8
ENDBRANCH   6   7
ENDBRANCH   1   6
TORSDOF 5
ENDMDL
