MODEL 1
REMARK VINA RESULT:     1.172      0.000      0.000
REMARK INTER + INTRA:           1.071
REMARK INTER:                   1.240
REMARK INTRA:                  -0.169
REMARK UNBOUND:                -0.169
REMARK SMILES CC1=CC=C(C(C)C)CC1
REMARK SMILES IDX 1 1 2 2 3 3 4 4 5 5 9 6 10 7 6 8 7 9 8 10
REMARK H PARENT
REMARK Flexibility Score: inf
ROOT
ATOM      1  C   UNL     1       0.398   6.755  -7.052  1.00  0.00     0.039 C 
ATOM      2  C   UNL     1       0.066   6.352  -8.458  1.00  0.00    -0.073 C 
ATOM      3  C   UNL     1      -1.196   6.456  -8.904  1.00  0.00    -0.001 C 
ATOM      4  C   UNL     1      -1.544   6.063 -10.283  1.00  0.00    -0.001 C 
ATOM      5  C   UNL     1      -0.676   5.379 -11.048  1.00  0.00    -0.067 C 
ATOM      6  C   UNL     1       0.631   4.910 -10.436  1.00  0.00     0.035 C 
ATOM      7  C   UNL     1       1.160   5.921  -9.408  1.00  0.00     0.035 C 
ENDROOT
BRANCH   5   8
ATOM      8  C   UNL     1      -1.026   5.042 -12.487  1.00  0.00     0.009 C 
ATOM      9  C   UNL     1      -0.168   5.845 -13.472  1.00  0.00     0.012 C 
ATOM     10  C   UNL     1      -2.519   5.266 -12.750  1.00  0.00     0.012 C 
ENDBRANCH   5   8
TORSDOF 1
ENDMDL
MODEL 2
REMARK VINA RESULT:     1.554      0.313      1.586
REMARK INTER + INTRA:           1.476
REMARK INTER:                   1.620
REMARK INTRA:                  -0.144
REMARK UNBOUND:                -0.169
REMARK SMILES CC1=CC=C(C(C)C)CC1
REMARK SMILES IDX 1 1 2 2 3 3 4 4 5 5 9 6 10 7 6 8 7 9 8 10
REMARK H PARENT
REMARK Flexibility Score: inf
ROOT
ATOM      1  C   UNL     1       0.380   6.897  -7.156  1.00  0.00     0.039 C 
ATOM      2  C   UNL     1      -0.025   6.368  -8.500  1.00  0.00    -0.073 C 
ATOM      3  C   UNL     1       0.912   5.965  -9.371  1.00  0.00    -0.001 C 
ATOM      4  C   UNL     1       0.535   5.444 -10.699  1.00  0.00    -0.001 C 
ATOM      5  C   UNL     1      -0.720   5.574 -11.163  1.00  0.00    -0.067 C 
ATOM      6  C   UNL     1      -1.724   6.372 -10.351  1.00  0.00     0.035 C 
ATOM      7  C   UNL     1      -1.488   6.196  -8.843  1.00  0.00     0.035 C 
ENDROOT
BRANCH   5   8
ATOM      8  C   UNL     1      -1.106   4.973 -12.503  1.00  0.00     0.009 C 
ATOM      9  C   UNL     1      -0.340   5.638 -13.652  1.00  0.00     0.012 C 
ATOM     10  C   UNL     1      -2.620   5.065 -12.724  1.00  0.00     0.012 C 
ENDBRANCH   5   8
TORSDOF 1
ENDMDL
MODEL 3
REMARK VINA RESULT:     2.527      0.935      4.328
REMARK INTER + INTRA:           2.506
REMARK INTER:                   2.650
REMARK INTRA:                  -0.144
REMARK UNBOUND:                -0.169
REMARK SMILES CC1=CC=C(C(C)C)CC1
REMARK SMILES IDX 1 1 2 2 3 3 4 4 5 5 9 6 10 7 6 8 7 9 8 10
REMARK H PARENT
REMARK Flexibility Score: inf
ROOT
ATOM      1  C   UNL     1      -0.972   5.061 -13.312  1.00  0.00     0.039 C 
ATOM      2  C   UNL     1      -0.814   5.388 -11.857  1.00  0.00    -0.073 C 
ATOM      3  C   UNL     1      -1.832   5.942 -11.180  1.00  0.00    -0.001 C 
ATOM      4  C   UNL     1      -1.696   6.274  -9.749  1.00  0.00    -0.001 C 
ATOM      5  C   UNL     1      -0.495   6.253  -9.145  1.00  0.00    -0.067 C 
ATOM      6  C   UNL     1       0.744   5.997  -9.983  1.00  0.00     0.035 C 
ATOM      7  C   UNL     1       0.453   5.010 -11.122  1.00  0.00     0.035 C 
ENDROOT
BRANCH   5   8
ATOM      8  C   UNL     1      -0.383   6.533  -7.656  1.00  0.00     0.009 C 
ATOM      9  C   UNL     1      -0.890   7.939  -7.315  1.00  0.00     0.012 C 
ATOM     10  C   UNL     1       1.057   6.335  -7.172  1.00  0.00     0.012 C 
ENDBRANCH   5   8
TORSDOF 1
ENDMDL
MODEL 4
REMARK VINA RESULT:     3.203      9.567     11.698
REMARK INTER + INTRA:           3.222
REMARK INTER:                   3.380
REMARK INTRA:                  -0.159
REMARK UNBOUND:                -0.169
REMARK SMILES CC1=CC=C(C(C)C)CC1
REMARK SMILES IDX 1 1 2 2 3 3 4 4 5 5 9 6 10 7 6 8 7 9 8 10
REMARK H PARENT
REMARK Flexibility Score: inf
ROOT
ATOM      1  C   UNL     1      13.019   7.868  -9.288  1.00  0.00     0.039 C 
ATOM      2  C   UNL     1      11.799   7.834  -8.416  1.00  0.00    -0.073 C 
ATOM      3  C   UNL     1      10.643   8.352  -8.860  1.00  0.00    -0.001 C 
ATOM      4  C   UNL     1       9.432   8.331  -8.017  1.00  0.00    -0.001 C 
ATOM      5  C   UNL     1       9.503   8.014  -6.712  1.00  0.00    -0.067 C 
ATOM      6  C   UNL     1      10.866   7.790  -6.084  1.00  0.00     0.035 C 
ATOM      7  C   UNL     1      11.837   7.133  -7.076  1.00  0.00     0.035 C 
ENDROOT
BRANCH   5   8
ATOM      8  C   UNL     1       8.238   7.933  -5.876  1.00  0.00     0.009 C 
ATOM      9  C   UNL     1       7.582   6.552  -5.991  1.00  0.00     0.012 C 
ATOM     10  C   UNL     1       7.256   9.043  -6.267  1.00  0.00     0.012 C 
ENDBRANCH   5   8
TORSDOF 1
ENDMDL
MODEL 5
REMARK VINA RESULT:     3.343      1.045      4.532
REMARK INTER + INTRA:           3.369
REMARK INTER:                   3.537
REMARK INTRA:                  -0.168
REMARK UNBOUND:                -0.169
REMARK SMILES CC1=CC=C(C(C)C)CC1
REMARK SMILES IDX 1 1 2 2 3 3 4 4 5 5 9 6 10 7 6 8 7 9 8 10
REMARK H PARENT
REMARK Flexibility Score: inf
ROOT
ATOM      1  C   UNL     1      -0.749   5.273 -13.583  1.00  0.00     0.039 C 
ATOM      2  C   UNL     1      -0.691   5.629 -12.127  1.00  0.00    -0.073 C 
ATOM      3  C   UNL     1       0.486   5.621 -11.481  1.00  0.00    -0.001 C 
ATOM      4  C   UNL     1       0.565   5.965 -10.049  1.00  0.00    -0.001 C 
ATOM      5  C   UNL     1      -0.547   6.065  -9.299  1.00  0.00    -0.067 C 
ATOM      6  C   UNL     1      -1.885   5.702  -9.918  1.00  0.00     0.035 C 
ATOM      7  C   UNL     1      -1.936   6.090 -11.403  1.00  0.00     0.035 C 
ENDROOT
BRANCH   5   8
ATOM      8  C   UNL     1      -0.452   6.485  -7.843  1.00  0.00     0.009 C 
ATOM      9  C   UNL     1      -0.939   7.924  -7.646  1.00  0.00     0.012 C 
ATOM     10  C   UNL     1       0.979   6.312  -7.320  1.00  0.00     0.012 C 
ENDBRANCH   5   8
TORSDOF 1
ENDMDL
MODEL 6
REMARK VINA RESULT:     3.627      0.939      4.169
REMARK INTER + INTRA:           3.670
REMARK INTER:                   3.834
REMARK INTRA:                  -0.164
REMARK UNBOUND:                -0.169
REMARK SMILES CC1=CC=C(C(C)C)CC1
REMARK SMILES IDX 1 1 2 2 3 3 4 4 5 5 9 6 10 7 6 8 7 9 8 10
REMARK H PARENT
REMARK Flexibility Score: inf
ROOT
ATOM      1  C   UNL     1      -3.571   5.568 -13.423  1.00  0.00     0.039 C 
ATOM      2  C   UNL     1      -2.388   5.548 -12.501  1.00  0.00    -0.073 C 
ATOM      3  C   UNL     1      -2.561   5.748 -11.185  1.00  0.00    -0.001 C 
ATOM      4  C   UNL     1      -1.411   5.735 -10.261  1.00  0.00    -0.001 C 
ATOM      5  C   UNL     1      -0.149   5.758 -10.726  1.00  0.00    -0.067 C 
ATOM      6  C   UNL     1       0.080   5.917 -12.218  1.00  0.00     0.035 C 
ATOM      7  C   UNL     1      -1.013   5.208 -13.030  1.00  0.00     0.035 C 
ENDROOT
BRANCH   5   8
ATOM      8  C   UNL     1       1.022   5.676  -9.763  1.00  0.00     0.009 C 
ATOM      9  C   UNL     1       1.563   4.246  -9.665  1.00  0.00     0.012 C 
ATOM     10  C   UNL     1       0.628   6.211  -8.382  1.00  0.00     0.012 C 
ENDBRANCH   5   8
TORSDOF 1
ENDMDL
