MODEL 1
REMARK VINA RESULT:    -3.127      0.000      0.000
REMARK INTER + INTRA:          -3.631
REMARK INTER:                  -4.407
REMARK INTRA:                   0.776
REMARK UNBOUND:                 0.776
REMARK SMILES CC1=CCCC(C)=CCC(C)(C)C=CC1
REMARK SMILES IDX 2 1 3 2 1 3 4 4 5 5 6 6 7 7 8 8 15 10 14 11 13 12 10 13
REMARK SMILES IDX 11 14 12 15 9 16
REMARK H PARENT
REMARK Flexibility Score: 60.00
ROOT
ATOM      1  C   UNL     1     -11.627  82.066 -10.572  1.00  0.00    -0.074 C 
ATOM      2  C   UNL     1     -10.603  82.126  -9.682  1.00  0.00    -0.027 C 
ATOM      3  C   UNL     1     -11.274  81.786 -12.012  1.00  0.00     0.039 C 
ENDROOT
BRANCH   2   4
ATOM      4  C   UNL     1     -10.719  82.355  -8.192  1.00  0.00     0.032 C 
BRANCH   4   5
ATOM      5  C   UNL     1     -10.066  83.671  -7.722  1.00  0.00     0.034 C 
BRANCH   5   6
ATOM      6  C   UNL     1     -10.592  84.923  -8.407  1.00  0.00    -0.077 C 
ATOM      7  C   UNL     1      -9.647  85.744  -9.249  1.00  0.00     0.039 C 
ATOM      8  C   UNL     1     -11.867  85.354  -8.287  1.00  0.00    -0.027 CG0
ATOM      9  G   UNL     1     -12.949  84.652  -7.494  1.00  0.00     0.000 G0
ENDBRANCH   5   6
ENDBRANCH   4   5
ENDBRANCH   2   4
BRANCH   1  10
ATOM     10  C   UNL     1     -13.099  82.210 -10.206  1.00  0.00     0.057 C 
BRANCH  10  11
ATOM     11  C   UNL     1     -13.627  83.569 -10.604  1.00  0.00    -0.026 C 
ATOM     12  C   UNL     1     -14.141  84.529  -9.802  1.00  0.00    -0.024 C 
BRANCH  12  13
ATOM     13  C   UNL     1     -14.311  84.525  -8.274  1.00  0.00    -0.014 C 
ATOM     14  C   UNL     1     -15.066  83.251  -7.837  1.00  0.00     0.016 C 
ATOM     15  C   UNL     1     -15.201  85.735  -7.897  1.00  0.00     0.016 C 
BRANCH  13  16
ATOM     16  C   UNL     1     -12.962  84.653  -7.498  1.00  0.00     0.038 CG0
ATOM     17  G   UNL     1     -11.887  85.355  -8.298  1.00  0.00     0.000 G0
ENDBRANCH  13  16
ENDBRANCH  12  13
ENDBRANCH  10  11
ENDBRANCH   1  10
TORSDOF 0
ENDMDL
MODEL 2
REMARK VINA RESULT:    -2.950      1.091      3.743
REMARK INTER + INTRA:          -3.381
REMARK INTER:                  -4.349
REMARK INTRA:                   0.968
REMARK UNBOUND:                 0.776
REMARK SMILES CC1=CCCC(C)=CCC(C)(C)C=CC1
REMARK SMILES IDX 2 1 3 2 1 3 4 4 5 5 6 6 7 7 8 8 15 10 14 11 13 12 10 13
REMARK SMILES IDX 11 14 12 15 9 16
REMARK H PARENT
REMARK Flexibility Score: 60.00
ROOT
ATOM      1  C   UNL     1     -12.404  82.363 -11.062  1.00  0.00    -0.074 C 
ATOM      2  C   UNL     1     -13.490  83.153 -11.259  1.00  0.00    -0.027 C 
ATOM      3  C   UNL     1     -11.794  81.712 -12.279  1.00  0.00     0.039 C 
ENDROOT
BRANCH   2   4
ATOM      4  C   UNL     1     -14.240  83.932 -10.202  1.00  0.00     0.032 C 
BRANCH   4   5
ATOM      5  C   UNL     1     -13.511  85.216  -9.756  1.00  0.00     0.034 C 
BRANCH   5   6
ATOM      6  C   UNL     1     -13.192  85.283  -8.270  1.00  0.00    -0.077 C 
ATOM      7  C   UNL     1     -14.331  85.373  -7.286  1.00  0.00     0.039 C 
ATOM      8  C   UNL     1     -11.932  85.286  -7.781  1.00  0.00    -0.027 CG0
ATOM      9  G   UNL     1     -10.676  85.192  -8.620  1.00  0.00     0.000 G0
ENDBRANCH   5   6
ENDBRANCH   4   5
ENDBRANCH   2   4
BRANCH   1  10
ATOM     10  C   UNL     1     -11.736  82.135  -9.712  1.00  0.00     0.057 C 
BRANCH  10  11
ATOM     11  C   UNL     1     -10.231  82.193  -9.835  1.00  0.00    -0.026 C 
ATOM     12  C   UNL     1      -9.373  83.010  -9.182  1.00  0.00    -0.024 C 
BRANCH  12  13
ATOM     13  C   UNL     1      -9.677  84.084  -8.124  1.00  0.00    -0.014 C 
ATOM     14  C   UNL     1      -8.359  84.722  -7.635  1.00  0.00     0.016 C 
ATOM     15  C   UNL     1     -10.320  83.376  -6.906  1.00  0.00     0.016 C 
BRANCH  13  16
ATOM     16  C   UNL     1     -10.664  85.187  -8.623  1.00  0.00     0.038 CG0
ATOM     17  G   UNL     1     -11.924  85.270  -7.788  1.00  0.00     0.000 G0
ENDBRANCH  13  16
ENDBRANCH  12  13
ENDBRANCH  10  11
ENDBRANCH   1  10
TORSDOF 0
ENDMDL
MODEL 3
REMARK VINA RESULT:    -2.877      7.815     10.286
REMARK INTER + INTRA:          -3.279
REMARK INTER:                  -4.046
REMARK INTRA:                   0.768
REMARK UNBOUND:                 0.776
REMARK SMILES CC1=CCCC(C)=CCC(C)(C)C=CC1
REMARK SMILES IDX 2 1 3 2 1 3 4 4 5 5 6 6 7 7 8 8 15 10 14 11 13 12 10 13
REMARK SMILES IDX 11 14 12 15 9 16
REMARK H PARENT
REMARK Flexibility Score: 60.00
ROOT
ATOM      1  C   UNL     1      -4.950  90.719 -14.768  1.00  0.00    -0.074 C 
ATOM      2  C   UNL     1      -4.278  91.709 -14.126  1.00  0.00    -0.027 C 
ATOM      3  C   UNL     1      -4.967  90.762 -16.276  1.00  0.00     0.039 C 
ENDROOT
BRANCH   2   4
ATOM      4  C   UNL     1      -4.095  91.849 -12.632  1.00  0.00     0.032 C 
BRANCH   4   5
ATOM      5  C   UNL     1      -4.859  93.047 -12.031  1.00  0.00     0.034 C 
BRANCH   5   6
ATOM      6  C   UNL     1      -6.320  93.142 -12.444  1.00  0.00    -0.077 C 
ATOM      7  C   UNL     1      -6.752  94.285 -13.328  1.00  0.00     0.039 C 
ATOM      8  C   UNL     1      -7.262  92.261 -12.044  1.00  0.00    -0.027 CG0
ATOM      9  G   UNL     1      -7.005  91.053 -11.168  1.00  0.00     0.000 G0
ENDBRANCH   5   6
ENDBRANCH   4   5
ENDBRANCH   2   4
BRANCH   1  10
ATOM     10  C   UNL     1      -5.637  89.550 -14.073  1.00  0.00     0.057 C 
BRANCH  10  11
ATOM     11  C   UNL     1      -7.140  89.666 -14.174  1.00  0.00    -0.026 C 
ATOM     12  C   UNL     1      -8.039  89.748 -13.167  1.00  0.00    -0.024 C 
BRANCH  12  13
ATOM     13  C   UNL     1      -7.791  89.771 -11.650  1.00  0.00    -0.014 C 
ATOM     14  C   UNL     1      -7.034  88.495 -11.225  1.00  0.00     0.016 C 
ATOM     15  C   UNL     1      -9.171  89.738 -10.948  1.00  0.00     0.016 C 
BRANCH  13  16
ATOM     16  C   UNL     1      -7.029  91.044 -11.163  1.00  0.00     0.038 CG0
ATOM     17  G   UNL     1      -7.258  92.245 -12.057  1.00  0.00     0.000 G0
ENDBRANCH  13  16
ENDBRANCH  12  13
ENDBRANCH  10  11
ENDBRANCH   1  10
TORSDOF 0
ENDMDL
MODEL 4
REMARK VINA RESULT:    -2.828     10.742     13.275
REMARK INTER + INTRA:          -3.208
REMARK INTER:                  -4.051
REMARK INTRA:                   0.843
REMARK UNBOUND:                 0.776
REMARK SMILES CC1=CCCC(C)=CCC(C)(C)C=CC1
REMARK SMILES IDX 2 1 3 2 1 3 4 4 5 5 6 6 7 7 8 8 15 10 14 11 13 12 10 13
REMARK SMILES IDX 11 14 12 15 9 16
REMARK H PARENT
REMARK Flexibility Score: 60.00
ROOT
ATOM      1  C   UNL     1      -3.578  92.225 -17.530  1.00  0.00    -0.074 C 
ATOM      2  C   UNL     1      -4.561  92.705 -18.333  1.00  0.00    -0.027 C 
ATOM      3  C   UNL     1      -2.218  92.868 -17.643  1.00  0.00     0.039 C 
ENDROOT
BRANCH   2   4
ATOM      4  C   UNL     1      -6.001  92.244 -18.366  1.00  0.00     0.032 C 
BRANCH   4   5
ATOM      5  C   UNL     1      -6.995  93.305 -17.849  1.00  0.00     0.034 C 
BRANCH   5   6
ATOM      6  C   UNL     1      -6.593  93.971 -16.542  1.00  0.00    -0.077 C 
ATOM      7  C   UNL     1      -6.096  95.395 -16.574  1.00  0.00     0.039 C 
ATOM      8  C   UNL     1      -6.638  93.344 -15.346  1.00  0.00    -0.027 CG0
ATOM      9  G   UNL     1      -7.118  91.926 -15.127  1.00  0.00     0.000 G0
ENDBRANCH   5   6
ENDBRANCH   4   5
ENDBRANCH   2   4
BRANCH   1  10
ATOM     10  C   UNL     1      -3.770  91.125 -16.493  1.00  0.00     0.057 C 
BRANCH  10  11
ATOM     11  C   UNL     1      -3.741  91.688 -15.092  1.00  0.00    -0.026 C 
ATOM     12  C   UNL     1      -4.727  91.670 -14.167  1.00  0.00    -0.024 C 
BRANCH  12  13
ATOM     13  C   UNL     1      -6.135  91.059 -14.265  1.00  0.00    -0.014 C 
ATOM     14  C   UNL     1      -6.699  90.815 -12.849  1.00  0.00     0.016 C 
ATOM     15  C   UNL     1      -6.000  89.675 -14.947  1.00  0.00     0.016 C 
BRANCH  13  16
ATOM     16  C   UNL     1      -7.129  91.921 -15.107  1.00  0.00     0.038 CG0
ATOM     17  G   UNL     1      -6.634  93.332 -15.340  1.00  0.00     0.000 G0
ENDBRANCH  13  16
ENDBRANCH  12  13
ENDBRANCH  10  11
ENDBRANCH   1  10
TORSDOF 0
ENDMDL
MODEL 5
REMARK VINA RESULT:    -2.726      4.515      7.197
REMARK INTER + INTRA:          -3.065
REMARK INTER:                  -3.813
REMARK INTRA:                   0.748
REMARK UNBOUND:                 0.776
REMARK SMILES CC1=CCCC(C)=CCC(C)(C)C=CC1
REMARK SMILES IDX 2 1 3 2 1 3 4 4 5 5 6 6 7 7 8 8 15 10 14 11 13 12 10 13
REMARK SMILES IDX 11 14 12 15 9 16
REMARK H PARENT
REMARK Flexibility Score: 60.00
ROOT
ATOM      1  C   UNL     1      -5.926  83.984  -9.711  1.00  0.00    -0.074 C 
ATOM      2  C   UNL     1      -7.151  83.628  -9.246  1.00  0.00    -0.027 C 
ATOM      3  C   UNL     1      -4.894  82.892  -9.843  1.00  0.00     0.039 C 
ENDROOT
BRANCH   2   4
ATOM      4  C   UNL     1      -8.345  84.538  -9.067  1.00  0.00     0.032 C 
BRANCH   4   5
ATOM      5  C   UNL     1      -8.471  85.110  -7.640  1.00  0.00     0.034 C 
BRANCH   5   6
ATOM      6  C   UNL     1      -8.646  86.620  -7.574  1.00  0.00    -0.077 C 
ATOM      7  C   UNL     1     -10.019  87.203  -7.798  1.00  0.00     0.039 C 
ATOM      8  C   UNL     1      -7.626  87.475  -7.342  1.00  0.00    -0.027 CG0
ATOM      9  G   UNL     1      -6.191  87.065  -7.086  1.00  0.00     0.000 G0
ENDBRANCH   5   6
ENDBRANCH   4   5
ENDBRANCH   2   4
BRANCH   1  10
ATOM     10  C   UNL     1      -5.547  85.391 -10.155  1.00  0.00     0.057 C 
BRANCH  10  11
ATOM     11  C   UNL     1      -4.267  85.843  -9.491  1.00  0.00    -0.026 C 
ATOM     12  C   UNL     1      -4.100  86.851  -8.605  1.00  0.00    -0.024 C 
BRANCH  12  13
ATOM     13  C   UNL     1      -5.153  87.799  -8.009  1.00  0.00    -0.014 C 
ATOM     14  C   UNL     1      -5.880  88.553  -9.143  1.00  0.00     0.016 C 
ATOM     15  C   UNL     1      -4.406  88.860  -7.162  1.00  0.00     0.016 C 
BRANCH  13  16
ATOM     16  C   UNL     1      -6.186  87.079  -7.084  1.00  0.00     0.038 CG0
ATOM     17  G   UNL     1      -7.615  87.488  -7.368  1.00  0.00     0.000 G0
ENDBRANCH  13  16
ENDBRANCH  12  13
ENDBRANCH  10  11
ENDBRANCH   1  10
TORSDOF 0
ENDMDL
MODEL 6
REMARK VINA RESULT:    -2.719      9.407     12.144
REMARK INTER + INTRA:          -3.055
REMARK INTER:                  -4.079
REMARK INTRA:                   1.024
REMARK UNBOUND:                 0.776
REMARK SMILES CC1=CCCC(C)=CCC(C)(C)C=CC1
REMARK SMILES IDX 2 1 3 2 1 3 4 4 5 5 6 6 7 7 8 8 15 10 14 11 13 12 10 13
REMARK SMILES IDX 11 14 12 15 9 16
REMARK H PARENT
REMARK Flexibility Score: 60.00
ROOT
ATOM      1  C   UNL     1      -3.707  91.767 -16.148  1.00  0.00    -0.074 C 
ATOM      2  C   UNL     1      -4.587  90.748 -16.320  1.00  0.00    -0.027 C 
ATOM      3  C   UNL     1      -2.694  91.995 -17.243  1.00  0.00     0.039 C 
ENDROOT
BRANCH   2   4
ATOM      4  C   UNL     1      -5.707  90.359 -15.380  1.00  0.00     0.032 C 
BRANCH   4   5
ATOM      5  C   UNL     1      -5.208  89.824 -14.022  1.00  0.00     0.034 C 
BRANCH   5   6
ATOM      6  C   UNL     1      -6.148  90.081 -12.853  1.00  0.00    -0.077 C 
ATOM      7  C   UNL     1      -7.327  89.162 -12.654  1.00  0.00     0.039 C 
ATOM      8  C   UNL     1      -5.993  91.108 -11.989  1.00  0.00    -0.027 CG0
ATOM      9  G   UNL     1      -4.865  92.116 -12.034  1.00  0.00     0.000 G0
ENDBRANCH   5   6
ENDBRANCH   4   5
ENDBRANCH   2   4
BRANCH   1  10
ATOM     10  C   UNL     1      -3.708  92.719 -14.959  1.00  0.00     0.057 C 
BRANCH  10  11
ATOM     11  C   UNL     1      -5.000  93.499 -14.890  1.00  0.00    -0.026 C 
ATOM     12  C   UNL     1      -5.701  93.853 -13.789  1.00  0.00    -0.024 C 
BRANCH  12  13
ATOM     13  C   UNL     1      -5.378  93.585 -12.309  1.00  0.00    -0.014 C 
ATOM     14  C   UNL     1      -6.612  93.907 -11.439  1.00  0.00     0.016 C 
ATOM     15  C   UNL     1      -4.255  94.565 -11.888  1.00  0.00     0.016 C 
BRANCH  13  16
ATOM     16  C   UNL     1      -4.882  92.130 -12.034  1.00  0.00     0.038 CG0
ATOM     17  G   UNL     1      -6.011  91.123 -11.987  1.00  0.00     0.000 G0
ENDBRANCH  13  16
ENDBRANCH  12  13
ENDBRANCH  10  11
ENDBRANCH   1  10
TORSDOF 0
ENDMDL
MODEL 7
REMARK VINA RESULT:    -2.704      8.652     11.386
REMARK INTER + INTRA:          -3.034
REMARK INTER:                  -3.846
REMARK INTRA:                   0.812
REMARK UNBOUND:                 0.776
REMARK SMILES CC1=CCCC(C)=CCC(C)(C)C=CC1
REMARK SMILES IDX 2 1 3 2 1 3 4 4 5 5 6 6 7 7 8 8 15 10 14 11 13 12 10 13
REMARK SMILES IDX 11 14 12 15 9 16
REMARK H PARENT
REMARK Flexibility Score: 60.00
ROOT
ATOM      1  C   UNL     1      -4.193  92.523 -12.750  1.00  0.00    -0.074 C 
ATOM      2  C   UNL     1      -3.855  92.354 -14.053  1.00  0.00    -0.027 C 
ATOM      3  C   UNL     1      -3.773  93.813 -12.089  1.00  0.00     0.039 C 
ENDROOT
BRANCH   2   4
ATOM      4  C   UNL     1      -4.200  91.168 -14.926  1.00  0.00     0.032 C 
BRANCH   4   5
ATOM      5  C   UNL     1      -5.183  91.510 -16.064  1.00  0.00     0.034 C 
BRANCH   5   6
ATOM      6  C   UNL     1      -6.399  92.317 -15.633  1.00  0.00    -0.077 C 
ATOM      7  C   UNL     1      -6.551  93.729 -16.141  1.00  0.00     0.039 C 
ATOM      8  C   UNL     1      -7.348  91.840 -14.798  1.00  0.00    -0.027 CG0
ATOM      9  G   UNL     1      -7.360  90.448 -14.204  1.00  0.00     0.000 G0
ENDBRANCH   5   6
ENDBRANCH   4   5
ENDBRANCH   2   4
BRANCH   1  10
ATOM     10  C   UNL     1      -5.006  91.527 -11.932  1.00  0.00     0.057 C 
BRANCH  10  11
ATOM     11  C   UNL     1      -6.353  92.101 -11.561  1.00  0.00    -0.026 C 
ATOM     12  C   UNL     1      -7.578  91.643 -11.906  1.00  0.00    -0.024 C 
BRANCH  12  13
ATOM     13  C   UNL     1      -7.947  90.408 -12.745  1.00  0.00    -0.014 C 
ATOM     14  C   UNL     1      -9.481  90.235 -12.774  1.00  0.00     0.016 C 
ATOM     15  C   UNL     1      -7.361  89.163 -12.033  1.00  0.00     0.016 C 
BRANCH  13  16
ATOM     16  C   UNL     1      -7.376  90.450 -14.198  1.00  0.00     0.038 CG0
ATOM     17  G   UNL     1      -7.359  91.845 -14.784  1.00  0.00     0.000 G0
ENDBRANCH  13  16
ENDBRANCH  12  13
ENDBRANCH  10  11
ENDBRANCH   1  10
TORSDOF 0
ENDMDL
MODEL 8
REMARK VINA RESULT:    -2.645      9.437     11.785
REMARK INTER + INTRA:          -2.950
REMARK INTER:                  -3.855
REMARK INTRA:                   0.905
REMARK UNBOUND:                 0.776
REMARK SMILES CC1=CCCC(C)=CCC(C)(C)C=CC1
REMARK SMILES IDX 2 1 3 2 1 3 4 4 5 5 6 6 7 7 8 8 15 10 14 11 13 12 10 13
REMARK SMILES IDX 11 14 12 15 9 16
REMARK H PARENT
REMARK Flexibility Score: 60.00
ROOT
ATOM      1  C   UNL     1      -4.052  94.640 -10.568  1.00  0.00    -0.074 C 
ATOM      2  C   UNL     1      -3.750  94.339  -9.280  1.00  0.00    -0.027 C 
ATOM      3  C   UNL     1      -2.983  95.318 -11.388  1.00  0.00     0.039 C 
ENDROOT
BRANCH   2   4
ATOM      4  C   UNL     1      -4.645  93.630  -8.288  1.00  0.00     0.032 C 
BRANCH   4   5
ATOM      5  C   UNL     1      -4.361  92.117  -8.180  1.00  0.00     0.034 C 
BRANCH   5   6
ATOM      6  C   UNL     1      -5.537  91.222  -8.541  1.00  0.00    -0.077 C 
ATOM      7  C   UNL     1      -6.520  90.843  -7.461  1.00  0.00     0.039 C 
ATOM      8  C   UNL     1      -5.740  90.729  -9.782  1.00  0.00    -0.027 CG0
ATOM      9  G   UNL     1      -4.864  91.014 -10.983  1.00  0.00     0.000 G0
ENDBRANCH   5   6
ENDBRANCH   4   5
ENDBRANCH   2   4
BRANCH   1  10
ATOM     10  C   UNL     1      -5.370  94.293 -11.250  1.00  0.00     0.057 C 
BRANCH  10  11
ATOM     11  C   UNL     1      -5.136  93.760 -12.644  1.00  0.00    -0.026 C 
ATOM     12  C   UNL     1      -5.264  92.486 -13.080  1.00  0.00    -0.024 C 
BRANCH  12  13
ATOM     13  C   UNL     1      -5.700  91.236 -12.300  1.00  0.00    -0.014 C 
ATOM     14  C   UNL     1      -5.629  89.996 -13.217  1.00  0.00     0.016 C 
ATOM     15  C   UNL     1      -7.185  91.424 -11.902  1.00  0.00     0.016 C 
BRANCH  13  16
ATOM     16  C   UNL     1      -4.874  90.997 -10.996  1.00  0.00     0.038 CG0
ATOM     17  G   UNL     1      -5.745  90.744  -9.785  1.00  0.00     0.000 G0
ENDBRANCH  13  16
ENDBRANCH  12  13
ENDBRANCH  10  11
ENDBRANCH   1  10
TORSDOF 0
ENDMDL
MODEL 9
REMARK VINA RESULT:    -2.545      8.104     11.333
REMARK INTER + INTRA:          -2.811
REMARK INTER:                  -3.864
REMARK INTRA:                   1.053
REMARK UNBOUND:                 0.776
REMARK SMILES CC1=CCCC(C)=CCC(C)(C)C=CC1
REMARK SMILES IDX 2 1 3 2 1 3 4 4 5 5 6 6 7 7 8 8 15 10 14 11 13 12 10 13
REMARK SMILES IDX 11 14 12 15 9 16
REMARK H PARENT
REMARK Flexibility Score: 60.00
ROOT
ATOM      1  C   UNL     1      -4.672  93.501 -10.103  1.00  0.00    -0.074 C 
ATOM      2  C   UNL     1      -4.500  92.390  -9.342  1.00  0.00    -0.027 C 
ATOM      3  C   UNL     1      -4.327  94.828  -9.474  1.00  0.00     0.039 C 
ENDROOT
BRANCH   2   4
ATOM      4  C   UNL     1      -4.743  90.960  -9.771  1.00  0.00     0.032 C 
BRANCH   4   5
ATOM      5  C   UNL     1      -6.235  90.627  -9.976  1.00  0.00     0.034 C 
BRANCH   5   6
ATOM      6  C   UNL     1      -6.510  89.557 -11.023  1.00  0.00    -0.077 C 
ATOM      7  C   UNL     1      -6.466  88.107 -10.608  1.00  0.00     0.039 C 
ATOM      8  C   UNL     1      -6.773  89.836 -12.318  1.00  0.00    -0.027 CG0
ATOM      9  G   UNL     1      -6.866  91.229 -12.903  1.00  0.00     0.000 G0
ENDBRANCH   5   6
ENDBRANCH   4   5
ENDBRANCH   2   4
BRANCH   1  10
ATOM     10  C   UNL     1      -5.137  93.491 -11.554  1.00  0.00     0.057 C 
BRANCH  10  11
ATOM     11  C   UNL     1      -4.159  92.747 -12.432  1.00  0.00    -0.026 C 
ATOM     12  C   UNL     1      -4.431  91.904 -13.453  1.00  0.00    -0.024 C 
BRANCH  12  13
ATOM     13  C   UNL     1      -5.797  91.483 -14.022  1.00  0.00    -0.014 C 
ATOM     14  C   UNL     1      -5.628  90.239 -14.920  1.00  0.00     0.016 C 
ATOM     15  C   UNL     1      -6.304  92.633 -14.927  1.00  0.00     0.016 C 
BRANCH  13  16
ATOM     16  C   UNL     1      -6.874  91.219 -12.922  1.00  0.00     0.038 CG0
ATOM     17  G   UNL     1      -6.775  89.833 -12.322  1.00  0.00     0.000 G0
ENDBRANCH  13  16
ENDBRANCH  12  13
ENDBRANCH  10  11
ENDBRANCH   1  10
TORSDOF 0
ENDMDL
