MODEL 1
REMARK VINA RESULT:    -4.769      0.000      0.000
REMARK INTER + INTRA:          -7.602
REMARK INTER:                  -6.442
REMARK INTRA:                  -1.161
REMARK UNBOUND:                -1.161
REMARK SMILES CC(=O)CCC=C(C)CCC=C(C)C
REMARK SMILES IDX 7 1 6 2 8 3 9 4 10 5 11 6 13 7 12 8 14 9 5 10 4 11 2 12 3 13
REMARK SMILES IDX 1 14
REMARK H PARENT
REMARK Flexibility Score: inf
ROOT
ATOM      1  C   UNL     1     102.916 115.555 125.161  1.00  0.00    -0.077 C 
ATOM      2  C   UNL     1     102.442 114.327 125.471  1.00  0.00    -0.028 C 
ATOM      3  C   UNL     1     103.609 115.822 123.846  1.00  0.00     0.039 C 
ENDROOT
BRANCH   1   4
ATOM      4  C   UNL     1     102.749 116.687 126.153  1.00  0.00     0.034 C 
BRANCH   4   5
ATOM      5  C   UNL     1     101.298 117.180 126.222  1.00  0.00     0.032 C 
BRANCH   5   6
ATOM      6  C   UNL     1     101.035 118.288 125.228  1.00  0.00    -0.028 C 
ATOM      7  C   UNL     1     100.339 119.308 123.105  1.00  0.00     0.039 C 
ATOM      8  C   UNL     1     100.491 118.109 124.005  1.00  0.00    -0.080 C 
ATOM      9  C   UNL     1     100.019 116.755 123.529  1.00  0.00     0.039 C 
ENDBRANCH   5   6
ENDBRANCH   4   5
ENDBRANCH   1   4
BRANCH   2  10
ATOM     10  C   UNL     1     102.570 113.138 124.550  1.00  0.00     0.035 C 
BRANCH  10  11
ATOM     11  C   UNL     1     101.269 112.892 123.779  1.00  0.00     0.079 C 
BRANCH  11  12
ATOM     12  C   UNL     1     101.555 112.614 122.326  1.00  0.00     0.130 C 
ATOM     13  O   UNL     1     101.639 111.458 121.941  1.00  0.00    -0.300 OA
ATOM     14  C   UNL     1     101.728 113.728 121.336  1.00  0.00     0.087 C 
ENDBRANCH  11  12
ENDBRANCH  10  11
ENDBRANCH   2  10
TORSDOF 6
ENDMDL
MODEL 2
REMARK VINA RESULT:    -4.759      2.145      3.777
REMARK INTER + INTRA:          -7.589
REMARK INTER:                  -6.782
REMARK INTRA:                  -0.807
REMARK UNBOUND:                -1.161
REMARK SMILES CC(=O)CCC=C(C)CCC=C(C)C
REMARK SMILES IDX 7 1 6 2 8 3 9 4 10 5 11 6 13 7 12 8 14 9 5 10 4 11 2 12 3 13
REMARK SMILES IDX 1 14
REMARK H PARENT
REMARK Flexibility Score: inf
ROOT
ATOM      1  C   UNL     1     100.690 118.065 125.057  1.00  0.00    -0.077 C 
ATOM      2  C   UNL     1     101.543 117.066 124.738  1.00  0.00    -0.028 C 
ATOM      3  C   UNL     1     100.530 118.537 126.483  1.00  0.00     0.039 C 
ENDROOT
BRANCH   1   4
ATOM      4  C   UNL     1      99.877 118.724 123.963  1.00  0.00     0.034 C 
BRANCH   4   5
ATOM      5  C   UNL     1     100.632 118.756 122.627  1.00  0.00     0.032 C 
BRANCH   5   6
ATOM      6  C   UNL     1      99.809 118.166 121.505  1.00  0.00    -0.028 C 
ATOM      7  C   UNL     1      99.211 116.582 119.726  1.00  0.00     0.039 C 
ATOM      8  C   UNL     1     100.101 117.015 120.862  1.00  0.00    -0.080 C 
ATOM      9  C   UNL     1     101.274 116.150 121.261  1.00  0.00     0.039 C 
ENDBRANCH   5   6
ENDBRANCH   4   5
ENDBRANCH   1   4
BRANCH   2  10
ATOM     10  C   UNL     1     102.388 116.345 125.761  1.00  0.00     0.035 C 
BRANCH  10  11
ATOM     11  C   UNL     1     103.218 115.233 125.112  1.00  0.00     0.079 C 
BRANCH  11  12
ATOM     12  C   UNL     1     102.592 113.886 125.361  1.00  0.00     0.130 C 
ATOM     13  O   UNL     1     102.774 113.328 126.432  1.00  0.00    -0.300 OA
ATOM     14  C   UNL     1     101.738 113.217 124.325  1.00  0.00     0.087 C 
ENDBRANCH  11  12
ENDBRANCH  10  11
ENDBRANCH   2  10
TORSDOF 6
ENDMDL
MODEL 3
REMARK VINA RESULT:    -4.687      1.471      2.706
REMARK INTER + INTRA:          -7.492
REMARK INTER:                  -6.537
REMARK INTRA:                  -0.955
REMARK UNBOUND:                -1.161
REMARK SMILES CC(=O)CCC=C(C)CCC=C(C)C
REMARK SMILES IDX 7 1 6 2 8 3 9 4 10 5 11 6 13 7 12 8 14 9 5 10 4 11 2 12 3 13
REMARK SMILES IDX 1 14
REMARK H PARENT
REMARK Flexibility Score: inf
ROOT
ATOM      1  C   UNL     1     102.448 113.156 124.604  1.00  0.00    -0.077 C 
ATOM      2  C   UNL     1     101.525 113.420 123.653  1.00  0.00    -0.028 C 
ATOM      3  C   UNL     1     103.397 111.988 124.477  1.00  0.00     0.039 C 
ENDROOT
BRANCH   1   4
ATOM      4  C   UNL     1     102.533 114.049 125.825  1.00  0.00     0.034 C 
BRANCH   4   5
ATOM      5  C   UNL     1     103.086 115.438 125.481  1.00  0.00     0.032 C 
BRANCH   5   6
ATOM      6  C   UNL     1     102.314 116.536 126.176  1.00  0.00    -0.028 C 
ATOM      7  C   UNL     1     100.714 118.386 126.402  1.00  0.00     0.039 C 
ATOM      8  C   UNL     1     101.361 117.293 125.591  1.00  0.00    -0.080 C 
ATOM      9  C   UNL     1     100.917 117.062 124.166  1.00  0.00     0.039 C 
ENDBRANCH   5   6
ENDBRANCH   4   5
ENDBRANCH   1   4
BRANCH   2  10
ATOM     10  C   UNL     1     101.362 112.581 122.408  1.00  0.00     0.035 C 
BRANCH  10  11
ATOM     11  C   UNL     1     102.221 113.119 121.260  1.00  0.00     0.079 C 
BRANCH  11  12
ATOM     12  C   UNL     1     102.028 114.604 121.099  1.00  0.00     0.130 C 
ATOM     13  O   UNL     1     100.971 115.029 120.660  1.00  0.00    -0.300 OA
ATOM     14  C   UNL     1     103.105 115.578 121.479  1.00  0.00     0.087 C 
ENDBRANCH  11  12
ENDBRANCH  10  11
ENDBRANCH   2  10
TORSDOF 6
ENDMDL
MODEL 4
REMARK VINA RESULT:    -4.637      2.230      3.184
REMARK INTER + INTRA:          -7.424
REMARK INTER:                  -6.766
REMARK INTRA:                  -0.658
REMARK UNBOUND:                -1.161
REMARK SMILES CC(=O)CCC=C(C)CCC=C(C)C
REMARK SMILES IDX 7 1 6 2 8 3 9 4 10 5 11 6 13 7 12 8 14 9 5 10 4 11 2 12 3 13
REMARK SMILES IDX 1 14
REMARK H PARENT
REMARK Flexibility Score: inf
ROOT
ATOM      1  C   UNL     1     102.397 113.051 124.627  1.00  0.00    -0.077 C 
ATOM      2  C   UNL     1     103.370 112.203 124.223  1.00  0.00    -0.028 C 
ATOM      3  C   UNL     1     101.095 113.170 123.873  1.00  0.00     0.039 C 
ENDROOT
BRANCH   1   4
ATOM      4  C   UNL     1     102.618 113.900 125.862  1.00  0.00     0.034 C 
BRANCH   4   5
ATOM      5  C   UNL     1     103.199 115.277 125.514  1.00  0.00     0.032 C 
BRANCH   5   6
ATOM      6  C   UNL     1     102.439 116.393 126.194  1.00  0.00    -0.028 C 
ATOM      7  C   UNL     1     100.885 118.286 126.385  1.00  0.00     0.039 C 
ATOM      8  C   UNL     1     101.524 117.179 125.586  1.00  0.00    -0.080 C 
ATOM      9  C   UNL     1     101.115 116.968 124.147  1.00  0.00     0.039 C 
ENDBRANCH   5   6
ENDBRANCH   4   5
ENDBRANCH   1   4
BRANCH   2  10
ATOM     10  C   UNL     1     103.243 111.325 123.002  1.00  0.00     0.035 C 
BRANCH  10  11
ATOM     11  C   UNL     1     103.792 109.921 123.268  1.00  0.00     0.079 C 
BRANCH  11  12
ATOM     12  C   UNL     1     102.989 108.884 122.527  1.00  0.00     0.130 C 
ATOM     13  O   UNL     1     102.997 107.727 122.916  1.00  0.00    -0.300 OA
ATOM     14  C   UNL     1     102.168 109.245 121.324  1.00  0.00     0.087 C 
ENDBRANCH  11  12
ENDBRANCH  10  11
ENDBRANCH   2  10
TORSDOF 6
ENDMDL
MODEL 5
REMARK VINA RESULT:    -4.620      2.285      4.855
REMARK INTER + INTRA:          -7.401
REMARK INTER:                  -6.543
REMARK INTRA:                  -0.857
REMARK UNBOUND:                -1.161
REMARK SMILES CC(=O)CCC=C(C)CCC=C(C)C
REMARK SMILES IDX 7 1 6 2 8 3 9 4 10 5 11 6 13 7 12 8 14 9 5 10 4 11 2 12 3 13
REMARK SMILES IDX 1 14
REMARK H PARENT
REMARK Flexibility Score: inf
ROOT
ATOM      1  C   UNL     1     101.294 117.487 125.766  1.00  0.00    -0.077 C 
ATOM      2  C   UNL     1     101.116 117.660 124.438  1.00  0.00    -0.028 C 
ATOM      3  C   UNL     1     100.427 118.200 126.775  1.00  0.00     0.039 C 
ENDROOT
BRANCH   1   4
ATOM      4  C   UNL     1     102.388 116.560 126.254  1.00  0.00     0.034 C 
BRANCH   4   5
ATOM      5  C   UNL     1     103.081 115.831 125.095  1.00  0.00     0.032 C 
BRANCH   5   6
ATOM      6  C   UNL     1     102.451 114.484 124.824  1.00  0.00    -0.028 C 
ATOM      7  C   UNL     1     101.315 112.735 123.527  1.00  0.00     0.039 C 
ATOM      8  C   UNL     1     101.962 114.092 123.628  1.00  0.00    -0.080 C 
ATOM      9  C   UNL     1     102.062 114.963 122.397  1.00  0.00     0.039 C 
ENDBRANCH   5   6
ENDBRANCH   4   5
ENDBRANCH   1   4
BRANCH   2  10
ATOM     10  C   UNL     1     100.058 118.568 123.859  1.00  0.00     0.035 C 
BRANCH  10  11
ATOM     11  C   UNL     1     100.637 119.465 122.761  1.00  0.00     0.079 C 
BRANCH  11  12
ATOM     12  C   UNL     1     101.056 118.645 121.569  1.00  0.00     0.130 C 
ATOM     13  O   UNL     1     102.222 118.668 121.204  1.00  0.00    -0.300 OA
ATOM     14  C   UNL     1     100.075 117.790 120.824  1.00  0.00     0.087 C 
ENDBRANCH  11  12
ENDBRANCH  10  11
ENDBRANCH   2  10
TORSDOF 6
ENDMDL
MODEL 6
REMARK VINA RESULT:    -4.599      1.405      2.654
REMARK INTER + INTRA:          -7.372
REMARK INTER:                  -6.643
REMARK INTRA:                  -0.730
REMARK UNBOUND:                -1.161
REMARK SMILES CC(=O)CCC=C(C)CCC=C(C)C
REMARK SMILES IDX 7 1 6 2 8 3 9 4 10 5 11 6 13 7 12 8 14 9 5 10 4 11 2 12 3 13
REMARK SMILES IDX 1 14
REMARK H PARENT
REMARK Flexibility Score: inf
ROOT
ATOM      1  C   UNL     1     102.556 113.102 124.776  1.00  0.00    -0.077 C 
ATOM      2  C   UNL     1     101.563 113.302 123.881  1.00  0.00    -0.028 C 
ATOM      3  C   UNL     1     103.522 111.951 124.634  1.00  0.00     0.039 C 
ENDROOT
BRANCH   1   4
ATOM      4  C   UNL     1     102.702 114.052 125.947  1.00  0.00     0.034 C 
BRANCH   4   5
ATOM      5  C   UNL     1     103.164 115.445 125.501  1.00  0.00     0.032 C 
BRANCH   5   6
ATOM      6  C   UNL     1     102.380 116.541 126.185  1.00  0.00    -0.028 C 
ATOM      7  C   UNL     1     100.757 118.373 126.394  1.00  0.00     0.039 C 
ATOM      8  C   UNL     1     101.416 117.280 125.594  1.00  0.00    -0.080 C 
ATOM      9  C   UNL     1     100.973 117.027 124.171  1.00  0.00     0.039 C 
ENDBRANCH   5   6
ENDBRANCH   4   5
ENDBRANCH   1   4
BRANCH   2  10
ATOM     10  C   UNL     1     101.335 112.405 122.689  1.00  0.00     0.035 C 
BRANCH  10  11
ATOM     11  C   UNL     1     101.934 113.010 121.415  1.00  0.00     0.079 C 
BRANCH  11  12
ATOM     12  C   UNL     1     101.779 112.066 120.252  1.00  0.00     0.130 C 
ATOM     13  O   UNL     1     102.259 112.363 119.169  1.00  0.00    -0.300 OA
ATOM     14  C   UNL     1     101.055 110.760 120.396  1.00  0.00     0.087 C 
ENDBRANCH  11  12
ENDBRANCH  10  11
ENDBRANCH   2  10
TORSDOF 6
ENDMDL
MODEL 7
REMARK VINA RESULT:    -4.590      2.742      5.509
REMARK INTER + INTRA:          -7.360
REMARK INTER:                  -6.590
REMARK INTRA:                  -0.770
REMARK UNBOUND:                -1.161
REMARK SMILES CC(=O)CCC=C(C)CCC=C(C)C
REMARK SMILES IDX 7 1 6 2 8 3 9 4 10 5 11 6 13 7 12 8 14 9 5 10 4 11 2 12 3 13
REMARK SMILES IDX 1 14
REMARK H PARENT
REMARK Flexibility Score: inf
ROOT
ATOM      1  C   UNL     1     101.464 117.217 125.560  1.00  0.00    -0.077 C 
ATOM      2  C   UNL     1     101.121 116.997 124.272  1.00  0.00    -0.028 C 
ATOM      3  C   UNL     1     100.648 118.127 126.447  1.00  0.00     0.039 C 
ENDROOT
BRANCH   1   4
ATOM      4  C   UNL     1     102.694 116.539 126.128  1.00  0.00     0.034 C 
BRANCH   4   5
ATOM      5  C   UNL     1     102.597 115.010 126.041  1.00  0.00     0.032 C 
BRANCH   5   6
ATOM      6  C   UNL     1     103.288 114.474 124.808  1.00  0.00    -0.028 C 
ATOM      7  C   UNL     1     103.562 113.137 122.766  1.00  0.00     0.039 C 
ATOM      8  C   UNL     1     102.727 113.623 123.921  1.00  0.00    -0.080 C 
ATOM      9  C   UNL     1     101.292 113.167 124.048  1.00  0.00     0.039 C 
ENDBRANCH   5   6
ENDBRANCH   4   5
ENDBRANCH   1   4
BRANCH   2  10
ATOM     10  C   UNL     1      99.919 117.635 123.618  1.00  0.00     0.035 C 
BRANCH  10  11
ATOM     11  C   UNL     1     100.335 118.780 122.690  1.00  0.00     0.079 C 
BRANCH  11  12
ATOM     12  C   UNL     1      99.484 119.999 122.932  1.00  0.00     0.130 C 
ATOM     13  O   UNL     1      98.547 120.236 122.185  1.00  0.00    -0.300 OA
ATOM     14  C   UNL     1      99.753 120.924 124.082  1.00  0.00     0.087 C 
ENDBRANCH  11  12
ENDBRANCH  10  11
ENDBRANCH   2  10
TORSDOF 6
ENDMDL
MODEL 8
REMARK VINA RESULT:    -4.586      2.814      5.606
REMARK INTER + INTRA:          -7.355
REMARK INTER:                  -6.476
REMARK INTRA:                  -0.879
REMARK UNBOUND:                -1.161
REMARK SMILES CC(=O)CCC=C(C)CCC=C(C)C
REMARK SMILES IDX 7 1 6 2 8 3 9 4 10 5 11 6 13 7 12 8 14 9 5 10 4 11 2 12 3 13
REMARK SMILES IDX 1 14
REMARK H PARENT
REMARK Flexibility Score: inf
ROOT
ATOM      1  C   UNL     1     101.957 116.625 125.186  1.00  0.00    -0.077 C 
ATOM      2  C   UNL     1     101.545 116.561 123.900  1.00  0.00    -0.028 C 
ATOM      3  C   UNL     1     101.367 117.626 126.150  1.00  0.00     0.039 C 
ENDROOT
BRANCH   1   4
ATOM      4  C   UNL     1     103.033 115.676 125.670  1.00  0.00     0.034 C 
BRANCH   4   5
ATOM      5  C   UNL     1     102.489 114.257 125.887  1.00  0.00     0.032 C 
BRANCH   5   6
ATOM      6  C   UNL     1     103.092 113.271 124.912  1.00  0.00    -0.028 C 
ATOM      7  C   UNL     1     103.137 111.652 123.066  1.00  0.00     0.039 C 
ATOM      8  C   UNL     1     102.408 112.650 123.927  1.00  0.00    -0.080 C 
ATOM      9  C   UNL     1     100.950 112.941 123.658  1.00  0.00     0.039 C 
ENDBRANCH   5   6
ENDBRANCH   4   5
ENDBRANCH   1   4
BRANCH   2  10
ATOM     10  C   UNL     1     100.486 117.471 123.326  1.00  0.00     0.035 C 
BRANCH  10  11
ATOM     11  C   UNL     1     101.113 118.684 122.633  1.00  0.00     0.079 C 
BRANCH  11  12
ATOM     12  C   UNL     1     100.562 119.966 123.199  1.00  0.00     0.130 C 
ATOM     13  O   UNL     1     101.258 120.969 123.204  1.00  0.00    -0.300 OA
ATOM     14  C   UNL     1      99.168 120.043 123.748  1.00  0.00     0.087 C 
ENDBRANCH  11  12
ENDBRANCH  10  11
ENDBRANCH   2  10
TORSDOF 6
ENDMDL
MODEL 9
REMARK VINA RESULT:    -4.518      2.656      5.762
REMARK INTER + INTRA:          -7.264
REMARK INTER:                  -6.402
REMARK INTRA:                  -0.861
REMARK UNBOUND:                -1.161
REMARK SMILES CC(=O)CCC=C(C)CCC=C(C)C
REMARK SMILES IDX 7 1 6 2 8 3 9 4 10 5 11 6 13 7 12 8 14 9 5 10 4 11 2 12 3 13
REMARK SMILES IDX 1 14
REMARK H PARENT
REMARK Flexibility Score: inf
ROOT
ATOM      1  C   UNL     1     102.417 114.768 124.741  1.00  0.00    -0.077 C 
ATOM      2  C   UNL     1     101.780 115.414 123.738  1.00  0.00    -0.028 C 
ATOM      3  C   UNL     1     103.064 115.523 125.877  1.00  0.00     0.039 C 
ENDROOT
BRANCH   1   4
ATOM      4  C   UNL     1     102.485 113.255 124.724  1.00  0.00     0.034 C 
BRANCH   4   5
ATOM      5  C   UNL     1     103.237 112.728 123.494  1.00  0.00     0.032 C 
BRANCH   5   6
ATOM      6  C   UNL     1     102.471 111.627 122.798  1.00  0.00    -0.028 C 
ATOM      7  C   UNL     1     101.031 110.596 121.096  1.00  0.00     0.039 C 
ATOM      8  C   UNL     1     101.790 111.778 121.641  1.00  0.00    -0.080 C 
ATOM      9  C   UNL     1     101.787 113.082 120.878  1.00  0.00     0.039 C 
ENDBRANCH   5   6
ENDBRANCH   4   5
ENDBRANCH   1   4
BRANCH   2  10
ATOM     10  C   UNL     1     101.669 116.917 123.666  1.00  0.00     0.035 C 
BRANCH  10  11
ATOM     11  C   UNL     1     100.257 117.388 124.031  1.00  0.00     0.079 C 
BRANCH  11  12
ATOM     12  C   UNL     1     100.312 118.504 125.041  1.00  0.00     0.130 C 
ATOM     13  O   UNL     1     100.112 119.653 124.678  1.00  0.00    -0.300 OA
ATOM     14  C   UNL     1     100.594 118.235 126.489  1.00  0.00     0.087 C 
ENDBRANCH  11  12
ENDBRANCH  10  11
ENDBRANCH   2  10
TORSDOF 6
ENDMDL
