MODEL 1
REMARK VINA RESULT:    -5.867      0.000      0.000
REMARK INTER + INTRA:          -5.867
REMARK INTER:                  -5.867
REMARK INTRA:                   0.000
REMARK UNBOUND:                 0.000
REMARK SMILES CC1=CC(=O)[C@H]2C[C@@H]1C2(C)C
REMARK SMILES IDX 1 1 2 2 3 3 4 4 5 5 6 6 7 7 8 8 9 9 10 10 11 11
REMARK H PARENT
REMARK Flexibility Score: inf
ROOT
ATOM      1  C   UNL     1     -12.705  73.859  28.738  1.00  0.00     0.040 C 
ATOM      2  C   UNL     1     -11.529  73.771  29.659  1.00  0.00    -0.066 C 
ATOM      3  C   UNL     1     -10.709  72.684  29.660  1.00  0.00     0.047 C 
ATOM      4  C   UNL     1      -9.585  72.702  30.651  1.00  0.00     0.159 C 
ATOM      5  O   UNL     1      -8.783  71.740  30.776  1.00  0.00    -0.295 OA
ATOM      6  C   UNL     1      -9.482  73.970  31.500  1.00  0.00     0.067 C 
ATOM      7  C   UNL     1      -9.654  75.120  30.484  1.00  0.00     0.021 C 
ATOM      8  C   UNL     1     -11.178  74.910  30.639  1.00  0.00     0.022 C 
ATOM      9  C   UNL     1     -10.895  74.314  32.048  1.00  0.00    -0.019 C 
ATOM     10  C   UNL     1     -10.852  75.402  33.151  1.00  0.00     0.012 C 
ATOM     11  C   UNL     1     -11.798  73.151  32.548  1.00  0.00     0.012 C 
ENDROOT
TORSDOF 0
ENDMDL
MODEL 2
REMARK VINA RESULT:    -5.659      0.929      3.176
REMARK INTER + INTRA:          -5.659
REMARK INTER:                  -5.659
REMARK INTRA:                   0.000
REMARK UNBOUND:                 0.000
REMARK SMILES CC1=CC(=O)[C@H]2C[C@@H]1C2(C)C
REMARK SMILES IDX 1 1 2 2 3 3 4 4 5 5 6 6 7 7 8 8 9 9 10 10 11 11
REMARK H PARENT
REMARK Flexibility Score: inf
ROOT
ATOM      1  C   UNL     1     -10.841  75.942  32.558  1.00  0.00     0.040 C 
ATOM      2  C   UNL     1     -10.671  74.767  31.648  1.00  0.00    -0.066 C 
ATOM      3  C   UNL     1      -9.584  73.951  31.740  1.00  0.00     0.047 C 
ATOM      4  C   UNL     1      -9.514  72.827  30.751  1.00  0.00     0.159 C 
ATOM      5  O   UNL     1      -8.542  72.028  30.709  1.00  0.00    -0.295 OA
ATOM      6  C   UNL     1     -10.705  72.718  29.798  1.00  0.00     0.067 C 
ATOM      7  C   UNL     1     -11.938  72.886  30.713  1.00  0.00     0.021 C 
ATOM      8  C   UNL     1     -11.722  74.411  30.576  1.00  0.00     0.022 C 
ATOM      9  C   UNL     1     -11.007  74.130  29.222  1.00  0.00    -0.019 C 
ATOM     10  C   UNL     1     -11.998  74.082  28.031  1.00  0.00     0.012 C 
ATOM     11  C   UNL     1      -9.810  75.038  28.822  1.00  0.00     0.012 C 
ENDROOT
TORSDOF 0
ENDMDL
MODEL 3
REMARK VINA RESULT:    -5.466      1.917      3.103
REMARK INTER + INTRA:          -5.466
REMARK INTER:                  -5.466
REMARK INTRA:                   0.000
REMARK UNBOUND:                 0.000
REMARK SMILES CC1=CC(=O)[C@H]2C[C@@H]1C2(C)C
REMARK SMILES IDX 1 1 2 2 3 3 4 4 5 5 6 6 7 7 8 8 9 9 10 10 11 11
REMARK H PARENT
REMARK Flexibility Score: inf
ROOT
ATOM      1  C   UNL     1      -8.997  74.253  27.469  1.00  0.00     0.040 C 
ATOM      2  C   UNL     1      -9.744  74.259  28.765  1.00  0.00    -0.066 C 
ATOM      3  C   UNL     1      -9.395  75.096  29.781  1.00  0.00     0.047 C 
ATOM      4  C   UNL     1     -10.200  74.984  31.040  1.00  0.00     0.159 C 
ATOM      5  O   UNL     1      -9.951  75.675  32.062  1.00  0.00    -0.295 OA
ATOM      6  C   UNL     1     -11.345  73.970  30.996  1.00  0.00     0.067 C 
ATOM      7  C   UNL     1     -12.035  74.239  29.641  1.00  0.00     0.021 C 
ATOM      8  C   UNL     1     -10.954  73.332  29.010  1.00  0.00     0.022 C 
ATOM      9  C   UNL     1     -10.806  72.641  30.396  1.00  0.00    -0.019 C 
ATOM     10  C   UNL     1     -11.800  71.466  30.579  1.00  0.00     0.012 C 
ATOM     11  C   UNL     1      -9.393  72.155  30.828  1.00  0.00     0.012 C 
ENDROOT
TORSDOF 0
ENDMDL
MODEL 4
REMARK VINA RESULT:    -5.409      2.193      3.233
REMARK INTER + INTRA:          -5.409
REMARK INTER:                  -5.409
REMARK INTRA:                   0.000
REMARK UNBOUND:                 0.000
REMARK SMILES CC1=CC(=O)[C@H]2C[C@@H]1C2(C)C
REMARK SMILES IDX 1 1 2 2 3 3 4 4 5 5 6 6 7 7 8 8 9 9 10 10 11 11
REMARK H PARENT
REMARK Flexibility Score: inf
ROOT
ATOM      1  C   UNL     1      -8.694  73.857  27.984  1.00  0.00     0.040 C 
ATOM      2  C   UNL     1     -10.008  73.644  28.667  1.00  0.00    -0.066 C 
ATOM      3  C   UNL     1     -11.167  74.123  28.138  1.00  0.00     0.047 C 
ATOM      4  C   UNL     1     -12.413  73.872  28.934  1.00  0.00     0.159 C 
ATOM      5  O   UNL     1     -13.540  74.298  28.571  1.00  0.00    -0.295 OA
ATOM      6  C   UNL     1     -12.217  73.063  30.217  1.00  0.00     0.067 C 
ATOM      7  C   UNL     1     -11.306  71.892  29.790  1.00  0.00     0.021 C 
ATOM      8  C   UNL     1     -10.117  72.859  29.991  1.00  0.00     0.022 C 
ATOM      9  C   UNL     1     -11.005  73.652  30.993  1.00  0.00    -0.019 C 
ATOM     10  C   UNL     1     -10.904  73.099  32.438  1.00  0.00     0.012 C 
ATOM     11  C   UNL     1     -10.846  75.198  31.052  1.00  0.00     0.012 C 
ENDROOT
TORSDOF 0
ENDMDL
MODEL 5
REMARK VINA RESULT:    -5.357      1.539      3.205
REMARK INTER + INTRA:          -5.357
REMARK INTER:                  -5.357
REMARK INTRA:                   0.000
REMARK UNBOUND:                 0.000
REMARK SMILES CC1=CC(=O)[C@H]2C[C@@H]1C2(C)C
REMARK SMILES IDX 1 1 2 2 3 3 4 4 5 5 6 6 7 7 8 8 9 9 10 10 11 11
REMARK H PARENT
REMARK Flexibility Score: inf
ROOT
ATOM      1  C   UNL     1     -10.773  75.848  32.531  1.00  0.00     0.040 C 
ATOM      2  C   UNL     1     -10.398  74.940  31.402  1.00  0.00    -0.066 C 
ATOM      3  C   UNL     1      -9.738  75.407  30.306  1.00  0.00     0.047 C 
ATOM      4  C   UNL     1      -9.447  74.405  29.230  1.00  0.00     0.159 C 
ATOM      5  O   UNL     1      -8.878  74.721  28.153  1.00  0.00    -0.295 OA
ATOM      6  C   UNL     1      -9.890  72.973  29.532  1.00  0.00     0.067 C 
ATOM      7  C   UNL     1      -9.419  72.730  30.983  1.00  0.00     0.021 C 
ATOM      8  C   UNL     1     -10.722  73.432  31.430  1.00  0.00     0.022 C 
ATOM      9  C   UNL     1     -11.349  73.010  30.070  1.00  0.00    -0.019 C 
ATOM     10  C   UNL     1     -11.992  71.601  30.128  1.00  0.00     0.012 C 
ATOM     11  C   UNL     1     -12.361  73.979  29.396  1.00  0.00     0.012 C 
ENDROOT
TORSDOF 0
ENDMDL
MODEL 6
REMARK VINA RESULT:    -5.338      1.591      3.266
REMARK INTER + INTRA:          -5.338
REMARK INTER:                  -5.338
REMARK INTRA:                   0.000
REMARK UNBOUND:                 0.000
REMARK SMILES CC1=CC(=O)[C@H]2C[C@@H]1C2(C)C
REMARK SMILES IDX 1 1 2 2 3 3 4 4 5 5 6 6 7 7 8 8 9 9 10 10 11 11
REMARK H PARENT
REMARK Flexibility Score: inf
ROOT
ATOM      1  C   UNL     1     -10.877  75.453  32.509  1.00  0.00     0.040 C 
ATOM      2  C   UNL     1     -11.040  74.509  31.359  1.00  0.00    -0.066 C 
ATOM      3  C   UNL     1     -11.568  73.266  31.531  1.00  0.00     0.047 C 
ATOM      4  C   UNL     1     -11.649  72.404  30.308  1.00  0.00     0.159 C 
ATOM      5  O   UNL     1     -12.081  71.223  30.344  1.00  0.00    -0.295 OA
ATOM      6  C   UNL     1     -11.169  73.061  29.012  1.00  0.00     0.067 C 
ATOM      7  C   UNL     1     -11.822  74.461  29.035  1.00  0.00     0.021 C 
ATOM      8  C   UNL     1     -10.636  74.903  29.922  1.00  0.00     0.022 C 
ATOM      9  C   UNL     1      -9.804  73.753  29.284  1.00  0.00    -0.019 C 
ATOM     10  C   UNL     1      -9.094  74.193  27.978  1.00  0.00     0.012 C 
ATOM     11  C   UNL     1      -8.766  73.015  30.176  1.00  0.00     0.012 C 
ENDROOT
TORSDOF 0
ENDMDL
MODEL 7
REMARK VINA RESULT:    -5.327      1.515      2.302
REMARK INTER + INTRA:          -5.327
REMARK INTER:                  -5.327
REMARK INTRA:                   0.000
REMARK UNBOUND:                 0.000
REMARK SMILES CC1=CC(=O)[C@H]2C[C@@H]1C2(C)C
REMARK SMILES IDX 1 1 2 2 3 3 4 4 5 5 6 6 7 7 8 8 9 9 10 10 11 11
REMARK H PARENT
REMARK Flexibility Score: inf
ROOT
ATOM      1  C   UNL     1     -12.380  73.826  28.962  1.00  0.00     0.040 C 
ATOM      2  C   UNL     1     -11.431  74.064  30.094  1.00  0.00    -0.066 C 
ATOM      3  C   UNL     1     -10.282  74.774  29.919  1.00  0.00     0.047 C 
ATOM      4  C   UNL     1      -9.400  74.916  31.122  1.00  0.00     0.159 C 
ATOM      5  O   UNL     1      -8.294  75.515  31.078  1.00  0.00    -0.295 OA
ATOM      6  C   UNL     1      -9.937  74.281  32.406  1.00  0.00     0.067 C 
ATOM      7  C   UNL     1     -11.415  74.725  32.456  1.00  0.00     0.021 C 
ATOM      8  C   UNL     1     -11.713  73.534  31.516  1.00  0.00     0.022 C 
ATOM      9  C   UNL     1     -10.435  72.846  32.076  1.00  0.00    -0.019 C 
ATOM     10  C   UNL     1     -10.724  72.014  33.352  1.00  0.00     0.012 C 
ATOM     11  C   UNL     1      -9.587  71.972  31.108  1.00  0.00     0.012 C 
ENDROOT
TORSDOF 0
ENDMDL
MODEL 8
REMARK VINA RESULT:    -5.215      2.083      3.553
REMARK INTER + INTRA:          -5.215
REMARK INTER:                  -5.215
REMARK INTRA:                   0.000
REMARK UNBOUND:                 0.000
REMARK SMILES CC1=CC(=O)[C@H]2C[C@@H]1C2(C)C
REMARK SMILES IDX 1 1 2 2 3 3 4 4 5 5 6 6 7 7 8 8 9 9 10 10 11 11
REMARK H PARENT
REMARK Flexibility Score: inf
ROOT
ATOM      1  C   UNL     1     -10.511  71.757  33.112  1.00  0.00     0.040 C 
ATOM      2  C   UNL     1     -10.359  73.096  32.462  1.00  0.00    -0.066 C 
ATOM      3  C   UNL     1     -10.890  74.219  33.020  1.00  0.00     0.047 C 
ATOM      4  C   UNL     1     -10.697  75.495  32.256  1.00  0.00     0.159 C 
ATOM      5  O   UNL     1     -11.173  76.591  32.647  1.00  0.00    -0.295 OA
ATOM      6  C   UNL     1      -9.881  75.369  30.969  1.00  0.00     0.067 C 
ATOM      7  C   UNL     1      -8.669  74.501  31.373  1.00  0.00     0.021 C 
ATOM      8  C   UNL     1      -9.581  73.275  31.141  1.00  0.00     0.022 C 
ATOM      9  C   UNL     1     -10.414  74.151  30.162  1.00  0.00    -0.019 C 
ATOM     10  C   UNL     1      -9.858  74.112  28.716  1.00  0.00     0.012 C 
ATOM     11  C   UNL     1     -11.951  73.922  30.099  1.00  0.00     0.012 C 
ENDROOT
TORSDOF 0
ENDMDL
MODEL 9
REMARK VINA RESULT:    -5.139      1.673      3.215
REMARK INTER + INTRA:          -5.139
REMARK INTER:                  -5.139
REMARK INTRA:                   0.000
REMARK UNBOUND:                 0.000
REMARK SMILES CC1=CC(=O)[C@H]2C[C@@H]1C2(C)C
REMARK SMILES IDX 1 1 2 2 3 3 4 4 5 5 6 6 7 7 8 8 9 9 10 10 11 11
REMARK H PARENT
REMARK Flexibility Score: inf
ROOT
ATOM      1  C   UNL     1      -8.236  71.595  30.657  1.00  0.00     0.040 C 
ATOM      2  C   UNL     1      -9.344  72.563  30.931  1.00  0.00    -0.066 C 
ATOM      3  C   UNL     1     -10.057  72.513  32.091  1.00  0.00     0.047 C 
ATOM      4  C   UNL     1     -11.162  73.516  32.233  1.00  0.00     0.159 C 
ATOM      5  O   UNL     1     -11.916  73.547  33.240  1.00  0.00    -0.295 OA
ATOM      6  C   UNL     1     -11.308  74.498  31.069  1.00  0.00     0.067 C 
ATOM      7  C   UNL     1      -9.862  74.955  30.777  1.00  0.00     0.021 C 
ATOM      8  C   UNL     1      -9.722  73.671  29.927  1.00  0.00     0.022 C 
ATOM      9  C   UNL     1     -11.266  73.696  29.738  1.00  0.00    -0.019 C 
ATOM     10  C   UNL     1     -11.698  74.553  28.520  1.00  0.00     0.012 C 
ATOM     11  C   UNL     1     -12.020  72.338  29.669  1.00  0.00     0.012 C 
ENDROOT
TORSDOF 0
ENDMDL
