MODEL 1
REMARK VINA RESULT:    -5.026      0.000      0.000
REMARK INTER + INTRA:          -7.423
REMARK INTER:                  -7.083
REMARK INTRA:                  -0.340
REMARK UNBOUND:                -0.340
REMARK SMILES CCCCCCCCC(=O)[O-]
REMARK SMILES IDX 6 1 7 2 8 3 9 4 10 5 11 6 5 7 4 8 3 9 2 10 1 11
REMARK H PARENT
REMARK Flexibility Score: inf
ROOT
ATOM      1  C   UNL     1     104.218 312.449 192.535  1.00  0.00     0.000 C 
ENDROOT
BRANCH   1   2
ATOM      2  C   UNL     1     104.514 311.212 193.398  1.00  0.00     0.006 C 
BRANCH   2   3
ATOM      3  C   UNL     1     105.427 311.527 194.589  1.00  0.00     0.053 C 
BRANCH   3   4
ATOM      4  C   UNL     1     104.635 312.120 195.712  1.00  0.00     0.041 C 
ATOM      5  O   UNL     1     104.128 311.375 196.591  1.00  0.00    -0.550 OA
ATOM      6  O   UNL     1     104.499 313.498 195.815  1.00  0.00    -0.550 OA
ENDBRANCH   3   4
ENDBRANCH   2   3
ENDBRANCH   1   2
BRANCH   1   7
ATOM      7  C   UNL     1     105.488 313.230 192.168  1.00  0.00     0.000 C 
BRANCH   7   8
ATOM      8  C   UNL     1     105.253 314.112 190.935  1.00  0.00    -0.000 C 
BRANCH   8   9
ATOM      9  C   UNL     1     103.861 313.869 190.341  1.00  0.00    -0.000 C 
BRANCH   9  10
ATOM     10  C   UNL     1     103.579 314.838 189.186  1.00  0.00    -0.003 C 
ATOM     11  C   UNL     1     102.439 314.333 188.308  1.00  0.00     0.004 C 
ENDBRANCH   9  10
ENDBRANCH   8   9
ENDBRANCH   7   8
ENDBRANCH   1   7
TORSDOF 7
ENDMDL
MODEL 2
REMARK VINA RESULT:    -5.018     19.841     20.704
REMARK INTER + INTRA:          -7.412
REMARK INTER:                  -6.881
REMARK INTRA:                  -0.531
REMARK UNBOUND:                -0.340
REMARK SMILES CCCCCCCCC(=O)[O-]
REMARK SMILES IDX 6 1 7 2 8 3 9 4 10 5 11 6 5 7 4 8 3 9 2 10 1 11
REMARK H PARENT
REMARK Flexibility Score: inf
ROOT
ATOM      1  C   UNL     1      88.129 326.778 194.395  1.00  0.00     0.000 C 
ENDROOT
BRANCH   1   2
ATOM      2  C   UNL     1      88.874 326.553 195.721  1.00  0.00     0.006 C 
BRANCH   2   3
ATOM      3  C   UNL     1      87.974 325.954 196.809  1.00  0.00     0.053 C 
BRANCH   3   4
ATOM      4  C   UNL     1      88.484 324.610 197.226  1.00  0.00     0.041 C 
ATOM      5  O   UNL     1      88.689 324.360 198.442  1.00  0.00    -0.550 OA
ATOM      6  O   UNL     1      88.684 323.617 196.276  1.00  0.00    -0.550 OA
ENDBRANCH   3   4
ENDBRANCH   2   3
ENDBRANCH   1   2
BRANCH   1   7
ATOM      7  C   UNL     1      86.718 326.173 194.399  1.00  0.00     0.000 C 
BRANCH   7   8
ATOM      8  C   UNL     1      86.641 324.953 193.474  1.00  0.00    -0.000 C 
BRANCH   8   9
ATOM      9  C   UNL     1      87.948 324.768 192.695  1.00  0.00    -0.000 C 
BRANCH   9  10
ATOM     10  C   UNL     1      87.726 323.914 191.441  1.00  0.00    -0.003 C 
ATOM     11  C   UNL     1      86.314 323.337 191.410  1.00  0.00     0.004 C 
ENDBRANCH   9  10
ENDBRANCH   8   9
ENDBRANCH   7   8
ENDBRANCH   1   7
TORSDOF 7
ENDMDL
MODEL 3
REMARK VINA RESULT:    -5.003      1.429      2.123
REMARK INTER + INTRA:          -7.391
REMARK INTER:                  -6.885
REMARK INTRA:                  -0.506
REMARK UNBOUND:                -0.340
REMARK SMILES CCCCCCCCC(=O)[O-]
REMARK SMILES IDX 6 1 7 2 8 3 9 4 10 5 11 6 5 7 4 8 3 9 2 10 1 11
REMARK H PARENT
REMARK Flexibility Score: inf
ROOT
ATOM      1  C   UNL     1     104.233 311.250 193.430  1.00  0.00     0.000 C 
ENDROOT
BRANCH   1   2
ATOM      2  C   UNL     1     103.583 311.500 194.801  1.00  0.00     0.006 C 
BRANCH   2   3
ATOM      3  C   UNL     1     104.591 311.976 195.854  1.00  0.00     0.053 C 
BRANCH   3   4
ATOM      4  C   UNL     1     104.219 313.336 196.356  1.00  0.00     0.041 C 
ATOM      5  O   UNL     1     104.036 314.282 195.547  1.00  0.00    -0.550 OA
ATOM      6  O   UNL     1     104.025 313.545 197.715  1.00  0.00    -0.550 OA
ENDBRANCH   3   4
ENDBRANCH   2   3
ENDBRANCH   1   2
BRANCH   1   7
ATOM      7  C   UNL     1     105.632 311.873 193.316  1.00  0.00     0.000 C 
BRANCH   7   8
ATOM      8  C   UNL     1     105.604 313.125 192.430  1.00  0.00    -0.000 C 
BRANCH   8   9
ATOM      9  C   UNL     1     104.205 313.360 191.852  1.00  0.00    -0.000 C 
BRANCH   9  10
ATOM     10  C   UNL     1     104.280 314.104 190.513  1.00  0.00    -0.003 C 
ATOM     11  C   UNL     1     105.658 314.724 190.304  1.00  0.00     0.004 C 
ENDBRANCH   9  10
ENDBRANCH   8   9
ENDBRANCH   7   8
ENDBRANCH   1   7
TORSDOF 7
ENDMDL
MODEL 4
REMARK VINA RESULT:    -4.992     19.485     21.049
REMARK INTER + INTRA:          -7.375
REMARK INTER:                  -7.134
REMARK INTRA:                  -0.241
REMARK UNBOUND:                -0.340
REMARK SMILES CCCCCCCCC(=O)[O-]
REMARK SMILES IDX 6 1 7 2 8 3 9 4 10 5 11 6 5 7 4 8 3 9 2 10 1 11
REMARK H PARENT
REMARK Flexibility Score: inf
ROOT
ATOM      1  C   UNL     1      87.838 324.580 193.128  1.00  0.00     0.000 C 
ENDROOT
BRANCH   1   2
ATOM      2  C   UNL     1      88.090 324.545 191.612  1.00  0.00     0.006 C 
BRANCH   2   3
ATOM      3  C   UNL     1      87.914 323.143 191.017  1.00  0.00     0.053 C 
BRANCH   3   4
ATOM      4  C   UNL     1      88.273 323.144 189.564  1.00  0.00     0.041 C 
ATOM      5  O   UNL     1      87.579 322.494 188.739  1.00  0.00    -0.550 OA
ATOM      6  O   UNL     1      89.344 323.904 189.113  1.00  0.00    -0.550 OA
ENDBRANCH   3   4
ENDBRANCH   2   3
ENDBRANCH   1   2
BRANCH   1   7
ATOM      7  C   UNL     1      88.044 325.978 193.730  1.00  0.00     0.000 C 
BRANCH   7   8
ATOM      8  C   UNL     1      86.797 326.435 194.497  1.00  0.00    -0.000 C 
BRANCH   8   9
ATOM      9  C   UNL     1      86.996 326.290 196.009  1.00  0.00    -0.000 C 
BRANCH   9  10
ATOM     10  C   UNL     1      88.484 326.334 196.375  1.00  0.00    -0.003 C 
ATOM     11  C   UNL     1      88.678 326.395 197.887  1.00  0.00     0.004 C 
ENDBRANCH   9  10
ENDBRANCH   8   9
ENDBRANCH   7   8
ENDBRANCH   1   7
TORSDOF 7
ENDMDL
MODEL 5
REMARK VINA RESULT:    -4.992     19.209     20.687
REMARK INTER + INTRA:          -7.375
REMARK INTER:                  -7.019
REMARK INTRA:                  -0.356
REMARK UNBOUND:                -0.340
REMARK SMILES CCCCCCCCC(=O)[O-]
REMARK SMILES IDX 6 1 7 2 8 3 9 4 10 5 11 6 5 7 4 8 3 9 2 10 1 11
REMARK H PARENT
REMARK Flexibility Score: inf
ROOT
ATOM      1  C   UNL     1      87.899 325.609 193.543  1.00  0.00     0.000 C 
ENDROOT
BRANCH   1   2
ATOM      2  C   UNL     1      87.581 326.799 194.463  1.00  0.00     0.006 C 
BRANCH   2   3
ATOM      3  C   UNL     1      86.918 326.369 195.776  1.00  0.00     0.053 C 
BRANCH   3   4
ATOM      4  C   UNL     1      87.949 325.889 196.749  1.00  0.00     0.041 C 
ATOM      5  O   UNL     1      88.132 324.656 196.922  1.00  0.00    -0.550 OA
ATOM      6  O   UNL     1      88.743 326.804 197.428  1.00  0.00    -0.550 OA
ENDBRANCH   3   4
ENDBRANCH   2   3
ENDBRANCH   1   2
BRANCH   1   7
ATOM      7  C   UNL     1      86.718 324.639 193.402  1.00  0.00     0.000 C 
BRANCH   7   8
ATOM      8  C   UNL     1      86.791 323.873 192.075  1.00  0.00    -0.000 C 
BRANCH   8   9
ATOM      9  C   UNL     1      88.093 324.187 191.329  1.00  0.00    -0.000 C 
BRANCH   9  10
ATOM     10  C   UNL     1      88.381 323.129 190.257  1.00  0.00    -0.003 C 
ATOM     11  C   UNL     1      89.195 323.716 189.108  1.00  0.00     0.004 C 
ENDBRANCH   9  10
ENDBRANCH   8   9
ENDBRANCH   7   8
ENDBRANCH   1   7
TORSDOF 7
ENDMDL
MODEL 6
REMARK VINA RESULT:    -4.976      2.971      5.537
REMARK INTER + INTRA:          -7.352
REMARK INTER:                  -6.851
REMARK INTRA:                  -0.501
REMARK UNBOUND:                -0.340
REMARK SMILES CCCCCCCCC(=O)[O-]
REMARK SMILES IDX 6 1 7 2 8 3 9 4 10 5 11 6 5 7 4 8 3 9 2 10 1 11
REMARK H PARENT
REMARK Flexibility Score: inf
ROOT
ATOM      1  C   UNL     1     104.255 311.764 192.887  1.00  0.00     0.000 C 
ENDROOT
BRANCH   1   2
ATOM      2  C   UNL     1     104.458 313.222 192.444  1.00  0.00     0.006 C 
BRANCH   2   3
ATOM      3  C   UNL     1     103.992 313.471 191.005  1.00  0.00     0.053 C 
BRANCH   3   4
ATOM      4  C   UNL     1     104.877 314.476 190.336  1.00  0.00     0.041 C 
ATOM      5  O   UNL     1     106.089 314.570 190.664  1.00  0.00    -0.550 OA
ATOM      6  O   UNL     1     104.376 315.273 189.315  1.00  0.00    -0.550 OA
ENDBRANCH   3   4
ENDBRANCH   2   3
ENDBRANCH   1   2
BRANCH   1   7
ATOM      7  C   UNL     1     105.460 311.207 193.659  1.00  0.00     0.000 C 
BRANCH   7   8
ATOM      8  C   UNL     1     105.485 311.741 195.097  1.00  0.00    -0.000 C 
BRANCH   8   9
ATOM      9  C   UNL     1     104.106 311.617 195.754  1.00  0.00    -0.000 C 
BRANCH   9  10
ATOM     10  C   UNL     1     103.840 312.794 196.700  1.00  0.00    -0.003 C 
ATOM     11  C   UNL     1     103.624 314.089 195.922  1.00  0.00     0.004 C 
ENDBRANCH   9  10
ENDBRANCH   8   9
ENDBRANCH   7   8
ENDBRANCH   1   7
TORSDOF 7
ENDMDL
MODEL 7
REMARK VINA RESULT:    -4.957     20.204     21.169
REMARK INTER + INTRA:          -7.326
REMARK INTER:                  -6.969
REMARK INTRA:                  -0.357
REMARK UNBOUND:                -0.340
REMARK SMILES CCCCCCCCC(=O)[O-]
REMARK SMILES IDX 6 1 7 2 8 3 9 4 10 5 11 6 5 7 4 8 3 9 2 10 1 11
REMARK H PARENT
REMARK Flexibility Score: inf
ROOT
ATOM      1  C   UNL     1      88.354 326.108 196.632  1.00  0.00     0.000 C 
ENDROOT
BRANCH   1   2
ATOM      2  C   UNL     1      88.724 326.691 198.005  1.00  0.00     0.006 C 
BRANCH   2   3
ATOM      3  C   UNL     1      89.156 325.614 199.007  1.00  0.00     0.053 C 
BRANCH   3   4
ATOM      4  C   UNL     1      89.373 326.216 200.360  1.00  0.00     0.041 C 
ATOM      5  O   UNL     1      88.427 326.271 201.188  1.00  0.00    -0.550 OA
ATOM      6  O   UNL     1      90.634 326.670 200.724  1.00  0.00    -0.550 OA
ENDBRANCH   3   4
ENDBRANCH   2   3
ENDBRANCH   1   2
BRANCH   1   7
ATOM      7  C   UNL     1      86.885 326.356 196.260  1.00  0.00     0.000 C 
BRANCH   7   8
ATOM      8  C   UNL     1      86.722 326.509 194.743  1.00  0.00    -0.000 C 
BRANCH   8   9
ATOM      9  C   UNL     1      88.065 326.344 194.024  1.00  0.00    -0.000 C 
BRANCH   9  10
ATOM     10  C   UNL     1      88.022 325.169 193.040  1.00  0.00    -0.003 C 
ATOM     11  C   UNL     1      88.310 323.848 193.746  1.00  0.00     0.004 C 
ENDBRANCH   9  10
ENDBRANCH   8   9
ENDBRANCH   7   8
ENDBRANCH   1   7
TORSDOF 7
ENDMDL
MODEL 8
REMARK VINA RESULT:    -4.950      3.781      6.216
REMARK INTER + INTRA:          -7.316
REMARK INTER:                  -6.951
REMARK INTRA:                  -0.365
REMARK UNBOUND:                -0.340
REMARK SMILES CCCCCCCCC(=O)[O-]
REMARK SMILES IDX 6 1 7 2 8 3 9 4 10 5 11 6 5 7 4 8 3 9 2 10 1 11
REMARK H PARENT
REMARK Flexibility Score: inf
ROOT
ATOM      1  C   UNL     1     105.233 313.604 191.704  1.00  0.00     0.000 C 
ENDROOT
BRANCH   1   2
ATOM      2  C   UNL     1     104.836 314.467 190.495  1.00  0.00     0.006 C 
BRANCH   2   3
ATOM      3  C   UNL     1     103.497 314.043 189.881  1.00  0.00     0.053 C 
BRANCH   3   4
ATOM      4  C   UNL     1     103.238 314.802 188.617  1.00  0.00     0.041 C 
ATOM      5  O   UNL     1     104.165 315.454 188.069  1.00  0.00    -0.550 OA
ATOM      6  O   UNL     1     101.987 314.747 188.017  1.00  0.00    -0.550 OA
ENDBRANCH   3   4
ENDBRANCH   2   3
ENDBRANCH   1   2
BRANCH   1   7
ATOM      7  C   UNL     1     104.017 313.010 192.430  1.00  0.00     0.000 C 
BRANCH   7   8
ATOM      8  C   UNL     1     104.393 311.713 193.159  1.00  0.00    -0.000 C 
BRANCH   8   9
ATOM      9  C   UNL     1     105.870 311.720 193.569  1.00  0.00    -0.000 C 
BRANCH   9  10
ATOM     10  C   UNL     1     106.025 311.443 195.069  1.00  0.00    -0.003 C 
ATOM     11  C   UNL     1     104.771 311.846 195.838  1.00  0.00     0.004 C 
ENDBRANCH   9  10
ENDBRANCH   8   9
ENDBRANCH   7   8
ENDBRANCH   1   7
TORSDOF 7
ENDMDL
MODEL 9
REMARK VINA RESULT:    -4.841      2.534      3.737
REMARK INTER + INTRA:          -7.162
REMARK INTER:                  -6.735
REMARK INTRA:                  -0.427
REMARK UNBOUND:                -0.340
REMARK SMILES CCCCCCCCC(=O)[O-]
REMARK SMILES IDX 6 1 7 2 8 3 9 4 10 5 11 6 5 7 4 8 3 9 2 10 1 11
REMARK H PARENT
REMARK Flexibility Score: inf
ROOT
ATOM      1  C   UNL     1     104.052 311.752 195.578  1.00  0.00     0.000 C 
ENDROOT
BRANCH   1   2
ATOM      2  C   UNL     1     103.892 312.499 196.912  1.00  0.00     0.006 C 
BRANCH   2   3
ATOM      3  C   UNL     1     103.829 311.551 198.115  1.00  0.00     0.053 C 
BRANCH   3   4
ATOM      4  C   UNL     1     103.855 312.328 199.394  1.00  0.00     0.041 C 
ATOM      5  O   UNL     1     104.511 311.902 200.380  1.00  0.00    -0.550 OA
ATOM      6  O   UNL     1     103.196 313.547 199.480  1.00  0.00    -0.550 OA
ENDBRANCH   3   4
ENDBRANCH   2   3
ENDBRANCH   1   2
BRANCH   1   7
ATOM      7  C   UNL     1     105.518 311.644 195.132  1.00  0.00     0.000 C 
BRANCH   7   8
ATOM      8  C   UNL     1     105.623 311.574 193.604  1.00  0.00    -0.000 C 
BRANCH   8   9
ATOM      9  C   UNL     1     104.250 311.753 192.947  1.00  0.00    -0.000 C 
BRANCH   9  10
ATOM     10  C   UNL     1     104.240 312.972 192.017  1.00  0.00    -0.003 C 
ATOM     11  C   UNL     1     103.859 314.241 192.773  1.00  0.00     0.004 C 
ENDBRANCH   9  10
ENDBRANCH   8   9
ENDBRANCH   7   8
ENDBRANCH   1   7
TORSDOF 7
ENDMDL
