MODEL 1
REMARK VINA RESULT:    -4.376      0.000      0.000
REMARK INTER + INTRA:          -7.867
REMARK INTER:                  -6.294
REMARK INTRA:                  -1.573
REMARK UNBOUND:                -1.573
REMARK SMILES O=c1c(O[C@@H]2O[C@H](CO)[C@H](O)[C@@H](O)[C@H]2O)c(-c2ccc(O)cc2)oc2cc(O)cc(O)c12
REMARK SMILES IDX 4 1 3 2 16 3 24 4 2 5 25 6 1 7 32 8 26 9 30 10 27 11 29 12
REMARK SMILES IDX 17 13 18 14 19 15 20 16 23 17 22 18 21 19 31 21 28 23 5 25
REMARK SMILES IDX 14 26 6 27 12 28 7 29 10 30 15 31 13 33 8 35 9 36 11 38
REMARK H PARENT 21 20 31 22 28 24 15 32 13 34 9 37 11 39
REMARK Flexibility Score: inf
ROOT
ATOM      1  O   UNL     1      -6.084  -5.875   9.325  1.00  0.00    -0.454 OA
ENDROOT
BRANCH   1   2
ATOM      2  C   UNL     1      -4.881  -6.568   9.057  1.00  0.00     0.214 A 
ATOM      3  C   UNL     1      -4.987  -7.873   8.536  1.00  0.00     0.180 A 
ATOM      4  O   UNL     1      -3.903  -8.618   8.362  1.00  0.00    -0.452 OA
ATOM      5  C   UNL     1      -3.583  -6.059   9.310  1.00  0.00     0.239 A 
ATOM      6  C   UNL     1      -2.672  -8.184   8.592  1.00  0.00     0.146 A 
ATOM      7  O   UNL     1      -3.443  -4.918   9.817  1.00  0.00    -0.285 OA
ATOM      8  C   UNL     1      -2.443  -6.854   9.022  1.00  0.00     0.111 A 
ATOM      9  C   UNL     1      -1.605  -9.063   8.398  1.00  0.00     0.094 A 
ATOM     10  C   UNL     1      -1.094  -6.413   9.171  1.00  0.00     0.134 A 
ATOM     11  C   UNL     1      -0.292  -8.639   8.608  1.00  0.00     0.123 A 
ATOM     12  C   UNL     1      -0.046  -7.322   8.983  1.00  0.00     0.093 A 
BRANCH   3  13
ATOM     13  C   UNL     1      -6.296  -8.472   8.193  1.00  0.00     0.021 A 
ATOM     14  C   UNL     1      -7.061  -9.147   9.162  1.00  0.00     0.016 A 
ATOM     15  C   UNL     1      -8.300  -9.699   8.824  1.00  0.00     0.047 A 
ATOM     16  C   UNL     1      -8.797  -9.569   7.520  1.00  0.00     0.115 A 
ATOM     17  C   UNL     1      -6.811  -8.327   6.895  1.00  0.00     0.016 A 
ATOM     18  C   UNL     1      -8.053  -8.877   6.560  1.00  0.00     0.047 A 
BRANCH  16  19
ATOM     19  O   UNL     1     -10.028 -10.125   7.170  1.00  0.00    -0.508 OA
ATOM     20  H   UNL     1     -10.236 -10.396   6.216  1.00  0.00     0.293 HD
ENDBRANCH  16  19
ENDBRANCH   3  13
BRANCH  10  21
ATOM     21  O   UNL     1      -0.734  -5.098   9.469  1.00  0.00    -0.507 OA
ATOM     22  H   UNL     1      -1.299  -4.291   9.245  1.00  0.00     0.293 HD
ENDBRANCH  10  21
BRANCH  11  23
ATOM     23  O   UNL     1       0.776  -9.514   8.423  1.00  0.00    -0.508 OA
ATOM     24  H   UNL     1       0.719 -10.294   7.778  1.00  0.00     0.293 HD
ENDBRANCH  11  23
ENDBRANCH   1   2
BRANCH   1  25
ATOM     25  C   UNL     1      -6.781  -4.910   8.532  1.00  0.00     0.339 C 
ATOM     26  C   UNL     1      -5.974  -4.599   7.239  1.00  0.00     0.214 C 
ATOM     27  O   UNL     1      -8.029  -5.474   8.174  1.00  0.00    -0.332 OA
ATOM     28  C   UNL     1      -6.913  -4.211   6.064  1.00  0.00     0.180 C 
ATOM     29  C   UNL     1      -8.906  -4.493   7.635  1.00  0.00     0.179 C 
ATOM     30  C   UNL     1      -8.196  -3.548   6.605  1.00  0.00     0.177 C 
BRANCH  26  31
ATOM     31  O   UNL     1      -5.006  -3.608   7.478  1.00  0.00    -0.384 OA
ATOM     32  H   UNL     1      -5.409  -2.729   7.249  1.00  0.00     0.211 HD
ENDBRANCH  26  31
BRANCH  28  33
ATOM     33  O   UNL     1      -6.259  -3.333   5.181  1.00  0.00    -0.387 OA
ATOM     34  H   UNL     1      -6.107  -3.823   4.329  1.00  0.00     0.211 HD
ENDBRANCH  28  33
BRANCH  29  35
ATOM     35  C   UNL     1     -10.125  -5.228   7.053  1.00  0.00     0.191 C 
BRANCH  35  36
ATOM     36  O   UNL     1      -9.750  -5.986   5.934  1.00  0.00    -0.394 OA
ATOM     37  H   UNL     1     -10.520  -5.959   5.301  1.00  0.00     0.210 HD
ENDBRANCH  35  36
ENDBRANCH  29  35
BRANCH  30  38
ATOM     38  O   UNL     1      -9.055  -3.122   5.570  1.00  0.00    -0.387 OA
ATOM     39  H   UNL     1      -8.518  -3.018   4.742  1.00  0.00     0.211 HD
ENDBRANCH  30  38
ENDBRANCH   1  25
TORSDOF 11
ENDMDL
MODEL 2
REMARK VINA RESULT:    -4.335      3.847      7.780
REMARK INTER + INTRA:          -7.809
REMARK INTER:                  -6.407
REMARK INTRA:                  -1.402
REMARK UNBOUND:                -1.573
REMARK SMILES O=c1c(O[C@@H]2O[C@H](CO)[C@H](O)[C@@H](O)[C@H]2O)c(-c2ccc(O)cc2)oc2cc(O)cc(O)c12
REMARK SMILES IDX 4 1 3 2 16 3 24 4 2 5 25 6 1 7 32 8 26 9 30 10 27 11 29 12
REMARK SMILES IDX 17 13 18 14 19 15 20 16 23 17 22 18 21 19 31 21 28 23 5 25
REMARK SMILES IDX 14 26 6 27 12 28 7 29 10 30 15 31 13 33 8 35 9 36 11 38
REMARK H PARENT 21 20 31 22 28 24 15 32 13 34 9 37 11 39
REMARK Flexibility Score: inf
ROOT
ATOM      1  O   UNL     1      -5.730  -9.410   5.550  1.00  0.00    -0.454 OA
ENDROOT
BRANCH   1   2
ATOM      2  C   UNL     1      -6.548  -9.125   4.432  1.00  0.00     0.214 A 
ATOM      3  C   UNL     1      -7.797  -8.522   4.680  1.00  0.00     0.180 A 
ATOM      4  O   UNL     1      -8.658  -8.325   3.690  1.00  0.00    -0.452 OA
ATOM      5  C   UNL     1      -6.218  -9.437   3.089  1.00  0.00     0.239 A 
ATOM      6  C   UNL     1      -8.392  -8.607   2.423  1.00  0.00     0.146 A 
ATOM      7  O   UNL     1      -5.135 -10.017   2.827  1.00  0.00    -0.285 OA
ATOM      8  C   UNL     1      -7.129  -9.125   2.047  1.00  0.00     0.111 A 
ATOM      9  C   UNL     1      -9.383  -8.382   1.464  1.00  0.00     0.094 A 
ATOM     10  C   UNL     1      -6.866  -9.329   0.659  1.00  0.00     0.134 A 
ATOM     11  C   UNL     1      -9.137  -8.646   0.117  1.00  0.00     0.123 A 
ATOM     12  C   UNL     1      -7.884  -9.108  -0.276  1.00  0.00     0.093 A 
BRANCH   3  13
ATOM     13  C   UNL     1      -8.210  -8.114   6.042  1.00  0.00     0.021 A 
ATOM     14  C   UNL     1      -8.163  -6.766   6.441  1.00  0.00     0.016 A 
ATOM     15  C   UNL     1      -8.565  -6.397   7.728  1.00  0.00     0.047 A 
ATOM     16  C   UNL     1      -9.035  -7.366   8.625  1.00  0.00     0.115 A 
ATOM     17  C   UNL     1      -8.702  -9.076   6.938  1.00  0.00     0.016 A 
ATOM     18  C   UNL     1      -9.108  -8.703   8.224  1.00  0.00     0.047 A 
BRANCH  16  19
ATOM     19  O   UNL     1      -9.429  -7.010   9.914  1.00  0.00    -0.508 OA
ATOM     20  H   UNL     1     -10.223  -7.448  10.367  1.00  0.00     0.293 HD
ENDBRANCH  16  19
ENDBRANCH   3  13
BRANCH  10  21
ATOM     21  O   UNL     1      -5.625  -9.716   0.151  1.00  0.00    -0.507 OA
ATOM     22  H   UNL     1      -4.742  -9.340   0.465  1.00  0.00     0.293 HD
ENDBRANCH  10  21
BRANCH  11  23
ATOM     23  O   UNL     1     -10.123  -8.429  -0.842  1.00  0.00    -0.508 OA
ATOM     24  H   UNL     1      -9.976  -8.659  -1.818  1.00  0.00     0.293 HD
ENDBRANCH  11  23
ENDBRANCH   1   2
BRANCH   1  25
ATOM     25  C   UNL     1      -4.643  -8.663   6.102  1.00  0.00     0.339 C 
ATOM     26  C   UNL     1      -4.556  -8.902   7.637  1.00  0.00     0.214 C 
ATOM     27  O   UNL     1      -3.453  -9.128   5.493  1.00  0.00    -0.332 OA
ATOM     28  C   UNL     1      -3.094  -8.784   8.148  1.00  0.00     0.180 C 
ATOM     29  C   UNL     1      -2.359  -8.258   5.759  1.00  0.00     0.179 C 
ATOM     30  C   UNL     1      -2.298  -7.805   7.259  1.00  0.00     0.177 C 
BRANCH  26  31
ATOM     31  O   UNL     1      -5.420  -8.035   8.329  1.00  0.00    -0.384 OA
ATOM     32  H   UNL     1      -6.272  -7.989   7.822  1.00  0.00     0.211 HD
ENDBRANCH  26  31
BRANCH  28  33
ATOM     33  O   UNL     1      -3.074  -8.338   9.482  1.00  0.00    -0.387 OA
ATOM     34  H   UNL     1      -3.349  -9.101  10.057  1.00  0.00     0.211 HD
ENDBRANCH  28  33
BRANCH  29  35
ATOM     35  C   UNL     1      -1.078  -8.960   5.278  1.00  0.00     0.191 C 
BRANCH  35  36
ATOM     36  O   UNL     1      -0.696  -9.957   6.186  1.00  0.00    -0.394 OA
ATOM     37  H   UNL     1       0.299  -9.935   6.231  1.00  0.00     0.210 HD
ENDBRANCH  35  36
ENDBRANCH  29  35
BRANCH  30  38
ATOM     38  O   UNL     1      -0.978  -7.617   7.720  1.00  0.00    -0.387 OA
ATOM     39  H   UNL     1      -0.714  -8.417   8.246  1.00  0.00     0.211 HD
ENDBRANCH  30  38
ENDBRANCH   1  25
TORSDOF 11
ENDMDL
MODEL 3
REMARK VINA RESULT:    -4.320     15.331     18.339
REMARK INTER + INTRA:          -7.787
REMARK INTER:                  -6.175
REMARK INTRA:                  -1.612
REMARK UNBOUND:                -1.573
REMARK SMILES O=c1c(O[C@@H]2O[C@H](CO)[C@H](O)[C@@H](O)[C@H]2O)c(-c2ccc(O)cc2)oc2cc(O)cc(O)c12
REMARK SMILES IDX 4 1 3 2 16 3 24 4 2 5 25 6 1 7 32 8 26 9 30 10 27 11 29 12
REMARK SMILES IDX 17 13 18 14 19 15 20 16 23 17 22 18 21 19 31 21 28 23 5 25
REMARK SMILES IDX 14 26 6 27 12 28 7 29 10 30 15 31 13 33 8 35 9 36 11 38
REMARK H PARENT 21 20 31 22 28 24 15 32 13 34 9 37 11 39
REMARK Flexibility Score: inf
ROOT
ATOM      1  O   UNL     1      -7.930   6.402  -4.630  1.00  0.00    -0.454 OA
ENDROOT
BRANCH   1   2
ATOM      2  C   UNL     1      -8.254   6.292  -3.257  1.00  0.00     0.214 A 
ATOM      3  C   UNL     1      -8.713   5.040  -2.799  1.00  0.00     0.180 A 
ATOM      4  O   UNL     1      -9.136   4.896  -1.549  1.00  0.00    -0.452 OA
ATOM      5  C   UNL     1      -8.188   7.356  -2.324  1.00  0.00     0.239 A 
ATOM      6  C   UNL     1      -9.096   5.866  -0.647  1.00  0.00     0.146 A 
ATOM      7  O   UNL     1      -7.829   8.500  -2.700  1.00  0.00    -0.285 OA
ATOM      8  C   UNL     1      -8.561   7.135  -0.973  1.00  0.00     0.111 A 
ATOM      9  C   UNL     1      -9.591   5.609   0.634  1.00  0.00     0.094 A 
ATOM     10  C   UNL     1      -8.464   8.115   0.060  1.00  0.00     0.134 A 
ATOM     11  C   UNL     1      -9.549   6.596   1.619  1.00  0.00     0.123 A 
ATOM     12  C   UNL     1      -8.981   7.833   1.330  1.00  0.00     0.093 A 
BRANCH   3  13
ATOM     13  C   UNL     1      -8.771   3.858  -3.686  1.00  0.00     0.021 A 
ATOM     14  C   UNL     1      -7.629   3.069  -3.918  1.00  0.00     0.016 A 
ATOM     15  C   UNL     1      -7.703   1.949  -4.752  1.00  0.00     0.047 A 
ATOM     16  C   UNL     1      -8.920   1.594  -5.349  1.00  0.00     0.115 A 
ATOM     17  C   UNL     1      -9.991   3.482  -4.269  1.00  0.00     0.016 A 
ATOM     18  C   UNL     1     -10.063   2.359  -5.100  1.00  0.00     0.047 A 
BRANCH  16  19
ATOM     19  O   UNL     1      -9.002   0.484  -6.189  1.00  0.00    -0.508 OA
ATOM     20  H   UNL     1      -9.866   0.232  -6.653  1.00  0.00     0.293 HD
ENDBRANCH  16  19
ENDBRANCH   3  13
BRANCH  10  21
ATOM     21  O   UNL     1      -7.846   9.357  -0.100  1.00  0.00    -0.507 OA
ATOM     22  H   UNL     1      -8.210  10.223   0.270  1.00  0.00     0.293 HD
ENDBRANCH  10  21
BRANCH  11  23
ATOM     23  O   UNL     1     -10.047   6.348   2.896  1.00  0.00    -0.508 OA
ATOM     24  H   UNL     1      -9.932   5.446   3.345  1.00  0.00     0.293 HD
ENDBRANCH  11  23
ENDBRANCH   1   2
BRANCH   1  25
ATOM     25  C   UNL     1      -8.685   6.968  -5.705  1.00  0.00     0.339 C 
ATOM     26  C   UNL     1      -7.908   8.160  -6.333  1.00  0.00     0.214 C 
ATOM     27  O   UNL     1      -8.853   5.959  -6.683  1.00  0.00    -0.332 OA
ATOM     28  C   UNL     1      -8.235   8.318  -7.843  1.00  0.00     0.180 C 
ATOM     29  C   UNL     1      -9.828   6.331  -7.650  1.00  0.00     0.179 C 
ATOM     30  C   UNL     1      -9.664   7.814  -8.134  1.00  0.00     0.177 C 
BRANCH  26  31
ATOM     31  O   UNL     1      -8.153   9.348  -5.623  1.00  0.00    -0.384 OA
ATOM     32  H   UNL     1      -7.763  10.099  -6.143  1.00  0.00     0.211 HD
ENDBRANCH  26  31
BRANCH  28  33
ATOM     33  O   UNL     1      -8.117   9.664  -8.235  1.00  0.00    -0.387 OA
ATOM     34  H   UNL     1      -8.881   9.868  -8.839  1.00  0.00     0.211 HD
ENDBRANCH  28  33
BRANCH  29  35
ATOM     35  C   UNL     1      -9.766   5.304  -8.793  1.00  0.00     0.191 C 
BRANCH  35  36
ATOM     36  O   UNL     1      -8.500   5.317  -9.395  1.00  0.00    -0.394 OA
ATOM     37  H   UNL     1      -7.840   5.475  -8.665  1.00  0.00     0.210 HD
ENDBRANCH  35  36
ENDBRANCH  29  35
BRANCH  30  38
ATOM     38  O   UNL     1     -10.031   7.993  -9.484  1.00  0.00    -0.387 OA
ATOM     39  H   UNL     1      -9.367   7.521 -10.052  1.00  0.00     0.211 HD
ENDBRANCH  30  38
ENDBRANCH   1  25
TORSDOF 11
ENDMDL
MODEL 4
REMARK VINA RESULT:    -4.216      3.593      6.716
REMARK INTER + INTRA:          -7.638
REMARK INTER:                  -6.078
REMARK INTRA:                  -1.560
REMARK UNBOUND:                -1.573
REMARK SMILES O=c1c(O[C@@H]2O[C@H](CO)[C@H](O)[C@@H](O)[C@H]2O)c(-c2ccc(O)cc2)oc2cc(O)cc(O)c12
REMARK SMILES IDX 4 1 3 2 16 3 24 4 2 5 25 6 1 7 32 8 26 9 30 10 27 11 29 12
REMARK SMILES IDX 17 13 18 14 19 15 20 16 23 17 22 18 21 19 31 21 28 23 5 25
REMARK SMILES IDX 14 26 6 27 12 28 7 29 10 30 15 31 13 33 8 35 9 36 11 38
REMARK H PARENT 21 20 31 22 28 24 15 32 13 34 9 37 11 39
REMARK Flexibility Score: inf
ROOT
ATOM      1  O   UNL     1      -9.624  -5.809   5.963  1.00  0.00    -0.454 OA
ENDROOT
BRANCH   1   2
ATOM      2  C   UNL     1      -9.166  -4.670   6.665  1.00  0.00     0.214 A 
ATOM      3  C   UNL     1      -8.428  -4.889   7.846  1.00  0.00     0.180 A 
ATOM      4  O   UNL     1      -8.061  -3.867   8.609  1.00  0.00    -0.452 OA
ATOM      5  C   UNL     1      -9.430  -3.329   6.288  1.00  0.00     0.239 A 
ATOM      6  C   UNL     1      -8.293  -2.601   8.296  1.00  0.00     0.146 A 
ATOM      7  O   UNL     1     -10.124  -3.089   5.268  1.00  0.00    -0.285 OA
ATOM      8  C   UNL     1      -8.939  -2.262   7.083  1.00  0.00     0.111 A 
ATOM      9  C   UNL     1      -7.883  -1.606   9.187  1.00  0.00     0.094 A 
ATOM     10  C   UNL     1      -9.086  -0.880   6.757  1.00  0.00     0.134 A 
ATOM     11  C   UNL     1      -8.088  -0.259   8.886  1.00  0.00     0.123 A 
ATOM     12  C   UNL     1      -8.678   0.094   7.676  1.00  0.00     0.093 A 
BRANCH   3  13
ATOM     13  C   UNL     1      -8.061  -6.250   8.295  1.00  0.00     0.021 A 
ATOM     14  C   UNL     1      -6.750  -6.737   8.138  1.00  0.00     0.016 A 
ATOM     15  C   UNL     1      -6.418  -8.022   8.576  1.00  0.00     0.047 A 
ATOM     16  C   UNL     1      -7.384  -8.829   9.190  1.00  0.00     0.115 A 
ATOM     17  C   UNL     1      -9.017  -7.057   8.932  1.00  0.00     0.016 A 
ATOM     18  C   UNL     1      -8.681  -8.341   9.373  1.00  0.00     0.047 A 
BRANCH  16  19
ATOM     19  O   UNL     1      -7.065 -10.117   9.623  1.00  0.00    -0.508 OA
ATOM     20  H   UNL     1      -7.771 -10.837   9.714  1.00  0.00     0.293 HD
ENDBRANCH  16  19
ENDBRANCH   3  13
BRANCH  10  21
ATOM     21  O   UNL     1      -9.592  -0.417   5.541  1.00  0.00    -0.507 OA
ATOM     22  H   UNL     1     -10.436  -0.765   5.110  1.00  0.00     0.293 HD
ENDBRANCH  10  21
BRANCH  11  23
ATOM     23  O   UNL     1      -7.687   0.737   9.774  1.00  0.00    -0.508 OA
ATOM     24  H   UNL     1      -8.029   0.768  10.728  1.00  0.00     0.293 HD
ENDBRANCH  11  23
ENDBRANCH   1   2
BRANCH   1  25
ATOM     25  C   UNL     1      -9.046  -6.488   4.845  1.00  0.00     0.339 C 
ATOM     26  C   UNL     1      -7.898  -5.632   4.236  1.00  0.00     0.214 C 
ATOM     27  O   UNL     1      -8.512  -7.710   5.318  1.00  0.00    -0.332 OA
ATOM     28  C   UNL     1      -6.805  -6.528   3.592  1.00  0.00     0.180 C 
ATOM     29  C   UNL     1      -8.176  -8.580   4.244  1.00  0.00     0.179 C 
ATOM     30  C   UNL     1      -7.427  -7.843   3.081  1.00  0.00     0.177 C 
BRANCH  26  31
ATOM     31  O   UNL     1      -8.404  -4.692   3.322  1.00  0.00    -0.384 OA
ATOM     32  H   UNL     1      -7.889  -4.783   2.478  1.00  0.00     0.211 HD
ENDBRANCH  26  31
BRANCH  28  33
ATOM     33  O   UNL     1      -6.180  -5.852   2.528  1.00  0.00    -0.387 OA
ATOM     34  H   UNL     1      -6.057  -6.506   1.789  1.00  0.00     0.211 HD
ENDBRANCH  28  33
BRANCH  29  35
ATOM     35  C   UNL     1      -7.386  -9.761   4.831  1.00  0.00     0.191 C 
BRANCH  35  36
ATOM     36  O   UNL     1      -6.150  -9.324   5.328  1.00  0.00    -0.394 OA
ATOM     37  H   UNL     1      -5.862  -8.567   4.748  1.00  0.00     0.210 HD
ENDBRANCH  35  36
ENDBRANCH  29  35
BRANCH  30  38
ATOM     38  O   UNL     1      -6.482  -8.665   2.431  1.00  0.00    -0.387 OA
ATOM     39  H   UNL     1      -5.670  -8.716   3.000  1.00  0.00     0.211 HD
ENDBRANCH  30  38
ENDBRANCH   1  25
TORSDOF 11
ENDMDL
MODEL 5
REMARK VINA RESULT:    -4.183      3.896      7.211
REMARK INTER + INTRA:          -7.590
REMARK INTER:                  -5.997
REMARK INTRA:                  -1.593
REMARK UNBOUND:                -1.573
REMARK SMILES O=c1c(O[C@@H]2O[C@H](CO)[C@H](O)[C@@H](O)[C@H]2O)c(-c2ccc(O)cc2)oc2cc(O)cc(O)c12
REMARK SMILES IDX 4 1 3 2 16 3 24 4 2 5 25 6 1 7 32 8 26 9 30 10 27 11 29 12
REMARK SMILES IDX 17 13 18 14 19 15 20 16 23 17 22 18 21 19 31 21 28 23 5 25
REMARK SMILES IDX 14 26 6 27 12 28 7 29 10 30 15 31 13 33 8 35 9 36 11 38
REMARK H PARENT 21 20 31 22 28 24 15 32 13 34 9 37 11 39
REMARK Flexibility Score: inf
ROOT
ATOM      1  O   UNL     1      -5.736  -9.611   5.515  1.00  0.00    -0.454 OA
ENDROOT
BRANCH   1   2
ATOM      2  C   UNL     1      -6.545  -9.253   4.410  1.00  0.00     0.214 A 
ATOM      3  C   UNL     1      -7.774  -8.620   4.685  1.00  0.00     0.180 A 
ATOM      4  O   UNL     1      -8.628  -8.355   3.704  1.00  0.00    -0.452 OA
ATOM      5  C   UNL     1      -6.225  -9.521   3.056  1.00  0.00     0.239 A 
ATOM      6  C   UNL     1      -8.370  -8.595   2.426  1.00  0.00     0.146 A 
ATOM      7  O   UNL     1      -5.161 -10.125   2.769  1.00  0.00    -0.285 OA
ATOM      8  C   UNL     1      -7.125  -9.137   2.028  1.00  0.00     0.111 A 
ATOM      9  C   UNL     1      -9.353  -8.298   1.479  1.00  0.00     0.094 A 
ATOM     10  C   UNL     1      -6.869  -9.294   0.633  1.00  0.00     0.134 A 
ATOM     11  C   UNL     1      -9.115  -8.515   0.121  1.00  0.00     0.123 A 
ATOM     12  C   UNL     1      -7.879  -9.001  -0.292  1.00  0.00     0.093 A 
BRANCH   3  13
ATOM     13  C   UNL     1      -8.173  -8.256   6.062  1.00  0.00     0.021 A 
ATOM     14  C   UNL     1      -8.692  -9.219   6.946  1.00  0.00     0.016 A 
ATOM     15  C   UNL     1      -9.056  -8.859   8.247  1.00  0.00     0.047 A 
ATOM     16  C   UNL     1      -8.889  -7.539   8.686  1.00  0.00     0.115 A 
ATOM     17  C   UNL     1      -7.988  -6.940   6.516  1.00  0.00     0.016 A 
ATOM     18  C   UNL     1      -8.349  -6.584   7.820  1.00  0.00     0.047 A 
BRANCH  16  19
ATOM     19  O   UNL     1      -9.258  -7.168   9.979  1.00  0.00    -0.508 OA
ATOM     20  H   UNL     1     -10.225  -7.001  10.228  1.00  0.00     0.293 HD
ENDBRANCH  16  19
ENDBRANCH   3  13
BRANCH  10  21
ATOM     21  O   UNL     1      -5.640  -9.700   0.108  1.00  0.00    -0.507 OA
ATOM     22  H   UNL     1      -4.796  -9.148   0.151  1.00  0.00     0.293 HD
ENDBRANCH  10  21
BRANCH  11  23
ATOM     23  O   UNL     1     -10.094  -8.227  -0.827  1.00  0.00    -0.508 OA
ATOM     24  H   UNL     1      -9.857  -8.027  -1.792  1.00  0.00     0.293 HD
ENDBRANCH  11  23
ENDBRANCH   1   2
BRANCH   1  25
ATOM     25  C   UNL     1      -4.640  -8.911   6.110  1.00  0.00     0.339 C 
ATOM     26  C   UNL     1      -4.328  -7.620   5.301  1.00  0.00     0.214 C 
ATOM     27  O   UNL     1      -5.028  -8.552   7.424  1.00  0.00    -0.332 OA
ATOM     28  C   UNL     1      -3.747  -6.506   6.214  1.00  0.00     0.180 C 
ATOM     29  C   UNL     1      -3.914  -8.113   8.191  1.00  0.00     0.179 C 
ATOM     30  C   UNL     1      -2.982  -7.133   7.398  1.00  0.00     0.177 C 
BRANCH  26  31
ATOM     31  O   UNL     1      -3.476  -7.901   4.219  1.00  0.00    -0.384 OA
ATOM     32  H   UNL     1      -2.643  -7.376   4.345  1.00  0.00     0.211 HD
ENDBRANCH  26  31
BRANCH  28  33
ATOM     33  O   UNL     1      -2.885  -5.669   5.482  1.00  0.00    -0.387 OA
ATOM     34  H   UNL     1      -3.435  -4.933   5.101  1.00  0.00     0.211 HD
ENDBRANCH  28  33
BRANCH  29  35
ATOM     35  C   UNL     1      -4.457  -7.517   9.501  1.00  0.00     0.191 C 
BRANCH  35  36
ATOM     36  O   UNL     1      -5.145  -6.323   9.246  1.00  0.00    -0.394 OA
ATOM     37  H   UNL     1      -4.457  -5.644   9.002  1.00  0.00     0.210 HD
ENDBRANCH  35  36
ENDBRANCH  29  35
BRANCH  30  38
ATOM     38  O   UNL     1      -2.383  -6.159   8.224  1.00  0.00    -0.387 OA
ATOM     39  H   UNL     1      -1.724  -6.612   8.812  1.00  0.00     0.211 HD
ENDBRANCH  30  38
ENDBRANCH   1  25
TORSDOF 11
ENDMDL
MODEL 6
REMARK VINA RESULT:    -4.161      2.458      6.009
REMARK INTER + INTRA:          -7.558
REMARK INTER:                  -6.000
REMARK INTRA:                  -1.557
REMARK UNBOUND:                -1.573
REMARK SMILES O=c1c(O[C@@H]2O[C@H](CO)[C@H](O)[C@@H](O)[C@H]2O)c(-c2ccc(O)cc2)oc2cc(O)cc(O)c12
REMARK SMILES IDX 4 1 3 2 16 3 24 4 2 5 25 6 1 7 32 8 26 9 30 10 27 11 29 12
REMARK SMILES IDX 17 13 18 14 19 15 20 16 23 17 22 18 21 19 31 21 28 23 5 25
REMARK SMILES IDX 14 26 6 27 12 28 7 29 10 30 15 31 13 33 8 35 9 36 11 38
REMARK H PARENT 21 20 31 22 28 24 15 32 13 34 9 37 11 39
REMARK Flexibility Score: inf
ROOT
ATOM      1  O   UNL     1      -6.676  -5.482  10.125  1.00  0.00    -0.454 OA
ENDROOT
BRANCH   1   2
ATOM      2  C   UNL     1      -6.154  -4.398   9.380  1.00  0.00     0.214 A 
ATOM      3  C   UNL     1      -4.942  -4.608   8.693  1.00  0.00     0.180 A 
ATOM      4  O   UNL     1      -4.343  -3.605   8.064  1.00  0.00    -0.452 OA
ATOM      5  C   UNL     1      -6.741  -3.111   9.310  1.00  0.00     0.239 A 
ATOM      6  C   UNL     1      -4.854  -2.385   7.979  1.00  0.00     0.146 A 
ATOM      7  O   UNL     1      -7.798  -2.866   9.945  1.00  0.00    -0.285 OA
ATOM      8  C   UNL     1      -6.116  -2.089   8.549  1.00  0.00     0.111 A 
ATOM      9  C   UNL     1      -4.125  -1.398   7.313  1.00  0.00     0.094 A 
ATOM     10  C   UNL     1      -6.658  -0.783   8.353  1.00  0.00     0.134 A 
ATOM     11  C   UNL     1      -4.637  -0.107   7.182  1.00  0.00     0.123 A 
ATOM     12  C   UNL     1      -5.897   0.188   7.693  1.00  0.00     0.093 A 
BRANCH   3  13
ATOM     13  C   UNL     1      -4.279  -5.931   8.667  1.00  0.00     0.021 A 
ATOM     14  C   UNL     1      -4.563  -6.865   7.654  1.00  0.00     0.016 A 
ATOM     15  C   UNL     1      -3.920  -8.107   7.639  1.00  0.00     0.047 A 
ATOM     16  C   UNL     1      -2.975  -8.423   8.624  1.00  0.00     0.115 A 
ATOM     17  C   UNL     1      -3.314  -6.247   9.637  1.00  0.00     0.016 A 
ATOM     18  C   UNL     1      -2.670  -7.488   9.617  1.00  0.00     0.047 A 
BRANCH  16  19
ATOM     19  O   UNL     1      -2.335  -9.663   8.623  1.00  0.00    -0.508 OA
ATOM     20  H   UNL     1      -1.345  -9.749   8.814  1.00  0.00     0.293 HD
ENDBRANCH  16  19
ENDBRANCH   3  13
BRANCH  10  21
ATOM     21  O   UNL     1      -7.940  -0.405   8.756  1.00  0.00    -0.507 OA
ATOM     22  H   UNL     1      -8.667  -1.055   9.019  1.00  0.00     0.293 HD
ENDBRANCH  10  21
BRANCH  11  23
ATOM     23  O   UNL     1      -3.910   0.883   6.524  1.00  0.00    -0.508 OA
ATOM     24  H   UNL     1      -3.557   1.697   7.014  1.00  0.00     0.293 HD
ENDBRANCH  11  23
ENDBRANCH   1   2
BRANCH   1  25
ATOM     25  C   UNL     1      -7.722  -6.399   9.794  1.00  0.00     0.339 C 
ATOM     26  C   UNL     1      -8.188  -6.172   8.328  1.00  0.00     0.214 C 
ATOM     27  O   UNL     1      -7.194  -7.708   9.915  1.00  0.00    -0.332 OA
ATOM     28  C   UNL     1      -8.703  -7.489   7.686  1.00  0.00     0.180 C 
ATOM     29  C   UNL     1      -8.226  -8.687   9.890  1.00  0.00     0.179 C 
ATOM     30  C   UNL     1      -9.290  -8.416   8.771  1.00  0.00     0.177 C 
BRANCH  26  31
ATOM     31  O   UNL     1      -9.151  -5.150   8.261  1.00  0.00    -0.384 OA
ATOM     32  H   UNL     1      -9.868  -5.367   8.913  1.00  0.00     0.211 HD
ENDBRANCH  26  31
BRANCH  28  33
ATOM     33  O   UNL     1      -9.684  -7.213   6.716  1.00  0.00    -0.387 OA
ATOM     34  H   UNL     1     -10.557  -7.526   7.075  1.00  0.00     0.211 HD
ENDBRANCH  28  33
BRANCH  29  35
ATOM     35  C   UNL     1      -7.555 -10.066   9.776  1.00  0.00     0.191 C 
BRANCH  35  36
ATOM     36  O   UNL     1      -6.749 -10.125   8.630  1.00  0.00    -0.394 OA
ATOM     37  H   UNL     1      -7.360 -10.293   7.861  1.00  0.00     0.210 HD
ENDBRANCH  35  36
ENDBRANCH  29  35
BRANCH  30  38
ATOM     38  O   UNL     1      -9.828  -9.602   8.228  1.00  0.00    -0.387 OA
ATOM     39  H   UNL     1     -10.106  -9.419   7.293  1.00  0.00     0.211 HD
ENDBRANCH  30  38
ENDBRANCH   1  25
TORSDOF 11
ENDMDL
MODEL 7
REMARK VINA RESULT:    -4.156      2.116      2.888
REMARK INTER + INTRA:          -7.551
REMARK INTER:                  -6.798
REMARK INTRA:                  -0.753
REMARK UNBOUND:                -1.573
REMARK SMILES O=c1c(O[C@@H]2O[C@H](CO)[C@H](O)[C@@H](O)[C@H]2O)c(-c2ccc(O)cc2)oc2cc(O)cc(O)c12
REMARK SMILES IDX 4 1 3 2 16 3 24 4 2 5 25 6 1 7 32 8 26 9 30 10 27 11 29 12
REMARK SMILES IDX 17 13 18 14 19 15 20 16 23 17 22 18 21 19 31 21 28 23 5 25
REMARK SMILES IDX 14 26 6 27 12 28 7 29 10 30 15 31 13 33 8 35 9 36 11 38
REMARK H PARENT 21 20 31 22 28 24 15 32 13 34 9 37 11 39
REMARK Flexibility Score: inf
ROOT
ATOM      1  O   UNL     1      -6.196  -4.657   9.494  1.00  0.00    -0.454 OA
ENDROOT
BRANCH   1   2
ATOM      2  C   UNL     1      -4.985  -5.369   9.331  1.00  0.00     0.214 A 
ATOM      3  C   UNL     1      -5.067  -6.772   9.225  1.00  0.00     0.180 A 
ATOM      4  O   UNL     1      -3.965  -7.509   9.179  1.00  0.00    -0.452 OA
ATOM      5  C   UNL     1      -3.698  -4.777   9.307  1.00  0.00     0.239 A 
ATOM      6  C   UNL     1      -2.743  -6.996   9.160  1.00  0.00     0.146 A 
ATOM      7  O   UNL     1      -3.575  -3.534   9.445  1.00  0.00    -0.285 OA
ATOM      8  C   UNL     1      -2.547  -5.594   9.162  1.00  0.00     0.111 A 
ATOM      9  C   UNL     1      -1.652  -7.867   9.135  1.00  0.00     0.094 A 
ATOM     10  C   UNL     1      -1.213  -5.096   9.054  1.00  0.00     0.134 A 
ATOM     11  C   UNL     1      -0.349  -7.369   9.093  1.00  0.00     0.123 A 
ATOM     12  C   UNL     1      -0.140  -5.994   9.045  1.00  0.00     0.093 A 
BRANCH   3  13
ATOM     13  C   UNL     1      -6.368  -7.477   9.191  1.00  0.00     0.021 A 
ATOM     14  C   UNL     1      -6.610  -8.508   8.265  1.00  0.00     0.016 A 
ATOM     15  C   UNL     1      -7.841  -9.171   8.253  1.00  0.00     0.047 A 
ATOM     16  C   UNL     1      -8.838  -8.822   9.174  1.00  0.00     0.115 A 
ATOM     17  C   UNL     1      -7.363  -7.149  10.125  1.00  0.00     0.016 A 
ATOM     18  C   UNL     1      -8.593  -7.816  10.113  1.00  0.00     0.047 A 
BRANCH  16  19
ATOM     19  O   UNL     1     -10.073  -9.470   9.164  1.00  0.00    -0.508 OA
ATOM     20  H   UNL     1     -10.818  -9.204   9.796  1.00  0.00     0.293 HD
ENDBRANCH  16  19
ENDBRANCH   3  13
BRANCH  10  21
ATOM     21  O   UNL     1      -0.896  -3.743   8.922  1.00  0.00    -0.507 OA
ATOM     22  H   UNL     1      -1.551  -3.034   8.623  1.00  0.00     0.293 HD
ENDBRANCH  10  21
BRANCH  11  23
ATOM     23  O   UNL     1       0.743  -8.234   9.074  1.00  0.00    -0.508 OA
ATOM     24  H   UNL     1       1.661  -7.924   8.777  1.00  0.00     0.293 HD
ENDBRANCH  11  23
ENDBRANCH   1   2
BRANCH   1  25
ATOM     25  C   UNL     1      -6.716  -3.553   8.747  1.00  0.00     0.339 C 
ATOM     26  C   UNL     1      -8.119  -3.908   8.176  1.00  0.00     0.214 C 
ATOM     27  O   UNL     1      -6.842  -2.459   9.637  1.00  0.00    -0.332 OA
ATOM     28  C   UNL     1      -9.012  -2.644   8.041  1.00  0.00     0.180 C 
ATOM     29  C   UNL     1      -7.073  -1.244   8.935  1.00  0.00     0.179 C 
ATOM     30  C   UNL     1      -8.137  -1.398   7.793  1.00  0.00     0.177 C 
BRANCH  26  31
ATOM     31  O   UNL     1      -8.004  -4.596   6.956  1.00  0.00    -0.384 OA
ATOM     32  H   UNL     1      -8.255  -5.543   7.118  1.00  0.00     0.211 HD
ENDBRANCH  26  31
BRANCH  28  33
ATOM     33  O   UNL     1      -9.927  -2.800   6.984  1.00  0.00    -0.387 OA
ATOM     34  H   UNL     1      -9.411  -2.774   6.134  1.00  0.00     0.211 HD
ENDBRANCH  28  33
BRANCH  29  35
ATOM     35  C   UNL     1      -7.439  -0.170   9.972  1.00  0.00     0.191 C 
BRANCH  35  36
ATOM     36  O   UNL     1      -7.160   1.110   9.472  1.00  0.00    -0.394 OA
ATOM     37  H   UNL     1      -6.394   1.462  10.003  1.00  0.00     0.210 HD
ENDBRANCH  35  36
ENDBRANCH  29  35
BRANCH  30  38
ATOM     38  O   UNL     1      -8.908  -0.232   7.602  1.00  0.00    -0.387 OA
ATOM     39  H   UNL     1      -8.306   0.490   7.285  1.00  0.00     0.211 HD
ENDBRANCH  30  38
ENDBRANCH   1  25
TORSDOF 11
ENDMDL
MODEL 8
REMARK VINA RESULT:    -4.061     17.228     20.196
REMARK INTER + INTRA:          -7.414
REMARK INTER:                  -6.145
REMARK INTRA:                  -1.269
REMARK UNBOUND:                -1.573
REMARK SMILES O=c1c(O[C@@H]2O[C@H](CO)[C@H](O)[C@@H](O)[C@H]2O)c(-c2ccc(O)cc2)oc2cc(O)cc(O)c12
REMARK SMILES IDX 4 1 3 2 16 3 24 4 2 5 25 6 1 7 32 8 26 9 30 10 27 11 29 12
REMARK SMILES IDX 17 13 18 14 19 15 20 16 23 17 22 18 21 19 31 21 28 23 5 25
REMARK SMILES IDX 14 26 6 27 12 28 7 29 10 30 15 31 13 33 8 35 9 36 11 38
REMARK H PARENT 21 20 31 22 28 24 15 32 13 34 9 37 11 39
REMARK Flexibility Score: inf
ROOT
ATOM      1  O   UNL     1       5.175   9.695   6.181  1.00  0.00    -0.454 OA
ENDROOT
BRANCH   1   2
ATOM      2  C   UNL     1       5.833   9.533   4.939  1.00  0.00     0.214 A 
ATOM      3  C   UNL     1       7.194   9.166   4.970  1.00  0.00     0.180 A 
ATOM      4  O   UNL     1       7.898   9.101   3.847  1.00  0.00    -0.452 OA
ATOM      5  C   UNL     1       5.234   9.750   3.674  1.00  0.00     0.239 A 
ATOM      6  C   UNL     1       7.378   9.303   2.645  1.00  0.00     0.146 A 
ATOM      7  O   UNL     1       4.036  10.124   3.602  1.00  0.00    -0.285 OA
ATOM      8  C   UNL     1       5.999   9.580   2.491  1.00  0.00     0.111 A 
ATOM      9  C   UNL     1       8.219   9.234   1.532  1.00  0.00     0.094 A 
ATOM     10  C   UNL     1       5.476   9.703   1.168  1.00  0.00     0.134 A 
ATOM     11  C   UNL     1       7.709   9.419   0.247  1.00  0.00     0.123 A 
ATOM     12  C   UNL     1       6.346   9.643   0.073  1.00  0.00     0.093 A 
BRANCH   3  13
ATOM     13  C   UNL     1       7.894   8.869   6.239  1.00  0.00     0.021 A 
ATOM     14  C   UNL     1       8.170   7.544   6.623  1.00  0.00     0.016 A 
ATOM     15  C   UNL     1       8.840   7.282   7.822  1.00  0.00     0.047 A 
ATOM     16  C   UNL     1       9.257   8.339   8.642  1.00  0.00     0.115 A 
ATOM     17  C   UNL     1       8.334   9.923   7.055  1.00  0.00     0.016 A 
ATOM     18  C   UNL     1       9.009   9.658   8.252  1.00  0.00     0.047 A 
BRANCH  16  19
ATOM     19  O   UNL     1       9.919   8.088   9.844  1.00  0.00    -0.508 OA
ATOM     20  H   UNL     1       9.411   7.895  10.699  1.00  0.00     0.293 HD
ENDBRANCH  16  19
ENDBRANCH   3  13
BRANCH  10  21
ATOM     21  O   UNL     1       4.118   9.853   0.879  1.00  0.00    -0.507 OA
ATOM     22  H   UNL     1       3.732   9.827  -0.053  1.00  0.00     0.293 HD
ENDBRANCH  10  21
BRANCH  11  23
ATOM     23  O   UNL     1       8.544   9.357  -0.866  1.00  0.00    -0.508 OA
ATOM     24  H   UNL     1       8.223   9.632  -1.788  1.00  0.00     0.293 HD
ENDBRANCH  11  23
ENDBRANCH   1   2
BRANCH   1  25
ATOM     25  C   UNL     1       4.092   8.952   6.746  1.00  0.00     0.339 C 
ATOM     26  C   UNL     1       4.458   8.483   8.183  1.00  0.00     0.214 C 
ATOM     27  O   UNL     1       2.972   9.817   6.812  1.00  0.00    -0.332 OA
ATOM     28  C   UNL     1       3.196   8.369   9.081  1.00  0.00     0.180 C 
ATOM     29  C   UNL     1       1.777   9.097   7.087  1.00  0.00     0.179 C 
ATOM     30  C   UNL     1       1.960   8.031   8.222  1.00  0.00     0.177 C 
BRANCH  26  31
ATOM     31  O   UNL     1       5.180   7.278   8.147  1.00  0.00    -0.384 OA
ATOM     32  H   UNL     1       5.349   7.054   7.195  1.00  0.00     0.211 HD
ENDBRANCH  26  31
BRANCH  28  33
ATOM     33  O   UNL     1       3.378   7.378  10.062  1.00  0.00    -0.387 OA
ATOM     34  H   UNL     1       4.291   7.494  10.439  1.00  0.00     0.211 HD
ENDBRANCH  28  33
BRANCH  29  35
ATOM     35  C   UNL     1       0.672  10.125   7.384  1.00  0.00     0.191 C 
BRANCH  35  36
ATOM     36  O   UNL     1      -0.593   9.553   7.192  1.00  0.00    -0.394 OA
ATOM     37  H   UNL     1      -0.754   9.541   6.209  1.00  0.00     0.210 HD
ENDBRANCH  35  36
ENDBRANCH  29  35
BRANCH  30  38
ATOM     38  O   UNL     1       0.797   7.856   9.002  1.00  0.00    -0.387 OA
ATOM     39  H   UNL     1       1.074   7.635   9.929  1.00  0.00     0.211 HD
ENDBRANCH  30  38
ENDBRANCH   1  25
TORSDOF 11
ENDMDL
