MODEL 1
REMARK VINA RESULT:    -5.402      0.000      0.000
REMARK INTER + INTRA:          -6.244
REMARK INTER:                  -6.192
REMARK INTRA:                  -0.052
REMARK UNBOUND:                -0.052
REMARK SMILES O=C([O-])c1cc(O)c(O)c(O)c1
REMARK SMILES IDX 4 1 5 2 12 3 6 4 10 5 8 6 2 7 1 8 3 9 7 10 11 12 9 14
REMARK H PARENT 7 11 11 13 9 15
REMARK Flexibility Score: inf
ROOT
ATOM      1  C   UNL     1       9.025  -4.005  19.771  1.00  0.00     0.005 A 
ATOM      2  C   UNL     1       7.915  -4.863  19.743  1.00  0.00     0.060 A 
ATOM      3  C   UNL     1      10.314  -4.560  19.814  1.00  0.00     0.060 A 
ATOM      4  C   UNL     1       8.089  -6.252  19.759  1.00  0.00     0.162 A 
ATOM      5  C   UNL     1      10.502  -5.947  19.830  1.00  0.00     0.162 A 
ATOM      6  C   UNL     1       9.376  -6.805  19.802  1.00  0.00     0.200 A 
ENDROOT
BRANCH   1   7
ATOM      7  C   UNL     1       8.834  -2.537  19.754  1.00  0.00     0.072 C 
ATOM      8  O   UNL     1       7.731  -2.039  19.403  1.00  0.00    -0.545 OA
ATOM      9  O   UNL     1       9.870  -1.687  20.125  1.00  0.00    -0.545 OA
ENDBRANCH   1   7
BRANCH   4  10
ATOM     10  O   UNL     1       6.980  -7.098  19.731  1.00  0.00    -0.504 OA
ATOM     11  H   UNL     1       6.257  -7.048  20.440  1.00  0.00     0.293 HD
ENDBRANCH   4  10
BRANCH   5  12
ATOM     12  O   UNL     1      11.813  -6.425  19.873  1.00  0.00    -0.504 OA
ATOM     13  H   UNL     1      12.206  -6.932  20.654  1.00  0.00     0.293 HD
ENDBRANCH   5  12
BRANCH   6  14
ATOM     14  O   UNL     1       9.493  -8.197  19.816  1.00  0.00    -0.502 OA
ATOM     15  H   UNL     1       8.894  -8.810  20.351  1.00  0.00     0.293 HD
ENDBRANCH   6  14
TORSDOF 4
ENDMDL
MODEL 2
REMARK VINA RESULT:    -5.275      0.101      2.437
REMARK INTER + INTRA:          -6.098
REMARK INTER:                  -6.046
REMARK INTRA:                  -0.052
REMARK UNBOUND:                -0.052
REMARK SMILES O=C([O-])c1cc(O)c(O)c(O)c1
REMARK SMILES IDX 4 1 5 2 12 3 6 4 10 5 8 6 2 7 1 8 3 9 7 10 11 12 9 14
REMARK H PARENT 7 11 11 13 9 15
REMARK Flexibility Score: inf
ROOT
ATOM      1  C   UNL     1       8.992  -4.032  19.757  1.00  0.00     0.005 A 
ATOM      2  C   UNL     1      10.269  -4.613  19.771  1.00  0.00     0.060 A 
ATOM      3  C   UNL     1       7.863  -4.868  19.758  1.00  0.00     0.060 A 
ATOM      4  C   UNL     1      10.416  -6.006  19.784  1.00  0.00     0.162 A 
ATOM      5  C   UNL     1       7.997  -6.261  19.771  1.00  0.00     0.162 A 
ATOM      6  C   UNL     1       9.289  -6.838  19.784  1.00  0.00     0.200 A 
ENDROOT
BRANCH   1   7
ATOM      7  C   UNL     1       8.842  -2.559  19.744  1.00  0.00     0.072 C 
ATOM      8  O   UNL     1       7.749  -2.030  19.411  1.00  0.00    -0.545 OA
ATOM      9  O   UNL     1       9.907  -1.739  20.098  1.00  0.00    -0.545 OA
ENDBRANCH   1   7
BRANCH   4  10
ATOM     10  O   UNL     1      11.690  -6.575  19.797  1.00  0.00    -0.504 OA
ATOM     11  H   UNL     1      12.150  -6.826  20.665  1.00  0.00     0.293 HD
ENDBRANCH   4  10
BRANCH   5  12
ATOM     12  O   UNL     1       6.828  -7.026  19.770  1.00  0.00    -0.504 OA
ATOM     13  H   UNL     1       5.901  -6.643  19.655  1.00  0.00     0.293 HD
ENDBRANCH   5  12
BRANCH   6  14
ATOM     14  O   UNL     1       9.493  -8.220  19.797  1.00  0.00    -0.502 OA
ATOM     15  H   UNL     1       9.770  -8.759  18.989  1.00  0.00     0.293 HD
ENDBRANCH   6  14
TORSDOF 4
ENDMDL
MODEL 3
REMARK VINA RESULT:    -5.197      1.239      2.974
REMARK INTER + INTRA:          -6.009
REMARK INTER:                  -5.957
REMARK INTRA:                  -0.052
REMARK UNBOUND:                -0.052
REMARK SMILES O=C([O-])c1cc(O)c(O)c(O)c1
REMARK SMILES IDX 4 1 5 2 12 3 6 4 10 5 8 6 2 7 1 8 3 9 7 10 11 12 9 14
REMARK H PARENT 7 11 11 13 9 15
REMARK Flexibility Score: inf
ROOT
ATOM      1  C   UNL     1      10.131  -4.396  19.757  1.00  0.00     0.005 A 
ATOM      2  C   UNL     1      10.352  -5.782  19.759  1.00  0.00     0.060 A 
ATOM      3  C   UNL     1       8.812  -3.916  19.804  1.00  0.00     0.060 A 
ATOM      4  C   UNL     1       9.273  -6.674  19.806  1.00  0.00     0.162 A 
ATOM      5  C   UNL     1       7.725  -4.796  19.852  1.00  0.00     0.162 A 
ATOM      6  C   UNL     1       7.957  -6.192  19.853  1.00  0.00     0.200 A 
ENDROOT
BRANCH   1   7
ATOM      7  C   UNL     1      11.276  -3.458  19.707  1.00  0.00     0.072 C 
ATOM      8  O   UNL     1      12.399  -3.842  19.284  1.00  0.00    -0.545 OA
ATOM      9  O   UNL     1      11.127  -2.141  20.125  1.00  0.00    -0.545 OA
ENDBRANCH   1   7
BRANCH   4  10
ATOM     10  O   UNL     1       9.501  -8.050  19.808  1.00  0.00    -0.504 OA
ATOM     11  H   UNL     1      10.237  -8.466  19.249  1.00  0.00     0.293 HD
ENDBRANCH   4  10
BRANCH   5  12
ATOM     12  O   UNL     1       6.443  -4.245  19.898  1.00  0.00    -0.504 OA
ATOM     13  H   UNL     1       5.593  -4.777  19.778  1.00  0.00     0.293 HD
ENDBRANCH   5  12
BRANCH   6  14
ATOM     14  O   UNL     1       6.919  -7.126  19.900  1.00  0.00    -0.502 OA
ATOM     15  H   UNL     1       6.970  -8.006  20.393  1.00  0.00     0.293 HD
ENDBRANCH   6  14
TORSDOF 4
ENDMDL
MODEL 4
REMARK VINA RESULT:    -5.069      1.348      2.393
REMARK INTER + INTRA:          -5.862
REMARK INTER:                  -5.813
REMARK INTRA:                  -0.049
REMARK UNBOUND:                -0.052
REMARK SMILES O=C([O-])c1cc(O)c(O)c(O)c1
REMARK SMILES IDX 4 1 5 2 12 3 6 4 10 5 8 6 2 7 1 8 3 9 7 10 11 12 9 14
REMARK H PARENT 7 11 11 13 9 15
REMARK Flexibility Score: inf
ROOT
ATOM      1  C   UNL     1      10.192  -4.228  19.688  1.00  0.00     0.005 A 
ATOM      2  C   UNL     1       8.877  -3.741  19.747  1.00  0.00     0.060 A 
ATOM      3  C   UNL     1      10.410  -5.612  19.777  1.00  0.00     0.060 A 
ATOM      4  C   UNL     1       7.798  -4.622  19.892  1.00  0.00     0.162 A 
ATOM      5  C   UNL     1       9.341  -6.504  19.922  1.00  0.00     0.162 A 
ATOM      6  C   UNL     1       8.018  -6.003  19.981  1.00  0.00     0.200 A 
ENDROOT
BRANCH   1   7
ATOM      7  C   UNL     1      11.328  -3.292  19.534  1.00  0.00     0.072 C 
ATOM      8  O   UNL     1      11.324  -2.177  20.123  1.00  0.00    -0.545 OA
ATOM      9  O   UNL     1      12.417  -3.629  18.738  1.00  0.00    -0.545 OA
ENDBRANCH   1   7
BRANCH   4  10
ATOM     10  O   UNL     1       6.494  -4.129  19.949  1.00  0.00    -0.504 OA
ATOM     11  H   UNL     1       6.250  -3.342  20.540  1.00  0.00     0.293 HD
ENDBRANCH   4  10
BRANCH   5  12
ATOM     12  O   UNL     1       9.636  -7.866  20.004  1.00  0.00    -0.504 OA
ATOM     13  H   UNL     1      10.488  -8.238  20.400  1.00  0.00     0.293 HD
ENDBRANCH   5  12
BRANCH   6  14
ATOM     14  O   UNL     1       6.906  -6.837  20.125  1.00  0.00    -0.502 OA
ATOM     15  H   UNL     1       5.971  -6.588  19.835  1.00  0.00     0.293 HD
ENDBRANCH   6  14
TORSDOF 4
ENDMDL
MODEL 5
REMARK VINA RESULT:    -4.852      2.269      5.382
REMARK INTER + INTRA:          -5.613
REMARK INTER:                  -5.561
REMARK INTRA:                  -0.052
REMARK UNBOUND:                -0.052
REMARK SMILES O=C([O-])c1cc(O)c(O)c(O)c1
REMARK SMILES IDX 4 1 5 2 12 3 6 4 10 5 8 6 2 7 1 8 3 9 7 10 11 12 9 14
REMARK H PARENT 7 11 11 13 9 15
REMARK Flexibility Score: inf
ROOT
ATOM      1  C   UNL     1      10.726  -4.168  19.406  1.00  0.00     0.005 A 
ATOM      2  C   UNL     1      11.949  -3.846  18.800  1.00  0.00     0.060 A 
ATOM      3  C   UNL     1       9.746  -3.171  19.536  1.00  0.00     0.060 A 
ATOM      4  C   UNL     1      12.190  -2.549  18.330  1.00  0.00     0.162 A 
ATOM      5  C   UNL     1       9.974  -1.870  19.070  1.00  0.00     0.162 A 
ATOM      6  C   UNL     1      11.211  -1.554  18.461  1.00  0.00     0.200 A 
ENDROOT
BRANCH   1   7
ATOM      7  C   UNL     1      10.477  -5.541  19.901  1.00  0.00     0.072 C 
ATOM      8  O   UNL     1      11.438  -6.325  20.124  1.00  0.00    -0.545 OA
ATOM      9  O   UNL     1       9.179  -5.986  20.125  1.00  0.00    -0.545 OA
ENDBRANCH   1   7
BRANCH   4  10
ATOM     10  O   UNL     1      13.409  -2.237  17.728  1.00  0.00    -0.504 OA
ATOM     11  H   UNL     1      13.733  -1.280  17.650  1.00  0.00     0.293 HD
ENDBRANCH   4  10
BRANCH   5  12
ATOM     12  O   UNL     1       8.952  -0.933  19.235  1.00  0.00    -0.504 OA
ATOM     13  H   UNL     1       8.805  -0.142  18.623  1.00  0.00     0.293 HD
ENDBRANCH   5  12
BRANCH   6  14
ATOM     14  O   UNL     1      11.504  -0.278  17.975  1.00  0.00    -0.502 OA
ATOM     15  H   UNL     1      10.887   0.518  18.065  1.00  0.00     0.293 HD
ENDBRANCH   6  14
TORSDOF 4
ENDMDL
MODEL 6
REMARK VINA RESULT:    -4.820      2.254      4.876
REMARK INTER + INTRA:          -5.577
REMARK INTER:                  -5.525
REMARK INTRA:                  -0.052
REMARK UNBOUND:                -0.052
REMARK SMILES O=C([O-])c1cc(O)c(O)c(O)c1
REMARK SMILES IDX 4 1 5 2 12 3 6 4 10 5 8 6 2 7 1 8 3 9 7 10 11 12 9 14
REMARK H PARENT 7 11 11 13 9 15
REMARK Flexibility Score: inf
ROOT
ATOM      1  C   UNL     1      10.714  -4.188  19.393  1.00  0.00     0.005 A 
ATOM      2  C   UNL     1       9.728  -3.199  19.531  1.00  0.00     0.060 A 
ATOM      3  C   UNL     1      11.930  -3.856  18.773  1.00  0.00     0.060 A 
ATOM      4  C   UNL     1       9.953  -1.900  19.058  1.00  0.00     0.162 A 
ATOM      5  C   UNL     1      12.167  -2.561  18.296  1.00  0.00     0.162 A 
ATOM      6  C   UNL     1      11.166  -1.571  18.439  1.00  0.00     0.200 A 
ENDROOT
BRANCH   1   7
ATOM      7  C   UNL     1      10.472  -5.559  19.896  1.00  0.00     0.072 C 
ATOM      8  O   UNL     1      11.436  -6.337  20.125  1.00  0.00    -0.545 OA
ATOM      9  O   UNL     1       9.175  -6.008  20.122  1.00  0.00    -0.545 OA
ENDBRANCH   1   7
BRANCH   4  10
ATOM     10  O   UNL     1       8.967  -0.923  19.201  1.00  0.00    -0.504 OA
ATOM     11  H   UNL     1       8.959  -0.090  18.623  1.00  0.00     0.293 HD
ENDBRANCH   4  10
BRANCH   5  12
ATOM     12  O   UNL     1      13.399  -2.307  17.691  1.00  0.00    -0.504 OA
ATOM     13  H   UNL     1      13.521  -1.720  16.878  1.00  0.00     0.293 HD
ENDBRANCH   5  12
BRANCH   6  14
ATOM     14  O   UNL     1      11.337  -0.261  17.986  1.00  0.00    -0.502 OA
ATOM     15  H   UNL     1      11.162   0.561  18.548  1.00  0.00     0.293 HD
ENDBRANCH   6  14
TORSDOF 4
ENDMDL
MODEL 7
REMARK VINA RESULT:    -4.274      1.599      3.552
REMARK INTER + INTRA:          -4.951
REMARK INTER:                  -4.898
REMARK INTRA:                  -0.053
REMARK UNBOUND:                -0.052
REMARK SMILES O=C([O-])c1cc(O)c(O)c(O)c1
REMARK SMILES IDX 4 1 5 2 12 3 6 4 10 5 8 6 2 7 1 8 3 9 7 10 11 12 9 14
REMARK H PARENT 7 11 11 13 9 15
REMARK Flexibility Score: inf
ROOT
ATOM      1  C   UNL     1       8.717  -3.797  19.719  1.00  0.00     0.005 A 
ATOM      2  C   UNL     1       9.481  -4.970  19.827  1.00  0.00     0.060 A 
ATOM      3  C   UNL     1       9.361  -2.592  19.396  1.00  0.00     0.060 A 
ATOM      4  C   UNL     1      10.865  -4.939  19.617  1.00  0.00     0.162 A 
ATOM      5  C   UNL     1      10.744  -2.548  19.183  1.00  0.00     0.162 A 
ATOM      6  C   UNL     1      11.506  -3.735  19.295  1.00  0.00     0.200 A 
ENDROOT
BRANCH   1   7
ATOM      7  C   UNL     1       7.254  -3.837  19.942  1.00  0.00     0.072 C 
ATOM      8  O   UNL     1       6.663  -4.935  20.119  1.00  0.00    -0.545 OA
ATOM      9  O   UNL     1       6.512  -2.661  19.959  1.00  0.00    -0.545 OA
ENDBRANCH   1   7
BRANCH   4  10
ATOM     10  O   UNL     1      11.616  -6.109  19.726  1.00  0.00    -0.504 OA
ATOM     11  H   UNL     1      11.643  -6.794  18.980  1.00  0.00     0.293 HD
ENDBRANCH   4  10
BRANCH   5  12
ATOM     12  O   UNL     1      11.313  -1.313  18.865  1.00  0.00    -0.504 OA
ATOM     13  H   UNL     1      11.835  -0.745  19.518  1.00  0.00     0.293 HD
ENDBRANCH   5  12
BRANCH   6  14
ATOM     14  O   UNL     1      12.889  -3.761  19.095  1.00  0.00    -0.502 OA
ATOM     15  H   UNL     1      13.411  -4.591  18.854  1.00  0.00     0.293 HD
ENDBRANCH   6  14
TORSDOF 4
ENDMDL
MODEL 8
REMARK VINA RESULT:    -4.206      1.539      2.190
REMARK INTER + INTRA:          -4.873
REMARK INTER:                  -4.821
REMARK INTRA:                  -0.052
REMARK UNBOUND:                -0.052
REMARK SMILES O=C([O-])c1cc(O)c(O)c(O)c1
REMARK SMILES IDX 4 1 5 2 12 3 6 4 10 5 8 6 2 7 1 8 3 9 7 10 11 12 9 14
REMARK H PARENT 7 11 11 13 9 15
REMARK Flexibility Score: inf
ROOT
ATOM      1  C   UNL     1       9.355  -2.632  19.501  1.00  0.00     0.005 A 
ATOM      2  C   UNL     1       8.734  -3.855  19.800  1.00  0.00     0.060 A 
ATOM      3  C   UNL     1      10.733  -2.617  19.228  1.00  0.00     0.060 A 
ATOM      4  C   UNL     1       9.476  -5.042  19.827  1.00  0.00     0.162 A 
ATOM      5  C   UNL     1      11.486  -3.797  19.252  1.00  0.00     0.162 A 
ATOM      6  C   UNL     1      10.851  -5.025  19.555  1.00  0.00     0.200 A 
ENDROOT
BRANCH   1   7
ATOM      7  C   UNL     1       8.565  -1.381  19.473  1.00  0.00     0.072 C 
ATOM      8  O   UNL     1       9.029  -0.342  18.931  1.00  0.00    -0.545 OA
ATOM      9  O   UNL     1       7.299  -1.334  20.045  1.00  0.00    -0.545 OA
ENDBRANCH   1   7
BRANCH   4  10
ATOM     10  O   UNL     1       8.850  -6.252  20.124  1.00  0.00    -0.504 OA
ATOM     11  H   UNL     1       9.378  -7.062  20.429  1.00  0.00     0.293 HD
ENDBRANCH   4  10
BRANCH   5  12
ATOM     12  O   UNL     1      12.850  -3.702  18.971  1.00  0.00    -0.504 OA
ATOM     13  H   UNL     1      13.360  -2.832  18.925  1.00  0.00     0.293 HD
ENDBRANCH   5  12
BRANCH   6  14
ATOM     14  O   UNL     1      11.543  -6.237  19.595  1.00  0.00    -0.502 OA
ATOM     15  H   UNL     1      12.158  -6.563  18.863  1.00  0.00     0.293 HD
ENDBRANCH   6  14
TORSDOF 4
ENDMDL
MODEL 9
REMARK VINA RESULT:    -4.056      2.842      4.712
REMARK INTER + INTRA:          -4.700
REMARK INTER:                  -4.651
REMARK INTRA:                  -0.050
REMARK UNBOUND:                -0.052
REMARK SMILES O=C([O-])c1cc(O)c(O)c(O)c1
REMARK SMILES IDX 4 1 5 2 12 3 6 4 10 5 8 6 2 7 1 8 3 9 7 10 11 12 9 14
REMARK H PARENT 7 11 11 13 9 15
REMARK Flexibility Score: inf
ROOT
ATOM      1  C   UNL     1       9.323  -2.115  19.239  1.00  0.00     0.005 A 
ATOM      2  C   UNL     1       9.867  -0.921  18.742  1.00  0.00     0.060 A 
ATOM      3  C   UNL     1      10.154  -3.238  19.375  1.00  0.00     0.060 A 
ATOM      4  C   UNL     1      11.220  -0.850  18.386  1.00  0.00     0.162 A 
ATOM      5  C   UNL     1      11.508  -3.181  19.023  1.00  0.00     0.162 A 
ATOM      6  C   UNL     1      12.048  -1.973  18.522  1.00  0.00     0.200 A 
ENDROOT
BRANCH   1   7
ATOM      7  C   UNL     1       7.892  -2.183  19.614  1.00  0.00     0.072 C 
ATOM      8  O   UNL     1       7.316  -1.186  20.125  1.00  0.00    -0.545 OA
ATOM      9  O   UNL     1       7.164  -3.349  19.408  1.00  0.00    -0.545 OA
ENDBRANCH   1   7
BRANCH   4  10
ATOM     10  O   UNL     1      11.753   0.341  17.893  1.00  0.00    -0.504 OA
ATOM     11  H   UNL     1      11.371   0.792  17.070  1.00  0.00     0.293 HD
ENDBRANCH   4  10
BRANCH   5  12
ATOM     12  O   UNL     1      12.271  -4.339  19.186  1.00  0.00    -0.504 OA
ATOM     13  H   UNL     1      13.274  -4.377  19.069  1.00  0.00     0.293 HD
ENDBRANCH   5  12
BRANCH   6  14
ATOM     14  O   UNL     1      13.389  -1.847  18.152  1.00  0.00    -0.502 OA
ATOM     15  H   UNL     1      13.707  -1.339  17.339  1.00  0.00     0.293 HD
ENDBRANCH   6  14
TORSDOF 4
ENDMDL
