MODEL 1
REMARK VINA RESULT:    -4.668      0.000      0.000
REMARK INTER + INTRA:          -4.668
REMARK INTER:                  -4.668
REMARK INTRA:                   0.000
REMARK UNBOUND:                 0.000
REMARK SMILES O=c1ccc2ccc3occc3c2o1
REMARK SMILES IDX 6 1 7 2 8 3 12 4 11 5 10 6 9 7 13 8 5 9 4 10 3 11 2 12 1 13
REMARK SMILES IDX 14 14
REMARK H PARENT
REMARK Flexibility Score: inf
ROOT
ATOM      1  C   UNL     1      43.298  17.371  -3.811  1.00  0.00     0.016 A 
ATOM      2  C   UNL     1      42.608  17.484  -2.590  1.00  0.00     0.048 A 
ATOM      3  C   UNL     1      42.308  18.762  -2.121  1.00  0.00     0.137 A 
ATOM      4  C   UNL     1      42.664  19.889  -2.813  1.00  0.00     0.064 A 
ATOM      5  C   UNL     1      42.221  20.965  -2.081  1.00  0.00     0.054 A 
ATOM      6  C   UNL     1      41.610  20.401  -0.965  1.00  0.00     0.196 A 
ATOM      7  O   UNL     1      41.678  19.083  -1.018  1.00  0.00    -0.464 OA
ATOM      8  C   UNL     1      43.348  19.819  -4.025  1.00  0.00     0.149 A 
ATOM      9  C   UNL     1      43.669  18.533  -4.531  1.00  0.00     0.018 A 
ATOM     10  C   UNL     1      44.355  18.457  -5.746  1.00  0.00     0.019 A 
ATOM     11  C   UNL     1      44.697  19.633  -6.415  1.00  0.00     0.094 A 
ATOM     12  C   UNL     1      44.345  20.866  -5.851  1.00  0.00     0.336 A 
ATOM     13  O   UNL     1      44.647  21.935  -6.442  1.00  0.00    -0.246 OA
ATOM     14  O   UNL     1      43.692  20.916  -4.693  1.00  0.00    -0.422 OA
ENDROOT
TORSDOF 0
ENDMDL
MODEL 2
REMARK VINA RESULT:    -4.570      2.100      3.455
REMARK INTER + INTRA:          -4.570
REMARK INTER:                  -4.570
REMARK INTRA:                   0.000
REMARK UNBOUND:                 0.000
REMARK SMILES O=c1ccc2ccc3occc3c2o1
REMARK SMILES IDX 6 1 7 2 8 3 12 4 11 5 10 6 9 7 13 8 5 9 4 10 3 11 2 12 1 13
REMARK SMILES IDX 14 14
REMARK H PARENT
REMARK Flexibility Score: inf
ROOT
ATOM      1  C   UNL     1      43.647  20.043  -4.615  1.00  0.00     0.016 A 
ATOM      2  C   UNL     1      42.961  20.979  -3.819  1.00  0.00     0.048 A 
ATOM      3  C   UNL     1      42.360  20.527  -2.645  1.00  0.00     0.137 A 
ATOM      4  C   UNL     1      42.422  19.214  -2.259  1.00  0.00     0.064 A 
ATOM      5  C   UNL     1      41.736  19.113  -1.072  1.00  0.00     0.054 A 
ATOM      6  C   UNL     1      41.291  20.406  -0.814  1.00  0.00     0.196 A 
ATOM      7  O   UNL     1      41.680  21.227  -1.772  1.00  0.00    -0.464 OA
ATOM      8  C   UNL     1      43.092  18.258  -3.020  1.00  0.00     0.149 A 
ATOM      9  C   UNL     1      43.715  18.684  -4.220  1.00  0.00     0.018 A 
ATOM     10  C   UNL     1      44.388  17.729  -4.988  1.00  0.00     0.019 A 
ATOM     11  C   UNL     1      44.425  16.403  -4.553  1.00  0.00     0.094 A 
ATOM     12  C   UNL     1      43.785  16.060  -3.355  1.00  0.00     0.336 A 
ATOM     13  O   UNL     1      43.809  14.869  -2.951  1.00  0.00    -0.246 OA
ATOM     14  O   UNL     1      43.150  16.984  -2.640  1.00  0.00    -0.422 OA
ENDROOT
TORSDOF 0
ENDMDL
MODEL 3
REMARK VINA RESULT:    -4.531      7.035      9.078
REMARK INTER + INTRA:          -4.531
REMARK INTER:                  -4.531
REMARK INTRA:                   0.000
REMARK UNBOUND:                 0.000
REMARK SMILES O=c1ccc2ccc3occc3c2o1
REMARK SMILES IDX 6 1 7 2 8 3 12 4 11 5 10 6 9 7 13 8 5 9 4 10 3 11 2 12 1 13
REMARK SMILES IDX 14 14
REMARK H PARENT
REMARK Flexibility Score: inf
ROOT
ATOM      1  C   UNL     1      47.541  16.131  -4.796  1.00  0.00     0.016 A 
ATOM      2  C   UNL     1      48.507  16.754  -5.607  1.00  0.00     0.048 A 
ATOM      3  C   UNL     1      49.740  16.124  -5.762  1.00  0.00     0.137 A 
ATOM      4  C   UNL     1      50.025  14.931  -5.151  1.00  0.00     0.064 A 
ATOM      5  C   UNL     1      51.309  14.594  -5.510  1.00  0.00     0.054 A 
ATOM      6  C   UNL     1      51.726  15.634  -6.335  1.00  0.00     0.196 A 
ATOM      7  O   UNL     1      50.766  16.532  -6.466  1.00  0.00    -0.464 OA
ATOM      8  C   UNL     1      49.095  14.283  -4.341  1.00  0.00     0.149 A 
ATOM      9  C   UNL     1      47.830  14.897  -4.162  1.00  0.00     0.018 A 
ATOM     10  C   UNL     1      46.893  14.251  -3.350  1.00  0.00     0.019 A 
ATOM     11  C   UNL     1      47.229  13.037  -2.750  1.00  0.00     0.094 A 
ATOM     12  C   UNL     1      48.500  12.493  -2.974  1.00  0.00     0.336 A 
ATOM     13  O   UNL     1      48.818  11.400  -2.439  1.00  0.00    -0.246 OA
ATOM     14  O   UNL     1      49.377  13.125  -3.750  1.00  0.00    -0.422 OA
ENDROOT
TORSDOF 0
ENDMDL
MODEL 4
REMARK VINA RESULT:    -4.514      8.179      9.342
REMARK INTER + INTRA:          -4.514
REMARK INTER:                  -4.514
REMARK INTRA:                   0.000
REMARK UNBOUND:                 0.000
REMARK SMILES O=c1ccc2ccc3occc3c2o1
REMARK SMILES IDX 6 1 7 2 8 3 12 4 11 5 10 6 9 7 13 8 5 9 4 10 3 11 2 12 1 13
REMARK SMILES IDX 14 14
REMARK H PARENT
REMARK Flexibility Score: inf
ROOT
ATOM      1  C   UNL     1      49.414  16.253  -5.282  1.00  0.00     0.016 A 
ATOM      2  C   UNL     1      48.382  15.742  -4.473  1.00  0.00     0.048 A 
ATOM      3  C   UNL     1      48.480  14.420  -4.043  1.00  0.00     0.137 A 
ATOM      4  C   UNL     1      49.540  13.623  -4.386  1.00  0.00     0.064 A 
ATOM      5  C   UNL     1      49.325  12.397  -3.803  1.00  0.00     0.054 A 
ATOM      6  C   UNL     1      48.116  12.537  -3.129  1.00  0.00     0.196 A 
ATOM      7  O   UNL     1      47.636  13.757  -3.292  1.00  0.00    -0.464 OA
ATOM      8  C   UNL     1      50.581  14.093  -5.185  1.00  0.00     0.149 A 
ATOM      9  C   UNL     1      50.513  15.434  -5.640  1.00  0.00     0.018 A 
ATOM     10  C   UNL     1      51.554  15.911  -6.441  1.00  0.00     0.019 A 
ATOM     11  C   UNL     1      52.614  15.062  -6.764  1.00  0.00     0.094 A 
ATOM     12  C   UNL     1      52.610  13.749  -6.276  1.00  0.00     0.336 A 
ATOM     13  O   UNL     1      53.558  12.972  -6.559  1.00  0.00    -0.246 OA
ATOM     14  O   UNL     1      51.608  13.315  -5.515  1.00  0.00    -0.422 OA
ENDROOT
TORSDOF 0
ENDMDL
MODEL 5
REMARK VINA RESULT:    -4.495      6.449      8.470
REMARK INTER + INTRA:          -4.495
REMARK INTER:                  -4.495
REMARK INTRA:                   0.000
REMARK UNBOUND:                 0.000
REMARK SMILES O=c1ccc2ccc3occc3c2o1
REMARK SMILES IDX 6 1 7 2 8 3 12 4 11 5 10 6 9 7 13 8 5 9 4 10 3 11 2 12 1 13
REMARK SMILES IDX 14 14
REMARK H PARENT
REMARK Flexibility Score: inf
ROOT
ATOM      1  C   UNL     1      50.748  13.858  -4.900  1.00  0.00     0.016 A 
ATOM      2  C   UNL     1      51.240  14.863  -5.753  1.00  0.00     0.048 A 
ATOM      3  C   UNL     1      50.412  15.949  -6.033  1.00  0.00     0.137 A 
ATOM      4  C   UNL     1      49.154  16.055  -5.504  1.00  0.00     0.064 A 
ATOM      5  C   UNL     1      48.618  17.230  -5.977  1.00  0.00     0.054 A 
ATOM      6  C   UNL     1      49.616  17.770  -6.782  1.00  0.00     0.196 A 
ATOM      7  O   UNL     1      50.675  16.981  -6.795  1.00  0.00    -0.464 OA
ATOM      8  C   UNL     1      48.631  15.081  -4.655  1.00  0.00     0.149 A 
ATOM      9  C   UNL     1      49.447  13.962  -4.350  1.00  0.00     0.018 A 
ATOM     10  C   UNL     1      48.929  12.982  -3.498  1.00  0.00     0.019 A 
ATOM     11  C   UNL     1      47.640  13.135  -2.983  1.00  0.00     0.094 A 
ATOM     12  C   UNL     1      46.895  14.268  -3.332  1.00  0.00     0.336 A 
ATOM     13  O   UNL     1      45.733  14.419  -2.876  1.00  0.00    -0.246 OA
ATOM     14  O   UNL     1      47.408  15.189  -4.144  1.00  0.00    -0.422 OA
ENDROOT
TORSDOF 0
ENDMDL
MODEL 6
REMARK VINA RESULT:    -4.458      2.184      4.486
REMARK INTER + INTRA:          -4.458
REMARK INTER:                  -4.458
REMARK INTRA:                   0.000
REMARK UNBOUND:                 0.000
REMARK SMILES O=c1ccc2ccc3occc3c2o1
REMARK SMILES IDX 6 1 7 2 8 3 12 4 11 5 10 6 9 7 13 8 5 9 4 10 3 11 2 12 1 13
REMARK SMILES IDX 14 14
REMARK H PARENT
REMARK Flexibility Score: inf
ROOT
ATOM      1  C   UNL     1      43.935  19.568  -4.942  1.00  0.00     0.016 A 
ATOM      2  C   UNL     1      44.505  18.335  -5.312  1.00  0.00     0.048 A 
ATOM      3  C   UNL     1      44.284  17.235  -4.485  1.00  0.00     0.137 A 
ATOM      4  C   UNL     1      43.536  17.328  -3.341  1.00  0.00     0.064 A 
ATOM      5  C   UNL     1      43.518  16.077  -2.771  1.00  0.00     0.054 A 
ATOM      6  C   UNL     1      44.277  15.290  -3.632  1.00  0.00     0.196 A 
ATOM      7  O   UNL     1      44.720  16.011  -4.646  1.00  0.00    -0.464 OA
ATOM      8  C   UNL     1      42.956  18.531  -2.941  1.00  0.00     0.149 A 
ATOM      9  C   UNL     1      43.162  19.670  -3.760  1.00  0.00     0.018 A 
ATOM     10  C   UNL     1      42.582  20.879  -3.365  1.00  0.00     0.019 A 
ATOM     11  C   UNL     1      41.828  20.924  -2.191  1.00  0.00     0.094 A 
ATOM     12  C   UNL     1      41.669  19.756  -1.435  1.00  0.00     0.336 A 
ATOM     13  O   UNL     1      40.994  19.782  -0.374  1.00  0.00    -0.246 OA
ATOM     14  O   UNL     1      42.231  18.616  -1.829  1.00  0.00    -0.422 OA
ENDROOT
TORSDOF 0
ENDMDL
MODEL 7
REMARK VINA RESULT:    -4.377      6.228      7.763
REMARK INTER + INTRA:          -4.377
REMARK INTER:                  -4.377
REMARK INTRA:                   0.000
REMARK UNBOUND:                 0.000
REMARK SMILES O=c1ccc2ccc3occc3c2o1
REMARK SMILES IDX 6 1 7 2 8 3 12 4 11 5 10 6 9 7 13 8 5 9 4 10 3 11 2 12 1 13
REMARK SMILES IDX 14 14
REMARK H PARENT
REMARK Flexibility Score: inf
ROOT
ATOM      1  C   UNL     1      48.849  14.608  -4.746  1.00  0.00     0.016 A 
ATOM      2  C   UNL     1      49.480  13.442  -4.274  1.00  0.00     0.048 A 
ATOM      3  C   UNL     1      48.828  12.694  -3.295  1.00  0.00     0.137 A 
ATOM      4  C   UNL     1      47.608  13.063  -2.795  1.00  0.00     0.064 A 
ATOM      5  C   UNL     1      47.255  12.118  -1.860  1.00  0.00     0.054 A 
ATOM      6  C   UNL     1      48.315  11.216  -1.858  1.00  0.00     0.196 A 
ATOM      7  O   UNL     1      49.238  11.588  -2.726  1.00  0.00    -0.464 OA
ATOM      8  C   UNL     1      46.951  14.210  -3.237  1.00  0.00     0.149 A 
ATOM      9  C   UNL     1      47.587  14.995  -4.232  1.00  0.00     0.018 A 
ATOM     10  C   UNL     1      46.933  16.146  -4.680  1.00  0.00     0.019 A 
ATOM     11  C   UNL     1      45.690  16.481  -4.140  1.00  0.00     0.094 A 
ATOM     12  C   UNL     1      45.126  15.655  -3.160  1.00  0.00     0.336 A 
ATOM     13  O   UNL     1      44.007  15.945  -2.664  1.00  0.00    -0.246 OA
ATOM     14  O   UNL     1      45.766  14.564  -2.747  1.00  0.00    -0.422 OA
ENDROOT
TORSDOF 0
ENDMDL
MODEL 8
REMARK VINA RESULT:    -4.318      6.863      8.022
REMARK INTER + INTRA:          -4.318
REMARK INTER:                  -4.318
REMARK INTRA:                   0.000
REMARK UNBOUND:                 0.000
REMARK SMILES O=c1ccc2ccc3occc3c2o1
REMARK SMILES IDX 6 1 7 2 8 3 12 4 11 5 10 6 9 7 13 8 5 9 4 10 3 11 2 12 1 13
REMARK SMILES IDX 14 14
REMARK H PARENT
REMARK Flexibility Score: inf
ROOT
ATOM      1  C   UNL     1      46.303  14.930  -3.749  1.00  0.00     0.016 A 
ATOM      2  C   UNL     1      45.877  13.826  -2.988  1.00  0.00     0.048 A 
ATOM      3  C   UNL     1      46.809  12.832  -2.696  1.00  0.00     0.137 A 
ATOM      4  C   UNL     1      48.106  12.906  -3.127  1.00  0.00     0.064 A 
ATOM      5  C   UNL     1      48.746  11.778  -2.671  1.00  0.00     0.054 A 
ATOM      6  C   UNL     1      47.765  11.077  -1.976  1.00  0.00     0.196 A 
ATOM      7  O   UNL     1      46.619  11.733  -2.009  1.00  0.00    -0.464 OA
ATOM      8  C   UNL     1      48.566  13.983  -3.883  1.00  0.00     0.149 A 
ATOM      9  C   UNL     1      47.644  15.013  -4.198  1.00  0.00     0.018 A 
ATOM     10  C   UNL     1      48.099  16.096  -4.956  1.00  0.00     0.019 A 
ATOM     11  C   UNL     1      49.431  16.127  -5.372  1.00  0.00     0.094 A 
ATOM     12  C   UNL     1      50.282  15.072  -5.021  1.00  0.00     0.336 A 
ATOM     13  O   UNL     1      51.485  15.086  -5.390  1.00  0.00    -0.246 OA
ATOM     14  O   UNL     1      49.828  14.050  -4.300  1.00  0.00    -0.422 OA
ENDROOT
TORSDOF 0
ENDMDL
MODEL 9
REMARK VINA RESULT:    -4.221      5.750      7.657
REMARK INTER + INTRA:          -4.221
REMARK INTER:                  -4.221
REMARK INTRA:                   0.000
REMARK UNBOUND:                 0.000
REMARK SMILES O=c1ccc2ccc3occc3c2o1
REMARK SMILES IDX 6 1 7 2 8 3 12 4 11 5 10 6 9 7 13 8 5 9 4 10 3 11 2 12 1 13
REMARK SMILES IDX 14 14
REMARK H PARENT
REMARK Flexibility Score: inf
ROOT
ATOM      1  C   UNL     1      48.819  13.457  -3.747  1.00  0.00     0.016 A 
ATOM      2  C   UNL     1      49.973  13.758  -4.495  1.00  0.00     0.048 A 
ATOM      3  C   UNL     1      49.989  14.943  -5.229  1.00  0.00     0.137 A 
ATOM      4  C   UNL     1      48.925  15.805  -5.235  1.00  0.00     0.064 A 
ATOM      5  C   UNL     1      49.268  16.860  -6.048  1.00  0.00     0.054 A 
ATOM      6  C   UNL     1      50.551  16.556  -6.491  1.00  0.00     0.196 A 
ATOM      7  O   UNL     1      50.954  15.405  -5.984  1.00  0.00    -0.464 OA
ATOM      8  C   UNL     1      47.765  15.543  -4.507  1.00  0.00     0.149 A 
ATOM      9  C   UNL     1      47.715  14.345  -3.750  1.00  0.00     0.018 A 
ATOM     10  C   UNL     1      46.555  14.077  -3.018  1.00  0.00     0.019 A 
ATOM     11  C   UNL     1      45.497  14.986  -3.055  1.00  0.00     0.094 A 
ATOM     12  C   UNL     1      45.621  16.148  -3.827  1.00  0.00     0.336 A 
ATOM     13  O   UNL     1      44.675  16.976  -3.871  1.00  0.00    -0.246 OA
ATOM     14  O   UNL     1      46.734  16.383  -4.517  1.00  0.00    -0.422 OA
ENDROOT
TORSDOF 0
ENDMDL
