MODEL 1
REMARK VINA RESULT:    -4.677      0.000      0.000
REMARK INTER + INTRA:          -9.427
REMARK INTER:                  -8.505
REMARK INTRA:                  -0.922
REMARK UNBOUND:                -0.922
REMARK SMILES CCCCCCCCCCCCCC[C@@H](C)C(=O)[O-]
REMARK SMILES IDX 9 1 10 2 11 3 12 4 13 5 14 6 15 7 16 8 17 9 18 10 19 11 8 12
REMARK SMILES IDX 7 13 6 14 5 15 4 16 3 17 2 18 1 19
REMARK H PARENT
REMARK Flexibility Score: inf
ROOT
ATOM      1  C   UNL     1      19.006  24.394   4.467  1.00  0.00     0.000 C 
ENDROOT
BRANCH   1   2
ATOM      2  C   UNL     1      20.111  24.381   3.396  1.00  0.00     0.000 C 
BRANCH   2   3
ATOM      3  C   UNL     1      19.593  24.768   1.997  1.00  0.00     0.000 C 
BRANCH   3   4
ATOM      4  C   UNL     1      18.893  26.137   1.915  1.00  0.00     0.000 C 
BRANCH   4   5
ATOM      5  C   UNL     1      18.926  26.745   0.502  1.00  0.00     0.001 C 
BRANCH   5   6
ATOM      6  C   UNL     1      17.549  26.677  -0.195  1.00  0.00     0.009 C 
BRANCH   6   7
ATOM      7  C   UNL     1      17.537  25.783  -1.459  1.00  0.00     0.032 C 
ATOM      8  C   UNL     1      18.759  24.861  -1.541  1.00  0.00     0.014 C 
BRANCH   7   9
ATOM      9  C   UNL     1      16.278  24.961  -1.497  1.00  0.00     0.044 C 
ATOM     10  O   UNL     1      16.155  23.943  -0.763  1.00  0.00    -0.550 OA
ATOM     11  O   UNL     1      15.248  25.310  -2.363  1.00  0.00    -0.550 OA
ENDBRANCH   7   9
ENDBRANCH   6   7
ENDBRANCH   5   6
ENDBRANCH   4   5
ENDBRANCH   3   4
ENDBRANCH   2   3
ENDBRANCH   1   2
BRANCH   1  12
ATOM     12  C   UNL     1      18.047  23.192   4.355  1.00  0.00     0.000 C 
BRANCH  12  13
ATOM     13  C   UNL     1      16.987  23.096   5.467  1.00  0.00    -0.000 C 
BRANCH  13  14
ATOM     14  C   UNL     1      16.336  21.705   5.554  1.00  0.00    -0.000 C 
BRANCH  14  15
ATOM     15  C   UNL     1      14.831  21.779   5.862  1.00  0.00    -0.000 C 
BRANCH  15  16
ATOM     16  C   UNL     1      13.993  22.128   4.619  1.00  0.00    -0.000 C 
BRANCH  16  17
ATOM     17  C   UNL     1      13.168  23.411   4.805  1.00  0.00    -0.000 C 
BRANCH  17  18
ATOM     18  C   UNL     1      12.022  23.529   3.789  1.00  0.00    -0.003 C 
ATOM     19  C   UNL     1      12.075  22.400   2.765  1.00  0.00     0.004 C 
ENDBRANCH  17  18
ENDBRANCH  16  17
ENDBRANCH  15  16
ENDBRANCH  14  15
ENDBRANCH  13  14
ENDBRANCH  12  13
ENDBRANCH   1  12
TORSDOF 14
ENDMDL
MODEL 2
REMARK VINA RESULT:    -4.481      0.959      1.233
REMARK INTER + INTRA:          -9.071
REMARK INTER:                  -7.964
REMARK INTRA:                  -1.106
REMARK UNBOUND:                -0.922
REMARK SMILES CCCCCCCCCCCCCC[C@@H](C)C(=O)[O-]
REMARK SMILES IDX 9 1 10 2 11 3 12 4 13 5 14 6 15 7 16 8 17 9 18 10 19 11 8 12
REMARK SMILES IDX 7 13 6 14 5 15 4 16 3 17 2 18 1 19
REMARK H PARENT
REMARK Flexibility Score: inf
ROOT
ATOM      1  C   UNL     1      18.945  23.879   4.402  1.00  0.00     0.000 C 
ENDROOT
BRANCH   1   2
ATOM      2  C   UNL     1      19.016  25.373   4.040  1.00  0.00     0.000 C 
BRANCH   2   3
ATOM      3  C   UNL     1      19.270  25.614   2.540  1.00  0.00     0.000 C 
BRANCH   3   4
ATOM      4  C   UNL     1      19.653  24.360   1.732  1.00  0.00     0.000 C 
BRANCH   4   5
ATOM      5  C   UNL     1      19.300  24.477   0.239  1.00  0.00     0.001 C 
BRANCH   5   6
ATOM      6  C   UNL     1      17.799  24.230  -0.028  1.00  0.00     0.009 C 
BRANCH   6   7
ATOM      7  C   UNL     1      17.036  25.492  -0.497  1.00  0.00     0.032 C 
ATOM      8  C   UNL     1      17.968  26.564  -1.073  1.00  0.00     0.014 C 
BRANCH   7   9
ATOM      9  C   UNL     1      16.000  25.117  -1.521  1.00  0.00     0.044 C 
ATOM     10  O   UNL     1      15.135  24.235  -1.266  1.00  0.00    -0.550 OA
ATOM     11  O   UNL     1      16.005  25.731  -2.769  1.00  0.00    -0.550 OA
ENDBRANCH   7   9
ENDBRANCH   6   7
ENDBRANCH   5   6
ENDBRANCH   4   5
ENDBRANCH   3   4
ENDBRANCH   2   3
ENDBRANCH   1   2
BRANCH   1  12
ATOM     12  C   UNL     1      17.763  23.542   5.332  1.00  0.00     0.000 C 
BRANCH  12  13
ATOM     13  C   UNL     1      16.776  22.498   4.782  1.00  0.00    -0.000 C 
BRANCH  13  14
ATOM     14  C   UNL     1      16.154  21.623   5.885  1.00  0.00    -0.000 C 
BRANCH  14  15
ATOM     15  C   UNL     1      14.634  21.823   6.007  1.00  0.00    -0.000 C 
BRANCH  15  16
ATOM     16  C   UNL     1      13.984  22.221   4.670  1.00  0.00    -0.000 C 
BRANCH  16  17
ATOM     17  C   UNL     1      13.084  23.460   4.797  1.00  0.00    -0.000 C 
BRANCH  17  18
ATOM     18  C   UNL     1      11.977  23.499   3.732  1.00  0.00    -0.003 C 
ATOM     19  C   UNL     1      12.095  22.318   2.773  1.00  0.00     0.004 C 
ENDBRANCH  17  18
ENDBRANCH  16  17
ENDBRANCH  15  16
ENDBRANCH  14  15
ENDBRANCH  13  14
ENDBRANCH  12  13
ENDBRANCH   1  12
TORSDOF 14
ENDMDL
MODEL 3
REMARK VINA RESULT:    -4.452      1.086      2.023
REMARK INTER + INTRA:          -9.018
REMARK INTER:                  -8.101
REMARK INTRA:                  -0.917
REMARK UNBOUND:                -0.922
REMARK SMILES CCCCCCCCCCCCCC[C@@H](C)C(=O)[O-]
REMARK SMILES IDX 9 1 10 2 11 3 12 4 13 5 14 6 15 7 16 8 17 9 18 10 19 11 8 12
REMARK SMILES IDX 7 13 6 14 5 15 4 16 3 17 2 18 1 19
REMARK H PARENT
REMARK Flexibility Score: inf
ROOT
ATOM      1  C   UNL     1      17.688  23.623   5.678  1.00  0.00     0.000 C 
ENDROOT
BRANCH   1   2
ATOM      2  C   UNL     1      18.528  24.462   4.698  1.00  0.00     0.000 C 
BRANCH   2   3
ATOM      3  C   UNL     1      19.721  23.683   4.113  1.00  0.00     0.000 C 
BRANCH   3   4
ATOM      4  C   UNL     1      20.359  24.309   2.860  1.00  0.00     0.000 C 
BRANCH   4   5
ATOM      5  C   UNL     1      19.442  25.332   2.165  1.00  0.00     0.001 C 
BRANCH   5   6
ATOM      6  C   UNL     1      18.822  24.772   0.866  1.00  0.00     0.009 C 
BRANCH   6   7
ATOM      7  C   UNL     1      18.030  25.824   0.053  1.00  0.00     0.032 C 
ATOM      8  C   UNL     1      18.640  27.227   0.152  1.00  0.00     0.014 C 
BRANCH   7   9
ATOM      9  C   UNL     1      17.951  25.407  -1.390  1.00  0.00     0.044 C 
ATOM     10  O   UNL     1      18.965  24.948  -1.982  1.00  0.00    -0.550 OA
ATOM     11  O   UNL     1      16.755  25.546  -2.087  1.00  0.00    -0.550 OA
ENDBRANCH   7   9
ENDBRANCH   6   7
ENDBRANCH   5   6
ENDBRANCH   4   5
ENDBRANCH   3   4
ENDBRANCH   2   3
ENDBRANCH   1   2
BRANCH   1  12
ATOM     12  C   UNL     1      16.830  22.555   4.971  1.00  0.00     0.000 C 
BRANCH  12  13
ATOM     13  C   UNL     1      16.188  21.512   5.902  1.00  0.00    -0.000 C 
BRANCH  13  14
ATOM     14  C   UNL     1      14.686  21.757   6.130  1.00  0.00    -0.000 C 
BRANCH  14  15
ATOM     15  C   UNL     1      13.937  22.071   4.824  1.00  0.00    -0.000 C 
BRANCH  15  16
ATOM     16  C   UNL     1      13.212  23.428   4.873  1.00  0.00    -0.000 C 
BRANCH  16  17
ATOM     17  C   UNL     1      12.076  23.528   3.844  1.00  0.00    -0.000 C 
BRANCH  17  18
ATOM     18  C   UNL     1      12.155  22.435   2.767  1.00  0.00    -0.003 C 
ATOM     19  C   UNL     1      10.807  22.240   2.081  1.00  0.00     0.004 C 
ENDBRANCH  17  18
ENDBRANCH  16  17
ENDBRANCH  15  16
ENDBRANCH  14  15
ENDBRANCH  13  14
ENDBRANCH  12  13
ENDBRANCH   1  12
TORSDOF 14
ENDMDL
MODEL 4
REMARK VINA RESULT:    -4.156      2.151      6.473
REMARK INTER + INTRA:          -8.480
REMARK INTER:                  -7.432
REMARK INTRA:                  -1.048
REMARK UNBOUND:                -0.922
REMARK SMILES CCCCCCCCCCCCCC[C@@H](C)C(=O)[O-]
REMARK SMILES IDX 9 1 10 2 11 3 12 4 13 5 14 6 15 7 16 8 17 9 18 10 19 11 8 12
REMARK SMILES IDX 7 13 6 14 5 15 4 16 3 17 2 18 1 19
REMARK H PARENT
REMARK Flexibility Score: inf
ROOT
ATOM      1  C   UNL     1      18.961  23.863   4.325  1.00  0.00     0.000 C 
ENDROOT
BRANCH   1   2
ATOM      2  C   UNL     1      17.788  23.678   5.305  1.00  0.00     0.000 C 
BRANCH   2   3
ATOM      3  C   UNL     1      16.863  22.509   4.917  1.00  0.00     0.000 C 
BRANCH   3   4
ATOM      4  C   UNL     1      16.092  21.870   6.087  1.00  0.00     0.000 C 
BRANCH   4   5
ATOM      5  C   UNL     1      14.585  21.731   5.808  1.00  0.00     0.001 C 
BRANCH   5   6
ATOM      6  C   UNL     1      14.176  22.380   4.468  1.00  0.00     0.009 C 
BRANCH   6   7
ATOM      7  C   UNL     1      12.834  23.148   4.534  1.00  0.00     0.032 C 
ATOM      8  C   UNL     1      13.027  24.669   4.576  1.00  0.00     0.014 C 
BRANCH   7   9
ATOM      9  C   UNL     1      11.971  22.779   3.358  1.00  0.00     0.044 C 
ATOM     10  O   UNL     1      12.480  22.271   2.323  1.00  0.00    -0.550 OA
ATOM     11  O   UNL     1      10.602  23.019   3.402  1.00  0.00    -0.550 OA
ENDBRANCH   7   9
ENDBRANCH   6   7
ENDBRANCH   5   6
ENDBRANCH   4   5
ENDBRANCH   3   4
ENDBRANCH   2   3
ENDBRANCH   1   2
BRANCH   1  12
ATOM     12  C   UNL     1      19.257  25.343   4.015  1.00  0.00     0.000 C 
BRANCH  12  13
ATOM     13  C   UNL     1      19.181  25.728   2.527  1.00  0.00    -0.000 C 
BRANCH  13  14
ATOM     14  C   UNL     1      19.460  24.542   1.588  1.00  0.00    -0.000 C 
BRANCH  14  15
ATOM     15  C   UNL     1      18.754  24.690   0.229  1.00  0.00    -0.000 C 
BRANCH  15  16
ATOM     16  C   UNL     1      18.668  26.155  -0.232  1.00  0.00    -0.000 C 
BRANCH  16  17
ATOM     17  C   UNL     1      17.292  26.510  -0.818  1.00  0.00    -0.000 C 
BRANCH  17  18
ATOM     18  C   UNL     1      16.792  25.465  -1.826  1.00  0.00    -0.003 C 
ATOM     19  C   UNL     1      15.352  25.057  -1.528  1.00  0.00     0.004 C 
ENDBRANCH  17  18
ENDBRANCH  16  17
ENDBRANCH  15  16
ENDBRANCH  14  15
ENDBRANCH  13  14
ENDBRANCH  12  13
ENDBRANCH   1  12
TORSDOF 14
ENDMDL
MODEL 5
REMARK VINA RESULT:    -3.670     16.011     18.045
REMARK INTER + INTRA:          -7.596
REMARK INTER:                  -5.840
REMARK INTRA:                  -1.756
REMARK UNBOUND:                -0.922
REMARK SMILES CCCCCCCCCCCCCC[C@@H](C)C(=O)[O-]
REMARK SMILES IDX 9 1 10 2 11 3 12 4 13 5 14 6 15 7 16 8 17 9 18 10 19 11 8 12
REMARK SMILES IDX 7 13 6 14 5 15 4 16 3 17 2 18 1 19
REMARK H PARENT
REMARK Flexibility Score: inf
ROOT
ATOM      1  C   UNL     1      22.743  36.623  14.832  1.00  0.00     0.000 C 
ENDROOT
BRANCH   1   2
ATOM      2  C   UNL     1      23.507  37.903  15.212  1.00  0.00     0.000 C 
BRANCH   2   3
ATOM      3  C   UNL     1      24.962  37.904  14.707  1.00  0.00     0.000 C 
BRANCH   3   4
ATOM      4  C   UNL     1      25.879  36.848  15.352  1.00  0.00     0.000 C 
BRANCH   4   5
ATOM      5  C   UNL     1      26.874  36.227  14.355  1.00  0.00     0.001 C 
BRANCH   5   6
ATOM      6  C   UNL     1      26.203  35.185  13.433  1.00  0.00     0.009 C 
BRANCH   6   7
ATOM      7  C   UNL     1      27.075  34.776  12.222  1.00  0.00     0.032 C 
ATOM      8  C   UNL     1      26.703  33.396  11.667  1.00  0.00     0.014 C 
BRANCH   7   9
ATOM      9  C   UNL     1      26.961  35.807  11.133  1.00  0.00     0.044 C 
ATOM     10  O   UNL     1      27.124  35.484   9.925  1.00  0.00    -0.550 OA
ATOM     11  O   UNL     1      26.695  37.133  11.458  1.00  0.00    -0.550 OA
ENDBRANCH   7   9
ENDBRANCH   6   7
ENDBRANCH   5   6
ENDBRANCH   4   5
ENDBRANCH   3   4
ENDBRANCH   2   3
ENDBRANCH   1   2
BRANCH   1  12
ATOM     12  C   UNL     1      22.808  35.537  15.923  1.00  0.00     0.000 C 
BRANCH  12  13
ATOM     13  C   UNL     1      21.652  34.522  15.905  1.00  0.00    -0.000 C 
BRANCH  13  14
ATOM     14  C   UNL     1      22.136  33.064  15.831  1.00  0.00    -0.000 C 
BRANCH  14  15
ATOM     15  C   UNL     1      23.653  32.960  15.597  1.00  0.00    -0.000 C 
BRANCH  15  16
ATOM     16  C   UNL     1      23.999  32.579  14.146  1.00  0.00    -0.000 C 
BRANCH  16  17
ATOM     17  C   UNL     1      22.794  32.699  13.200  1.00  0.00    -0.000 C 
BRANCH  17  18
ATOM     18  C   UNL     1      22.807  34.003  12.389  1.00  0.00    -0.003 C 
ATOM     19  C   UNL     1      21.389  34.505  12.130  1.00  0.00     0.004 C 
ENDBRANCH  17  18
ENDBRANCH  16  17
ENDBRANCH  15  16
ENDBRANCH  14  15
ENDBRANCH  13  14
ENDBRANCH  12  13
ENDBRANCH   1  12
TORSDOF 14
ENDMDL
MODEL 6
REMARK VINA RESULT:    -3.403     15.257     17.174
REMARK INTER + INTRA:          -7.111
REMARK INTER:                  -5.159
REMARK INTRA:                  -1.951
REMARK UNBOUND:                -0.922
REMARK SMILES CCCCCCCCCCCCCC[C@@H](C)C(=O)[O-]
REMARK SMILES IDX 9 1 10 2 11 3 12 4 13 5 14 6 15 7 16 8 17 9 18 10 19 11 8 12
REMARK SMILES IDX 7 13 6 14 5 15 4 16 3 17 2 18 1 19
REMARK H PARENT
REMARK Flexibility Score: inf
ROOT
ATOM      1  C   UNL     1      22.593  33.621  16.120  1.00  0.00     0.000 C 
ENDROOT
BRANCH   1   2
ATOM      2  C   UNL     1      22.564  35.159  16.084  1.00  0.00     0.000 C 
BRANCH   2   3
ATOM      3  C   UNL     1      23.912  35.773  15.660  1.00  0.00     0.000 C 
BRANCH   3   4
ATOM      4  C   UNL     1      23.812  36.954  14.677  1.00  0.00     0.000 C 
BRANCH   4   5
ATOM      5  C   UNL     1      25.183  37.556  14.319  1.00  0.00     0.001 C 
BRANCH   5   6
ATOM      6  C   UNL     1      26.213  36.473  13.930  1.00  0.00     0.009 C 
BRANCH   6   7
ATOM      7  C   UNL     1      25.834  35.687  12.652  1.00  0.00     0.032 C 
ATOM      8  C   UNL     1      26.246  36.415  11.368  1.00  0.00     0.014 C 
BRANCH   7   9
ATOM      9  C   UNL     1      26.461  34.319  12.683  1.00  0.00     0.044 C 
ATOM     10  O   UNL     1      26.770  33.781  13.780  1.00  0.00    -0.550 OA
ATOM     11  O   UNL     1      26.722  33.650  11.492  1.00  0.00    -0.550 OA
ENDBRANCH   7   9
ENDBRANCH   6   7
ENDBRANCH   5   6
ENDBRANCH   4   5
ENDBRANCH   3   4
ENDBRANCH   2   3
ENDBRANCH   1   2
BRANCH   1  12
ATOM     12  C   UNL     1      23.498  33.011  15.031  1.00  0.00     0.000 C 
BRANCH  12  13
ATOM     13  C   UNL     1      22.755  32.424  13.817  1.00  0.00    -0.000 C 
BRANCH  13  14
ATOM     14  C   UNL     1      23.035  33.194  12.515  1.00  0.00    -0.000 C 
BRANCH  14  15
ATOM     15  C   UNL     1      22.307  34.547  12.464  1.00  0.00    -0.000 C 
BRANCH  15  16
ATOM     16  C   UNL     1      20.787  34.405  12.657  1.00  0.00    -0.000 C 
BRANCH  16  17
ATOM     17  C   UNL     1      20.022  34.391  11.324  1.00  0.00    -0.000 C 
BRANCH  17  18
ATOM     18  C   UNL     1      18.546  33.999  11.494  1.00  0.00    -0.003 C 
ATOM     19  C   UNL     1      18.047  33.200  10.294  1.00  0.00     0.004 C 
ENDBRANCH  17  18
ENDBRANCH  16  17
ENDBRANCH  15  16
ENDBRANCH  14  15
ENDBRANCH  13  14
ENDBRANCH  12  13
ENDBRANCH   1  12
TORSDOF 14
ENDMDL
MODEL 7
REMARK VINA RESULT:    -3.306     15.685     18.320
REMARK INTER + INTRA:          -6.933
REMARK INTER:                  -4.759
REMARK INTRA:                  -2.174
REMARK UNBOUND:                -0.922
REMARK SMILES CCCCCCCCCCCCCC[C@@H](C)C(=O)[O-]
REMARK SMILES IDX 9 1 10 2 11 3 12 4 13 5 14 6 15 7 16 8 17 9 18 10 19 11 8 12
REMARK SMILES IDX 7 13 6 14 5 15 4 16 3 17 2 18 1 19
REMARK H PARENT
REMARK Flexibility Score: inf
ROOT
ATOM      1  C   UNL     1      24.803  33.431  14.041  1.00  0.00     0.000 C 
ENDROOT
BRANCH   1   2
ATOM      2  C   UNL     1      23.903  32.188  13.927  1.00  0.00     0.000 C 
BRANCH   2   3
ATOM      3  C   UNL     1      22.718  32.216  14.910  1.00  0.00     0.000 C 
BRANCH   3   4
ATOM      4  C   UNL     1      22.897  33.144  16.125  1.00  0.00     0.000 C 
BRANCH   4   5
ATOM      5  C   UNL     1      21.917  34.331  16.125  1.00  0.00     0.001 C 
BRANCH   5   6
ATOM      6  C   UNL     1      20.833  34.192  15.034  1.00  0.00     0.009 C 
BRANCH   6   7
ATOM      7  C   UNL     1      20.977  35.216  13.883  1.00  0.00     0.032 C 
ATOM      8  C   UNL     1      22.314  35.966  13.924  1.00  0.00     0.014 C 
BRANCH   7   9
ATOM      9  C   UNL     1      20.825  34.525  12.555  1.00  0.00     0.044 C 
ATOM     10  O   UNL     1      19.682  34.216  12.121  1.00  0.00    -0.550 OA
ATOM     11  O   UNL     1      21.952  34.202  11.808  1.00  0.00    -0.550 OA
ENDBRANCH   7   9
ENDBRANCH   6   7
ENDBRANCH   5   6
ENDBRANCH   4   5
ENDBRANCH   3   4
ENDBRANCH   2   3
ENDBRANCH   1   2
BRANCH   1  12
ATOM     12  C   UNL     1      25.959  33.247  15.043  1.00  0.00     0.000 C 
BRANCH  12  13
ATOM     13  C   UNL     1      26.670  34.544  15.467  1.00  0.00    -0.000 C 
BRANCH  13  14
ATOM     14  C   UNL     1      25.690  35.665  15.854  1.00  0.00    -0.000 C 
BRANCH  14  15
ATOM     15  C   UNL     1      25.919  36.951  15.042  1.00  0.00    -0.000 C 
BRANCH  15  16
ATOM     16  C   UNL     1      27.023  36.789  13.982  1.00  0.00    -0.000 C 
BRANCH  16  17
ATOM     17  C   UNL     1      26.689  37.510  12.667  1.00  0.00    -0.000 C 
BRANCH  17  18
ATOM     18  C   UNL     1      26.357  36.536  11.526  1.00  0.00    -0.003 C 
ATOM     19  C   UNL     1      26.986  35.168  11.771  1.00  0.00     0.004 C 
ENDBRANCH  17  18
ENDBRANCH  16  17
ENDBRANCH  15  16
ENDBRANCH  14  15
ENDBRANCH  13  14
ENDBRANCH  12  13
ENDBRANCH   1  12
TORSDOF 14
ENDMDL
MODEL 8
REMARK VINA RESULT:    -3.277     15.854     18.259
REMARK INTER + INTRA:          -6.881
REMARK INTER:                  -5.174
REMARK INTRA:                  -1.707
REMARK UNBOUND:                -0.922
REMARK SMILES CCCCCCCCCCCCCC[C@@H](C)C(=O)[O-]
REMARK SMILES IDX 9 1 10 2 11 3 12 4 13 5 14 6 15 7 16 8 17 9 18 10 19 11 8 12
REMARK SMILES IDX 7 13 6 14 5 15 4 16 3 17 2 18 1 19
REMARK H PARENT
REMARK Flexibility Score: inf
ROOT
ATOM      1  C   UNL     1      24.301  32.619  13.693  1.00  0.00     0.000 C 
ENDROOT
BRANCH   1   2
ATOM      2  C   UNL     1      24.867  33.160  15.017  1.00  0.00     0.000 C 
BRANCH   2   3
ATOM      3  C   UNL     1      23.770  33.494  16.046  1.00  0.00     0.000 C 
BRANCH   3   4
ATOM      4  C   UNL     1      22.536  32.575  16.006  1.00  0.00     0.000 C 
BRANCH   4   5
ATOM      5  C   UNL     1      21.510  32.992  14.938  1.00  0.00     0.001 C 
BRANCH   5   6
ATOM      6  C   UNL     1      20.959  34.414  15.180  1.00  0.00     0.009 C 
BRANCH   6   7
ATOM      7  C   UNL     1      21.191  35.381  13.995  1.00  0.00     0.032 C 
ATOM      8  C   UNL     1      22.627  35.917  13.944  1.00  0.00     0.014 C 
BRANCH   7   9
ATOM      9  C   UNL     1      20.861  34.694  12.697  1.00  0.00     0.044 C 
ATOM     10  O   UNL     1      21.750  34.517  11.821  1.00  0.00    -0.550 OA
ATOM     11  O   UNL     1      19.560  34.269  12.449  1.00  0.00    -0.550 OA
ENDBRANCH   7   9
ENDBRANCH   6   7
ENDBRANCH   5   6
ENDBRANCH   4   5
ENDBRANCH   3   4
ENDBRANCH   2   3
ENDBRANCH   1   2
BRANCH   1  12
ATOM     12  C   UNL     1      24.914  33.300  12.454  1.00  0.00     0.000 C 
BRANCH  12  13
ATOM     13  C   UNL     1      26.452  33.337  12.421  1.00  0.00    -0.000 C 
BRANCH  13  14
ATOM     14  C   UNL     1      27.012  34.758  12.232  1.00  0.00    -0.000 C 
BRANCH  14  15
ATOM     15  C   UNL     1      25.924  35.838  12.344  1.00  0.00    -0.000 C 
BRANCH  15  16
ATOM     16  C   UNL     1      26.509  37.262  12.377  1.00  0.00    -0.000 C 
BRANCH  16  17
ATOM     17  C   UNL     1      26.229  37.984  13.705  1.00  0.00    -0.000 C 
BRANCH  17  18
ATOM     18  C   UNL     1      26.841  37.258  14.912  1.00  0.00    -0.003 C 
ATOM     19  C   UNL     1      25.757  36.772  15.870  1.00  0.00     0.004 C 
ENDBRANCH  17  18
ENDBRANCH  16  17
ENDBRANCH  15  16
ENDBRANCH  14  15
ENDBRANCH  13  14
ENDBRANCH  12  13
ENDBRANCH   1  12
TORSDOF 14
ENDMDL
MODEL 9
REMARK VINA RESULT:    -3.226     15.874     17.862
REMARK INTER + INTRA:          -6.789
REMARK INTER:                  -5.026
REMARK INTRA:                  -1.763
REMARK UNBOUND:                -0.922
REMARK SMILES CCCCCCCCCCCCCC[C@@H](C)C(=O)[O-]
REMARK SMILES IDX 9 1 10 2 11 3 12 4 13 5 14 6 15 7 16 8 17 9 18 10 19 11 8 12
REMARK SMILES IDX 7 13 6 14 5 15 4 16 3 17 2 18 1 19
REMARK H PARENT
REMARK Flexibility Score: inf
ROOT
ATOM      1  C   UNL     1      24.573  32.682  14.423  1.00  0.00     0.000 C 
ENDROOT
BRANCH   1   2
ATOM      2  C   UNL     1      25.117  33.017  15.823  1.00  0.00     0.000 C 
BRANCH   2   3
ATOM      3  C   UNL     1      25.530  34.493  15.967  1.00  0.00     0.000 C 
BRANCH   3   4
ATOM      4  C   UNL     1      26.972  34.814  15.533  1.00  0.00     0.000 C 
BRANCH   4   5
ATOM      5  C   UNL     1      27.080  36.120  14.726  1.00  0.00     0.001 C 
BRANCH   5   6
ATOM      6  C   UNL     1      25.785  36.432  13.943  1.00  0.00     0.009 C 
BRANCH   6   7
ATOM      7  C   UNL     1      26.038  37.014  12.532  1.00  0.00     0.032 C 
ATOM      8  C   UNL     1      27.124  38.096  12.527  1.00  0.00     0.014 C 
BRANCH   7   9
ATOM      9  C   UNL     1      26.415  35.912  11.579  1.00  0.00     0.044 C 
ATOM     10  O   UNL     1      26.796  36.181  10.408  1.00  0.00    -0.550 OA
ATOM     11  O   UNL     1      26.322  34.585  11.983  1.00  0.00    -0.550 OA
ENDBRANCH   7   9
ENDBRANCH   6   7
ENDBRANCH   5   6
ENDBRANCH   4   5
ENDBRANCH   3   4
ENDBRANCH   2   3
ENDBRANCH   1   2
BRANCH   1  12
ATOM     12  C   UNL     1      23.138  32.120  14.453  1.00  0.00     0.000 C 
BRANCH  12  13
ATOM     13  C   UNL     1      22.389  32.311  15.784  1.00  0.00    -0.000 C 
BRANCH  13  14
ATOM     14  C   UNL     1      21.256  33.348  15.690  1.00  0.00    -0.000 C 
BRANCH  14  15
ATOM     15  C   UNL     1      21.762  34.789  15.871  1.00  0.00    -0.000 C 
BRANCH  15  16
ATOM     16  C   UNL     1      22.131  35.455  14.534  1.00  0.00    -0.000 C 
BRANCH  16  17
ATOM     17  C   UNL     1      21.078  35.211  13.442  1.00  0.00    -0.000 C 
BRANCH  17  18
ATOM     18  C   UNL     1      21.626  34.386  12.267  1.00  0.00    -0.003 C 
ATOM     19  C   UNL     1      20.898  34.725  10.969  1.00  0.00     0.004 C 
ENDBRANCH  17  18
ENDBRANCH  16  17
ENDBRANCH  15  16
ENDBRANCH  14  15
ENDBRANCH  13  14
ENDBRANCH  12  13
ENDBRANCH   1  12
TORSDOF 14
ENDMDL
