MODEL 1
REMARK VINA RESULT:    -3.206      0.000      0.000
REMARK INTER + INTRA:          -4.086
REMARK INTER:                  -3.862
REMARK INTRA:                  -0.224
REMARK UNBOUND:                -0.224
REMARK SMILES OCC(O)CO
REMARK SMILES IDX 3 1 5 2 6 3 2 5 1 6 4 8
REMARK H PARENT 6 4 1 7 4 9
REMARK Flexibility Score: inf
ROOT
ATOM      1  C   UNL     1      10.009   7.740   0.106  1.00  0.00     0.165 C 
ENDROOT
BRANCH   1   2
ATOM      2  C   UNL     1       9.652   7.141   1.477  1.00  0.00     0.190 C 
BRANCH   2   3
ATOM      3  O   UNL     1       8.595   6.227   1.365  1.00  0.00    -0.394 OA
ATOM      4  H   UNL     1       8.916   5.490   0.782  1.00  0.00     0.210 HD
ENDBRANCH   2   3
ENDBRANCH   1   2
BRANCH   1   5
ATOM      5  C   UNL     1       8.983   8.802  -0.317  1.00  0.00     0.190 C 
BRANCH   5   6
ATOM      6  O   UNL     1       7.755   8.200  -0.627  1.00  0.00    -0.394 OA
ATOM      7  H   UNL     1       7.337   7.946   0.237  1.00  0.00     0.210 HD
ENDBRANCH   5   6
ENDBRANCH   1   5
BRANCH   1   8
ATOM      8  O   UNL     1      10.036   6.720  -0.860  1.00  0.00    -0.388 OA
ATOM      9  H   UNL     1       9.686   5.901  -0.422  1.00  0.00     0.211 HD
ENDBRANCH   1   8
TORSDOF 5
ENDMDL
MODEL 2
REMARK VINA RESULT:    -3.179     14.131     14.761
REMARK INTER + INTRA:          -4.053
REMARK INTER:                  -4.047
REMARK INTRA:                  -0.005
REMARK UNBOUND:                -0.224
REMARK SMILES OCC(O)CO
REMARK SMILES IDX 3 1 5 2 6 3 2 5 1 6 4 8
REMARK H PARENT 6 4 1 7 4 9
REMARK Flexibility Score: inf
ROOT
ATOM      1  C   UNL     1      -4.608   8.840   6.304  1.00  0.00     0.165 C 
ENDROOT
BRANCH   1   2
ATOM      2  C   UNL     1      -5.164   8.884   4.870  1.00  0.00     0.190 C 
BRANCH   2   3
ATOM      3  O   UNL     1      -5.111   7.617   4.273  1.00  0.00    -0.394 OA
ATOM      4  H   UNL     1      -4.282   7.181   4.604  1.00  0.00     0.210 HD
ENDBRANCH   2   3
ENDBRANCH   1   2
BRANCH   1   5
ATOM      5  C   UNL     1      -3.316   9.662   6.421  1.00  0.00     0.190 C 
BRANCH   5   6
ATOM      6  O   UNL     1      -2.310   8.906   7.041  1.00  0.00    -0.394 OA
ATOM      7  H   UNL     1      -2.740   8.073   7.366  1.00  0.00     0.210 HD
ENDBRANCH   5   6
ENDBRANCH   1   5
BRANCH   1   8
ATOM      8  O   UNL     1      -4.337   7.509   6.662  1.00  0.00    -0.388 OA
ATOM      9  H   UNL     1      -4.565   7.419   7.625  1.00  0.00     0.211 HD
ENDBRANCH   1   8
TORSDOF 5
ENDMDL
MODEL 3
REMARK VINA RESULT:    -3.136     14.218     14.769
REMARK INTER + INTRA:          -4.001
REMARK INTER:                  -3.999
REMARK INTRA:                  -0.002
REMARK UNBOUND:                -0.224
REMARK SMILES OCC(O)CO
REMARK SMILES IDX 3 1 5 2 6 3 2 5 1 6 4 8
REMARK H PARENT 6 4 1 7 4 9
REMARK Flexibility Score: inf
ROOT
ATOM      1  C   UNL     1      -4.177   8.395   6.200  1.00  0.00     0.165 C 
ENDROOT
BRANCH   1   2
ATOM      2  C   UNL     1      -3.311   9.632   6.491  1.00  0.00     0.190 C 
BRANCH   2   3
ATOM      3  O   UNL     1      -2.174   9.285   7.234  1.00  0.00    -0.394 OA
ATOM      4  H   UNL     1      -2.437   9.322   8.191  1.00  0.00     0.210 HD
ENDBRANCH   2   3
ENDBRANCH   1   2
BRANCH   1   5
ATOM      5  C   UNL     1      -5.148   8.661   5.040  1.00  0.00     0.190 C 
BRANCH   5   6
ATOM      6  O   UNL     1      -5.152   7.579   4.148  1.00  0.00    -0.394 OA
ATOM      7  H   UNL     1      -4.393   6.994   4.407  1.00  0.00     0.210 HD
ENDBRANCH   5   6
ENDBRANCH   1   5
BRANCH   1   8
ATOM      8  O   UNL     1      -4.915   8.058   7.346  1.00  0.00    -0.388 OA
ATOM      9  H   UNL     1      -4.786   8.796   7.998  1.00  0.00     0.211 HD
ENDBRANCH   1   8
TORSDOF 5
ENDMDL
MODEL 4
REMARK VINA RESULT:    -3.073      1.240      2.842
REMARK INTER + INTRA:          -3.926
REMARK INTER:                  -3.715
REMARK INTRA:                  -0.211
REMARK UNBOUND:                -0.224
REMARK SMILES OCC(O)CO
REMARK SMILES IDX 3 1 5 2 6 3 2 5 1 6 4 8
REMARK H PARENT 6 4 1 7 4 9
REMARK Flexibility Score: inf
ROOT
ATOM      1  C   UNL     1       9.394   8.950   0.882  1.00  0.00     0.165 C 
ENDROOT
BRANCH   1   2
ATOM      2  C   UNL     1       9.003   8.642  -0.573  1.00  0.00     0.190 C 
BRANCH   2   3
ATOM      3  O   UNL     1       7.651   8.281  -0.663  1.00  0.00    -0.394 OA
ATOM      4  H   UNL     1       7.335   8.580  -1.556  1.00  0.00     0.210 HD
ENDBRANCH   2   3
ENDBRANCH   1   2
BRANCH   1   5
ATOM      5  C   UNL     1       9.721   7.661   1.651  1.00  0.00     0.190 C 
BRANCH   5   6
ATOM      6  O   UNL     1       8.846   6.631   1.273  1.00  0.00    -0.394 OA
ATOM      7  H   UNL     1       8.111   7.057   0.760  1.00  0.00     0.210 HD
ENDBRANCH   5   6
ENDBRANCH   1   5
BRANCH   1   8
ATOM      8  O   UNL     1       8.334   9.609   1.525  1.00  0.00    -0.388 OA
ATOM      9  H   UNL     1       7.560   8.986   1.515  1.00  0.00     0.211 HD
ENDBRANCH   1   8
TORSDOF 5
ENDMDL
MODEL 5
REMARK VINA RESULT:    -3.069      1.473      1.932
REMARK INTER + INTRA:          -3.921
REMARK INTER:                  -3.702
REMARK INTRA:                  -0.219
REMARK UNBOUND:                -0.224
REMARK SMILES OCC(O)CO
REMARK SMILES IDX 3 1 5 2 6 3 2 5 1 6 4 8
REMARK H PARENT 6 4 1 7 4 9
REMARK Flexibility Score: inf
ROOT
ATOM      1  C   UNL     1       9.596   7.943   0.771  1.00  0.00     0.165 C 
ENDROOT
BRANCH   1   2
ATOM      2  C   UNL     1       9.439   8.994   1.883  1.00  0.00     0.190 C 
BRANCH   2   3
ATOM      3  O   UNL     1       8.280   9.759   1.691  1.00  0.00    -0.394 OA
ATOM      4  H   UNL     1       7.825   9.389   0.889  1.00  0.00     0.210 HD
ENDBRANCH   2   3
ENDBRANCH   1   2
BRANCH   1   5
ATOM      5  C   UNL     1       9.053   8.468  -0.566  1.00  0.00     0.190 C 
BRANCH   5   6
ATOM      6  O   UNL     1       7.670   8.251  -0.651  1.00  0.00    -0.394 OA
ATOM      7  H   UNL     1       7.303   8.977  -1.221  1.00  0.00     0.210 HD
ENDBRANCH   5   6
ENDBRANCH   1   5
BRANCH   1   8
ATOM      8  O   UNL     1       8.895   6.778   1.124  1.00  0.00    -0.388 OA
ATOM      9  H   UNL     1       8.838   6.219   0.305  1.00  0.00     0.211 HD
ENDBRANCH   1   8
TORSDOF 5
ENDMDL
MODEL 6
REMARK VINA RESULT:    -2.903     14.202     14.695
REMARK INTER + INTRA:          -3.720
REMARK INTER:                  -3.497
REMARK INTRA:                  -0.224
REMARK UNBOUND:                -0.224
REMARK SMILES OCC(O)CO
REMARK SMILES IDX 3 1 5 2 6 3 2 5 1 6 4 8
REMARK H PARENT 6 4 1 7 4 9
REMARK Flexibility Score: inf
ROOT
ATOM      1  C   UNL     1      -4.798   9.451   4.666  1.00  0.00     0.165 C 
ENDROOT
BRANCH   1   2
ATOM      2  C   UNL     1      -5.309   8.595   5.837  1.00  0.00     0.190 C 
BRANCH   2   3
ATOM      3  O   UNL     1      -4.289   7.779   6.344  1.00  0.00    -0.394 OA
ATOM      4  H   UNL     1      -4.058   8.136   7.241  1.00  0.00     0.210 HD
ENDBRANCH   2   3
ENDBRANCH   1   2
BRANCH   1   5
ATOM      5  C   UNL     1      -4.878   8.678   3.341  1.00  0.00     0.190 C 
BRANCH   5   6
ATOM      6  O   UNL     1      -5.110   7.316   3.582  1.00  0.00    -0.394 OA
ATOM      7  H   UNL     1      -6.082   7.220   3.759  1.00  0.00     0.210 HD
ENDBRANCH   5   6
ENDBRANCH   1   5
BRANCH   1   8
ATOM      8  O   UNL     1      -3.463   9.819   4.900  1.00  0.00    -0.388 OA
ATOM      9  H   UNL     1      -2.940   8.977   4.965  1.00  0.00     0.211 HD
ENDBRANCH   1   8
TORSDOF 5
ENDMDL
MODEL 7
REMARK VINA RESULT:    -2.821     17.344     18.050
REMARK INTER + INTRA:          -3.622
REMARK INTER:                  -3.619
REMARK INTRA:                  -0.003
REMARK UNBOUND:                -0.224
REMARK SMILES OCC(O)CO
REMARK SMILES IDX 3 1 5 2 6 3 2 5 1 6 4 8
REMARK H PARENT 6 4 1 7 4 9
REMARK Flexibility Score: inf
ROOT
ATOM      1  C   UNL     1      -8.793   4.859  -1.819  1.00  0.00     0.165 C 
ENDROOT
BRANCH   1   2
ATOM      2  C   UNL     1      -8.918   4.887  -3.352  1.00  0.00     0.190 C 
BRANCH   2   3
ATOM      3  O   UNL     1      -8.663   3.622  -3.899  1.00  0.00    -0.394 OA
ATOM      4  H   UNL     1      -7.788   3.326  -3.536  1.00  0.00     0.210 HD
ENDBRANCH   2   3
ENDBRANCH   1   2
BRANCH   1   5
ATOM      5  C   UNL     1      -8.196   6.170  -1.289  1.00  0.00     0.190 C 
BRANCH   5   6
ATOM      6  O   UNL     1      -7.819   6.029   0.055  1.00  0.00    -0.394 OA
ATOM      7  H   UNL     1      -6.890   5.680   0.055  1.00  0.00     0.210 HD
ENDBRANCH   5   6
ENDBRANCH   1   5
BRANCH   1   8
ATOM      8  O   UNL     1      -7.966   3.791  -1.434  1.00  0.00    -0.388 OA
ATOM      9  H   UNL     1      -8.528   3.170  -0.902  1.00  0.00     0.211 HD
ENDBRANCH   1   8
TORSDOF 5
ENDMDL
MODEL 8
REMARK VINA RESULT:    -2.664     17.416     18.074
REMARK INTER + INTRA:          -3.433
REMARK INTER:                  -3.431
REMARK INTRA:                  -0.002
REMARK UNBOUND:                -0.224
REMARK SMILES OCC(O)CO
REMARK SMILES IDX 3 1 5 2 6 3 2 5 1 6 4 8
REMARK H PARENT 6 4 1 7 4 9
REMARK Flexibility Score: inf
ROOT
ATOM      1  C   UNL     1      -8.175   6.141  -1.564  1.00  0.00     0.165 C 
ENDROOT
BRANCH   1   2
ATOM      2  C   UNL     1      -9.221   7.240  -1.818  1.00  0.00     0.190 C 
BRANCH   2   3
ATOM      3  O   UNL     1      -9.371   8.059  -0.690  1.00  0.00    -0.394 OA
ATOM      4  H   UNL     1      -9.829   7.512   0.001  1.00  0.00     0.210 HD
ENDBRANCH   2   3
ENDBRANCH   1   2
BRANCH   1   5
ATOM      5  C   UNL     1      -8.645   4.791  -2.125  1.00  0.00     0.190 C 
BRANCH   5   6
ATOM      6  O   UNL     1      -8.103   3.735  -1.378  1.00  0.00    -0.394 OA
ATOM      7  H   UNL     1      -7.117   3.850  -1.398  1.00  0.00     0.210 HD
ENDBRANCH   5   6
ENDBRANCH   1   5
BRANCH   1   8
ATOM      8  O   UNL     1      -7.955   6.011  -0.184  1.00  0.00    -0.388 OA
ATOM      9  H   UNL     1      -8.596   6.619   0.268  1.00  0.00     0.211 HD
ENDBRANCH   1   8
TORSDOF 5
ENDMDL
MODEL 9
REMARK VINA RESULT:    -2.570     17.282     18.050
REMARK INTER + INTRA:          -3.320
REMARK INTER:                  -3.127
REMARK INTRA:                  -0.193
REMARK UNBOUND:                -0.224
REMARK SMILES OCC(O)CO
REMARK SMILES IDX 3 1 5 2 6 3 2 5 1 6 4 8
REMARK H PARENT 6 4 1 7 4 9
REMARK Flexibility Score: inf
ROOT
ATOM      1  C   UNL     1      -9.105   5.808  -1.977  1.00  0.00     0.165 C 
ENDROOT
BRANCH   1   2
ATOM      2  C   UNL     1      -7.962   6.532  -1.246  1.00  0.00     0.190 C 
BRANCH   2   3
ATOM      3  O   UNL     1      -7.842   6.075   0.074  1.00  0.00    -0.394 OA
ATOM      4  H   UNL     1      -7.209   5.310   0.054  1.00  0.00     0.210 HD
ENDBRANCH   2   3
ENDBRANCH   1   2
BRANCH   1   5
ATOM      5  C   UNL     1      -8.685   4.390  -2.392  1.00  0.00     0.190 C 
BRANCH   5   6
ATOM      6  O   UNL     1      -8.051   3.736  -1.326  1.00  0.00    -0.394 OA
ATOM      7  H   UNL     1      -8.121   4.339  -0.540  1.00  0.00     0.210 HD
ENDBRANCH   5   6
ENDBRANCH   1   5
BRANCH   1   8
ATOM      8  O   UNL     1      -9.463   6.533  -3.125  1.00  0.00    -0.388 OA
ATOM      9  H   UNL     1      -9.814   5.876  -3.782  1.00  0.00     0.211 HD
ENDBRANCH   1   8
TORSDOF 5
ENDMDL
