MODEL 1
REMARK VINA RESULT:    -4.765      0.000      0.000
REMARK INTER + INTRA:          -8.049
REMARK INTER:                  -7.272
REMARK INTRA:                  -0.777
REMARK UNBOUND:                -0.777
REMARK SMILES O=C([O-])CCCCCCCCC(=O)[O-]
REMARK SMILES IDX 7 1 6 2 5 3 4 4 2 5 1 6 3 7 8 8 9 9 10 10 11 11 12 12 13 13
REMARK SMILES IDX 14 14
REMARK H PARENT
REMARK Flexibility Score: inf
ROOT
ATOM      1  C   UNL     1      24.239  35.136 147.334  1.00  0.00     0.000 C 
ENDROOT
BRANCH   1   2
ATOM      2  C   UNL     1      23.800  36.392 148.109  1.00  0.00     0.000 C 
BRANCH   2   3
ATOM      3  C   UNL     1      24.211  37.699 147.416  1.00  0.00     0.006 C 
BRANCH   3   4
ATOM      4  C   UNL     1      23.476  38.897 148.023  1.00  0.00     0.053 C 
BRANCH   4   5
ATOM      5  C   UNL     1      24.059  39.251 149.355  1.00  0.00     0.041 C 
ATOM      6  O   UNL     1      23.439  38.969 150.413  1.00  0.00    -0.550 OA
ATOM      7  O   UNL     1      25.264  39.939 149.425  1.00  0.00    -0.550 OA
ENDBRANCH   4   5
ENDBRANCH   3   4
ENDBRANCH   2   3
ENDBRANCH   1   2
BRANCH   1   8
ATOM      8  C   UNL     1      24.047  33.804 148.082  1.00  0.00     0.000 C 
BRANCH   8   9
ATOM      9  C   UNL     1      24.912  33.699 149.350  1.00  0.00     0.000 C 
BRANCH   9  10
ATOM     10  C   UNL     1      26.396  34.011 149.086  1.00  0.00     0.006 C 
BRANCH  10  11
ATOM     11  C   UNL     1      27.024  35.001 150.079  1.00  0.00     0.053 C 
BRANCH  11  12
ATOM     12  C   UNL     1      27.241  36.350 149.466  1.00  0.00     0.041 C 
ATOM     13  O   UNL     1      27.258  37.381 150.190  1.00  0.00    -0.550 OA
ATOM     14  O   UNL     1      27.456  36.466 148.099  1.00  0.00    -0.550 OA
ENDBRANCH  11  12
ENDBRANCH  10  11
ENDBRANCH   9  10
ENDBRANCH   8   9
ENDBRANCH   1   8
TORSDOF 9
ENDMDL
MODEL 2
REMARK VINA RESULT:    -4.745      1.303      2.171
REMARK INTER + INTRA:          -8.019
REMARK INTER:                  -7.459
REMARK INTRA:                  -0.559
REMARK UNBOUND:                -0.777
REMARK SMILES O=C([O-])CCCCCCCCC(=O)[O-]
REMARK SMILES IDX 7 1 6 2 5 3 4 4 2 5 1 6 3 7 8 8 9 9 10 10 11 11 12 12 13 13
REMARK SMILES IDX 14 14
REMARK H PARENT
REMARK Flexibility Score: inf
ROOT
ATOM      1  C   UNL     1      23.594  36.584 147.733  1.00  0.00     0.000 C 
ENDROOT
BRANCH   1   2
ATOM      2  C   UNL     1      24.981  37.163 147.402  1.00  0.00     0.000 C 
BRANCH   2   3
ATOM      3  C   UNL     1      25.050  38.689 147.566  1.00  0.00     0.006 C 
BRANCH   3   4
ATOM      4  C   UNL     1      23.774  39.229 148.218  1.00  0.00     0.053 C 
BRANCH   4   5
ATOM      5  C   UNL     1      23.969  39.400 149.691  1.00  0.00     0.041 C 
ATOM      6  O   UNL     1      24.914  40.107 150.128  1.00  0.00    -0.550 OA
ATOM      7  O   UNL     1      23.137  38.736 150.583  1.00  0.00    -0.550 OA
ENDBRANCH   4   5
ENDBRANCH   3   4
ENDBRANCH   2   3
ENDBRANCH   1   2
BRANCH   1   8
ATOM      8  C   UNL     1      23.220  35.301 146.970  1.00  0.00     0.000 C 
BRANCH   8   9
ATOM      9  C   UNL     1      24.328  34.235 147.011  1.00  0.00     0.000 C 
BRANCH   9  10
ATOM     10  C   UNL     1      24.107  33.190 148.120  1.00  0.00     0.006 C 
BRANCH  10  11
ATOM     11  C   UNL     1      24.841  33.495 149.435  1.00  0.00     0.053 C 
BRANCH  11  12
ATOM     12  C   UNL     1      26.234  33.993 149.199  1.00  0.00     0.041 C 
ATOM     13  O   UNL     1      26.605  35.095 149.682  1.00  0.00    -0.550 OA
ATOM     14  O   UNL     1      27.133  33.224 148.471  1.00  0.00    -0.550 OA
ENDBRANCH  11  12
ENDBRANCH  10  11
ENDBRANCH   9  10
ENDBRANCH   8   9
ENDBRANCH   1   8
TORSDOF 9
ENDMDL
MODEL 3
REMARK VINA RESULT:    -4.740      1.016      4.723
REMARK INTER + INTRA:          -8.011
REMARK INTER:                  -7.417
REMARK INTRA:                  -0.594
REMARK UNBOUND:                -0.777
REMARK SMILES O=C([O-])CCCCCCCCC(=O)[O-]
REMARK SMILES IDX 7 1 6 2 5 3 4 4 2 5 1 6 3 7 8 8 9 9 10 10 11 11 12 12 13 13
REMARK SMILES IDX 14 14
REMARK H PARENT
REMARK Flexibility Score: inf
ROOT
ATOM      1  C   UNL     1      24.149  35.268 147.384  1.00  0.00     0.000 C 
ENDROOT
BRANCH   1   2
ATOM      2  C   UNL     1      24.001  33.979 148.212  1.00  0.00     0.000 C 
BRANCH   2   3
ATOM      3  C   UNL     1      25.026  33.876 149.352  1.00  0.00     0.006 C 
BRANCH   3   4
ATOM      4  C   UNL     1      26.450  34.089 148.831  1.00  0.00     0.053 C 
BRANCH   4   5
ATOM      5  C   UNL     1      27.124  35.193 149.582  1.00  0.00     0.041 C 
ATOM      6  O   UNL     1      27.272  36.323 149.050  1.00  0.00    -0.550 OA
ATOM      7  O   UNL     1      27.635  34.958 150.852  1.00  0.00    -0.550 OA
ENDBRANCH   4   5
ENDBRANCH   3   4
ENDBRANCH   2   3
ENDBRANCH   1   2
BRANCH   1   8
ATOM      8  C   UNL     1      23.699  36.558 148.095  1.00  0.00     0.000 C 
BRANCH   8   9
ATOM      9  C   UNL     1      24.273  37.830 147.447  1.00  0.00     0.000 C 
BRANCH   9  10
ATOM     10  C   UNL     1      23.310  39.028 147.534  1.00  0.00     0.006 C 
BRANCH  10  11
ATOM     11  C   UNL     1      23.989  40.366 147.868  1.00  0.00     0.053 C 
BRANCH  11  12
ATOM     12  C   UNL     1      24.700  40.321 149.185  1.00  0.00     0.041 C 
ATOM     13  O   UNL     1      25.859  40.802 149.297  1.00  0.00    -0.550 OA
ATOM     14  O   UNL     1      24.072  39.777 150.297  1.00  0.00    -0.550 OA
ENDBRANCH  11  12
ENDBRANCH  10  11
ENDBRANCH   9  10
ENDBRANCH   8   9
ENDBRANCH   1   8
TORSDOF 9
ENDMDL
MODEL 4
REMARK VINA RESULT:    -4.712      2.112      3.241
REMARK INTER + INTRA:          -7.967
REMARK INTER:                  -7.339
REMARK INTRA:                  -0.628
REMARK UNBOUND:                -0.777
REMARK SMILES O=C([O-])CCCCCCCCC(=O)[O-]
REMARK SMILES IDX 7 1 6 2 5 3 4 4 2 5 1 6 3 7 8 8 9 9 10 10 11 11 12 12 13 13
REMARK SMILES IDX 14 14
REMARK H PARENT
REMARK Flexibility Score: inf
ROOT
ATOM      1  C   UNL     1      26.981  36.786 148.148  1.00  0.00     0.000 C 
ENDROOT
BRANCH   1   2
ATOM      2  C   UNL     1      26.029  37.928 147.752  1.00  0.00     0.000 C 
BRANCH   2   3
ATOM      3  C   UNL     1      24.602  37.443 147.453  1.00  0.00     0.006 C 
BRANCH   3   4
ATOM      4  C   UNL     1      23.577  38.543 147.743  1.00  0.00     0.053 C 
BRANCH   4   5
ATOM      5  C   UNL     1      23.434  38.752 149.217  1.00  0.00     0.041 C 
ATOM      6  O   UNL     1      23.920  39.778 149.762  1.00  0.00    -0.550 OA
ATOM      7  O   UNL     1      22.809  37.788 149.999  1.00  0.00    -0.550 OA
ENDBRANCH   4   5
ENDBRANCH   3   4
ENDBRANCH   2   3
ENDBRANCH   1   2
BRANCH   1   8
ATOM      8  C   UNL     1      27.316  36.702 149.649  1.00  0.00     0.000 C 
BRANCH   8   9
ATOM      9  C   UNL     1      27.262  35.265 150.196  1.00  0.00     0.000 C 
BRANCH   9  10
ATOM     10  C   UNL     1      26.502  34.303 149.265  1.00  0.00     0.006 C 
BRANCH  10  11
ATOM     11  C   UNL     1      25.051  34.025 149.687  1.00  0.00     0.053 C 
BRANCH  11  12
ATOM     12  C   UNL     1      24.273  33.340 148.606  1.00  0.00     0.041 C 
ATOM     13  O   UNL     1      23.720  34.014 147.697  1.00  0.00    -0.550 OA
ATOM     14  O   UNL     1      24.184  31.954 148.585  1.00  0.00    -0.550 OA
ENDBRANCH  11  12
ENDBRANCH  10  11
ENDBRANCH   9  10
ENDBRANCH   8   9
ENDBRANCH   1   8
TORSDOF 9
ENDMDL
MODEL 5
REMARK VINA RESULT:    -4.674      2.066      5.158
REMARK INTER + INTRA:          -7.911
REMARK INTER:                  -7.198
REMARK INTRA:                  -0.713
REMARK UNBOUND:                -0.777
REMARK SMILES O=C([O-])CCCCCCCCC(=O)[O-]
REMARK SMILES IDX 7 1 6 2 5 3 4 4 2 5 1 6 3 7 8 8 9 9 10 10 11 11 12 12 13 13
REMARK SMILES IDX 14 14
REMARK H PARENT
REMARK Flexibility Score: inf
ROOT
ATOM      1  C   UNL     1      26.131  36.922 148.960  1.00  0.00     0.000 C 
ENDROOT
BRANCH   1   2
ATOM      2  C   UNL     1      27.253  35.868 148.981  1.00  0.00     0.000 C 
BRANCH   2   3
ATOM      3  C   UNL     1      26.806  34.528 149.583  1.00  0.00     0.006 C 
BRANCH   3   4
ATOM      4  C   UNL     1      26.263  33.593 148.499  1.00  0.00     0.053 C 
BRANCH   4   5
ATOM      5  C   UNL     1      24.785  33.418 148.649  1.00  0.00     0.041 C 
ATOM      6  O   UNL     1      24.171  33.990 149.587  1.00  0.00    -0.550 OA
ATOM      7  O   UNL     1      24.093  32.581 147.782  1.00  0.00    -0.550 OA
ENDBRANCH   4   5
ENDBRANCH   3   4
ENDBRANCH   2   3
ENDBRANCH   1   2
BRANCH   1   8
ATOM      8  C   UNL     1      25.501  37.181 147.580  1.00  0.00     0.000 C 
BRANCH   8   9
ATOM      9  C   UNL     1      23.964  37.118 147.601  1.00  0.00     0.000 C 
BRANCH   9  10
ATOM     10  C   UNL     1      23.312  38.512 147.657  1.00  0.00     0.006 C 
BRANCH  10  11
ATOM     11  C   UNL     1      24.311  39.679 147.693  1.00  0.00     0.053 C 
BRANCH  11  12
ATOM     12  C   UNL     1      24.319  40.370 149.022  1.00  0.00     0.041 C 
ATOM     13  O   UNL     1      24.036  39.733 150.070  1.00  0.00    -0.550 OA
ATOM     14  O   UNL     1      24.671  41.711 149.106  1.00  0.00    -0.550 OA
ENDBRANCH  11  12
ENDBRANCH  10  11
ENDBRANCH   9  10
ENDBRANCH   8   9
ENDBRANCH   1   8
TORSDOF 9
ENDMDL
MODEL 6
REMARK VINA RESULT:    -4.654      2.199      4.708
REMARK INTER + INTRA:          -7.880
REMARK INTER:                  -7.178
REMARK INTRA:                  -0.701
REMARK UNBOUND:                -0.777
REMARK SMILES O=C([O-])CCCCCCCCC(=O)[O-]
REMARK SMILES IDX 7 1 6 2 5 3 4 4 2 5 1 6 3 7 8 8 9 9 10 10 11 11 12 12 13 13
REMARK SMILES IDX 14 14
REMARK H PARENT
REMARK Flexibility Score: inf
ROOT
ATOM      1  C   UNL     1      23.748  37.319 147.697  1.00  0.00     0.000 C 
ENDROOT
BRANCH   1   2
ATOM      2  C   UNL     1      25.244  37.066 147.440  1.00  0.00     0.000 C 
BRANCH   2   3
ATOM      3  C   UNL     1      25.596  35.573 147.359  1.00  0.00     0.006 C 
BRANCH   3   4
ATOM      4  C   UNL     1      24.334  34.720 147.206  1.00  0.00     0.053 C 
BRANCH   4   5
ATOM      5  C   UNL     1      24.214  33.752 148.340  1.00  0.00     0.041 C 
ATOM      6  O   UNL     1      24.238  34.164 149.530  1.00  0.00    -0.550 OA
ATOM      7  O   UNL     1      24.127  32.389 148.085  1.00  0.00    -0.550 OA
ENDBRANCH   4   5
ENDBRANCH   3   4
ENDBRANCH   2   3
ENDBRANCH   1   2
BRANCH   1   8
ATOM      8  C   UNL     1      23.317  38.797 147.659  1.00  0.00     0.000 C 
BRANCH   8   9
ATOM      9  C   UNL     1      24.471  39.766 147.974  1.00  0.00     0.000 C 
BRANCH   9  10
ATOM     10  C   UNL     1      24.370  40.371 149.386  1.00  0.00     0.006 C 
BRANCH  10  11
ATOM     11  C   UNL     1      24.961  39.490 150.498  1.00  0.00     0.053 C 
BRANCH  11  12
ATOM     12  C   UNL     1      26.451  39.382 150.397  1.00  0.00     0.041 C 
ATOM     13  O   UNL     1      27.174  40.400 150.558  1.00  0.00    -0.550 OA
ATOM     14  O   UNL     1      27.044  38.149 150.156  1.00  0.00    -0.550 OA
ENDBRANCH  11  12
ENDBRANCH  10  11
ENDBRANCH   9  10
ENDBRANCH   8   9
ENDBRANCH   1   8
TORSDOF 9
ENDMDL
MODEL 7
REMARK VINA RESULT:    -4.648      1.536      4.462
REMARK INTER + INTRA:          -7.870
REMARK INTER:                  -7.024
REMARK INTRA:                  -0.846
REMARK UNBOUND:                -0.777
REMARK SMILES O=C([O-])CCCCCCCCC(=O)[O-]
REMARK SMILES IDX 7 1 6 2 5 3 4 4 2 5 1 6 3 7 8 8 9 9 10 10 11 11 12 12 13 13
REMARK SMILES IDX 14 14
REMARK H PARENT
REMARK Flexibility Score: inf
ROOT
ATOM      1  C   UNL     1      25.445  33.377 148.768  1.00  0.00     0.000 C 
ENDROOT
BRANCH   1   2
ATOM      2  C   UNL     1      25.818  34.436 149.821  1.00  0.00     0.000 C 
BRANCH   2   3
ATOM      3  C   UNL     1      27.289  34.871 149.740  1.00  0.00     0.006 C 
BRANCH   3   4
ATOM      4  C   UNL     1      27.417  36.257 149.102  1.00  0.00     0.053 C 
BRANCH   4   5
ATOM      5  C   UNL     1      28.008  36.152 147.732  1.00  0.00     0.041 C 
ATOM      6  O   UNL     1      27.321  35.706 146.777  1.00  0.00    -0.550 OA
ATOM      7  O   UNL     1      29.337  36.499 147.520  1.00  0.00    -0.550 OA
ENDBRANCH   4   5
ENDBRANCH   3   4
ENDBRANCH   2   3
ENDBRANCH   1   2
BRANCH   1   8
ATOM      8  C   UNL     1      24.055  33.550 148.128  1.00  0.00     0.000 C 
BRANCH   8   9
ATOM      9  C   UNL     1      24.055  34.548 146.957  1.00  0.00     0.000 C 
BRANCH   9  10
ATOM     10  C   UNL     1      23.277  35.838 147.276  1.00  0.00     0.006 C 
BRANCH  10  11
ATOM     11  C   UNL     1      24.163  37.072 147.511  1.00  0.00     0.053 C 
BRANCH  11  12
ATOM     12  C   UNL     1      23.392  38.214 148.099  1.00  0.00     0.041 C 
ATOM     13  O   UNL     1      23.231  39.276 147.442  1.00  0.00    -0.550 OA
ATOM     14  O   UNL     1      22.825  38.092 149.361  1.00  0.00    -0.550 OA
ENDBRANCH  11  12
ENDBRANCH  10  11
ENDBRANCH   9  10
ENDBRANCH   8   9
ENDBRANCH   1   8
TORSDOF 9
ENDMDL
MODEL 8
REMARK VINA RESULT:    -4.643      2.111      3.037
REMARK INTER + INTRA:          -7.862
REMARK INTER:                  -7.150
REMARK INTRA:                  -0.712
REMARK UNBOUND:                -0.777
REMARK SMILES O=C([O-])CCCCCCCCC(=O)[O-]
REMARK SMILES IDX 7 1 6 2 5 3 4 4 2 5 1 6 3 7 8 8 9 9 10 10 11 11 12 12 13 13
REMARK SMILES IDX 14 14
REMARK H PARENT
REMARK Flexibility Score: inf
ROOT
ATOM      1  C   UNL     1      25.424  37.346 147.493  1.00  0.00     0.000 C 
ENDROOT
BRANCH   1   2
ATOM      2  C   UNL     1      23.889  37.343 147.375  1.00  0.00     0.000 C 
BRANCH   2   3
ATOM      3  C   UNL     1      23.250  38.668 147.817  1.00  0.00     0.006 C 
BRANCH   3   4
ATOM      4  C   UNL     1      24.261  39.816 147.743  1.00  0.00     0.053 C 
BRANCH   4   5
ATOM      5  C   UNL     1      24.375  40.501 149.069  1.00  0.00     0.041 C 
ATOM      6  O   UNL     1      24.530  41.748 149.127  1.00  0.00    -0.550 OA
ATOM      7  O   UNL     1      24.361  39.754 150.240  1.00  0.00    -0.550 OA
ENDBRANCH   4   5
ENDBRANCH   3   4
ENDBRANCH   2   3
ENDBRANCH   1   2
BRANCH   1   8
ATOM      8  C   UNL     1      25.976  36.912 148.863  1.00  0.00     0.000 C 
BRANCH   8   9
ATOM      9  C   UNL     1      26.839  35.640 148.786  1.00  0.00     0.000 C 
BRANCH   9  10
ATOM     10  C   UNL     1      26.254  34.475 149.605  1.00  0.00     0.006 C 
BRANCH  10  11
ATOM     11  C   UNL     1      24.739  34.276 149.434  1.00  0.00     0.053 C 
BRANCH  11  12
ATOM     12  C   UNL     1      24.417  33.369 148.287  1.00  0.00     0.041 C 
ATOM     13  O   UNL     1      24.151  32.156 148.492  1.00  0.00    -0.550 OA
ATOM     14  O   UNL     1      24.380  33.872 146.993  1.00  0.00    -0.550 OA
ENDBRANCH  11  12
ENDBRANCH  10  11
ENDBRANCH   9  10
ENDBRANCH   8   9
ENDBRANCH   1   8
TORSDOF 9
ENDMDL
MODEL 9
REMARK VINA RESULT:    -4.555      2.752      5.870
REMARK INTER + INTRA:          -7.728
REMARK INTER:                  -7.277
REMARK INTRA:                  -0.451
REMARK UNBOUND:                -0.777
REMARK SMILES O=C([O-])CCCCCCCCC(=O)[O-]
REMARK SMILES IDX 7 1 6 2 5 3 4 4 2 5 1 6 3 7 8 8 9 9 10 10 11 11 12 12 13 13
REMARK SMILES IDX 14 14
REMARK H PARENT
REMARK Flexibility Score: inf
ROOT
ATOM      1  C   UNL     1      24.085  37.141 147.397  1.00  0.00     0.000 C 
ENDROOT
BRANCH   1   2
ATOM      2  C   UNL     1      25.525  36.661 147.648  1.00  0.00     0.000 C 
BRANCH   2   3
ATOM      3  C   UNL     1      25.738  35.184 147.284  1.00  0.00     0.006 C 
BRANCH   3   4
ATOM      4  C   UNL     1      24.444  34.384 147.456  1.00  0.00     0.053 C 
BRANCH   4   5
ATOM      5  C   UNL     1      24.559  33.442 148.613  1.00  0.00     0.041 C 
ATOM      6  O   UNL     1      24.224  32.235 148.483  1.00  0.00    -0.550 OA
ATOM      7  O   UNL     1      24.990  33.908 149.849  1.00  0.00    -0.550 OA
ENDBRANCH   4   5
ENDBRANCH   3   4
ENDBRANCH   2   3
ENDBRANCH   1   2
BRANCH   1   8
ATOM      8  C   UNL     1      23.809  38.609 147.771  1.00  0.00     0.000 C 
BRANCH   8   9
ATOM      9  C   UNL     1      25.095  39.418 148.013  1.00  0.00     0.000 C 
BRANCH   9  10
ATOM     10  C   UNL     1      25.099  40.766 147.270  1.00  0.00     0.006 C 
BRANCH  10  11
ATOM     11  C   UNL     1      23.837  41.615 147.488  1.00  0.00     0.053 C 
BRANCH  11  12
ATOM     12  C   UNL     1      24.033  42.651 148.551  1.00  0.00     0.041 C 
ATOM     13  O   UNL     1      24.151  43.865 148.239  1.00  0.00    -0.550 OA
ATOM     14  O   UNL     1      24.055  42.279 149.889  1.00  0.00    -0.550 OA
ENDBRANCH  11  12
ENDBRANCH  10  11
ENDBRANCH   9  10
ENDBRANCH   8   9
ENDBRANCH   1   8
TORSDOF 9
ENDMDL
