MODEL 1
REMARK VINA RESULT:    40.574      0.000      0.000
REMARK INTER + INTRA:          44.131
REMARK INTER:                  44.131
REMARK INTRA:                   0.000
REMARK UNBOUND:                 0.000
REMARK SMILES C[C@@H]1CC[C@@H]2[N@@H+](C1)C[C@H]1[C@H]3C[C@@H]4[C@H](C[C@H](O)[C@@H]5C[C@@H](O)CC[C@@]45C)[C@@H]3CC[C@H]1[C@]2(C)O
REMARK SMILES IDX 5 1 6 2 8 3 7 4 4 5 29 6 3 7 28 8 30 9 2 10 27 11 9 12 1 13
REMARK SMILES IDX 26 14 10 15 25 16 11 17 13 18 12 19 14 20 23 21 15 22 17 23
REMARK SMILES IDX 22 24 24 25 18 26 21 27 19 28 31 30 16 32 20 34
REMARK H PARENT 6 29 31 31 16 33 20 35
REMARK Flexibility Score: inf
ROOT
ATOM      1  C   UNL     1     -14.810 -35.554 -14.561  1.00  0.00     0.216 C 
ATOM      2  N   UNL     1     -15.799 -34.555 -15.072  1.00  0.00    -0.330 N 
ATOM      3  C   UNL     1     -15.303 -33.173 -14.886  1.00  0.00     0.266 C 
ATOM      4  C   UNL     1     -17.105 -34.677 -14.379  1.00  0.00     0.265 C 
ATOM      5  C   UNL     1     -15.381 -36.994 -14.688  1.00  0.00     0.069 C 
ATOM      6  C   UNL     1     -13.438 -35.424 -15.315  1.00  0.00     0.117 C 
ATOM      7  C   UNL     1     -16.740 -37.125 -14.006  1.00  0.00     0.015 C 
ATOM      8  C   UNL     1     -12.885 -33.964 -15.194  1.00  0.00     0.036 C 
ATOM      9  C   UNL     1     -12.402 -36.444 -14.772  1.00  0.00     0.049 C 
ATOM     10  C   UNL     1     -17.711 -36.078 -14.555  1.00  0.00     0.041 C 
ATOM     11  C   UNL     1     -12.249 -33.617 -13.798  1.00  0.00     0.007 C 
ATOM     12  C   UNL     1     -13.974 -32.939 -15.636  1.00  0.00     0.054 C 
ATOM     13  C   UNL     1     -19.069 -36.175 -13.847  1.00  0.00     0.013 C 
ATOM     14  C   UNL     1     -11.773 -32.144 -13.687  1.00  0.00     0.004 C 
ATOM     15  C   UNL     1     -13.384 -31.523 -15.477  1.00  0.00     0.002 C 
ATOM     16  C   UNL     1     -12.948 -31.237 -14.039  1.00  0.00    -0.004 C 
ATOM     17  C   UNL     1     -14.155 -30.272 -15.907  1.00  0.00     0.009 C 
ATOM     18  C   UNL     1     -12.836 -29.700 -13.955  1.00  0.00    -0.001 C 
ATOM     19  C   UNL     1     -13.205 -29.196 -15.358  1.00  0.00    -0.001 C 
ATOM     20  C   UNL     1     -11.546 -29.028 -13.480  1.00  0.00     0.036 C 
ATOM     21  C   UNL     1     -13.575 -27.685 -15.362  1.00  0.00    -0.024 C 
ATOM     22  C   UNL     1     -11.760 -27.484 -13.442  1.00  0.00     0.118 C 
ATOM     23  C   UNL     1     -12.301 -26.944 -14.804  1.00  0.00     0.026 C 
ATOM     24  C   UNL     1     -13.792 -27.200 -16.825  1.00  0.00     0.010 C 
ATOM     25  C   UNL     1     -14.875 -27.409 -14.546  1.00  0.00     0.012 C 
ATOM     26  C   UNL     1     -12.473 -25.415 -14.829  1.00  0.00     0.038 C 
ATOM     27  C   UNL     1     -13.900 -25.662 -16.940  1.00  0.00     0.032 C 
ATOM     28  C   UNL     1     -12.726 -24.920 -16.268  1.00  0.00     0.114 C 
ATOM     29  H   UNL     1     -15.962 -34.711 -16.097  1.00  0.00     0.348 HD
ENDROOT
BRANCH   6  30
ATOM     30  O   UNL     1     -13.666 -35.707 -16.682  1.00  0.00    -0.384 OA
ATOM     31  H   UNL     1     -13.219 -36.566 -16.902  1.00  0.00     0.211 HD
ENDBRANCH   6  30
BRANCH  22  32
ATOM     32  O   UNL     1     -12.628 -27.126 -12.398  1.00  0.00    -0.393 OA
ATOM     33  H   UNL     1     -12.390 -27.692 -11.616  1.00  0.00     0.210 HD
ENDBRANCH  22  32
BRANCH  28  34
ATOM     34  O   UNL     1     -11.559 -25.095 -17.035  1.00  0.00    -0.393 OA
ATOM     35  H   UNL     1     -11.282 -26.045 -16.946  1.00  0.00     0.210 HD
ENDBRANCH  28  34
TORSDOF 3
ENDMDL
