MODEL 1
REMARK VINA RESULT:    -5.726      0.000      0.000
REMARK INTER + INTRA:         -10.310
REMARK INTER:                  -7.735
REMARK INTRA:                  -2.575
REMARK UNBOUND:                -2.575
REMARK SMILES CC[C@H](CC[C@H](C)[C@@H]1CC[C@@H]2[C@H]3CC(=O)C4=CC(=O)CC[C@@]4(C)[C@@H]3CC[C@@]21C)C(C)C
REMARK SMILES IDX 4 1 3 2 2 3 1 4 29 5 30 6 31 7 5 8 6 9 7 10 8 11 9 12 27 13
REMARK SMILES IDX 10 14 11 15 26 16 28 17 12 18 25 19 24 20 13 21 22 22 14 23
REMARK SMILES IDX 16 24 21 25 23 26 15 27 17 28 20 29 18 30 19 31
REMARK H PARENT
REMARK Flexibility Score: inf
ROOT
ATOM      1  C   UNL     1       1.430  -0.981  26.854  1.00  0.00     0.004 C 
ENDROOT
BRANCH   1   2
ATOM      2  C   UNL     1       0.633  -0.901  25.514  1.00  0.00    -0.009 C 
BRANCH   2   3
ATOM      3  C   UNL     1      -0.841  -0.480  25.783  1.00  0.00     0.000 C 
ATOM      4  C   UNL     1      -1.220  -0.322  27.263  1.00  0.00     0.004 C 
ENDBRANCH   2   3
BRANCH   2   5
ATOM      5  C   UNL     1       1.360  -0.039  24.427  1.00  0.00    -0.014 C 
ATOM      6  C   UNL     1       2.664   0.583  24.973  1.00  0.00     0.007 C 
ATOM      7  C   UNL     1       1.728  -0.860  23.174  1.00  0.00     0.007 C 
ENDBRANCH   2   5
ENDBRANCH   1   2
BRANCH   1   8
ATOM      8  C   UNL     1       1.949  -2.400  27.169  1.00  0.00     0.004 C 
BRANCH   8   9
ATOM      9  C   UNL     1       1.159  -3.524  26.435  1.00  0.00    -0.011 C 
ATOM     10  C   UNL     1       0.264  -4.324  27.410  1.00  0.00     0.008 C 
BRANCH   9  11
ATOM     11  C   UNL     1       2.060  -4.359  25.446  1.00  0.00    -0.002 C 
ATOM     12  C   UNL     1       3.325  -3.614  25.042  1.00  0.00     0.005 C 
ATOM     13  C   UNL     1       1.507  -4.995  24.114  1.00  0.00    -0.026 C 
ATOM     14  C   UNL     1       3.932  -4.454  23.946  1.00  0.00     0.005 C 
ATOM     15  C   UNL     1       2.751  -5.039  23.147  1.00  0.00    -0.001 C 
ATOM     16  C   UNL     1       0.357  -4.171  23.488  1.00  0.00     0.007 C 
ATOM     17  C   UNL     1       1.014  -6.449  24.362  1.00  0.00     0.012 C 
ATOM     18  C   UNL     1       2.549  -4.301  21.782  1.00  0.00     0.004 C 
ATOM     19  C   UNL     1      -0.013  -4.650  22.086  1.00  0.00     0.005 C 
ATOM     20  C   UNL     1       1.195  -4.692  21.103  1.00  0.00     0.003 C 
ATOM     21  C   UNL     1       3.712  -4.623  20.819  1.00  0.00     0.085 C 
ATOM     22  C   UNL     1       0.934  -3.901  19.758  1.00  0.00    -0.000 C 
ATOM     23  C   UNL     1       3.514  -3.999  19.475  1.00  0.00     0.159 C 
ATOM     24  C   UNL     1       2.172  -3.975  18.857  1.00  0.00     0.005 C 
ATOM     25  C   UNL     1      -0.274  -4.552  19.012  1.00  0.00     0.020 C 
ATOM     26  C   UNL     1       0.643  -2.397  20.024  1.00  0.00     0.017 C 
ATOM     27  O   UNL     1       4.516  -3.559  18.847  1.00  0.00    -0.295 OA
ATOM     28  C   UNL     1       2.065  -3.913  17.516  1.00  0.00     0.055 C 
ATOM     29  C   UNL     1      -0.512  -3.956  17.621  1.00  0.00     0.081 C 
ATOM     30  C   UNL     1       0.763  -3.894  16.838  1.00  0.00     0.156 C 
ATOM     31  O   UNL     1       0.717  -3.784  15.586  1.00  0.00    -0.295 OA
ENDBRANCH   9  11
ENDBRANCH   8   9
ENDBRANCH   1   8
TORSDOF 6
ENDMDL
MODEL 2
REMARK VINA RESULT:    -5.630      3.022      4.606
REMARK INTER + INTRA:         -10.179
REMARK INTER:                  -7.800
REMARK INTRA:                  -2.379
REMARK UNBOUND:                -2.575
REMARK SMILES CC[C@H](CC[C@H](C)[C@@H]1CC[C@@H]2[C@H]3CC(=O)C4=CC(=O)CC[C@@]4(C)[C@@H]3CC[C@@]21C)C(C)C
REMARK SMILES IDX 4 1 3 2 2 3 1 4 29 5 30 6 31 7 5 8 6 9 7 10 8 11 9 12 27 13
REMARK SMILES IDX 10 14 11 15 26 16 28 17 12 18 25 19 24 20 13 21 22 22 14 23
REMARK SMILES IDX 16 24 21 25 23 26 15 27 17 28 20 29 18 30 19 31
REMARK H PARENT
REMARK Flexibility Score: inf
ROOT
ATOM      1  C   UNL     1      -0.283   1.564  22.362  1.00  0.00     0.004 C 
ENDROOT
BRANCH   1   2
ATOM      2  C   UNL     1       1.259   1.745  22.198  1.00  0.00    -0.009 C 
BRANCH   2   3
ATOM      3  C   UNL     1       1.759   1.010  20.920  1.00  0.00     0.000 C 
ATOM      4  C   UNL     1       2.885  -0.009  21.148  1.00  0.00     0.004 C 
ENDBRANCH   2   3
BRANCH   2   5
ATOM      5  C   UNL     1       1.707   3.243  22.295  1.00  0.00    -0.014 C 
ATOM      6  C   UNL     1       0.494   4.196  22.359  1.00  0.00     0.007 C 
ATOM      7  C   UNL     1       2.578   3.516  23.539  1.00  0.00     0.007 C 
ENDBRANCH   2   5
ENDBRANCH   1   2
BRANCH   1   8
ATOM      8  C   UNL     1      -0.663   0.346  23.230  1.00  0.00     0.004 C 
BRANCH   8   9
ATOM      9  C   UNL     1      -1.762  -0.552  22.588  1.00  0.00    -0.011 C 
ATOM     10  C   UNL     1      -3.020  -0.644  23.483  1.00  0.00     0.008 C 
BRANCH   9  11
ATOM     11  C   UNL     1      -1.191  -1.907  22.020  1.00  0.00    -0.002 C 
ATOM     12  C   UNL     1       0.204  -2.215  22.546  1.00  0.00     0.005 C 
ATOM     13  C   UNL     1      -1.137  -2.235  20.479  1.00  0.00    -0.026 C 
ATOM     14  C   UNL     1       0.666  -3.404  21.738  1.00  0.00     0.005 C 
ATOM     15  C   UNL     1       0.091  -3.210  20.322  1.00  0.00    -0.001 C 
ATOM     16  C   UNL     1      -0.949  -0.973  19.604  1.00  0.00     0.007 C 
ATOM     17  C   UNL     1      -2.427  -2.978  20.030  1.00  0.00     0.012 C 
ATOM     18  C   UNL     1       1.184  -2.732  19.309  1.00  0.00     0.004 C 
ATOM     19  C   UNL     1      -0.658  -1.311  18.142  1.00  0.00     0.005 C 
ATOM     20  C   UNL     1       0.560  -2.264  17.955  1.00  0.00     0.003 C 
ATOM     21  C   UNL     1       2.198  -3.865  19.037  1.00  0.00     0.085 C 
ATOM     22  C   UNL     1       1.640  -1.705  16.943  1.00  0.00    -0.000 C 
ATOM     23  C   UNL     1       3.215  -3.472  18.014  1.00  0.00     0.159 C 
ATOM     24  C   UNL     1       2.809  -2.689  16.828  1.00  0.00     0.005 C 
ATOM     25  C   UNL     1       0.980  -1.536  15.537  1.00  0.00     0.020 C 
ATOM     26  C   UNL     1       2.223  -0.345  17.420  1.00  0.00     0.017 C 
ATOM     27  O   UNL     1       4.403  -3.876  18.139  1.00  0.00    -0.295 OA
ATOM     28  C   UNL     1       3.540  -2.778  15.700  1.00  0.00     0.055 C 
ATOM     29  C   UNL     1       1.984  -1.147  14.447  1.00  0.00     0.081 C 
ATOM     30  C   UNL     1       3.189  -2.033  14.484  1.00  0.00     0.156 C 
ATOM     31  O   UNL     1       3.933  -2.111  13.473  1.00  0.00    -0.295 OA
ENDBRANCH   9  11
ENDBRANCH   8   9
ENDBRANCH   1   8
TORSDOF 6
ENDMDL
MODEL 3
REMARK VINA RESULT:    -5.625      4.196      7.600
REMARK INTER + INTRA:         -10.173
REMARK INTER:                  -7.751
REMARK INTRA:                  -2.422
REMARK UNBOUND:                -2.575
REMARK SMILES CC[C@H](CC[C@H](C)[C@@H]1CC[C@@H]2[C@H]3CC(=O)C4=CC(=O)CC[C@@]4(C)[C@@H]3CC[C@@]21C)C(C)C
REMARK SMILES IDX 4 1 3 2 2 3 1 4 29 5 30 6 31 7 5 8 6 9 7 10 8 11 9 12 27 13
REMARK SMILES IDX 10 14 11 15 26 16 28 17 12 18 25 19 24 20 13 21 22 22 14 23
REMARK SMILES IDX 16 24 21 25 23 26 15 27 17 28 20 29 18 30 19 31
REMARK H PARENT
REMARK Flexibility Score: inf
ROOT
ATOM      1  C   UNL     1      -0.381  -4.463  20.625  1.00  0.00     0.004 C 
ENDROOT
BRANCH   1   2
ATOM      2  C   UNL     1       0.551  -4.005  19.459  1.00  0.00    -0.009 C 
BRANCH   2   3
ATOM      3  C   UNL     1       1.793  -4.937  19.357  1.00  0.00     0.000 C 
ATOM      4  C   UNL     1       2.848  -4.748  20.457  1.00  0.00     0.004 C 
ENDBRANCH   2   3
BRANCH   2   5
ATOM      5  C   UNL     1      -0.220  -3.810  18.108  1.00  0.00    -0.014 C 
ATOM      6  C   UNL     1       0.735  -3.867  16.896  1.00  0.00     0.007 C 
ATOM      7  C   UNL     1      -1.307  -4.884  17.892  1.00  0.00     0.007 C 
ENDBRANCH   2   5
ENDBRANCH   1   2
BRANCH   1   8
ATOM      8  C   UNL     1      -0.761  -3.316  21.586  1.00  0.00     0.004 C 
BRANCH   8   9
ATOM      9  C   UNL     1       0.069  -2.018  21.357  1.00  0.00    -0.011 C 
ATOM     10  C   UNL     1       0.956  -1.683  22.579  1.00  0.00     0.008 C 
BRANCH   9  11
ATOM     11  C   UNL     1      -0.790  -0.840  20.756  1.00  0.00    -0.002 C 
ATOM     12  C   UNL     1      -2.094  -1.328  20.140  1.00  0.00     0.005 C 
ATOM     13  C   UNL     1      -0.210   0.206  19.729  1.00  0.00    -0.026 C 
ATOM     14  C   UNL     1      -2.661  -0.121  19.434  1.00  0.00     0.005 C 
ATOM     15  C   UNL     1      -1.453   0.655  18.871  1.00  0.00    -0.001 C 
ATOM     16  C   UNL     1       0.892  -0.392  18.822  1.00  0.00     0.007 C 
ATOM     17  C   UNL     1       0.361   1.446  20.472  1.00  0.00     0.012 C 
ATOM     18  C   UNL     1      -1.296   0.450  17.328  1.00  0.00     0.004 C 
ATOM     19  C   UNL     1       1.282   0.543  17.678  1.00  0.00     0.005 C 
ATOM     20  C   UNL     1       0.073   0.993  16.805  1.00  0.00     0.003 C 
ATOM     21  C   UNL     1      -2.445   1.153  16.572  1.00  0.00     0.085 C 
ATOM     22  C   UNL     1       0.286   0.730  15.259  1.00  0.00    -0.000 C 
ATOM     23  C   UNL     1      -2.287   1.046  15.089  1.00  0.00     0.159 C 
ATOM     24  C   UNL     1      -0.950   1.182  14.474  1.00  0.00     0.005 C 
ATOM     25  C   UNL     1       1.524   1.546  14.770  1.00  0.00     0.020 C 
ATOM     26  C   UNL     1       0.497  -0.782  14.960  1.00  0.00     0.017 C 
ATOM     27  O   UNL     1      -3.313   0.911  14.369  1.00  0.00    -0.295 OA
ATOM     28  C   UNL     1      -0.853   1.603  13.199  1.00  0.00     0.055 C 
ATOM     29  C   UNL     1       1.723   1.481  13.252  1.00  0.00     0.081 C 
ATOM     30  C   UNL     1       0.444   1.766  12.529  1.00  0.00     0.156 C 
ATOM     31  O   UNL     1       0.479   2.114  11.321  1.00  0.00    -0.295 OA
ENDBRANCH   9  11
ENDBRANCH   8   9
ENDBRANCH   1   8
TORSDOF 6
ENDMDL
MODEL 4
REMARK VINA RESULT:    -5.619      3.898      8.434
REMARK INTER + INTRA:         -10.165
REMARK INTER:                  -7.425
REMARK INTRA:                  -2.740
REMARK UNBOUND:                -2.575
REMARK SMILES CC[C@H](CC[C@H](C)[C@@H]1CC[C@@H]2[C@H]3CC(=O)C4=CC(=O)CC[C@@]4(C)[C@@H]3CC[C@@]21C)C(C)C
REMARK SMILES IDX 4 1 3 2 2 3 1 4 29 5 30 6 31 7 5 8 6 9 7 10 8 11 9 12 27 13
REMARK SMILES IDX 10 14 11 15 26 16 28 17 12 18 25 19 24 20 13 21 22 22 14 23
REMARK SMILES IDX 16 24 21 25 23 26 15 27 17 28 20 29 18 30 19 31
REMARK H PARENT
REMARK Flexibility Score: inf
ROOT
ATOM      1  C   UNL     1       2.074   0.886  13.804  1.00  0.00     0.004 C 
ENDROOT
BRANCH   1   2
ATOM      2  C   UNL     1       1.564   1.191  15.248  1.00  0.00    -0.009 C 
BRANCH   2   3
ATOM      3  C   UNL     1       2.206   2.503  15.785  1.00  0.00     0.000 C 
ATOM      4  C   UNL     1       3.041   2.348  17.065  1.00  0.00     0.004 C 
ENDBRANCH   2   3
BRANCH   2   5
ATOM      5  C   UNL     1       0.002   1.146  15.361  1.00  0.00    -0.014 C 
ATOM      6  C   UNL     1      -0.647   0.621  14.063  1.00  0.00     0.007 C 
ATOM      7  C   UNL     1      -0.477   0.243  16.517  1.00  0.00     0.007 C 
ENDBRANCH   2   5
ENDBRANCH   1   2
BRANCH   1   8
ATOM      8  C   UNL     1       2.880  -0.427  13.708  1.00  0.00     0.004 C 
BRANCH   8   9
ATOM      9  C   UNL     1       3.429  -0.916  15.081  1.00  0.00    -0.011 C 
ATOM     10  C   UNL     1       4.973  -0.841  15.138  1.00  0.00     0.008 C 
BRANCH   9  11
ATOM     11  C   UNL     1       2.763  -2.262  15.563  1.00  0.00    -0.002 C 
ATOM     12  C   UNL     1       1.392  -2.487  14.940  1.00  0.00     0.005 C 
ATOM     13  C   UNL     1       2.597  -2.638  17.085  1.00  0.00    -0.026 C 
ATOM     14  C   UNL     1       0.828  -3.679  15.674  1.00  0.00     0.005 C 
ATOM     15  C   UNL     1       1.319  -3.559  17.130  1.00  0.00    -0.001 C 
ATOM     16  C   UNL     1       2.409  -1.399  17.991  1.00  0.00     0.007 C 
ATOM     17  C   UNL     1       3.821  -3.454  17.586  1.00  0.00     0.012 C 
ATOM     18  C   UNL     1       0.185  -3.065  18.089  1.00  0.00     0.004 C 
ATOM     19  C   UNL     1       2.011  -1.771  19.419  1.00  0.00     0.005 C 
ATOM     20  C   UNL     1       0.743  -2.672  19.496  1.00  0.00     0.003 C 
ATOM     21  C   UNL     1      -0.893  -4.158  18.256  1.00  0.00     0.085 C 
ATOM     22  C   UNL     1      -0.375  -2.098  20.458  1.00  0.00    -0.000 C 
ATOM     23  C   UNL     1      -1.954  -3.752  19.227  1.00  0.00     0.159 C 
ATOM     24  C   UNL     1      -1.591  -3.029  20.464  1.00  0.00     0.005 C 
ATOM     25  C   UNL     1       0.201  -2.006  21.907  1.00  0.00     0.020 C 
ATOM     26  C   UNL     1      -0.865  -0.697  19.995  1.00  0.00     0.017 C 
ATOM     27  O   UNL     1      -3.149  -4.096  19.014  1.00  0.00    -0.295 OA
ATOM     28  C   UNL     1      -2.396  -3.121  21.540  1.00  0.00     0.055 C 
ATOM     29  C   UNL     1      -0.852  -1.607  22.946  1.00  0.00     0.081 C 
ATOM     30  C   UNL     1      -2.091  -2.435  22.802  1.00  0.00     0.156 C 
ATOM     31  O   UNL     1      -2.900  -2.512  23.762  1.00  0.00    -0.295 OA
ENDBRANCH   9  11
ENDBRANCH   8   9
ENDBRANCH   1   8
TORSDOF 6
ENDMDL
MODEL 5
REMARK VINA RESULT:    -5.582      4.045      8.281
REMARK INTER + INTRA:         -10.115
REMARK INTER:                  -7.933
REMARK INTRA:                  -2.182
REMARK UNBOUND:                -2.575
REMARK SMILES CC[C@H](CC[C@H](C)[C@@H]1CC[C@@H]2[C@H]3CC(=O)C4=CC(=O)CC[C@@]4(C)[C@@H]3CC[C@@]21C)C(C)C
REMARK SMILES IDX 4 1 3 2 2 3 1 4 29 5 30 6 31 7 5 8 6 9 7 10 8 11 9 12 27 13
REMARK SMILES IDX 10 14 11 15 26 16 28 17 12 18 25 19 24 20 13 21 22 22 14 23
REMARK SMILES IDX 16 24 21 25 23 26 15 27 17 28 20 29 18 30 19 31
REMARK H PARENT
REMARK Flexibility Score: inf
ROOT
ATOM      1  C   UNL     1       2.020  -0.625  15.015  1.00  0.00     0.004 C 
ENDROOT
BRANCH   1   2
ATOM      2  C   UNL     1       0.471  -0.430  14.997  1.00  0.00    -0.009 C 
BRANCH   2   3
ATOM      3  C   UNL     1      -0.041  -0.013  16.407  1.00  0.00     0.000 C 
ATOM      4  C   UNL     1       0.906   0.892  17.208  1.00  0.00     0.004 C 
ENDBRANCH   2   3
BRANCH   2   5
ATOM      5  C   UNL     1      -0.008   0.507  13.836  1.00  0.00    -0.014 C 
ATOM      6  C   UNL     1      -1.326   1.228  14.195  1.00  0.00     0.007 C 
ATOM      7  C   UNL     1       1.033   1.590  13.488  1.00  0.00     0.007 C 
ENDBRANCH   2   5
ENDBRANCH   1   2
BRANCH   1   8
ATOM      8  C   UNL     1       2.449  -2.096  14.827  1.00  0.00     0.004 C 
BRANCH   8   9
ATOM      9  C   UNL     1       3.041  -2.737  16.117  1.00  0.00    -0.011 C 
ATOM     10  C   UNL     1       4.447  -3.330  15.868  1.00  0.00     0.008 C 
BRANCH   9  11
ATOM     11  C   UNL     1       2.005  -3.654  16.875  1.00  0.00    -0.002 C 
ATOM     12  C   UNL     1       0.654  -3.704  16.176  1.00  0.00     0.005 C 
ATOM     13  C   UNL     1       1.676  -3.488  18.408  1.00  0.00    -0.026 C 
ATOM     14  C   UNL     1      -0.252  -4.428  17.142  1.00  0.00     0.005 C 
ATOM     15  C   UNL     1       0.191  -3.994  18.553  1.00  0.00    -0.001 C 
ATOM     16  C   UNL     1       1.804  -2.024  18.893  1.00  0.00     0.007 C 
ATOM     17  C   UNL     1       2.601  -4.392  19.269  1.00  0.00     0.012 C 
ATOM     18  C   UNL     1      -0.799  -2.958  19.182  1.00  0.00     0.004 C 
ATOM     19  C   UNL     1       1.258  -1.825  20.306  1.00  0.00     0.005 C 
ATOM     20  C   UNL     1      -0.214  -2.306  20.477  1.00  0.00     0.003 C 
ATOM     21  C   UNL     1      -2.146  -3.635  19.517  1.00  0.00     0.085 C 
ATOM     22  C   UNL     1      -1.166  -1.199  21.089  1.00  0.00    -0.000 C 
ATOM     23  C   UNL     1      -3.092  -2.695  20.193  1.00  0.00     0.159 C 
ATOM     24  C   UNL     1      -2.594  -1.743  21.208  1.00  0.00     0.005 C 
ATOM     25  C   UNL     1      -0.650  -0.815  22.512  1.00  0.00     0.020 C 
ATOM     26  C   UNL     1      -1.226   0.067  20.188  1.00  0.00     0.017 C 
ATOM     27  O   UNL     1      -4.324  -2.773  19.938  1.00  0.00    -0.295 OA
ATOM     28  C   UNL     1      -3.437  -1.292  22.156  1.00  0.00     0.055 C 
ATOM     29  C   UNL     1      -1.592   0.138  23.254  1.00  0.00     0.081 C 
ATOM     30  C   UNL     1      -3.006  -0.351  23.198  1.00  0.00     0.156 C 
ATOM     31  O   UNL     1      -3.844   0.079  24.031  1.00  0.00    -0.295 OA
ENDBRANCH   9  11
ENDBRANCH   8   9
ENDBRANCH   1   8
TORSDOF 6
ENDMDL
MODEL 6
REMARK VINA RESULT:    -5.572      3.558      8.382
REMARK INTER + INTRA:         -10.101
REMARK INTER:                  -7.365
REMARK INTRA:                  -2.736
REMARK UNBOUND:                -2.575
REMARK SMILES CC[C@H](CC[C@H](C)[C@@H]1CC[C@@H]2[C@H]3CC(=O)C4=CC(=O)CC[C@@]4(C)[C@@H]3CC[C@@]21C)C(C)C
REMARK SMILES IDX 4 1 3 2 2 3 1 4 29 5 30 6 31 7 5 8 6 9 7 10 8 11 9 12 27 13
REMARK SMILES IDX 10 14 11 15 26 16 28 17 12 18 25 19 24 20 13 21 22 22 14 23
REMARK SMILES IDX 16 24 21 25 23 26 15 27 17 28 20 29 18 30 19 31
REMARK H PARENT
REMARK Flexibility Score: inf
ROOT
ATOM      1  C   UNL     1       1.765   1.261  14.860  1.00  0.00     0.004 C 
ENDROOT
BRANCH   1   2
ATOM      2  C   UNL     1       0.476   1.207  15.738  1.00  0.00    -0.009 C 
BRANCH   2   3
ATOM      3  C   UNL     1      -0.710   0.608  14.926  1.00  0.00     0.000 C 
ATOM      4  C   UNL     1      -1.536   1.625  14.125  1.00  0.00     0.004 C 
ENDBRANCH   2   3
BRANCH   2   5
ATOM      5  C   UNL     1       0.716   0.521  17.126  1.00  0.00    -0.014 C 
ATOM      6  C   UNL     1       0.932   1.563  18.245  1.00  0.00     0.007 C 
ATOM      7  C   UNL     1      -0.465  -0.377  17.550  1.00  0.00     0.007 C 
ENDBRANCH   2   5
ENDBRANCH   1   2
BRANCH   1   8
ATOM      8  C   UNL     1       1.894   0.065  13.894  1.00  0.00     0.004 C 
BRANCH   8   9
ATOM      9  C   UNL     1       3.120  -0.847  14.200  1.00  0.00    -0.011 C 
ATOM     10  C   UNL     1       4.127  -0.863  13.026  1.00  0.00     0.008 C 
BRANCH   9  11
ATOM     11  C   UNL     1       2.707  -2.244  14.805  1.00  0.00    -0.002 C 
ATOM     12  C   UNL     1       1.197  -2.417  14.890  1.00  0.00     0.005 C 
ATOM     13  C   UNL     1       3.267  -2.781  16.178  1.00  0.00    -0.026 C 
ATOM     14  C   UNL     1       1.000  -3.686  15.682  1.00  0.00     0.005 C 
ATOM     15  C   UNL     1       2.127  -3.716  16.734  1.00  0.00    -0.001 C 
ATOM     16  C   UNL     1       3.582  -1.647  17.182  1.00  0.00     0.007 C 
ATOM     17  C   UNL     1       4.548  -3.632  15.953  1.00  0.00     0.012 C 
ATOM     18  C   UNL     1       1.604  -3.339  18.160  1.00  0.00     0.004 C 
ATOM     19  C   UNL     1       3.893  -2.173  18.582  1.00  0.00     0.005 C 
ATOM     20  C   UNL     1       2.777  -3.091  19.163  1.00  0.00     0.003 C 
ATOM     21  C   UNL     1       0.690  -4.456  18.710  1.00  0.00     0.085 C 
ATOM     22  C   UNL     1       2.273  -2.635  20.593  1.00  0.00    -0.000 C 
ATOM     23  C   UNL     1       0.233  -4.167  20.104  1.00  0.00     0.159 C 
ATOM     24  C   UNL     1       1.168  -3.576  21.084  1.00  0.00     0.005 C 
ATOM     25  C   UNL     1       3.470  -2.691  21.595  1.00  0.00     0.020 C 
ATOM     26  C   UNL     1       1.679  -1.199  20.559  1.00  0.00     0.017 C 
ATOM     27  O   UNL     1      -0.933  -4.500  20.452  1.00  0.00    -0.295 OA
ATOM     28  C   UNL     1       0.966  -3.790  22.398  1.00  0.00     0.055 C 
ATOM     29  C   UNL     1       3.052  -2.416  23.043  1.00  0.00     0.081 C 
ATOM     30  C   UNL     1       1.860  -3.238  23.424  1.00  0.00     0.156 C 
ATOM     31  O   UNL     1       1.600  -3.426  24.640  1.00  0.00    -0.295 OA
ENDBRANCH   9  11
ENDBRANCH   8   9
ENDBRANCH   1   8
TORSDOF 6
ENDMDL
MODEL 7
REMARK VINA RESULT:    -5.478      3.555      7.964
REMARK INTER + INTRA:          -9.974
REMARK INTER:                  -7.235
REMARK INTRA:                  -2.739
REMARK UNBOUND:                -2.575
REMARK SMILES CC[C@H](CC[C@H](C)[C@@H]1CC[C@@H]2[C@H]3CC(=O)C4=CC(=O)CC[C@@]4(C)[C@@H]3CC[C@@]21C)C(C)C
REMARK SMILES IDX 4 1 3 2 2 3 1 4 29 5 30 6 31 7 5 8 6 9 7 10 8 11 9 12 27 13
REMARK SMILES IDX 10 14 11 15 26 16 28 17 12 18 25 19 24 20 13 21 22 22 14 23
REMARK SMILES IDX 16 24 21 25 23 26 15 27 17 28 20 29 18 30 19 31
REMARK H PARENT
REMARK Flexibility Score: inf
ROOT
ATOM      1  C   UNL     1       3.283   1.694  16.403  1.00  0.00     0.004 C 
ENDROOT
BRANCH   1   2
ATOM      2  C   UNL     1       2.233   1.168  17.432  1.00  0.00    -0.009 C 
BRANCH   2   3
ATOM      3  C   UNL     1       2.431   1.859  18.812  1.00  0.00     0.000 C 
ATOM      4  C   UNL     1       3.333   1.105  19.800  1.00  0.00     0.004 C 
ENDBRANCH   2   3
BRANCH   2   5
ATOM      5  C   UNL     1       0.766   1.230  16.886  1.00  0.00    -0.014 C 
ATOM      6  C   UNL     1      -0.133   0.165  17.550  1.00  0.00     0.007 C 
ATOM      7  C   UNL     1       0.108   2.605  17.124  1.00  0.00     0.007 C 
ENDBRANCH   2   5
ENDBRANCH   1   2
BRANCH   1   8
ATOM      8  C   UNL     1       3.145   1.045  15.009  1.00  0.00     0.004 C 
BRANCH   8   9
ATOM      9  C   UNL     1       4.044  -0.213  14.822  1.00  0.00    -0.011 C 
ATOM     10  C   UNL     1       5.034  -0.038  13.646  1.00  0.00     0.008 C 
BRANCH   9  11
ATOM     11  C   UNL     1       3.228  -1.561  14.871  1.00  0.00    -0.002 C 
ATOM     12  C   UNL     1       1.736  -1.345  14.655  1.00  0.00     0.005 C 
ATOM     13  C   UNL     1       3.332  -2.582  16.068  1.00  0.00    -0.026 C 
ATOM     14  C   UNL     1       1.107  -2.684  14.955  1.00  0.00     0.005 C 
ATOM     15  C   UNL     1       1.929  -3.298  16.105  1.00  0.00    -0.001 C 
ATOM     16  C   UNL     1       3.630  -1.892  17.420  1.00  0.00     0.007 C 
ATOM     17  C   UNL     1       4.431  -3.646  15.787  1.00  0.00     0.012 C 
ATOM     18  C   UNL     1       1.178  -3.202  17.475  1.00  0.00     0.004 C 
ATOM     19  C   UNL     1       3.495  -2.844  18.607  1.00  0.00     0.005 C 
ATOM     20  C   UNL     1       2.111  -3.558  18.677  1.00  0.00     0.003 C 
ATOM     21  C   UNL     1      -0.046  -4.143  17.484  1.00  0.00     0.085 C 
ATOM     22  C   UNL     1       1.394  -3.394  20.078  1.00  0.00    -0.000 C 
ATOM     23  C   UNL     1      -0.745  -4.138  18.806  1.00  0.00     0.159 C 
ATOM     24  C   UNL     1       0.037  -4.106  20.059  1.00  0.00     0.005 C 
ATOM     25  C   UNL     1       2.288  -4.038  21.185  1.00  0.00     0.020 C 
ATOM     26  C   UNL     1       1.129  -1.900  20.415  1.00  0.00     0.017 C 
ATOM     27  O   UNL     1      -2.002  -4.232  18.838  1.00  0.00    -0.295 OA
ATOM     28  C   UNL     1      -0.503  -4.612  21.184  1.00  0.00     0.055 C 
ATOM     29  C   UNL     1       1.611  -4.070  22.559  1.00  0.00     0.081 C 
ATOM     30  C   UNL     1       0.222  -4.619  22.462  1.00  0.00     0.156 C 
ATOM     31  O   UNL     1      -0.345  -5.057  23.495  1.00  0.00    -0.295 OA
ENDBRANCH   9  11
ENDBRANCH   8   9
ENDBRANCH   1   8
TORSDOF 6
ENDMDL
MODEL 8
REMARK VINA RESULT:    -5.469      3.390      5.278
REMARK INTER + INTRA:          -9.962
REMARK INTER:                  -7.317
REMARK INTRA:                  -2.645
REMARK UNBOUND:                -2.575
REMARK SMILES CC[C@H](CC[C@H](C)[C@@H]1CC[C@@H]2[C@H]3CC(=O)C4=CC(=O)CC[C@@]4(C)[C@@H]3CC[C@@]21C)C(C)C
REMARK SMILES IDX 4 1 3 2 2 3 1 4 29 5 30 6 31 7 5 8 6 9 7 10 8 11 9 12 27 13
REMARK SMILES IDX 10 14 11 15 26 16 28 17 12 18 25 19 24 20 13 21 22 22 14 23
REMARK SMILES IDX 16 24 21 25 23 26 15 27 17 28 20 29 18 30 19 31
REMARK H PARENT
REMARK Flexibility Score: inf
ROOT
ATOM      1  C   UNL     1       1.375   1.854  22.832  1.00  0.00     0.004 C 
ENDROOT
BRANCH   1   2
ATOM      2  C   UNL     1       1.297   2.274  21.330  1.00  0.00    -0.009 C 
BRANCH   2   3
ATOM      3  C   UNL     1       0.482   3.591  21.175  1.00  0.00     0.000 C 
ATOM      4  C   UNL     1       0.458   4.498  22.414  1.00  0.00     0.004 C 
ENDBRANCH   2   3
BRANCH   2   5
ATOM      5  C   UNL     1       2.701   2.301  20.635  1.00  0.00    -0.014 C 
ATOM      6  C   UNL     1       3.276   0.879  20.459  1.00  0.00     0.007 C 
ATOM      7  C   UNL     1       2.653   2.958  19.239  1.00  0.00     0.007 C 
ENDBRANCH   2   5
ENDBRANCH   1   2
BRANCH   1   8
ATOM      8  C   UNL     1       0.649   0.526  23.130  1.00  0.00     0.004 C 
BRANCH   8   9
ATOM      9  C   UNL     1      -0.454   0.177  22.087  1.00  0.00    -0.011 C 
ATOM     10  C   UNL     1      -1.874   0.390  22.663  1.00  0.00     0.008 C 
BRANCH   9  11
ATOM     11  C   UNL     1      -0.184  -1.188  21.344  1.00  0.00    -0.002 C 
ATOM     12  C   UNL     1       1.158  -1.800  21.723  1.00  0.00     0.005 C 
ATOM     13  C   UNL     1      -0.287  -1.345  19.778  1.00  0.00    -0.026 C 
ATOM     14  C   UNL     1       1.337  -2.954  20.768  1.00  0.00     0.005 C 
ATOM     15  C   UNL     1       0.724  -2.503  19.428  1.00  0.00    -0.001 C 
ATOM     16  C   UNL     1       0.082  -0.049  19.020  1.00  0.00     0.007 C 
ATOM     17  C   UNL     1      -1.719  -1.787  19.364  1.00  0.00     0.012 C 
ATOM     18  C   UNL     1       1.824  -2.120  18.383  1.00  0.00     0.004 C 
ATOM     19  C   UNL     1       0.215  -0.267  17.514  1.00  0.00     0.005 C 
ATOM     20  C   UNL     1       1.218  -1.398  17.136  1.00  0.00     0.003 C 
ATOM     21  C   UNL     1       2.588  -3.380  17.920  1.00  0.00     0.085 C 
ATOM     22  C   UNL     1       2.321  -0.935  16.100  1.00  0.00    -0.000 C 
ATOM     23  C   UNL     1       3.596  -3.065  16.862  1.00  0.00     0.159 C 
ATOM     24  C   UNL     1       3.274  -2.095  15.795  1.00  0.00     0.005 C 
ATOM     25  C   UNL     1       1.620  -0.493  14.776  1.00  0.00     0.020 C 
ATOM     26  C   UNL     1       3.178   0.235  16.661  1.00  0.00     0.017 C 
ATOM     27  O   UNL     1       4.692  -3.689  16.851  1.00  0.00    -0.295 OA
ATOM     28  C   UNL     1       3.905  -2.187  14.609  1.00  0.00     0.055 C 
ATOM     29  C   UNL     1       2.611  -0.172  13.652  1.00  0.00     0.081 C 
ATOM     30  C   UNL     1       3.628  -1.260  13.504  1.00  0.00     0.156 C 
ATOM     31  O   UNL     1       4.281  -1.358  12.434  1.00  0.00    -0.295 OA
ENDBRANCH   9  11
ENDBRANCH   8   9
ENDBRANCH   1   8
TORSDOF 6
ENDMDL
MODEL 9
REMARK VINA RESULT:    -5.327      3.720      8.366
REMARK INTER + INTRA:          -9.771
REMARK INTER:                  -7.577
REMARK INTRA:                  -2.193
REMARK UNBOUND:                -2.575
REMARK SMILES CC[C@H](CC[C@H](C)[C@@H]1CC[C@@H]2[C@H]3CC(=O)C4=CC(=O)CC[C@@]4(C)[C@@H]3CC[C@@]21C)C(C)C
REMARK SMILES IDX 4 1 3 2 2 3 1 4 29 5 30 6 31 7 5 8 6 9 7 10 8 11 9 12 27 13
REMARK SMILES IDX 10 14 11 15 26 16 28 17 12 18 25 19 24 20 13 21 22 22 14 23
REMARK SMILES IDX 16 24 21 25 23 26 15 27 17 28 20 29 18 30 19 31
REMARK H PARENT
REMARK Flexibility Score: inf
ROOT
ATOM      1  C   UNL     1      -0.079  -0.108  18.027  1.00  0.00     0.004 C 
ENDROOT
BRANCH   1   2
ATOM      2  C   UNL     1       0.875  -1.340  18.122  1.00  0.00    -0.009 C 
BRANCH   2   3
ATOM      3  C   UNL     1       1.416  -1.498  19.573  1.00  0.00     0.000 C 
ATOM      4  C   UNL     1       2.850  -0.997  19.797  1.00  0.00     0.004 C 
ENDBRANCH   2   3
BRANCH   2   5
ATOM      5  C   UNL     1       0.243  -2.644  17.526  1.00  0.00    -0.014 C 
ATOM      6  C   UNL     1       1.232  -3.382  16.598  1.00  0.00     0.007 C 
ATOM      7  C   UNL     1      -0.196  -3.638  18.621  1.00  0.00     0.007 C 
ENDBRANCH   2   5
ENDBRANCH   1   2
BRANCH   1   8
ATOM      8  C   UNL     1       0.670   1.226  17.819  1.00  0.00     0.004 C 
BRANCH   8   9
ATOM      9  C   UNL     1       0.110   2.390  18.690  1.00  0.00    -0.011 C 
ATOM     10  C   UNL     1      -0.705   3.396  17.844  1.00  0.00     0.008 C 
BRANCH   9  11
ATOM     11  C   UNL     1       1.189   2.993  19.670  1.00  0.00    -0.002 C 
ATOM     12  C   UNL     1       2.610   2.634  19.262  1.00  0.00     0.005 C 
ATOM     13  C   UNL     1       1.138   2.783  21.232  1.00  0.00    -0.026 C 
ATOM     14  C   UNL     1       3.469   3.095  20.414  1.00  0.00     0.005 C 
ATOM     15  C   UNL     1       2.644   2.847  21.692  1.00  0.00    -0.001 C 
ATOM     16  C   UNL     1       0.500   1.432  21.635  1.00  0.00     0.007 C 
ATOM     17  C   UNL     1       0.355   3.939  21.916  1.00  0.00     0.012 C 
ATOM     18  C   UNL     1       3.146   1.589  22.475  1.00  0.00     0.004 C 
ATOM     19  C   UNL     1       0.667   1.125  23.122  1.00  0.00     0.005 C 
ATOM     20  C   UNL     1       2.148   1.169  23.603  1.00  0.00     0.003 C 
ATOM     21  C   UNL     1       4.532   1.861  23.098  1.00  0.00     0.085 C 
ATOM     22  C   UNL     1       2.598  -0.146  24.360  1.00  0.00    -0.000 C 
ATOM     23  C   UNL     1       5.012   0.708  23.921  1.00  0.00     0.159 C 
ATOM     24  C   UNL     1       4.066  -0.031  24.783  1.00  0.00     0.005 C 
ATOM     25  C   UNL     1       1.716  -0.325  25.636  1.00  0.00     0.020 C 
ATOM     26  C   UNL     1       2.475  -1.401  23.451  1.00  0.00     0.017 C 
ATOM     27  O   UNL     1       6.240   0.423  23.925  1.00  0.00    -0.295 OA
ATOM     28  C   UNL     1       4.534  -0.678  25.868  1.00  0.00     0.055 C 
ATOM     29  C   UNL     1       2.174  -1.487  26.524  1.00  0.00     0.081 C 
ATOM     30  C   UNL     1       3.649  -1.426  26.771  1.00  0.00     0.156 C 
ATOM     31  O   UNL     1       4.142  -2.054  27.743  1.00  0.00    -0.295 OA
ENDBRANCH   9  11
ENDBRANCH   8   9
ENDBRANCH   1   8
TORSDOF 6
ENDMDL
