MODEL 1
REMARK VINA RESULT:    -4.420      0.000      0.000
REMARK INTER + INTRA:          -8.462
REMARK INTER:                  -7.779
REMARK INTRA:                  -0.683
REMARK UNBOUND:                -0.683
REMARK SMILES CCCCCCC=CCCCCCCCC(=O)[O-]
REMARK SMILES IDX 10 1 11 2 12 3 13 4 14 5 15 6 16 7 17 8 18 9 9 10 8 11 7 12
REMARK SMILES IDX 6 13 5 14 4 15 3 16 2 17 1 18
REMARK H PARENT
REMARK Flexibility Score: inf
ROOT
ATOM      1  C   UNL     1       3.879   6.467   9.544  1.00  0.00     0.004 C 
ENDROOT
BRANCH   1   2
ATOM      2  C   UNL     1       4.005   5.358   8.484  1.00  0.00     0.000 C 
BRANCH   2   3
ATOM      3  C   UNL     1       5.325   4.578   8.599  1.00  0.00     0.000 C 
BRANCH   3   4
ATOM      4  C   UNL     1       5.416   3.419   7.595  1.00  0.00     0.000 C 
BRANCH   4   5
ATOM      5  C   UNL     1       6.850   3.261   7.070  1.00  0.00     0.006 C 
BRANCH   5   6
ATOM      6  C   UNL     1       6.963   3.597   5.577  1.00  0.00     0.053 C 
BRANCH   6   7
ATOM      7  C   UNL     1       8.106   2.878   4.929  1.00  0.00     0.041 C 
ATOM      8  O   UNL     1       8.523   1.790   5.407  1.00  0.00    -0.550 OA
ATOM      9  O   UNL     1       8.689   3.391   3.776  1.00  0.00    -0.550 OA
ENDBRANCH   6   7
ENDBRANCH   5   6
ENDBRANCH   4   5
ENDBRANCH   3   4
ENDBRANCH   2   3
ENDBRANCH   1   2
BRANCH   1  10
ATOM     10  C   UNL     1       4.735   7.695   9.199  1.00  0.00     0.027 C 
BRANCH  10  11
ATOM     11  C   UNL     1       3.916   8.962   9.180  1.00  0.00    -0.031 C 
ATOM     12  C   UNL     1       4.068   9.960   8.290  1.00  0.00    -0.031 C 
BRANCH  12  13
ATOM     13  C   UNL     1       5.146  10.013   7.235  1.00  0.00     0.027 C 
BRANCH  13  14
ATOM     14  C   UNL     1       4.904  11.143   6.223  1.00  0.00     0.004 C 
BRANCH  14  15
ATOM     15  C   UNL     1       4.081  12.293   6.827  1.00  0.00     0.000 C 
BRANCH  15  16
ATOM     16  C   UNL     1       4.668  13.675   6.500  1.00  0.00    -0.000 C 
BRANCH  16  17
ATOM     17  C   UNL     1       5.455  14.277   7.673  1.00  0.00    -0.003 C 
ATOM     18  C   UNL     1       6.803  13.582   7.844  1.00  0.00     0.004 C 
ENDBRANCH  16  17
ENDBRANCH  15  16
ENDBRANCH  14  15
ENDBRANCH  13  14
ENDBRANCH  12  13
ENDBRANCH  10  11
ENDBRANCH   1  10
TORSDOF 13
ENDMDL
MODEL 2
REMARK VINA RESULT:    -4.296     13.506     15.374
REMARK INTER + INTRA:          -8.244
REMARK INTER:                  -7.098
REMARK INTRA:                  -1.146
REMARK UNBOUND:                -0.683
REMARK SMILES CCCCCCC=CCCCCCCCC(=O)[O-]
REMARK SMILES IDX 10 1 11 2 12 3 13 4 14 5 15 6 16 7 17 8 18 9 9 10 8 11 7 12
REMARK SMILES IDX 6 13 5 14 4 15 3 16 2 17 1 18
REMARK H PARENT
REMARK Flexibility Score: inf
ROOT
ATOM      1  C   UNL     1       2.252   5.745  -9.365  1.00  0.00     0.004 C 
ENDROOT
BRANCH   1   2
ATOM      2  C   UNL     1       2.845   4.325  -9.353  1.00  0.00     0.000 C 
BRANCH   2   3
ATOM      3  C   UNL     1       4.284   4.283  -9.892  1.00  0.00     0.000 C 
BRANCH   3   4
ATOM      4  C   UNL     1       5.071   3.066  -9.381  1.00  0.00     0.000 C 
BRANCH   4   5
ATOM      5  C   UNL     1       4.371   2.429  -8.172  1.00  0.00     0.006 C 
BRANCH   5   6
ATOM      6  C   UNL     1       5.157   1.240  -7.605  1.00  0.00     0.053 C 
BRANCH   6   7
ATOM      7  C   UNL     1       4.730   0.906  -6.208  1.00  0.00     0.041 C 
ATOM      8  O   UNL     1       5.383   1.343  -5.224  1.00  0.00    -0.550 OA
ATOM      9  O   UNL     1       3.590   0.142  -5.992  1.00  0.00    -0.550 OA
ENDBRANCH   6   7
ENDBRANCH   5   6
ENDBRANCH   4   5
ENDBRANCH   3   4
ENDBRANCH   2   3
ENDBRANCH   1   2
BRANCH   1  10
ATOM     10  C   UNL     1       3.305   6.808  -9.711  1.00  0.00     0.027 C 
BRANCH  10  11
ATOM     11  C   UNL     1       3.429   7.849  -8.625  1.00  0.00    -0.031 C 
ATOM     12  C   UNL     1       4.492   7.986  -7.811  1.00  0.00    -0.031 C 
BRANCH  12  13
ATOM     13  C   UNL     1       5.682   7.057  -7.790  1.00  0.00     0.027 C 
BRANCH  13  14
ATOM     14  C   UNL     1       6.986   7.801  -7.465  1.00  0.00     0.004 C 
BRANCH  14  15
ATOM     15  C   UNL     1       6.724   9.149  -6.772  1.00  0.00     0.000 C 
BRANCH  15  16
ATOM     16  C   UNL     1       7.950   9.666  -6.002  1.00  0.00    -0.000 C 
BRANCH  16  17
ATOM     17  C   UNL     1       7.976   9.191  -4.542  1.00  0.00    -0.003 C 
ATOM     18  C   UNL     1       9.227   8.366  -4.255  1.00  0.00     0.004 C 
ENDBRANCH  16  17
ENDBRANCH  15  16
ENDBRANCH  14  15
ENDBRANCH  13  14
ENDBRANCH  12  13
ENDBRANCH  10  11
ENDBRANCH   1  10
TORSDOF 13
ENDMDL
MODEL 3
REMARK VINA RESULT:    -4.281      4.128      8.500
REMARK INTER + INTRA:          -8.218
REMARK INTER:                  -7.459
REMARK INTRA:                  -0.759
REMARK UNBOUND:                -0.683
REMARK SMILES CCCCCCC=CCCCCCCCC(=O)[O-]
REMARK SMILES IDX 10 1 11 2 12 3 13 4 14 5 15 6 16 7 17 8 18 9 9 10 8 11 7 12
REMARK SMILES IDX 6 13 5 14 4 15 3 16 2 17 1 18
REMARK H PARENT
REMARK Flexibility Score: inf
ROOT
ATOM      1  C   UNL     1       4.173   6.795   8.890  1.00  0.00     0.004 C 
ENDROOT
BRANCH   1   2
ATOM      2  C   UNL     1       4.118   7.849  10.010  1.00  0.00     0.000 C 
BRANCH   2   3
ATOM      3  C   UNL     1       4.614   9.229   9.547  1.00  0.00     0.000 C 
BRANCH   3   4
ATOM      4  C   UNL     1       3.783   9.796   8.386  1.00  0.00     0.000 C 
BRANCH   4   5
ATOM      5  C   UNL     1       4.643  10.693   7.484  1.00  0.00     0.006 C 
BRANCH   5   6
ATOM      6  C   UNL     1       3.878  11.929   6.993  1.00  0.00     0.053 C 
BRANCH   6   7
ATOM      7  C   UNL     1       4.696  13.178   7.125  1.00  0.00     0.041 C 
ATOM      8  O   UNL     1       5.262  13.452   8.215  1.00  0.00    -0.550 OA
ATOM      9  O   UNL     1       4.862  14.019   6.032  1.00  0.00    -0.550 OA
ENDBRANCH   6   7
ENDBRANCH   5   6
ENDBRANCH   4   5
ENDBRANCH   3   4
ENDBRANCH   2   3
ENDBRANCH   1   2
BRANCH   1  10
ATOM     10  C   UNL     1       3.337   5.551   9.227  1.00  0.00     0.027 C 
BRANCH  10  11
ATOM     11  C   UNL     1       2.942   4.787   7.987  1.00  0.00    -0.031 C 
ATOM     12  C   UNL     1       3.529   3.652   7.566  1.00  0.00    -0.031 C 
BRANCH  12  13
ATOM     13  C   UNL     1       4.739   3.021   8.211  1.00  0.00     0.027 C 
BRANCH  13  14
ATOM     14  C   UNL     1       6.043   3.427   7.506  1.00  0.00     0.004 C 
BRANCH  14  15
ATOM     15  C   UNL     1       7.091   2.301   7.538  1.00  0.00     0.000 C 
BRANCH  15  16
ATOM     16  C   UNL     1       7.942   2.250   6.259  1.00  0.00    -0.000 C 
BRANCH  16  17
ATOM     17  C   UNL     1       7.510   3.293   5.218  1.00  0.00    -0.003 C 
ATOM     18  C   UNL     1       8.696   3.748   4.373  1.00  0.00     0.004 C 
ENDBRANCH  16  17
ENDBRANCH  15  16
ENDBRANCH  14  15
ENDBRANCH  13  14
ENDBRANCH  12  13
ENDBRANCH  10  11
ENDBRANCH   1  10
TORSDOF 13
ENDMDL
MODEL 4
REMARK VINA RESULT:    -4.215      1.070      2.620
REMARK INTER + INTRA:          -8.101
REMARK INTER:                  -7.358
REMARK INTRA:                  -0.743
REMARK UNBOUND:                -0.683
REMARK SMILES CCCCCCC=CCCCCCCCC(=O)[O-]
REMARK SMILES IDX 10 1 11 2 12 3 13 4 14 5 15 6 16 7 17 8 18 9 9 10 8 11 7 12
REMARK SMILES IDX 6 13 5 14 4 15 3 16 2 17 1 18
REMARK H PARENT
REMARK Flexibility Score: inf
ROOT
ATOM      1  C   UNL     1       3.612   3.909   7.555  1.00  0.00     0.004 C 
ENDROOT
BRANCH   1   2
ATOM      2  C   UNL     1       4.746   3.403   8.464  1.00  0.00     0.000 C 
BRANCH   2   3
ATOM      3  C   UNL     1       6.122   3.464   7.780  1.00  0.00     0.000 C 
BRANCH   3   4
ATOM      4  C   UNL     1       6.787   2.084   7.666  1.00  0.00     0.000 C 
BRANCH   4   5
ATOM      5  C   UNL     1       7.800   2.057   6.512  1.00  0.00     0.006 C 
BRANCH   5   6
ATOM      6  C   UNL     1       7.646   3.264   5.576  1.00  0.00     0.053 C 
BRANCH   6   7
ATOM      7  C   UNL     1       8.549   3.162   4.384  1.00  0.00     0.041 C 
ATOM      8  O   UNL     1       8.955   4.204   3.806  1.00  0.00    -0.550 OA
ATOM      9  O   UNL     1       8.971   1.917   3.934  1.00  0.00    -0.550 OA
ENDBRANCH   6   7
ENDBRANCH   5   6
ENDBRANCH   4   5
ENDBRANCH   3   4
ENDBRANCH   2   3
ENDBRANCH   1   2
BRANCH   1  10
ATOM     10  C   UNL     1       2.820   5.054   8.204  1.00  0.00     0.027 C 
BRANCH  10  11
ATOM     11  C   UNL     1       3.415   5.468   9.528  1.00  0.00    -0.031 C 
ATOM     12  C   UNL     1       4.129   6.592   9.730  1.00  0.00    -0.031 C 
BRANCH  12  13
ATOM     13  C   UNL     1       4.531   7.559   8.643  1.00  0.00     0.027 C 
BRANCH  13  14
ATOM     14  C   UNL     1       3.967   8.967   8.891  1.00  0.00     0.004 C 
BRANCH  14  15
ATOM     15  C   UNL     1       4.792  10.053   8.180  1.00  0.00     0.000 C 
BRANCH  15  16
ATOM     16  C   UNL     1       3.911  11.098   7.477  1.00  0.00    -0.000 C 
BRANCH  16  17
ATOM     17  C   UNL     1       4.681  11.910   6.425  1.00  0.00    -0.003 C 
ATOM     18  C   UNL     1       4.674  13.397   6.767  1.00  0.00     0.004 C 
ENDBRANCH  16  17
ENDBRANCH  15  16
ENDBRANCH  14  15
ENDBRANCH  13  14
ENDBRANCH  12  13
ENDBRANCH  10  11
ENDBRANCH   1  10
TORSDOF 13
ENDMDL
MODEL 5
REMARK VINA RESULT:    -4.183     18.359     19.841
REMARK INTER + INTRA:          -8.045
REMARK INTER:                  -5.913
REMARK INTRA:                  -2.132
REMARK UNBOUND:                -0.683
REMARK SMILES CCCCCCC=CCCCCCCCC(=O)[O-]
REMARK SMILES IDX 10 1 11 2 12 3 13 4 14 5 15 6 16 7 17 8 18 9 9 10 8 11 7 12
REMARK SMILES IDX 6 13 5 14 4 15 3 16 2 17 1 18
REMARK H PARENT
REMARK Flexibility Score: inf
ROOT
ATOM      1  C   UNL     1      -6.682   1.233  -4.703  1.00  0.00     0.004 C 
ENDROOT
BRANCH   1   2
ATOM      2  C   UNL     1      -6.812   0.826  -6.182  1.00  0.00     0.000 C 
BRANCH   2   3
ATOM      3  C   UNL     1      -7.899  -0.237  -6.408  1.00  0.00     0.000 C 
BRANCH   3   4
ATOM      4  C   UNL     1      -8.787  -0.446  -5.172  1.00  0.00     0.000 C 
BRANCH   4   5
ATOM      5  C   UNL     1      -9.207  -1.917  -5.042  1.00  0.00     0.006 C 
BRANCH   5   6
ATOM      6  C   UNL     1      -8.920  -2.482  -3.644  1.00  0.00     0.053 C 
BRANCH   6   7
ATOM      7  C   UNL     1      -8.758  -3.971  -3.668  1.00  0.00     0.041 C 
ATOM      8  O   UNL     1      -9.764  -4.719  -3.549  1.00  0.00    -0.550 OA
ATOM      9  O   UNL     1      -7.502  -4.533  -3.859  1.00  0.00    -0.550 OA
ENDBRANCH   6   7
ENDBRANCH   5   6
ENDBRANCH   4   5
ENDBRANCH   3   4
ENDBRANCH   2   3
ENDBRANCH   1   2
BRANCH   1  10
ATOM     10  C   UNL     1      -6.782   2.755  -4.513  1.00  0.00     0.027 C 
BRANCH  10  11
ATOM     11  C   UNL     1      -8.031   3.318  -5.144  1.00  0.00    -0.031 C 
ATOM     12  C   UNL     1      -9.172   3.587  -4.481  1.00  0.00    -0.031 C 
BRANCH  12  13
ATOM     13  C   UNL     1      -9.412   3.270  -3.025  1.00  0.00     0.027 C 
BRANCH  13  14
ATOM     14  C   UNL     1     -10.103   1.911  -2.839  1.00  0.00     0.004 C 
BRANCH  14  15
ATOM     15  C   UNL     1      -9.652   1.205  -1.549  1.00  0.00     0.000 C 
BRANCH  15  16
ATOM     16  C   UNL     1      -8.131   1.270  -1.340  1.00  0.00    -0.000 C 
BRANCH  16  17
ATOM     17  C   UNL     1      -7.587   0.062  -0.565  1.00  0.00    -0.003 C 
ATOM     18  C   UNL     1      -6.732  -0.827  -1.464  1.00  0.00     0.004 C 
ENDBRANCH  16  17
ENDBRANCH  15  16
ENDBRANCH  14  15
ENDBRANCH  13  14
ENDBRANCH  12  13
ENDBRANCH  10  11
ENDBRANCH   1  10
TORSDOF 13
ENDMDL
MODEL 6
REMARK VINA RESULT:    -4.174     19.101     21.148
REMARK INTER + INTRA:          -8.029
REMARK INTER:                  -5.941
REMARK INTRA:                  -2.088
REMARK UNBOUND:                -0.683
REMARK SMILES CCCCCCC=CCCCCCCCC(=O)[O-]
REMARK SMILES IDX 10 1 11 2 12 3 13 4 14 5 15 6 16 7 17 8 18 9 9 10 8 11 7 12
REMARK SMILES IDX 6 13 5 14 4 15 3 16 2 17 1 18
REMARK H PARENT
REMARK Flexibility Score: inf
ROOT
ATOM      1  C   UNL     1      -6.742  -4.751  -6.520  1.00  0.00     0.004 C 
ENDROOT
BRANCH   1   2
ATOM      2  C   UNL     1      -7.045  -3.553  -7.438  1.00  0.00     0.000 C 
BRANCH   2   3
ATOM      3  C   UNL     1      -8.528  -3.148  -7.409  1.00  0.00     0.000 C 
BRANCH   3   4
ATOM      4  C   UNL     1      -8.737  -1.650  -7.677  1.00  0.00     0.000 C 
BRANCH   4   5
ATOM      5  C   UNL     1      -7.597  -0.821  -7.067  1.00  0.00     0.006 C 
BRANCH   5   6
ATOM      6  C   UNL     1      -7.971   0.659  -6.915  1.00  0.00     0.053 C 
BRANCH   6   7
ATOM      7  C   UNL     1      -6.889   1.440  -6.234  1.00  0.00     0.041 C 
ATOM      8  O   UNL     1      -7.144   2.563  -5.725  1.00  0.00    -0.550 OA
ATOM      9  O   UNL     1      -5.609   0.911  -6.129  1.00  0.00    -0.550 OA
ENDBRANCH   6   7
ENDBRANCH   5   6
ENDBRANCH   4   5
ENDBRANCH   3   4
ENDBRANCH   2   3
ENDBRANCH   1   2
BRANCH   1  10
ATOM     10  C   UNL     1      -7.866  -4.997  -5.502  1.00  0.00     0.027 C 
BRANCH  10  11
ATOM     11  C   UNL     1      -7.514  -4.461  -4.136  1.00  0.00    -0.031 C 
ATOM     12  C   UNL     1      -8.308  -3.664  -3.397  1.00  0.00    -0.031 C 
BRANCH  12  13
ATOM     13  C   UNL     1      -9.629  -3.100  -3.862  1.00  0.00     0.027 C 
BRANCH  13  14
ATOM     14  C   UNL     1      -9.564  -1.577  -4.061  1.00  0.00     0.004 C 
BRANCH  14  15
ATOM     15  C   UNL     1      -9.082  -0.849  -2.794  1.00  0.00     0.000 C 
BRANCH  15  16
ATOM     16  C   UNL     1      -8.135   0.320  -3.109  1.00  0.00    -0.000 C 
BRANCH  16  17
ATOM     17  C   UNL     1      -6.879   0.320  -2.226  1.00  0.00    -0.003 C 
ATOM     18  C   UNL     1      -6.846  -0.908  -1.320  1.00  0.00     0.004 C 
ENDBRANCH  16  17
ENDBRANCH  15  16
ENDBRANCH  14  15
ENDBRANCH  13  14
ENDBRANCH  12  13
ENDBRANCH  10  11
ENDBRANCH   1  10
TORSDOF 13
ENDMDL
MODEL 7
REMARK VINA RESULT:    -4.169     13.579     16.763
REMARK INTER + INTRA:          -8.021
REMARK INTER:                  -6.961
REMARK INTRA:                  -1.060
REMARK UNBOUND:                -0.683
REMARK SMILES CCCCCCC=CCCCCCCCC(=O)[O-]
REMARK SMILES IDX 10 1 11 2 12 3 13 4 14 5 15 6 16 7 17 8 18 9 9 10 8 11 7 12
REMARK SMILES IDX 6 13 5 14 4 15 3 16 2 17 1 18
REMARK H PARENT
REMARK Flexibility Score: inf
ROOT
ATOM      1  C   UNL     1       2.919   7.920  -8.737  1.00  0.00     0.004 C 
ENDROOT
BRANCH   1   2
ATOM      2  C   UNL     1       4.079   8.428  -7.864  1.00  0.00     0.000 C 
BRANCH   2   3
ATOM      3  C   UNL     1       5.234   7.417  -7.771  1.00  0.00     0.000 C 
BRANCH   3   4
ATOM      4  C   UNL     1       6.600   8.052  -8.072  1.00  0.00     0.000 C 
BRANCH   4   5
ATOM      5  C   UNL     1       7.434   8.191  -6.790  1.00  0.00     0.006 C 
BRANCH   5   6
ATOM      6  C   UNL     1       7.482   9.639  -6.283  1.00  0.00     0.053 C 
BRANCH   6   7
ATOM      7  C   UNL     1       7.968   9.716  -4.867  1.00  0.00     0.041 C 
ATOM      8  O   UNL     1       7.840   8.727  -4.099  1.00  0.00    -0.550 OA
ATOM      9  O   UNL     1       8.595  10.868  -4.408  1.00  0.00    -0.550 OA
ENDBRANCH   6   7
ENDBRANCH   5   6
ENDBRANCH   4   5
ENDBRANCH   3   4
ENDBRANCH   2   3
ENDBRANCH   1   2
BRANCH   1  10
ATOM     10  C   UNL     1       3.362   6.804  -9.694  1.00  0.00     0.027 C 
BRANCH  10  11
ATOM     11  C   UNL     1       2.379   5.659  -9.715  1.00  0.00    -0.031 C 
ATOM     12  C   UNL     1       2.659   4.400  -9.326  1.00  0.00    -0.031 C 
BRANCH  12  13
ATOM     13  C   UNL     1       4.026   3.916  -8.906  1.00  0.00     0.027 C 
BRANCH  13  14
ATOM     14  C   UNL     1       4.369   2.555  -9.530  1.00  0.00     0.004 C 
BRANCH  14  15
ATOM     15  C   UNL     1       5.042   1.609  -8.520  1.00  0.00     0.000 C 
BRANCH  15  16
ATOM     16  C   UNL     1       5.286   2.277  -7.158  1.00  0.00    -0.000 C 
BRANCH  16  17
ATOM     17  C   UNL     1       4.529   1.585  -6.015  1.00  0.00    -0.003 C 
ATOM     18  C   UNL     1       4.126   0.166  -6.404  1.00  0.00     0.004 C 
ENDBRANCH  16  17
ENDBRANCH  15  16
ENDBRANCH  14  15
ENDBRANCH  13  14
ENDBRANCH  12  13
ENDBRANCH  10  11
ENDBRANCH   1  10
TORSDOF 13
ENDMDL
MODEL 8
REMARK VINA RESULT:    -4.089     18.704     20.246
REMARK INTER + INTRA:          -7.879
REMARK INTER:                  -5.604
REMARK INTRA:                  -2.274
REMARK UNBOUND:                -0.683
REMARK SMILES CCCCCCC=CCCCCCCCC(=O)[O-]
REMARK SMILES IDX 10 1 11 2 12 3 13 4 14 5 15 6 16 7 17 8 18 9 9 10 8 11 7 12
REMARK SMILES IDX 6 13 5 14 4 15 3 16 2 17 1 18
REMARK H PARENT
REMARK Flexibility Score: inf
ROOT
ATOM      1  C   UNL     1      -7.893  -0.593  -6.389  1.00  0.00     0.004 C 
ENDROOT
BRANCH   1   2
ATOM      2  C   UNL     1      -9.428  -0.567  -6.275  1.00  0.00     0.000 C 
BRANCH   2   3
ATOM      3  C   UNL     1      -9.949  -1.432  -5.116  1.00  0.00     0.000 C 
BRANCH   3   4
ATOM      4  C   UNL     1      -8.833  -1.859  -4.150  1.00  0.00     0.000 C 
BRANCH   4   5
ATOM      5  C   UNL     1      -9.084  -3.276  -3.615  1.00  0.00     0.006 C 
BRANCH   5   6
ATOM      6  C   UNL     1      -7.974  -4.255  -4.020  1.00  0.00     0.053 C 
BRANCH   6   7
ATOM      7  C   UNL     1      -8.015  -4.569  -5.484  1.00  0.00     0.041 C 
ATOM      8  O   UNL     1      -9.102  -4.892  -6.032  1.00  0.00    -0.550 OA
ATOM      9  O   UNL     1      -6.861  -4.469  -6.251  1.00  0.00    -0.550 OA
ENDBRANCH   6   7
ENDBRANCH   5   6
ENDBRANCH   4   5
ENDBRANCH   3   4
ENDBRANCH   2   3
ENDBRANCH   1   2
BRANCH   1  10
ATOM     10  C   UNL     1      -7.297   0.820  -6.482  1.00  0.00     0.027 C 
BRANCH  10  11
ATOM     11  C   UNL     1      -6.419   1.138  -5.297  1.00  0.00    -0.031 C 
ATOM     12  C   UNL     1      -6.803   1.864  -4.231  1.00  0.00    -0.031 C 
BRANCH  12  13
ATOM     13  C   UNL     1      -8.137   2.557  -4.101  1.00  0.00     0.027 C 
BRANCH  13  14
ATOM     14  C   UNL     1      -9.163   1.692  -3.353  1.00  0.00     0.004 C 
BRANCH  14  15
ATOM     15  C   UNL     1      -9.066   1.868  -1.828  1.00  0.00     0.000 C 
BRANCH  15  16
ATOM     16  C   UNL     1      -8.833   0.538  -1.093  1.00  0.00    -0.000 C 
BRANCH  16  17
ATOM     17  C   UNL     1      -7.361   0.320  -0.715  1.00  0.00    -0.003 C 
ATOM     18  C   UNL     1      -6.794  -0.918  -1.405  1.00  0.00     0.004 C 
ENDBRANCH  16  17
ENDBRANCH  15  16
ENDBRANCH  14  15
ENDBRANCH  13  14
ENDBRANCH  12  13
ENDBRANCH  10  11
ENDBRANCH   1  10
TORSDOF 13
ENDMDL
MODEL 9
REMARK VINA RESULT:    -4.011     18.895     21.171
REMARK INTER + INTRA:          -7.742
REMARK INTER:                  -5.389
REMARK INTRA:                  -2.354
REMARK UNBOUND:                -0.683
REMARK SMILES CCCCCCC=CCCCCCCCC(=O)[O-]
REMARK SMILES IDX 10 1 11 2 12 3 13 4 14 5 15 6 16 7 17 8 18 9 9 10 8 11 7 12
REMARK SMILES IDX 6 13 5 14 4 15 3 16 2 17 1 18
REMARK H PARENT
REMARK Flexibility Score: inf
ROOT
ATOM      1  C   UNL     1      -7.515  -0.492  -6.714  1.00  0.00     0.004 C 
ENDROOT
BRANCH   1   2
ATOM      2  C   UNL     1      -7.049   0.974  -6.686  1.00  0.00     0.000 C 
BRANCH   2   3
ATOM      3  C   UNL     1      -6.365   1.351  -5.362  1.00  0.00     0.000 C 
BRANCH   3   4
ATOM      4  C   UNL     1      -7.032   2.551  -4.673  1.00  0.00     0.000 C 
BRANCH   4   5
ATOM      5  C   UNL     1      -7.791   2.107  -3.414  1.00  0.00     0.006 C 
BRANCH   5   6
ATOM      6  C   UNL     1      -7.153   0.876  -2.755  1.00  0.00     0.053 C 
BRANCH   6   7
ATOM      7  C   UNL     1      -7.709   0.627  -1.386  1.00  0.00     0.041 C 
ATOM      8  O   UNL     1      -7.021   0.890  -0.365  1.00  0.00    -0.550 OA
ATOM      9  O   UNL     1      -9.002   0.139  -1.237  1.00  0.00    -0.550 OA
ENDBRANCH   6   7
ENDBRANCH   5   6
ENDBRANCH   4   5
ENDBRANCH   3   4
ENDBRANCH   2   3
ENDBRANCH   1   2
BRANCH   1  10
ATOM     10  C   UNL     1      -9.043  -0.611  -6.818  1.00  0.00     0.027 C 
BRANCH  10  11
ATOM     11  C   UNL     1      -9.734  -0.035  -5.606  1.00  0.00    -0.031 C 
ATOM     12  C   UNL     1     -10.052  -0.732  -4.500  1.00  0.00    -0.031 C 
BRANCH  12  13
ATOM     13  C   UNL     1      -9.859  -2.221  -4.339  1.00  0.00     0.027 C 
BRANCH  13  14
ATOM     14  C   UNL     1      -8.600  -2.551  -3.523  1.00  0.00     0.004 C 
BRANCH  14  15
ATOM     15  C   UNL     1      -8.114  -3.990  -3.767  1.00  0.00     0.000 C 
BRANCH  15  16
ATOM     16  C   UNL     1      -8.452  -4.497  -5.178  1.00  0.00    -0.000 C 
BRANCH  16  17
ATOM     17  C   UNL     1      -7.333  -4.218  -6.192  1.00  0.00    -0.003 C 
ATOM     18  C   UNL     1      -7.883  -4.159  -7.614  1.00  0.00     0.004 C 
ENDBRANCH  16  17
ENDBRANCH  15  16
ENDBRANCH  14  15
ENDBRANCH  13  14
ENDBRANCH  12  13
ENDBRANCH  10  11
ENDBRANCH   1  10
TORSDOF 13
ENDMDL
