MODEL 1
REMARK VINA RESULT:    -3.112      0.000      0.000
REMARK INTER + INTRA:          -3.385
REMARK INTER:                  -3.385
REMARK INTRA:                   0.000
REMARK UNBOUND:                 0.000
REMARK SMILES [NH3+]CC(=O)[O-]
REMARK SMILES IDX 2 1 1 2 3 6 4 7 5 8
REMARK H PARENT 1 3 1 4 1 5
REMARK Flexibility Score: inf
ROOT
ATOM      1  C   UNL     1      25.275  -0.839 -47.826  1.00  0.00     0.312 C 
ENDROOT
BRANCH   1   2
ATOM      2  N   UNL     1      24.016  -0.151 -47.544  1.00  0.00    -0.353 N 
ATOM      3  H   UNL     1      23.297  -0.838 -47.220  1.00  0.00     0.344 HD
ATOM      4  H   UNL     1      23.675   0.340 -48.404  1.00  0.00     0.344 HD
ATOM      5  H   UNL     1      24.175   0.555 -46.790  1.00  0.00     0.344 HD
ENDBRANCH   1   2
BRANCH   1   6
ATOM      6  C   UNL     1      25.074  -1.903 -48.861  1.00  0.00     0.096 C 
ATOM      7  O   UNL     1      25.542  -3.058 -48.681  1.00  0.00    -0.544 OA
ATOM      8  O   UNL     1      24.414  -1.605 -50.046  1.00  0.00    -0.544 OA
ENDBRANCH   1   6
TORSDOF 2
ENDMDL
MODEL 2
REMARK VINA RESULT:    -2.851      8.472      8.476
REMARK INTER + INTRA:          -3.101
REMARK INTER:                  -3.101
REMARK INTRA:                   0.000
REMARK UNBOUND:                 0.000
REMARK SMILES [NH3+]CC(=O)[O-]
REMARK SMILES IDX 2 1 1 2 3 6 4 7 5 8
REMARK H PARENT 1 3 1 4 1 5
REMARK Flexibility Score: inf
ROOT
ATOM      1  C   UNL     1      17.244   1.793 -45.872  1.00  0.00     0.312 C 
ENDROOT
BRANCH   1   2
ATOM      2  N   UNL     1      18.649   1.529 -45.565  1.00  0.00    -0.353 N 
ATOM      3  H   UNL     1      19.205   1.477 -46.450  1.00  0.00     0.344 HD
ATOM      4  H   UNL     1      18.737   0.630 -45.037  1.00  0.00     0.344 HD
ATOM      5  H   UNL     1      19.021   2.308 -44.976  1.00  0.00     0.344 HD
ENDBRANCH   1   2
BRANCH   1   6
ATOM      6  C   UNL     1      16.995   1.681 -47.344  1.00  0.00     0.096 C 
ATOM      7  O   UNL     1      16.522   0.618 -47.827  1.00  0.00    -0.544 OA
ATOM      8  O   UNL     1      17.330   2.730 -48.189  1.00  0.00    -0.544 OA
ENDBRANCH   1   6
TORSDOF 2
ENDMDL
MODEL 3
REMARK VINA RESULT:    -2.849      8.458      8.533
REMARK INTER + INTRA:          -3.099
REMARK INTER:                  -3.099
REMARK INTRA:                   0.000
REMARK UNBOUND:                 0.000
REMARK SMILES [NH3+]CC(=O)[O-]
REMARK SMILES IDX 2 1 1 2 3 6 4 7 5 8
REMARK H PARENT 1 3 1 4 1 5
REMARK Flexibility Score: inf
ROOT
ATOM      1  C   UNL     1      17.250   1.822 -45.904  1.00  0.00     0.312 C 
ENDROOT
BRANCH   1   2
ATOM      2  N   UNL     1      18.640   1.521 -45.566  1.00  0.00    -0.353 N 
ATOM      3  H   UNL     1      18.997   0.747 -46.172  1.00  0.00     0.344 HD
ATOM      4  H   UNL     1      18.713   1.246 -44.559  1.00  0.00     0.344 HD
ATOM      5  H   UNL     1      19.222   2.375 -45.728  1.00  0.00     0.344 HD
ENDBRANCH   1   2
BRANCH   1   6
ATOM      6  C   UNL     1      17.030   1.711 -47.381  1.00  0.00     0.096 C 
ATOM      7  O   UNL     1      17.290   2.685 -48.136  1.00  0.00    -0.544 OA
ATOM      8  O   UNL     1      16.492   0.549 -47.919  1.00  0.00    -0.544 OA
ENDBRANCH   1   6
TORSDOF 2
ENDMDL
MODEL 4
REMARK VINA RESULT:    -2.793     18.456     18.814
REMARK INTER + INTRA:          -3.037
REMARK INTER:                  -3.037
REMARK INTRA:                   0.000
REMARK UNBOUND:                 0.000
REMARK SMILES [NH3+]CC(=O)[O-]
REMARK SMILES IDX 2 1 1 2 3 6 4 7 5 8
REMARK H PARENT 1 3 1 4 1 5
REMARK Flexibility Score: inf
ROOT
ATOM      1  C   UNL     1      19.022  -3.128 -29.996  1.00  0.00     0.312 C 
ENDROOT
BRANCH   1   2
ATOM      2  N   UNL     1      20.024  -2.173 -30.466  1.00  0.00    -0.353 N 
ATOM      3  H   UNL     1      20.387  -1.609 -29.663  1.00  0.00     0.344 HD
ATOM      4  H   UNL     1      19.606  -1.538 -31.184  1.00  0.00     0.344 HD
ATOM      5  H   UNL     1      20.819  -2.698 -30.898  1.00  0.00     0.344 HD
ENDBRANCH   1   2
BRANCH   1   6
ATOM      6  C   UNL     1      18.540  -3.985 -31.125  1.00  0.00     0.096 C 
ATOM      7  O   UNL     1      19.221  -4.085 -32.180  1.00  0.00    -0.544 OA
ATOM      8  O   UNL     1      17.315  -4.633 -31.033  1.00  0.00    -0.544 OA
ENDBRANCH   1   6
TORSDOF 2
ENDMDL
MODEL 5
REMARK VINA RESULT:    -2.785     17.847     18.145
REMARK INTER + INTRA:          -3.029
REMARK INTER:                  -3.029
REMARK INTRA:                   0.000
REMARK UNBOUND:                 0.000
REMARK SMILES [NH3+]CC(=O)[O-]
REMARK SMILES IDX 2 1 1 2 3 6 4 7 5 8
REMARK H PARENT 1 3 1 4 1 5
REMARK Flexibility Score: inf
ROOT
ATOM      1  C   UNL     1      15.201  -6.736 -34.298  1.00  0.00     0.312 C 
ENDROOT
BRANCH   1   2
ATOM      2  N   UNL     1      16.230  -7.515 -34.984  1.00  0.00    -0.353 N 
ATOM      3  H   UNL     1      17.178  -7.246 -34.632  1.00  0.00     0.344 HD
ATOM      4  H   UNL     1      16.176  -7.350 -36.016  1.00  0.00     0.344 HD
ATOM      5  H   UNL     1      16.073  -8.531 -34.794  1.00  0.00     0.344 HD
ENDBRANCH   1   2
BRANCH   1   6
ATOM      6  C   UNL     1      15.824  -5.674 -33.446  1.00  0.00     0.096 C 
ATOM      7  O   UNL     1      16.579  -4.808 -33.964  1.00  0.00    -0.544 OA
ATOM      8  O   UNL     1      15.611  -5.668 -32.074  1.00  0.00    -0.544 OA
ENDBRANCH   1   6
TORSDOF 2
ENDMDL
MODEL 6
REMARK VINA RESULT:    -2.756     18.378     18.593
REMARK INTER + INTRA:          -2.997
REMARK INTER:                  -2.997
REMARK INTRA:                   0.000
REMARK UNBOUND:                 0.000
REMARK SMILES [NH3+]CC(=O)[O-]
REMARK SMILES IDX 2 1 1 2 3 6 4 7 5 8
REMARK H PARENT 1 3 1 4 1 5
REMARK Flexibility Score: inf
ROOT
ATOM      1  C   UNL     1      15.728  -6.293 -34.322  1.00  0.00     0.312 C 
ENDROOT
BRANCH   1   2
ATOM      2  N   UNL     1      16.201  -7.507 -34.983  1.00  0.00    -0.353 N 
ATOM      3  H   UNL     1      16.350  -7.326 -36.002  1.00  0.00     0.344 HD
ATOM      4  H   UNL     1      15.505  -8.278 -34.858  1.00  0.00     0.344 HD
ATOM      5  H   UNL     1      17.110  -7.797 -34.554  1.00  0.00     0.344 HD
ENDBRANCH   1   2
BRANCH   1   6
ATOM      6  C   UNL     1      14.353  -6.496 -33.765  1.00  0.00     0.096 C 
ATOM      7  O   UNL     1      14.194  -7.112 -32.678  1.00  0.00    -0.544 OA
ATOM      8  O   UNL     1      13.243  -6.050 -34.471  1.00  0.00    -0.544 OA
ENDBRANCH   1   6
TORSDOF 2
ENDMDL
MODEL 7
REMARK VINA RESULT:    -2.725      8.806      9.100
REMARK INTER + INTRA:          -2.964
REMARK INTER:                  -2.964
REMARK INTRA:                   0.000
REMARK UNBOUND:                 0.000
REMARK SMILES [NH3+]CC(=O)[O-]
REMARK SMILES IDX 2 1 1 2 3 6 4 7 5 8
REMARK H PARENT 1 3 1 4 1 5
REMARK Flexibility Score: inf
ROOT
ATOM      1  C   UNL     1      16.434   1.148 -48.059  1.00  0.00     0.312 C 
ENDROOT
BRANCH   1   2
ATOM      2  N   UNL     1      16.508  -0.312 -48.070  1.00  0.00    -0.353 N 
ATOM      3  H   UNL     1      17.199  -0.631 -48.787  1.00  0.00     0.344 HD
ATOM      4  H   UNL     1      15.567  -0.718 -48.280  1.00  0.00     0.344 HD
ATOM      5  H   UNL     1      16.819  -0.645 -47.128  1.00  0.00     0.344 HD
ENDBRANCH   1   2
BRANCH   1   6
ATOM      6  C   UNL     1      16.827   1.686 -46.718  1.00  0.00     0.096 C 
ATOM      7  O   UNL     1      18.042   1.859 -46.436  1.00  0.00    -0.544 OA
ATOM      8  O   UNL     1      15.854   1.950 -45.762  1.00  0.00    -0.544 OA
ENDBRANCH   1   6
TORSDOF 2
ENDMDL
MODEL 8
REMARK VINA RESULT:    -2.659      2.062      2.216
REMARK INTER + INTRA:          -2.893
REMARK INTER:                  -2.893
REMARK INTRA:                   0.000
REMARK UNBOUND:                 0.000
REMARK SMILES [NH3+]CC(=O)[O-]
REMARK SMILES IDX 2 1 1 2 3 6 4 7 5 8
REMARK H PARENT 1 3 1 4 1 5
REMARK Flexibility Score: inf
ROOT
ATOM      1  C   UNL     1      24.770  -1.861 -49.136  1.00  0.00     0.312 C 
ENDROOT
BRANCH   1   2
ATOM      2  N   UNL     1      23.998  -1.111 -50.125  1.00  0.00    -0.353 N 
ATOM      3  H   UNL     1      23.442  -0.361 -49.652  1.00  0.00     0.344 HD
ATOM      4  H   UNL     1      23.356  -1.755 -50.642  1.00  0.00     0.344 HD
ATOM      5  H   UNL     1      24.655  -0.667 -50.806  1.00  0.00     0.344 HD
ENDBRANCH   1   2
BRANCH   1   6
ATOM      6  C   UNL     1      26.232  -1.807 -49.457  1.00  0.00     0.096 C 
ATOM      7  O   UNL     1      26.770  -2.735 -50.116  1.00  0.00    -0.544 OA
ATOM      8  O   UNL     1      27.009  -0.758 -48.985  1.00  0.00    -0.544 OA
ENDBRANCH   1   6
TORSDOF 2
ENDMDL
