MODEL 1
REMARK VINA RESULT:    -3.593      0.000      0.000
REMARK INTER + INTRA:          -6.534
REMARK INTER:                  -5.693
REMARK INTRA:                  -0.840
REMARK UNBOUND:                -0.840
REMARK SMILES CCCCCCCCCCCC(=O)[O-]
REMARK SMILES IDX 7 1 8 2 9 3 10 4 11 5 12 6 13 7 14 8 6 9 5 10 4 11 3 12 2 13
REMARK SMILES IDX 1 14
REMARK H PARENT
REMARK Flexibility Score: inf
ROOT
ATOM      1  C   UNL     1      59.717  28.306  49.240  1.00  0.00     0.000 C 
ENDROOT
BRANCH   1   2
ATOM      2  C   UNL     1      58.501  29.145  49.657  1.00  0.00     0.000 C 
BRANCH   2   3
ATOM      3  C   UNL     1      57.721  28.519  50.824  1.00  0.00     0.000 C 
BRANCH   3   4
ATOM      4  C   UNL     1      56.243  28.266  50.481  1.00  0.00     0.006 C 
BRANCH   4   5
ATOM      5  C   UNL     1      55.970  26.792  50.152  1.00  0.00     0.053 C 
BRANCH   5   6
ATOM      6  C   UNL     1      54.590  26.588  49.605  1.00  0.00     0.041 C 
ATOM      7  O   UNL     1      54.228  25.448  49.211  1.00  0.00    -0.550 OA
ATOM      8  O   UNL     1      53.695  27.649  49.560  1.00  0.00    -0.550 OA
ENDBRANCH   5   6
ENDBRANCH   4   5
ENDBRANCH   3   4
ENDBRANCH   2   3
ENDBRANCH   1   2
BRANCH   1   9
ATOM      9  C   UNL     1      60.056  27.262  50.311  1.00  0.00     0.000 C 
BRANCH   9  10
ATOM     10  C   UNL     1      59.898  25.838  49.763  1.00  0.00    -0.000 C 
BRANCH  10  11
ATOM     11  C   UNL     1      59.239  24.919  50.803  1.00  0.00    -0.000 C 
BRANCH  11  12
ATOM     12  C   UNL     1      59.956  23.566  50.936  1.00  0.00    -0.000 C 
BRANCH  12  13
ATOM     13  C   UNL     1      60.920  23.290  49.773  1.00  0.00    -0.003 C 
ATOM     14  C   UNL     1      60.813  21.842  49.304  1.00  0.00     0.004 C 
ENDBRANCH  12  13
ENDBRANCH  11  12
ENDBRANCH  10  11
ENDBRANCH   9  10
ENDBRANCH   1   9
TORSDOF 10
ENDMDL
MODEL 2
REMARK VINA RESULT:    -3.584     12.662     14.460
REMARK INTER + INTRA:          -6.519
REMARK INTER:                  -5.632
REMARK INTRA:                  -0.887
REMARK UNBOUND:                -0.840
REMARK SMILES CCCCCCCCCCCC(=O)[O-]
REMARK SMILES IDX 7 1 8 2 9 3 10 4 11 5 12 6 13 7 14 8 6 9 5 10 4 11 3 12 2 13
REMARK SMILES IDX 1 14
REMARK H PARENT
REMARK Flexibility Score: inf
ROOT
ATOM      1  C   UNL     1      60.804  31.606  59.641  1.00  0.00     0.000 C 
ENDROOT
BRANCH   1   2
ATOM      2  C   UNL     1      60.857  31.425  61.166  1.00  0.00     0.000 C 
BRANCH   2   3
ATOM      3  C   UNL     1      61.434  30.062  61.582  1.00  0.00     0.000 C 
BRANCH   3   4
ATOM      4  C   UNL     1      62.545  29.575  60.636  1.00  0.00     0.006 C 
BRANCH   4   5
ATOM      5  C   UNL     1      63.944  29.937  61.153  1.00  0.00     0.053 C 
BRANCH   5   6
ATOM      6  C   UNL     1      64.627  30.933  60.266  1.00  0.00     0.041 C 
ATOM      7  O   UNL     1      64.479  32.167  60.469  1.00  0.00    -0.550 OA
ATOM      8  O   UNL     1      65.451  30.499  59.236  1.00  0.00    -0.550 OA
ENDBRANCH   5   6
ENDBRANCH   4   5
ENDBRANCH   3   4
ENDBRANCH   2   3
ENDBRANCH   1   2
BRANCH   1   9
ATOM      9  C   UNL     1      61.166  33.043  59.247  1.00  0.00     0.000 C 
BRANCH   9  10
ATOM     10  C   UNL     1      61.524  33.881  60.480  1.00  0.00    -0.000 C 
BRANCH  10  11
ATOM     11  C   UNL     1      61.482  35.382  60.157  1.00  0.00    -0.000 C 
BRANCH  11  12
ATOM     12  C   UNL     1      62.455  36.201  61.020  1.00  0.00    -0.000 C 
BRANCH  12  13
ATOM     13  C   UNL     1      63.830  35.532  61.159  1.00  0.00    -0.003 C 
ATOM     14  C   UNL     1      64.761  36.368  62.032  1.00  0.00     0.004 C 
ENDBRANCH  12  13
ENDBRANCH  11  12
ENDBRANCH  10  11
ENDBRANCH   9  10
ENDBRANCH   1   9
TORSDOF 10
ENDMDL
MODEL 3
REMARK VINA RESULT:    -3.568     12.499     14.141
REMARK INTER + INTRA:          -6.494
REMARK INTER:                  -5.219
REMARK INTRA:                  -1.275
REMARK UNBOUND:                -0.840
REMARK SMILES CCCCCCCCCCCC(=O)[O-]
REMARK SMILES IDX 7 1 8 2 9 3 10 4 11 5 12 6 13 7 14 8 6 9 5 10 4 11 3 12 2 13
REMARK SMILES IDX 1 14
REMARK H PARENT
REMARK Flexibility Score: inf
ROOT
ATOM      1  C   UNL     1      63.394  32.737  58.602  1.00  0.00     0.000 C 
ENDROOT
BRANCH   1   2
ATOM      2  C   UNL     1      64.230  32.347  59.830  1.00  0.00     0.000 C 
BRANCH   2   3
ATOM      3  C   UNL     1      64.212  30.835  60.104  1.00  0.00     0.000 C 
BRANCH   3   4
ATOM      4  C   UNL     1      63.530  30.482  61.437  1.00  0.00     0.006 C 
BRANCH   4   5
ATOM      5  C   UNL     1      62.254  29.654  61.233  1.00  0.00     0.053 C 
BRANCH   5   6
ATOM      6  C   UNL     1      61.059  30.521  60.978  1.00  0.00     0.041 C 
ATOM      7  O   UNL     1      60.589  31.237  61.902  1.00  0.00    -0.550 OA
ATOM      8  O   UNL     1      60.485  30.562  59.715  1.00  0.00    -0.550 OA
ENDBRANCH   5   6
ENDBRANCH   4   5
ENDBRANCH   3   4
ENDBRANCH   2   3
ENDBRANCH   1   2
BRANCH   1   9
ATOM      9  C   UNL     1      62.211  33.626  59.004  1.00  0.00     0.000 C 
BRANCH   9  10
ATOM     10  C   UNL     1      62.320  34.061  60.470  1.00  0.00    -0.000 C 
BRANCH  10  11
ATOM     11  C   UNL     1      61.945  35.541  60.634  1.00  0.00    -0.000 C 
BRANCH  11  12
ATOM     12  C   UNL     1      63.113  36.394  61.157  1.00  0.00    -0.000 C 
BRANCH  12  13
ATOM     13  C   UNL     1      64.299  35.544  61.633  1.00  0.00    -0.003 C 
ATOM     14  C   UNL     1      65.614  36.069  61.063  1.00  0.00     0.004 C 
ENDBRANCH  12  13
ENDBRANCH  11  12
ENDBRANCH  10  11
ENDBRANCH   9  10
ENDBRANCH   1   9
TORSDOF 10
ENDMDL
MODEL 4
REMARK VINA RESULT:    -3.518     12.856     14.131
REMARK INTER + INTRA:          -6.415
REMARK INTER:                  -5.253
REMARK INTRA:                  -1.163
REMARK UNBOUND:                -0.840
REMARK SMILES CCCCCCCCCCCC(=O)[O-]
REMARK SMILES IDX 7 1 8 2 9 3 10 4 11 5 12 6 13 7 14 8 6 9 5 10 4 11 3 12 2 13
REMARK SMILES IDX 1 14
REMARK H PARENT
REMARK Flexibility Score: inf
ROOT
ATOM      1  C   UNL     1      60.910  32.220  59.405  1.00  0.00     0.000 C 
ENDROOT
BRANCH   1   2
ATOM      2  C   UNL     1      61.384  33.238  60.452  1.00  0.00     0.000 C 
BRANCH   2   3
ATOM      3  C   UNL     1      61.187  34.693  59.996  1.00  0.00     0.000 C 
BRANCH   3   4
ATOM      4  C   UNL     1      62.275  35.636  60.538  1.00  0.00     0.006 C 
BRANCH   4   5
ATOM      5  C   UNL     1      63.501  34.869  61.054  1.00  0.00     0.053 C 
BRANCH   5   6
ATOM      6  C   UNL     1      64.783  35.522  60.638  1.00  0.00     0.041 C 
ATOM      7  O   UNL     1      65.606  35.912  61.508  1.00  0.00    -0.550 OA
ATOM      8  O   UNL     1      65.084  35.672  59.290  1.00  0.00    -0.550 OA
ENDBRANCH   5   6
ENDBRANCH   4   5
ENDBRANCH   3   4
ENDBRANCH   2   3
ENDBRANCH   1   2
BRANCH   1   9
ATOM      9  C   UNL     1      60.526  30.891  60.067  1.00  0.00     0.000 C 
BRANCH   9  10
ATOM     10  C   UNL     1      61.153  30.767  61.461  1.00  0.00    -0.000 C 
BRANCH  10  11
ATOM     11  C   UNL     1      61.921  29.445  61.603  1.00  0.00    -0.000 C 
BRANCH  11  12
ATOM     12  C   UNL     1      63.338  29.516  61.013  1.00  0.00    -0.000 C 
BRANCH  12  13
ATOM     13  C   UNL     1      64.011  30.875  61.252  1.00  0.00    -0.003 C 
ATOM     14  C   UNL     1      64.533  31.467  59.945  1.00  0.00     0.004 C 
ENDBRANCH  12  13
ENDBRANCH  11  12
ENDBRANCH  10  11
ENDBRANCH   9  10
ENDBRANCH   1   9
TORSDOF 10
ENDMDL
MODEL 5
REMARK VINA RESULT:    -3.518      3.544      5.732
REMARK INTER + INTRA:          -6.415
REMARK INTER:                  -5.359
REMARK INTRA:                  -1.056
REMARK UNBOUND:                -0.840
REMARK SMILES CCCCCCCCCCCC(=O)[O-]
REMARK SMILES IDX 7 1 8 2 9 3 10 4 11 5 12 6 13 7 14 8 6 9 5 10 4 11 3 12 2 13
REMARK SMILES IDX 1 14
REMARK H PARENT
REMARK Flexibility Score: inf
ROOT
ATOM      1  C   UNL     1      55.905  30.206  52.490  1.00  0.00     0.000 C 
ENDROOT
BRANCH   1   2
ATOM      2  C   UNL     1      57.049  29.200  52.683  1.00  0.00     0.000 C 
BRANCH   2   3
ATOM      3  C   UNL     1      58.200  29.414  51.687  1.00  0.00     0.000 C 
BRANCH   3   4
ATOM      4  C   UNL     1      57.757  29.243  50.224  1.00  0.00     0.006 C 
BRANCH   4   5
ATOM      5  C   UNL     1      58.945  29.266  49.253  1.00  0.00     0.053 C 
BRANCH   5   6
ATOM      6  C   UNL     1      59.887  28.127  49.495  1.00  0.00     0.041 C 
ATOM      7  O   UNL     1      61.095  28.351  49.770  1.00  0.00    -0.550 OA
ATOM      8  O   UNL     1      59.424  26.818  49.448  1.00  0.00    -0.550 OA
ENDBRANCH   5   6
ENDBRANCH   4   5
ENDBRANCH   3   4
ENDBRANCH   2   3
ENDBRANCH   1   2
BRANCH   1   9
ATOM      9  C   UNL     1      54.576  29.483  52.237  1.00  0.00     0.000 C 
BRANCH   9  10
ATOM     10  C   UNL     1      54.048  29.775  50.827  1.00  0.00    -0.000 C 
BRANCH  10  11
ATOM     11  C   UNL     1      53.893  28.479  50.019  1.00  0.00    -0.000 C 
BRANCH  11  12
ATOM     12  C   UNL     1      54.631  27.291  50.656  1.00  0.00    -0.000 C 
BRANCH  12  13
ATOM     13  C   UNL     1      55.059  26.238  49.625  1.00  0.00    -0.003 C 
ATOM     14  C   UNL     1      53.844  25.571  48.984  1.00  0.00     0.004 C 
ENDBRANCH  12  13
ENDBRANCH  11  12
ENDBRANCH  10  11
ENDBRANCH   9  10
ENDBRANCH   1   9
TORSDOF 10
ENDMDL
MODEL 6
REMARK VINA RESULT:    -3.485     12.348     13.999
REMARK INTER + INTRA:          -6.364
REMARK INTER:                  -5.411
REMARK INTRA:                  -0.952
REMARK UNBOUND:                -0.840
REMARK SMILES CCCCCCCCCCCC(=O)[O-]
REMARK SMILES IDX 7 1 8 2 9 3 10 4 11 5 12 6 13 7 14 8 6 9 5 10 4 11 3 12 2 13
REMARK SMILES IDX 1 14
REMARK H PARENT
REMARK Flexibility Score: inf
ROOT
ATOM      1  C   UNL     1      62.208  32.971  58.678  1.00  0.00     0.000 C 
ENDROOT
BRANCH   1   2
ATOM      2  C   UNL     1      62.333  32.103  59.939  1.00  0.00     0.000 C 
BRANCH   2   3
ATOM      3  C   UNL     1      61.011  31.995  60.717  1.00  0.00     0.000 C 
BRANCH   3   4
ATOM      4  C   UNL     1      60.997  30.811  61.698  1.00  0.00     0.006 C 
BRANCH   4   5
ATOM      5  C   UNL     1      62.295  29.994  61.640  1.00  0.00     0.053 C 
BRANCH   5   6
ATOM      6  C   UNL     1      62.049  28.585  61.196  1.00  0.00     0.041 C 
ATOM      7  O   UNL     1      60.878  28.195  60.947  1.00  0.00    -0.550 OA
ATOM      8  O   UNL     1      63.115  27.712  61.028  1.00  0.00    -0.550 OA
ENDBRANCH   5   6
ENDBRANCH   4   5
ENDBRANCH   3   4
ENDBRANCH   2   3
ENDBRANCH   1   2
BRANCH   1   9
ATOM      9  C   UNL     1      61.032  33.948  58.798  1.00  0.00     0.000 C 
BRANCH   9  10
ATOM     10  C   UNL     1      61.527  35.386  58.995  1.00  0.00    -0.000 C 
BRANCH  10  11
ATOM     11  C   UNL     1      61.289  35.857  60.437  1.00  0.00    -0.000 C 
BRANCH  11  12
ATOM     12  C   UNL     1      62.574  36.361  61.115  1.00  0.00    -0.000 C 
BRANCH  12  13
ATOM     13  C   UNL     1      63.668  35.287  61.181  1.00  0.00    -0.003 C 
ATOM     14  C   UNL     1      64.997  35.884  61.636  1.00  0.00     0.004 C 
ENDBRANCH  12  13
ENDBRANCH  11  12
ENDBRANCH  10  11
ENDBRANCH   9  10
ENDBRANCH   1   9
TORSDOF 10
ENDMDL
MODEL 7
REMARK VINA RESULT:    -3.472     12.335     14.008
REMARK INTER + INTRA:          -6.342
REMARK INTER:                  -5.086
REMARK INTRA:                  -1.256
REMARK UNBOUND:                -0.840
REMARK SMILES CCCCCCCCCCCC(=O)[O-]
REMARK SMILES IDX 7 1 8 2 9 3 10 4 11 5 12 6 13 7 14 8 6 9 5 10 4 11 3 12 2 13
REMARK SMILES IDX 1 14
REMARK H PARENT
REMARK Flexibility Score: inf
ROOT
ATOM      1  C   UNL     1      63.130  32.924  59.146  1.00  0.00     0.000 C 
ENDROOT
BRANCH   1   2
ATOM      2  C   UNL     1      61.922  31.997  59.347  1.00  0.00     0.000 C 
BRANCH   2   3
ATOM      3  C   UNL     1      61.162  32.288  60.651  1.00  0.00     0.000 C 
BRANCH   3   4
ATOM      4  C   UNL     1      60.900  31.019  61.480  1.00  0.00     0.006 C 
BRANCH   4   5
ATOM      5  C   UNL     1      62.169  30.175  61.664  1.00  0.00     0.053 C 
BRANCH   5   6
ATOM      6  C   UNL     1      61.968  28.760  61.218  1.00  0.00     0.041 C 
ATOM      7  O   UNL     1      62.930  27.947  61.241  1.00  0.00    -0.550 OA
ATOM      8  O   UNL     1      60.714  28.330  60.807  1.00  0.00    -0.550 OA
ENDBRANCH   5   6
ENDBRANCH   4   5
ENDBRANCH   3   4
ENDBRANCH   2   3
ENDBRANCH   1   2
BRANCH   1   9
ATOM      9  C   UNL     1      63.666  33.426  60.493  1.00  0.00     0.000 C 
BRANCH   9  10
ATOM     10  C   UNL     1      64.183  34.865  60.380  1.00  0.00    -0.000 C 
BRANCH  10  11
ATOM     11  C   UNL     1      63.408  35.804  61.316  1.00  0.00    -0.000 C 
BRANCH  11  12
ATOM     12  C   UNL     1      62.384  36.674  60.569  1.00  0.00    -0.000 C 
BRANCH  12  13
ATOM     13  C   UNL     1      60.988  36.038  60.523  1.00  0.00    -0.003 C 
ATOM     14  C   UNL     1      60.586  35.700  59.089  1.00  0.00     0.004 C 
ENDBRANCH  12  13
ENDBRANCH  11  12
ENDBRANCH  10  11
ENDBRANCH   9  10
ENDBRANCH   1   9
TORSDOF 10
ENDMDL
MODEL 8
REMARK VINA RESULT:    -3.469      2.975      5.700
REMARK INTER + INTRA:          -6.337
REMARK INTER:                  -5.818
REMARK INTRA:                  -0.519
REMARK UNBOUND:                -0.840
REMARK SMILES CCCCCCCCCCCC(=O)[O-]
REMARK SMILES IDX 7 1 8 2 9 3 10 4 11 5 12 6 13 7 14 8 6 9 5 10 4 11 3 12 2 13
REMARK SMILES IDX 1 14
REMARK H PARENT
REMARK Flexibility Score: inf
ROOT
ATOM      1  C   UNL     1      59.223  29.225  49.850  1.00  0.00     0.000 C 
ENDROOT
BRANCH   1   2
ATOM      2  C   UNL     1      59.505  27.834  49.264  1.00  0.00     0.000 C 
BRANCH   2   3
ATOM      3  C   UNL     1      60.627  27.093  50.009  1.00  0.00     0.000 C 
BRANCH   3   4
ATOM      4  C   UNL     1      60.206  25.688  50.469  1.00  0.00     0.006 C 
BRANCH   4   5
ATOM      5  C   UNL     1      61.288  24.637  50.185  1.00  0.00     0.053 C 
BRANCH   5   6
ATOM      6  C   UNL     1      60.726  23.249  50.159  1.00  0.00     0.041 C 
ATOM      7  O   UNL     1      60.099  22.801  51.156  1.00  0.00    -0.550 OA
ATOM      8  O   UNL     1      60.865  22.462  49.024  1.00  0.00    -0.550 OA
ENDBRANCH   5   6
ENDBRANCH   4   5
ENDBRANCH   3   4
ENDBRANCH   2   3
ENDBRANCH   1   2
BRANCH   1   9
ATOM      9  C   UNL     1      57.786  29.317  50.377  1.00  0.00     0.000 C 
BRANCH   9  10
ATOM     10  C   UNL     1      57.093  27.949  50.334  1.00  0.00    -0.000 C 
BRANCH  10  11
ATOM     11  C   UNL     1      55.694  28.021  50.963  1.00  0.00    -0.000 C 
BRANCH  11  12
ATOM     12  C   UNL     1      54.578  27.663  49.968  1.00  0.00    -0.000 C 
BRANCH  12  13
ATOM     13  C   UNL     1      54.607  26.186  49.553  1.00  0.00    -0.003 C 
ATOM     14  C   UNL     1      53.330  25.799  48.812  1.00  0.00     0.004 C 
ENDBRANCH  12  13
ENDBRANCH  11  12
ENDBRANCH  10  11
ENDBRANCH   9  10
ENDBRANCH   1   9
TORSDOF 10
ENDMDL
MODEL 9
REMARK VINA RESULT:    -3.455     12.049     13.728
REMARK INTER + INTRA:          -6.316
REMARK INTER:                  -5.357
REMARK INTRA:                  -0.959
REMARK UNBOUND:                -0.840
REMARK SMILES CCCCCCCCCCCC(=O)[O-]
REMARK SMILES IDX 7 1 8 2 9 3 10 4 11 5 12 6 13 7 14 8 6 9 5 10 4 11 3 12 2 13
REMARK SMILES IDX 1 14
REMARK H PARENT
REMARK Flexibility Score: inf
ROOT
ATOM      1  C   UNL     1      60.946  31.618  60.854  1.00  0.00     0.000 C 
ENDROOT
BRANCH   1   2
ATOM      2  C   UNL     1      61.758  30.601  61.671  1.00  0.00     0.000 C 
BRANCH   2   3
ATOM      3  C   UNL     1      63.254  30.617  61.318  1.00  0.00     0.000 C 
BRANCH   3   4
ATOM      4  C   UNL     1      63.789  29.225  60.941  1.00  0.00     0.006 C 
BRANCH   4   5
ATOM      5  C   UNL     1      62.681  28.303  60.413  1.00  0.00     0.053 C 
BRANCH   5   6
ATOM      6  C   UNL     1      62.529  28.406  58.926  1.00  0.00     0.041 C 
ATOM      7  O   UNL     1      63.433  27.967  58.166  1.00  0.00    -0.550 OA
ATOM      8  O   UNL     1      61.378  28.958  58.380  1.00  0.00    -0.550 OA
ENDBRANCH   5   6
ENDBRANCH   4   5
ENDBRANCH   3   4
ENDBRANCH   2   3
ENDBRANCH   1   2
BRANCH   1   9
ATOM      9  C   UNL     1      61.867  32.476  59.978  1.00  0.00     0.000 C 
BRANCH   9  10
ATOM     10  C   UNL     1      61.357  33.920  59.890  1.00  0.00    -0.000 C 
BRANCH  10  11
ATOM     11  C   UNL     1      62.289  34.880  60.645  1.00  0.00    -0.000 C 
BRANCH  11  12
ATOM     12  C   UNL     1      63.720  34.332  60.779  1.00  0.00    -0.000 C 
BRANCH  12  13
ATOM     13  C   UNL     1      64.627  35.248  61.612  1.00  0.00    -0.003 C 
ATOM     14  C   UNL     1      64.103  36.682  61.619  1.00  0.00     0.004 C 
ENDBRANCH  12  13
ENDBRANCH  11  12
ENDBRANCH  10  11
ENDBRANCH   9  10
ENDBRANCH   1   9
TORSDOF 10
ENDMDL
