MODEL 1
REMARK VINA RESULT:    -4.682      0.000      0.000
REMARK INTER + INTRA:          -5.293
REMARK INTER:                  -5.230
REMARK INTRA:                  -0.063
REMARK UNBOUND:                -0.063
REMARK SMILES COc1ccc(C(=O)[O-])cc1
REMARK SMILES IDX 6 1 5 2 10 3 4 4 11 5 3 6 7 7 8 8 9 9 2 10 1 11
REMARK H PARENT
REMARK Flexibility Score: inf
ROOT
ATOM      1  C   UNL     1      15.362 -29.599 -29.489  1.00  0.00    -0.003 A 
ATOM      2  C   UNL     1      16.625 -29.960 -28.987  1.00  0.00     0.014 A 
ATOM      3  C   UNL     1      15.022 -29.964 -30.802  1.00  0.00     0.014 A 
ATOM      4  C   UNL     1      17.529 -30.671 -29.783  1.00  0.00     0.047 A 
ATOM      5  C   UNL     1      15.926 -30.675 -31.596  1.00  0.00     0.047 A 
ATOM      6  C   UNL     1      17.183 -31.035 -31.098  1.00  0.00     0.118 A 
ENDROOT
BRANCH   1   7
ATOM      7  C   UNL     1      14.403 -28.848 -28.650  1.00  0.00     0.071 C 
ATOM      8  O   UNL     1      14.266 -29.124 -27.429  1.00  0.00    -0.545 OA
ATOM      9  O   UNL     1      13.638 -27.825 -29.199  1.00  0.00    -0.545 OA
ENDBRANCH   1   7
BRANCH   6  10
ATOM     10  O   UNL     1      18.054 -31.746 -31.936  1.00  0.00    -0.497 OA
ATOM     11  C   UNL     1      18.214 -31.495 -33.329  1.00  0.00     0.278 C 
ENDBRANCH   6  10
TORSDOF 2
ENDMDL
MODEL 2
REMARK VINA RESULT:    -4.682      0.102      1.757
REMARK INTER + INTRA:          -5.292
REMARK INTER:                  -5.231
REMARK INTRA:                  -0.061
REMARK UNBOUND:                -0.063
REMARK SMILES COc1ccc(C(=O)[O-])cc1
REMARK SMILES IDX 6 1 5 2 10 3 4 4 11 5 3 6 7 7 8 8 9 9 2 10 1 11
REMARK H PARENT
REMARK Flexibility Score: inf
ROOT
ATOM      1  C   UNL     1      15.352 -29.608 -29.474  1.00  0.00    -0.003 A 
ATOM      2  C   UNL     1      14.999 -29.976 -30.785  1.00  0.00     0.014 A 
ATOM      3  C   UNL     1      16.628 -29.946 -28.994  1.00  0.00     0.014 A 
ATOM      4  C   UNL     1      15.903 -30.667 -31.597  1.00  0.00     0.047 A 
ATOM      5  C   UNL     1      17.531 -30.636 -29.807  1.00  0.00     0.047 A 
ATOM      6  C   UNL     1      17.181 -31.003 -31.111  1.00  0.00     0.118 A 
ENDROOT
BRANCH   1   7
ATOM      7  C   UNL     1      14.399 -28.877 -28.612  1.00  0.00     0.071 C 
ATOM      8  O   UNL     1      13.658 -27.978 -29.093  1.00  0.00    -0.545 OA
ATOM      9  O   UNL     1      14.306 -29.170 -27.256  1.00  0.00    -0.545 OA
ENDBRANCH   1   7
BRANCH   6  10
ATOM     10  O   UNL     1      18.123 -31.695 -31.885  1.00  0.00    -0.497 OA
ATOM     11  C   UNL     1      18.178 -31.657 -33.308  1.00  0.00     0.278 C 
ENDBRANCH   6  10
TORSDOF 2
ENDMDL
MODEL 3
REMARK VINA RESULT:    -4.660      1.482      4.703
REMARK INTER + INTRA:          -5.267
REMARK INTER:                  -5.202
REMARK INTRA:                  -0.065
REMARK UNBOUND:                -0.063
REMARK SMILES COc1ccc(C(=O)[O-])cc1
REMARK SMILES IDX 6 1 5 2 10 3 4 4 11 5 3 6 7 7 8 8 9 9 2 10 1 11
REMARK H PARENT
REMARK Flexibility Score: inf
ROOT
ATOM      1  C   UNL     1      16.584 -29.887 -30.316  1.00  0.00    -0.003 A 
ATOM      2  C   UNL     1      15.987 -30.233 -29.090  1.00  0.00     0.014 A 
ATOM      3  C   UNL     1      16.085 -28.784 -31.028  1.00  0.00     0.014 A 
ATOM      4  C   UNL     1      14.913 -29.492 -28.589  1.00  0.00     0.047 A 
ATOM      5  C   UNL     1      15.011 -28.044 -30.525  1.00  0.00     0.047 A 
ATOM      6  C   UNL     1      14.416 -28.388 -29.307  1.00  0.00     0.118 A 
ENDROOT
BRANCH   1   7
ATOM      7  C   UNL     1      17.721 -30.668 -30.850  1.00  0.00     0.071 C 
ATOM      8  O   UNL     1      18.576 -31.169 -30.072  1.00  0.00    -0.545 OA
ATOM      9  O   UNL     1      17.863 -30.860 -32.219  1.00  0.00    -0.545 OA
ENDBRANCH   1   7
BRANCH   6  10
ATOM     10  O   UNL     1      13.341 -27.613 -28.847  1.00  0.00    -0.497 OA
ATOM     11  C   UNL     1      12.399 -26.962 -29.695  1.00  0.00     0.278 C 
ENDBRANCH   6  10
TORSDOF 2
ENDMDL
MODEL 4
REMARK VINA RESULT:    -4.639      1.089      4.702
REMARK INTER + INTRA:          -5.244
REMARK INTER:                  -5.180
REMARK INTRA:                  -0.064
REMARK UNBOUND:                -0.063
REMARK SMILES COc1ccc(C(=O)[O-])cc1
REMARK SMILES IDX 6 1 5 2 10 3 4 4 11 5 3 6 7 7 8 8 9 9 2 10 1 11
REMARK H PARENT
REMARK Flexibility Score: inf
ROOT
ATOM      1  C   UNL     1      16.448 -30.736 -30.995  1.00  0.00    -0.003 A 
ATOM      2  C   UNL     1      17.002 -30.659 -29.705  1.00  0.00     0.014 A 
ATOM      3  C   UNL     1      15.177 -30.181 -31.224  1.00  0.00     0.014 A 
ATOM      4  C   UNL     1      16.299 -30.042 -28.666  1.00  0.00     0.047 A 
ATOM      5  C   UNL     1      14.476 -29.564 -30.184  1.00  0.00     0.047 A 
ATOM      6  C   UNL     1      15.026 -29.488 -28.900  1.00  0.00     0.118 A 
ENDROOT
BRANCH   1   7
ATOM      7  C   UNL     1      17.188 -31.387 -32.098  1.00  0.00     0.071 C 
ATOM      8  O   UNL     1      18.438 -31.527 -32.036  1.00  0.00    -0.545 OA
ATOM      9  O   UNL     1      16.513 -31.856 -33.220  1.00  0.00    -0.545 OA
ENDBRANCH   1   7
BRANCH   6  10
ATOM     10  O   UNL     1      14.281 -28.859 -27.891  1.00  0.00    -0.497 OA
ATOM     11  C   UNL     1      14.416 -29.137 -26.501  1.00  0.00     0.278 C 
ENDBRANCH   6  10
TORSDOF 2
ENDMDL
MODEL 5
REMARK VINA RESULT:    -4.614      2.724      4.830
REMARK INTER + INTRA:          -5.216
REMARK INTER:                  -5.148
REMARK INTRA:                  -0.068
REMARK UNBOUND:                -0.063
REMARK SMILES COc1ccc(C(=O)[O-])cc1
REMARK SMILES IDX 6 1 5 2 10 3 4 4 11 5 3 6 7 7 8 8 9 9 2 10 1 11
REMARK H PARENT
REMARK Flexibility Score: inf
ROOT
ATOM      1  C   UNL     1      14.601 -29.031 -29.947  1.00  0.00    -0.003 A 
ATOM      2  C   UNL     1      13.952 -28.036 -29.193  1.00  0.00     0.014 A 
ATOM      3  C   UNL     1      14.259 -29.190 -31.300  1.00  0.00     0.014 A 
ATOM      4  C   UNL     1      12.983 -27.219 -29.781  1.00  0.00     0.047 A 
ATOM      5  C   UNL     1      13.289 -28.371 -31.886  1.00  0.00     0.047 A 
ATOM      6  C   UNL     1      12.644 -27.382 -31.137  1.00  0.00     0.118 A 
ENDROOT
BRANCH   1   7
ATOM      7  C   UNL     1      15.627 -29.898 -29.329  1.00  0.00     0.071 C 
ATOM      8  O   UNL     1      16.278 -30.719 -30.028  1.00  0.00    -0.545 OA
ATOM      9  O   UNL     1      15.889 -29.820 -27.966  1.00  0.00    -0.545 OA
ENDBRANCH   1   7
BRANCH   6  10
ATOM     10  O   UNL     1      11.678 -26.588 -31.772  1.00  0.00    -0.497 OA
ATOM     11  C   UNL     1      11.715 -26.225 -33.149  1.00  0.00     0.278 C 
ENDBRANCH   6  10
TORSDOF 2
ENDMDL
MODEL 6
REMARK VINA RESULT:    -4.610      3.050      4.072
REMARK INTER + INTRA:          -5.211
REMARK INTER:                  -5.147
REMARK INTRA:                  -0.064
REMARK UNBOUND:                -0.063
REMARK SMILES COc1ccc(C(=O)[O-])cc1
REMARK SMILES IDX 6 1 5 2 10 3 4 4 11 5 3 6 7 7 8 8 9 9 2 10 1 11
REMARK H PARENT
REMARK Flexibility Score: inf
ROOT
ATOM      1  C   UNL     1      12.560 -27.207 -30.687  1.00  0.00    -0.003 A 
ATOM      2  C   UNL     1      12.808 -27.441 -32.052  1.00  0.00     0.014 A 
ATOM      3  C   UNL     1      13.544 -27.556 -29.747  1.00  0.00     0.014 A 
ATOM      4  C   UNL     1      14.015 -28.012 -32.466  1.00  0.00     0.047 A 
ATOM      5  C   UNL     1      14.750 -28.127 -30.164  1.00  0.00     0.047 A 
ATOM      6  C   UNL     1      14.998 -28.360 -31.521  1.00  0.00     0.118 A 
ENDROOT
BRANCH   1   7
ATOM      7  C   UNL     1      11.285 -26.604 -30.244  1.00  0.00     0.071 C 
ATOM      8  O   UNL     1      11.020 -26.492 -29.017  1.00  0.00    -0.545 OA
ATOM      9  O   UNL     1      10.358 -26.150 -31.176  1.00  0.00    -0.545 OA
ENDBRANCH   1   7
BRANCH   6  10
ATOM     10  O   UNL     1      16.224 -28.936 -31.886  1.00  0.00    -0.497 OA
ATOM     11  C   UNL     1      17.497 -28.387 -31.562  1.00  0.00     0.278 C 
ENDBRANCH   6  10
TORSDOF 2
ENDMDL
MODEL 7
REMARK VINA RESULT:    -4.602      3.053      3.810
REMARK INTER + INTRA:          -5.203
REMARK INTER:                  -5.141
REMARK INTRA:                  -0.062
REMARK UNBOUND:                -0.063
REMARK SMILES COc1ccc(C(=O)[O-])cc1
REMARK SMILES IDX 6 1 5 2 10 3 4 4 11 5 3 6 7 7 8 8 9 9 2 10 1 11
REMARK H PARENT
REMARK Flexibility Score: inf
ROOT
ATOM      1  C   UNL     1      12.565 -27.214 -30.685  1.00  0.00    -0.003 A 
ATOM      2  C   UNL     1      13.560 -27.581 -29.761  1.00  0.00     0.014 A 
ATOM      3  C   UNL     1      12.796 -27.428 -32.054  1.00  0.00     0.014 A 
ATOM      4  C   UNL     1      14.761 -28.150 -30.199  1.00  0.00     0.047 A 
ATOM      5  C   UNL     1      13.996 -27.997 -32.490  1.00  0.00     0.047 A 
ATOM      6  C   UNL     1      14.987 -28.362 -31.572  1.00  0.00     0.118 A 
ENDROOT
BRANCH   1   7
ATOM      7  C   UNL     1      11.294 -26.613 -30.227  1.00  0.00     0.071 C 
ATOM      8  O   UNL     1      11.039 -26.512 -28.997  1.00  0.00    -0.545 OA
ATOM      9  O   UNL     1      10.361 -26.150 -31.147  1.00  0.00    -0.545 OA
ENDBRANCH   1   7
BRANCH   6  10
ATOM     10  O   UNL     1      16.173 -28.928 -32.061  1.00  0.00    -0.497 OA
ATOM     11  C   UNL     1      17.476 -28.416 -31.797  1.00  0.00     0.278 C 
ENDBRANCH   6  10
TORSDOF 2
ENDMDL
MODEL 8
REMARK VINA RESULT:    -4.469      3.302      5.703
REMARK INTER + INTRA:          -5.055
REMARK INTER:                  -4.992
REMARK INTRA:                  -0.063
REMARK UNBOUND:                -0.063
REMARK SMILES COc1ccc(C(=O)[O-])cc1
REMARK SMILES IDX 6 1 5 2 10 3 4 4 11 5 3 6 7 7 8 8 9 9 2 10 1 11
REMARK H PARENT
REMARK Flexibility Score: inf
ROOT
ATOM      1  C   UNL     1      14.528 -28.233 -31.059  1.00  0.00    -0.003 A 
ATOM      2  C   UNL     1      14.091 -27.900 -29.765  1.00  0.00     0.014 A 
ATOM      3  C   UNL     1      13.717 -27.903 -32.157  1.00  0.00     0.014 A 
ATOM      4  C   UNL     1      12.868 -27.250 -29.573  1.00  0.00     0.047 A 
ATOM      5  C   UNL     1      12.494 -27.253 -31.964  1.00  0.00     0.047 A 
ATOM      6  C   UNL     1      12.058 -26.921 -30.677  1.00  0.00     0.118 A 
ENDROOT
BRANCH   1   7
ATOM      7  C   UNL     1      15.821 -28.920 -31.267  1.00  0.00     0.071 C 
ATOM      8  O   UNL     1      16.904 -28.354 -30.960  1.00  0.00    -0.545 OA
ATOM      9  O   UNL     1      15.861 -30.202 -31.804  1.00  0.00    -0.545 OA
ENDBRANCH   1   7
BRANCH   6  10
ATOM     10  O   UNL     1      10.824 -26.271 -30.537  1.00  0.00    -0.497 OA
ATOM     11  C   UNL     1      10.119 -25.647 -31.606  1.00  0.00     0.278 C 
ENDBRANCH   6  10
TORSDOF 2
ENDMDL
MODEL 9
REMARK VINA RESULT:    -4.407      1.042      1.638
REMARK INTER + INTRA:          -4.985
REMARK INTER:                  -4.922
REMARK INTRA:                  -0.063
REMARK UNBOUND:                -0.063
REMARK SMILES COc1ccc(C(=O)[O-])cc1
REMARK SMILES IDX 6 1 5 2 10 3 4 4 11 5 3 6 7 7 8 8 9 9 2 10 1 11
REMARK H PARENT
REMARK Flexibility Score: inf
ROOT
ATOM      1  C   UNL     1      15.051 -28.802 -30.040  1.00  0.00    -0.003 A 
ATOM      2  C   UNL     1      15.482 -28.545 -31.354  1.00  0.00     0.014 A 
ATOM      3  C   UNL     1      15.644 -29.854 -29.323  1.00  0.00     0.014 A 
ATOM      4  C   UNL     1      16.485 -29.325 -31.938  1.00  0.00     0.047 A 
ATOM      5  C   UNL     1      16.647 -30.633 -29.908  1.00  0.00     0.047 A 
ATOM      6  C   UNL     1      17.077 -30.378 -31.215  1.00  0.00     0.118 A 
ENDROOT
BRANCH   1   7
ATOM      7  C   UNL     1      13.991 -27.979 -29.418  1.00  0.00     0.071 C 
ATOM      8  O   UNL     1      13.803 -28.009 -28.173  1.00  0.00    -0.545 OA
ATOM      9  O   UNL     1      13.184 -27.161 -30.200  1.00  0.00    -0.545 OA
ENDBRANCH   1   7
BRANCH   6  10
ATOM     10  O   UNL     1      18.085 -31.189 -31.756  1.00  0.00    -0.497 OA
ATOM     11  C   UNL     1      18.111 -31.647 -33.104  1.00  0.00     0.278 C 
ENDBRANCH   6  10
TORSDOF 2
ENDMDL
