MODEL 1
REMARK VINA RESULT:    -1.930      0.000      0.000
REMARK INTER + INTRA:          -4.515
REMARK INTER:                  -3.283
REMARK INTRA:                  -1.231
REMARK UNBOUND:                -1.231
REMARK SMILES CCCCCCCCCCCCCC(=O)[O-]
REMARK SMILES IDX 8 1 9 2 10 3 11 4 12 5 13 6 14 7 15 8 16 9 7 10 6 11 5 12
REMARK SMILES IDX 4 13 3 14 2 15 1 16
REMARK H PARENT
REMARK Flexibility Score: inf
ROOT
ATOM      1  C   UNL     1      27.495  21.725  15.239  1.00  0.00     0.000 C 
ENDROOT
BRANCH   1   2
ATOM      2  C   UNL     1      26.997  20.953  16.471  1.00  0.00     0.000 C 
BRANCH   2   3
ATOM      3  C   UNL     1      25.943  19.889  16.122  1.00  0.00     0.000 C 
BRANCH   3   4
ATOM      4  C   UNL     1      25.420  20.027  14.681  1.00  0.00     0.000 C 
BRANCH   4   5
ATOM      5  C   UNL     1      23.885  20.010  14.608  1.00  0.00     0.006 C 
BRANCH   5   6
ATOM      6  C   UNL     1      23.363  19.877  13.170  1.00  0.00     0.053 C 
BRANCH   6   7
ATOM      7  C   UNL     1      21.948  20.355  13.084  1.00  0.00     0.041 C 
ATOM      8  O   UNL     1      21.470  20.723  11.979  1.00  0.00    -0.550 OA
ATOM      9  O   UNL     1      21.141  20.349  14.215  1.00  0.00    -0.550 OA
ENDBRANCH   6   7
ENDBRANCH   5   6
ENDBRANCH   4   5
ENDBRANCH   3   4
ENDBRANCH   2   3
ENDBRANCH   1   2
BRANCH   1  10
ATOM     10  C   UNL     1      29.000  21.505  15.027  1.00  0.00     0.000 C 
BRANCH  10  11
ATOM     11  C   UNL     1      29.331  20.084  14.542  1.00  0.00    -0.000 C 
BRANCH  11  12
ATOM     12  C   UNL     1      29.899  20.066  13.112  1.00  0.00    -0.000 C 
BRANCH  12  13
ATOM     13  C   UNL     1      28.807  19.915  12.036  1.00  0.00    -0.000 C 
BRANCH  13  14
ATOM     14  C   UNL     1      28.673  21.105  11.069  1.00  0.00    -0.000 C 
BRANCH  14  15
ATOM     15  C   UNL     1      29.737  22.188  11.299  1.00  0.00    -0.003 C 
ATOM     16  C   UNL     1      29.110  23.466  11.849  1.00  0.00     0.004 C 
ENDBRANCH  14  15
ENDBRANCH  13  14
ENDBRANCH  12  13
ENDBRANCH  11  12
ENDBRANCH  10  11
ENDBRANCH   1  10
TORSDOF 12
ENDMDL
MODEL 2
REMARK VINA RESULT:    -1.442     12.349     15.636
REMARK INTER + INTRA:          -3.685
REMARK INTER:                  -2.768
REMARK INTRA:                  -0.917
REMARK UNBOUND:                -1.231
REMARK SMILES CCCCCCCCCCCCCC(=O)[O-]
REMARK SMILES IDX 8 1 9 2 10 3 11 4 12 5 13 6 14 7 15 8 16 9 7 10 6 11 5 12
REMARK SMILES IDX 4 13 3 14 2 15 1 16
REMARK H PARENT
REMARK Flexibility Score: inf
ROOT
ATOM      1  C   UNL     1      15.490  20.985  16.502  1.00  0.00     0.000 C 
ENDROOT
BRANCH   1   2
ATOM      2  C   UNL     1      14.739  21.816  15.449  1.00  0.00     0.000 C 
BRANCH   2   3
ATOM      3  C   UNL     1      13.271  21.388  15.288  1.00  0.00     0.000 C 
BRANCH   3   4
ATOM      4  C   UNL     1      12.349  22.564  14.924  1.00  0.00     0.000 C 
BRANCH   4   5
ATOM      5  C   UNL     1      10.907  22.116  14.638  1.00  0.00     0.006 C 
BRANCH   5   6
ATOM      6  C   UNL     1       9.876  22.849  15.506  1.00  0.00     0.053 C 
BRANCH   6   7
ATOM      7  C   UNL     1       9.911  22.328  16.909  1.00  0.00     0.041 C 
ATOM      8  O   UNL     1       9.926  23.128  17.881  1.00  0.00    -0.550 OA
ATOM      9  O   UNL     1       9.878  20.959  17.144  1.00  0.00    -0.550 OA
ENDBRANCH   6   7
ENDBRANCH   5   6
ENDBRANCH   4   5
ENDBRANCH   3   4
ENDBRANCH   2   3
ENDBRANCH   1   2
BRANCH   1  10
ATOM     10  C   UNL     1      14.589  19.875  17.066  1.00  0.00     0.000 C 
BRANCH  10  11
ATOM     11  C   UNL     1      14.241  20.088  18.548  1.00  0.00    -0.000 C 
BRANCH  11  12
ATOM     12  C   UNL     1      12.791  20.563  18.751  1.00  0.00    -0.000 C 
BRANCH  12  13
ATOM     13  C   UNL     1      12.307  20.400  20.204  1.00  0.00    -0.000 C 
BRANCH  13  14
ATOM     14  C   UNL     1      10.941  21.039  20.513  1.00  0.00    -0.000 C 
BRANCH  14  15
ATOM     15  C   UNL     1      10.617  21.066  22.013  1.00  0.00    -0.003 C 
ATOM     16  C   UNL     1      11.891  21.111  22.851  1.00  0.00     0.004 C 
ENDBRANCH  14  15
ENDBRANCH  13  14
ENDBRANCH  12  13
ENDBRANCH  11  12
ENDBRANCH  10  11
ENDBRANCH   1  10
TORSDOF 12
ENDMDL
MODEL 3
REMARK VINA RESULT:    -1.110     13.546     16.119
REMARK INTER + INTRA:          -3.121
REMARK INTER:                  -2.990
REMARK INTRA:                  -0.131
REMARK UNBOUND:                -1.231
REMARK SMILES CCCCCCCCCCCCCC(=O)[O-]
REMARK SMILES IDX 8 1 9 2 10 3 11 4 12 5 13 6 14 7 15 8 16 9 7 10 6 11 5 12
REMARK SMILES IDX 4 13 3 14 2 15 1 16
REMARK H PARENT
REMARK Flexibility Score: inf
ROOT
ATOM      1  C   UNL     1      14.409  21.139  16.889  1.00  0.00     0.000 C 
ENDROOT
BRANCH   1   2
ATOM      2  C   UNL     1      14.098  19.878  17.709  1.00  0.00     0.000 C 
BRANCH   2   3
ATOM      3  C   UNL     1      12.670  19.875  18.279  1.00  0.00     0.000 C 
BRANCH   3   4
ATOM      4  C   UNL     1      12.644  20.036  19.809  1.00  0.00     0.000 C 
BRANCH   4   5
ATOM      5  C   UNL     1      11.301  20.580  20.321  1.00  0.00     0.006 C 
BRANCH   5   6
ATOM      6  C   UNL     1      10.942  20.052  21.718  1.00  0.00     0.053 C 
BRANCH   6   7
ATOM      7  C   UNL     1      11.403  21.011  22.770  1.00  0.00     0.041 C 
ATOM      8  O   UNL     1      11.976  20.585  23.807  1.00  0.00    -0.550 OA
ATOM      9  O   UNL     1      11.244  22.378  22.584  1.00  0.00    -0.550 OA
ENDBRANCH   6   7
ENDBRANCH   5   6
ENDBRANCH   4   5
ENDBRANCH   3   4
ENDBRANCH   2   3
ENDBRANCH   1   2
BRANCH   1  10
ATOM     10  C   UNL     1      13.839  21.021  15.467  1.00  0.00     0.000 C 
BRANCH  10  11
ATOM     11  C   UNL     1      12.303  21.090  15.435  1.00  0.00    -0.000 C 
BRANCH  11  12
ATOM     12  C   UNL     1      11.783  22.251  14.570  1.00  0.00    -0.000 C 
BRANCH  12  13
ATOM     13  C   UNL     1      10.273  22.499  14.745  1.00  0.00    -0.000 C 
BRANCH  13  14
ATOM     14  C   UNL     1       9.875  23.214  16.049  1.00  0.00    -0.000 C 
BRANCH  14  15
ATOM     15  C   UNL     1      10.366  22.485  17.307  1.00  0.00    -0.003 C 
ATOM     16  C   UNL     1      10.052  23.289  18.566  1.00  0.00     0.004 C 
ENDBRANCH  14  15
ENDBRANCH  13  14
ENDBRANCH  12  13
ENDBRANCH  11  12
ENDBRANCH  10  11
ENDBRANCH   1  10
TORSDOF 12
ENDMDL
MODEL 4
REMARK VINA RESULT:    -1.089      1.528      2.165
REMARK INTER + INTRA:          -3.084
REMARK INTER:                  -2.624
REMARK INTRA:                  -0.460
REMARK UNBOUND:                -1.231
REMARK SMILES CCCCCCCCCCCCCC(=O)[O-]
REMARK SMILES IDX 8 1 9 2 10 3 11 4 12 5 13 6 14 7 15 8 16 9 7 10 6 11 5 12
REMARK SMILES IDX 4 13 3 14 2 15 1 16
REMARK H PARENT
REMARK Flexibility Score: inf
ROOT
ATOM      1  C   UNL     1      27.026  20.199  14.638  1.00  0.00     0.000 C 
ENDROOT
BRANCH   1   2
ATOM      2  C   UNL     1      27.066  20.799  16.052  1.00  0.00     0.000 C 
BRANCH   2   3
ATOM      3  C   UNL     1      25.674  21.201  16.567  1.00  0.00     0.000 C 
BRANCH   3   4
ATOM      4  C   UNL     1      24.717  20.002  16.684  1.00  0.00     0.000 C 
BRANCH   4   5
ATOM      5  C   UNL     1      23.776  19.878  15.476  1.00  0.00     0.006 C 
BRANCH   5   6
ATOM      6  C   UNL     1      22.578  20.835  15.558  1.00  0.00     0.053 C 
BRANCH   6   7
ATOM      7  C   UNL     1      21.641  20.595  14.417  1.00  0.00     0.041 C 
ATOM      8  O   UNL     1      20.514  20.072  14.622  1.00  0.00    -0.550 OA
ATOM      9  O   UNL     1      21.991  20.994  13.133  1.00  0.00    -0.550 OA
ENDBRANCH   6   7
ENDBRANCH   5   6
ENDBRANCH   4   5
ENDBRANCH   3   4
ENDBRANCH   2   3
ENDBRANCH   1   2
BRANCH   1  10
ATOM     10  C   UNL     1      28.439  20.120  14.038  1.00  0.00     0.000 C 
BRANCH  10  11
ATOM     11  C   UNL     1      28.756  21.302  13.107  1.00  0.00    -0.000 C 
BRANCH  11  12
ATOM     12  C   UNL     1      30.024  21.068  12.268  1.00  0.00    -0.000 C 
BRANCH  12  13
ATOM     13  C   UNL     1      29.782  20.143  11.061  1.00  0.00    -0.000 C 
BRANCH  13  14
ATOM     14  C   UNL     1      28.348  20.158  10.503  1.00  0.00    -0.000 C 
BRANCH  14  15
ATOM     15  C   UNL     1      28.275  20.644   9.049  1.00  0.00    -0.003 C 
ATOM     16  C   UNL     1      29.539  20.272   8.280  1.00  0.00     0.004 C 
ENDBRANCH  14  15
ENDBRANCH  13  14
ENDBRANCH  12  13
ENDBRANCH  11  12
ENDBRANCH  10  11
ENDBRANCH   1  10
TORSDOF 12
ENDMDL
