MODEL 1
REMARK VINA RESULT:    -4.208      0.000      0.000
REMARK INTER + INTRA:          -6.288
REMARK INTER:                  -5.684
REMARK INTRA:                  -0.604
REMARK UNBOUND:                -0.604
REMARK SMILES CCCCCCC=CC(=O)[O-]
REMARK SMILES IDX 5 1 6 2 7 3 8 4 9 5 10 6 11 7 4 8 3 9 2 10 1 11
REMARK H PARENT
REMARK Flexibility Score: inf
ROOT
ATOM      1  C   UNL     1      19.599  21.046  20.568  1.00  0.00     0.004 C 
ENDROOT
BRANCH   1   2
ATOM      2  C   UNL     1      18.202  21.364  21.123  1.00  0.00     0.027 C 
BRANCH   2   3
ATOM      3  C   UNL     1      18.152  21.168  22.612  1.00  0.00    -0.025 C 
ATOM      4  C   UNL     1      18.113  22.208  23.453  1.00  0.00     0.020 C 
BRANCH   4   5
ATOM      5  C   UNL     1      18.078  22.038  24.914  1.00  0.00     0.064 C 
ATOM      6  O   UNL     1      19.131  21.824  25.571  1.00  0.00    -0.545 OA
ATOM      7  O   UNL     1      16.862  22.115  25.581  1.00  0.00    -0.545 OA
ENDBRANCH   4   5
ENDBRANCH   2   3
ENDBRANCH   1   2
BRANCH   1   8
ATOM      8  C   UNL     1      20.145  19.705  21.081  1.00  0.00     0.000 C 
BRANCH   8   9
ATOM      9  C   UNL     1      21.643  19.771  21.430  1.00  0.00    -0.000 C 
BRANCH   9  10
ATOM     10  C   UNL     1      21.891  19.809  22.946  1.00  0.00    -0.003 C 
ATOM     11  C   UNL     1      20.829  19.046  23.738  1.00  0.00     0.004 C 
ENDBRANCH   9  10
ENDBRANCH   8   9
ENDBRANCH   1   8
TORSDOF 6
ENDMDL
MODEL 2
REMARK VINA RESULT:    -4.011      1.075      2.834
REMARK INTER + INTRA:          -6.022
REMARK INTER:                  -5.314
REMARK INTRA:                  -0.708
REMARK UNBOUND:                -0.604
REMARK SMILES CCCCCCC=CC(=O)[O-]
REMARK SMILES IDX 5 1 6 2 7 3 8 4 9 5 10 6 11 7 4 8 3 9 2 10 1 11
REMARK H PARENT
REMARK Flexibility Score: inf
ROOT
ATOM      1  C   UNL     1      21.991  19.615  22.925  1.00  0.00     0.004 C 
ENDROOT
BRANCH   1   2
ATOM      2  C   UNL     1      20.810  19.105  23.764  1.00  0.00     0.027 C 
BRANCH   2   3
ATOM      3  C   UNL     1      20.209  20.211  24.583  1.00  0.00    -0.025 C 
ATOM      4  C   UNL     1      18.894  20.462  24.563  1.00  0.00     0.020 C 
BRANCH   4   5
ATOM      5  C   UNL     1      18.287  21.549  25.346  1.00  0.00     0.064 C 
ATOM      6  O   UNL     1      17.258  21.352  26.046  1.00  0.00    -0.545 OA
ATOM      7  O   UNL     1      18.858  22.814  25.315  1.00  0.00    -0.545 OA
ENDBRANCH   4   5
ENDBRANCH   2   3
ENDBRANCH   1   2
BRANCH   1   8
ATOM      8  C   UNL     1      21.594  19.924  21.473  1.00  0.00     0.000 C 
BRANCH   8   9
ATOM      9  C   UNL     1      20.393  19.086  20.998  1.00  0.00    -0.000 C 
BRANCH   9  10
ATOM     10  C   UNL     1      19.257  19.954  20.436  1.00  0.00    -0.003 C 
ATOM     11  C   UNL     1      19.285  21.385  20.974  1.00  0.00     0.004 C 
ENDBRANCH   9  10
ENDBRANCH   8   9
ENDBRANCH   1   8
TORSDOF 6
ENDMDL
MODEL 3
REMARK VINA RESULT:    -3.831      2.824      5.007
REMARK INTER + INTRA:          -5.779
REMARK INTER:                  -5.067
REMARK INTRA:                  -0.712
REMARK UNBOUND:                -0.604
REMARK SMILES CCCCCCC=CC(=O)[O-]
REMARK SMILES IDX 5 1 6 2 7 3 8 4 9 5 10 6 11 7 4 8 3 9 2 10 1 11
REMARK H PARENT
REMARK Flexibility Score: inf
ROOT
ATOM      1  C   UNL     1      19.335  20.626  25.631  1.00  0.00     0.004 C 
ENDROOT
BRANCH   1   2
ATOM      2  C   UNL     1      19.397  19.175  25.128  1.00  0.00     0.027 C 
BRANCH   2   3
ATOM      3  C   UNL     1      20.045  19.098  23.775  1.00  0.00    -0.025 C 
ATOM      4  C   UNL     1      21.176  19.759  23.502  1.00  0.00     0.020 C 
BRANCH   4   5
ATOM      5  C   UNL     1      21.819  19.709  22.180  1.00  0.00     0.064 C 
ATOM      6  O   UNL     1      21.201  19.278  21.170  1.00  0.00    -0.545 OA
ATOM      7  O   UNL     1      23.131  20.144  22.042  1.00  0.00    -0.545 OA
ENDBRANCH   4   5
ENDBRANCH   2   3
ENDBRANCH   1   2
BRANCH   1   8
ATOM      8  C   UNL     1      18.039  21.339  25.216  1.00  0.00     0.000 C 
BRANCH   8   9
ATOM      9  C   UNL     1      18.264  22.367  24.093  1.00  0.00    -0.000 C 
BRANCH   9  10
ATOM     10  C   UNL     1      17.471  22.030  22.821  1.00  0.00    -0.003 C 
ATOM     11  C   UNL     1      18.360  21.513  21.691  1.00  0.00     0.004 C 
ENDBRANCH   9  10
ENDBRANCH   8   9
ENDBRANCH   1   8
TORSDOF 6
ENDMDL
MODEL 4
REMARK VINA RESULT:    -3.790      2.238      4.254
REMARK INTER + INTRA:          -5.723
REMARK INTER:                  -5.187
REMARK INTRA:                  -0.536
REMARK UNBOUND:                -0.604
REMARK SMILES CCCCCCC=CC(=O)[O-]
REMARK SMILES IDX 5 1 6 2 7 3 8 4 9 5 10 6 11 7 4 8 3 9 2 10 1 11
REMARK H PARENT
REMARK Flexibility Score: inf
ROOT
ATOM      1  C   UNL     1      17.398  21.006  20.792  1.00  0.00     0.004 C 
ENDROOT
BRANCH   1   2
ATOM      2  C   UNL     1      18.722  21.189  20.034  1.00  0.00     0.027 C 
BRANCH   2   3
ATOM      3  C   UNL     1      19.893  21.175  20.974  1.00  0.00    -0.025 C 
ATOM      4  C   UNL     1      20.641  20.078  21.143  1.00  0.00     0.020 C 
BRANCH   4   5
ATOM      5  C   UNL     1      21.783  20.037  22.069  1.00  0.00     0.064 C 
ATOM      6  O   UNL     1      22.961  19.896  21.645  1.00  0.00    -0.545 OA
ATOM      7  O   UNL     1      21.559  20.156  23.434  1.00  0.00    -0.545 OA
ENDBRANCH   4   5
ENDBRANCH   2   3
ENDBRANCH   1   2
BRANCH   1   8
ATOM      8  C   UNL     1      17.026  22.236  21.634  1.00  0.00     0.000 C 
BRANCH   8   9
ATOM      9  C   UNL     1      16.911  21.913  23.135  1.00  0.00    -0.000 C 
BRANCH   9  10
ATOM     10  C   UNL     1      18.132  22.394  23.934  1.00  0.00    -0.003 C 
ATOM     11  C   UNL     1      18.547  21.410  25.028  1.00  0.00     0.004 C 
ENDBRANCH   9  10
ENDBRANCH   8   9
ENDBRANCH   1   8
TORSDOF 6
ENDMDL
MODEL 5
REMARK VINA RESULT:    -3.780     13.914     14.625
REMARK INTER + INTRA:          -5.709
REMARK INTER:                  -5.434
REMARK INTRA:                  -0.275
REMARK UNBOUND:                -0.604
REMARK SMILES CCCCCCC=CC(=O)[O-]
REMARK SMILES IDX 5 1 6 2 7 3 8 4 9 5 10 6 11 7 4 8 3 9 2 10 1 11
REMARK H PARENT
REMARK Flexibility Score: inf
ROOT
ATOM      1  C   UNL     1      18.662  31.817  32.133  1.00  0.00     0.004 C 
ENDROOT
BRANCH   1   2
ATOM      2  C   UNL     1      19.914  32.708  32.131  1.00  0.00     0.027 C 
BRANCH   2   3
ATOM      3  C   UNL     1      20.687  32.554  30.853  1.00  0.00    -0.025 C 
ATOM      4  C   UNL     1      21.036  33.614  30.114  1.00  0.00     0.020 C 
BRANCH   4   5
ATOM      5  C   UNL     1      21.781  33.485  28.852  1.00  0.00     0.064 C 
ATOM      6  O   UNL     1      22.339  34.481  28.320  1.00  0.00    -0.545 OA
ATOM      7  O   UNL     1      21.870  32.243  28.237  1.00  0.00    -0.545 OA
ENDBRANCH   4   5
ENDBRANCH   2   3
ENDBRANCH   1   2
BRANCH   1   8
ATOM      8  C   UNL     1      18.701  30.748  33.236  1.00  0.00     0.000 C 
BRANCH   8   9
ATOM      9  C   UNL     1      20.049  30.714  33.979  1.00  0.00    -0.000 C 
BRANCH   9  10
ATOM     10  C   UNL     1      20.275  29.389  34.723  1.00  0.00    -0.003 C 
ATOM     11  C   UNL     1      21.557  28.679  34.289  1.00  0.00     0.004 C 
ENDBRANCH   9  10
ENDBRANCH   8   9
ENDBRANCH   1   8
TORSDOF 6
ENDMDL
MODEL 6
REMARK VINA RESULT:    -3.773     14.981     16.678
REMARK INTER + INTRA:          -5.700
REMARK INTER:                  -5.340
REMARK INTRA:                  -0.360
REMARK UNBOUND:                -0.604
REMARK SMILES CCCCCCC=CC(=O)[O-]
REMARK SMILES IDX 5 1 6 2 7 3 8 4 9 5 10 6 11 7 4 8 3 9 2 10 1 11
REMARK H PARENT
REMARK Flexibility Score: inf
ROOT
ATOM      1  C   UNL     1      21.989  35.305  30.209  1.00  0.00     0.004 C 
ENDROOT
BRANCH   1   2
ATOM      2  C   UNL     1      23.118  36.346  30.233  1.00  0.00     0.027 C 
BRANCH   2   3
ATOM      3  C   UNL     1      24.272  35.915  29.373  1.00  0.00    -0.025 C 
ATOM      4  C   UNL     1      25.522  36.321  29.626  1.00  0.00     0.020 C 
BRANCH   4   5
ATOM      5  C   UNL     1      26.665  35.923  28.789  1.00  0.00     0.064 C 
ATOM      6  O   UNL     1      26.591  35.945  27.532  1.00  0.00    -0.545 OA
ATOM      7  O   UNL     1      27.845  35.514  29.396  1.00  0.00    -0.545 OA
ENDBRANCH   4   5
ENDBRANCH   2   3
ENDBRANCH   1   2
BRANCH   1   8
ATOM      8  C   UNL     1      22.009  34.442  28.938  1.00  0.00     0.000 C 
BRANCH   8   9
ATOM      9  C   UNL     1      21.570  32.991  29.200  1.00  0.00    -0.000 C 
BRANCH   9  10
ATOM     10  C   UNL     1      21.128  32.765  30.654  1.00  0.00    -0.003 C 
ATOM     11  C   UNL     1      19.624  32.522  30.783  1.00  0.00     0.004 C 
ENDBRANCH   9  10
ENDBRANCH   8   9
ENDBRANCH   1   8
TORSDOF 6
ENDMDL
MODEL 7
REMARK VINA RESULT:    -3.754     14.392     15.392
REMARK INTER + INTRA:          -5.674
REMARK INTER:                  -5.425
REMARK INTRA:                  -0.249
REMARK UNBOUND:                -0.604
REMARK SMILES CCCCCCC=CC(=O)[O-]
REMARK SMILES IDX 5 1 6 2 7 3 8 4 9 5 10 6 11 7 4 8 3 9 2 10 1 11
REMARK H PARENT
REMARK Flexibility Score: inf
ROOT
ATOM      1  C   UNL     1      28.307  30.679  18.458  1.00  0.00     0.004 C 
ENDROOT
BRANCH   1   2
ATOM      2  C   UNL     1      29.735  31.180  18.191  1.00  0.00     0.027 C 
BRANCH   2   3
ATOM      3  C   UNL     1      30.175  32.155  19.245  1.00  0.00    -0.025 C 
ATOM      4  C   UNL     1      31.181  31.873  20.082  1.00  0.00     0.020 C 
BRANCH   4   5
ATOM      5  C   UNL     1      31.619  32.808  21.131  1.00  0.00     0.064 C 
ATOM      6  O   UNL     1      31.269  34.018  21.113  1.00  0.00    -0.545 OA
ATOM      7  O   UNL     1      32.431  32.348  22.159  1.00  0.00    -0.545 OA
ENDBRANCH   4   5
ENDBRANCH   2   3
ENDBRANCH   1   2
BRANCH   1   8
ATOM      8  C   UNL     1      27.243  31.527  17.746  1.00  0.00     0.000 C 
BRANCH   8   9
ATOM      9  C   UNL     1      26.203  30.669  17.003  1.00  0.00    -0.000 C 
BRANCH   9  10
ATOM     10  C   UNL     1      26.470  29.163  17.152  1.00  0.00    -0.003 C 
ATOM     11  C   UNL     1      25.225  28.315  16.893  1.00  0.00     0.004 C 
ENDBRANCH   9  10
ENDBRANCH   8   9
ENDBRANCH   1   8
TORSDOF 6
ENDMDL
MODEL 8
REMARK VINA RESULT:    -3.747     13.478     14.563
REMARK INTER + INTRA:          -5.665
REMARK INTER:                  -5.361
REMARK INTRA:                  -0.304
REMARK UNBOUND:                -0.604
REMARK SMILES CCCCCCC=CC(=O)[O-]
REMARK SMILES IDX 5 1 6 2 7 3 8 4 9 5 10 6 11 7 4 8 3 9 2 10 1 11
REMARK H PARENT
REMARK Flexibility Score: inf
ROOT
ATOM      1  C   UNL     1      21.205  30.248  33.916  1.00  0.00     0.004 C 
ENDROOT
BRANCH   1   2
ATOM      2  C   UNL     1      20.210  29.355  34.674  1.00  0.00     0.027 C 
BRANCH   2   3
ATOM      3  C   UNL     1      20.854  28.067  35.101  1.00  0.00    -0.025 C 
ATOM      4  C   UNL     1      21.914  27.567  34.454  1.00  0.00     0.020 C 
BRANCH   4   5
ATOM      5  C   UNL     1      22.550  26.300  34.847  1.00  0.00     0.064 C 
ATOM      6  O   UNL     1      22.745  26.016  36.059  1.00  0.00    -0.545 OA
ATOM      7  O   UNL     1      22.943  25.401  33.864  1.00  0.00    -0.545 OA
ENDBRANCH   4   5
ENDBRANCH   2   3
ENDBRANCH   1   2
BRANCH   1   8
ATOM      8  C   UNL     1      20.650  31.656  33.650  1.00  0.00     0.000 C 
BRANCH   8   9
ATOM      9  C   UNL     1      19.288  31.629  32.934  1.00  0.00    -0.000 C 
BRANCH   9  10
ATOM     10  C   UNL     1      19.379  32.124  31.482  1.00  0.00    -0.003 C 
ATOM     11  C   UNL     1      20.792  32.556  31.093  1.00  0.00     0.004 C 
ENDBRANCH   9  10
ENDBRANCH   8   9
ENDBRANCH   1   8
TORSDOF 6
ENDMDL
MODEL 9
REMARK VINA RESULT:    -3.691     15.739     16.688
REMARK INTER + INTRA:          -5.589
REMARK INTER:                  -5.311
REMARK INTRA:                  -0.278
REMARK UNBOUND:                -0.604
REMARK SMILES CCCCCCC=CC(=O)[O-]
REMARK SMILES IDX 5 1 6 2 7 3 8 4 9 5 10 6 11 7 4 8 3 9 2 10 1 11
REMARK H PARENT
REMARK Flexibility Score: inf
ROOT
ATOM      1  C   UNL     1      30.710  31.989  18.135  1.00  0.00     0.004 C 
ENDROOT
BRANCH   1   2
ATOM      2  C   UNL     1      30.511  32.223  19.640  1.00  0.00     0.027 C 
BRANCH   2   3
ATOM      3  C   UNL     1      31.826  32.238  20.365  1.00  0.00    -0.025 C 
ATOM      4  C   UNL     1      32.011  32.981  21.463  1.00  0.00     0.020 C 
BRANCH   4   5
ATOM      5  C   UNL     1      33.295  33.022  22.180  1.00  0.00     0.064 C 
ATOM      6  O   UNL     1      33.886  31.962  22.520  1.00  0.00    -0.545 OA
ATOM      7  O   UNL     1      33.867  34.250  22.487  1.00  0.00    -0.545 OA
ENDBRANCH   4   5
ENDBRANCH   2   3
ENDBRANCH   1   2
BRANCH   1   8
ATOM      8  C   UNL     1      29.460  31.404  17.459  1.00  0.00     0.000 C 
BRANCH   8   9
ATOM      9  C   UNL     1      28.344  31.072  18.465  1.00  0.00    -0.000 C 
BRANCH   9  10
ATOM     10  C   UNL     1      27.379  29.999  17.938  1.00  0.00    -0.003 C 
ATOM     11  C   UNL     1      27.969  29.189  16.784  1.00  0.00     0.004 C 
ENDBRANCH   9  10
ENDBRANCH   8   9
ENDBRANCH   1   8
TORSDOF 6
ENDMDL
