MODEL 1
REMARK VINA RESULT:    -3.349      0.000      0.000
REMARK INTER + INTRA:          -4.840
REMARK INTER:                  -4.426
REMARK INTRA:                  -0.414
REMARK UNBOUND:                -0.414
REMARK SMILES CCCCCCCO
REMARK SMILES IDX 5 1 4 2 3 3 2 4 1 5 6 6 7 7 8 8
REMARK H PARENT 8 9
REMARK Flexibility Score: inf
ROOT
ATOM      1  C   UNL     1     118.046 119.562 117.533  1.00  0.00     0.002 C 
ENDROOT
BRANCH   1   2
ATOM      2  C   UNL     1     118.311 118.045 117.505  1.00  0.00     0.000 C 
BRANCH   2   3
ATOM      3  C   UNL     1     119.220 117.519 118.635  1.00  0.00    -0.000 C 
BRANCH   3   4
ATOM      4  C   UNL     1     118.565 116.488 119.570  1.00  0.00    -0.003 C 
ATOM      5  C   UNL     1     117.175 116.058 119.102  1.00  0.00     0.004 C 
ENDBRANCH   3   4
ENDBRANCH   2   3
ENDBRANCH   1   2
BRANCH   1   6
ATOM      6  C   UNL     1     117.714 120.085 118.938  1.00  0.00     0.028 C 
BRANCH   6   7
ATOM      7  C   UNL     1     116.240 119.851 119.278  1.00  0.00     0.156 C 
BRANCH   7   8
ATOM      8  O   UNL     1     116.126 119.144 120.484  1.00  0.00    -0.396 OA
ATOM      9  H   UNL     1     116.178 118.180 120.253  1.00  0.00     0.210 HD
ENDBRANCH   7   8
ENDBRANCH   6   7
ENDBRANCH   1   6
TORSDOF 6
ENDMDL
MODEL 2
REMARK VINA RESULT:    -3.338      2.246      3.630
REMARK INTER + INTRA:          -4.825
REMARK INTER:                  -4.554
REMARK INTRA:                  -0.271
REMARK UNBOUND:                -0.414
REMARK SMILES CCCCCCCO
REMARK SMILES IDX 5 1 4 2 3 3 2 4 1 5 6 6 7 7 8 8
REMARK H PARENT 8 9
REMARK Flexibility Score: inf
ROOT
ATOM      1  C   UNL     1     117.873 117.841 117.778  1.00  0.00     0.002 C 
ENDROOT
BRANCH   1   2
ATOM      2  C   UNL     1     119.331 118.250 117.497  1.00  0.00     0.000 C 
BRANCH   2   3
ATOM      3  C   UNL     1     119.614 119.763 117.586  1.00  0.00    -0.000 C 
BRANCH   3   4
ATOM      4  C   UNL     1     120.069 120.260 118.969  1.00  0.00    -0.003 C 
ATOM      5  C   UNL     1     119.049 121.182 119.635  1.00  0.00     0.004 C 
ENDBRANCH   3   4
ENDBRANCH   2   3
ENDBRANCH   1   2
BRANCH   1   6
ATOM      6  C   UNL     1     117.760 116.690 118.787  1.00  0.00     0.028 C 
BRANCH   6   7
ATOM      7  C   UNL     1     118.614 116.960 120.028  1.00  0.00     0.156 C 
BRANCH   7   8
ATOM      8  O   UNL     1     119.501 115.897 120.247  1.00  0.00    -0.396 OA
ATOM      9  H   UNL     1     119.367 115.257 119.499  1.00  0.00     0.210 HD
ENDBRANCH   7   8
ENDBRANCH   6   7
ENDBRANCH   1   6
TORSDOF 6
ENDMDL
MODEL 3
REMARK VINA RESULT:    -3.335      1.537      2.120
REMARK INTER + INTRA:          -4.822
REMARK INTER:                  -4.504
REMARK INTRA:                  -0.318
REMARK UNBOUND:                -0.414
REMARK SMILES CCCCCCCO
REMARK SMILES IDX 5 1 4 2 3 3 2 4 1 5 6 6 7 7 8 8
REMARK H PARENT 8 9
REMARK Flexibility Score: inf
ROOT
ATOM      1  C   UNL     1     117.626 119.736 117.875  1.00  0.00     0.002 C 
ENDROOT
BRANCH   1   2
ATOM      2  C   UNL     1     118.177 118.325 117.595  1.00  0.00     0.000 C 
BRANCH   2   3
ATOM      3  C   UNL     1     119.710 118.240 117.449  1.00  0.00    -0.000 C 
BRANCH   3   4
ATOM      4  C   UNL     1     120.457 117.753 118.703  1.00  0.00    -0.003 C 
ATOM      5  C   UNL     1     120.858 118.893 119.637  1.00  0.00     0.004 C 
ENDBRANCH   3   4
ENDBRANCH   2   3
ENDBRANCH   1   2
BRANCH   1   6
ATOM      6  C   UNL     1     116.670 119.776 119.075  1.00  0.00     0.028 C 
BRANCH   6   7
ATOM      7  C   UNL     1     116.996 118.665 120.076  1.00  0.00     0.156 C 
BRANCH   7   8
ATOM      8  O   UNL     1     115.865 117.867 120.301  1.00  0.00    -0.396 OA
ATOM      9  H   UNL     1     115.598 118.014 121.247  1.00  0.00     0.210 HD
ENDBRANCH   7   8
ENDBRANCH   6   7
ENDBRANCH   1   6
TORSDOF 6
ENDMDL
MODEL 4
REMARK VINA RESULT:    -3.335      1.796      2.793
REMARK INTER + INTRA:          -4.821
REMARK INTER:                  -4.513
REMARK INTRA:                  -0.308
REMARK UNBOUND:                -0.414
REMARK SMILES CCCCCCCO
REMARK SMILES IDX 5 1 4 2 3 3 2 4 1 5 6 6 7 7 8 8
REMARK H PARENT 8 9
REMARK Flexibility Score: inf
ROOT
ATOM      1  C   UNL     1     116.404 118.846 119.606  1.00  0.00     0.002 C 
ENDROOT
BRANCH   1   2
ATOM      2  C   UNL     1     117.779 118.271 119.217  1.00  0.00     0.000 C 
BRANCH   2   3
ATOM      3  C   UNL     1     117.911 117.836 117.743  1.00  0.00    -0.000 C 
BRANCH   3   4
ATOM      4  C   UNL     1     118.785 118.753 116.870  1.00  0.00    -0.003 C 
ATOM      5  C   UNL     1     119.621 119.734 117.690  1.00  0.00     0.004 C 
ENDBRANCH   3   4
ENDBRANCH   2   3
ENDBRANCH   1   2
BRANCH   1   6
ATOM      6  C   UNL     1     116.225 120.309 119.177  1.00  0.00     0.028 C 
BRANCH   6   7
ATOM      7  C   UNL     1     116.558 121.265 120.325  1.00  0.00     0.156 C 
BRANCH   7   8
ATOM      8  O   UNL     1     117.899 121.667 120.249  1.00  0.00    -0.396 OA
ATOM      9  H   UNL     1     118.311 121.447 121.126  1.00  0.00     0.210 HD
ENDBRANCH   7   8
ENDBRANCH   6   7
ENDBRANCH   1   6
TORSDOF 6
ENDMDL
MODEL 5
REMARK VINA RESULT:    -3.331      1.112      3.087
REMARK INTER + INTRA:          -4.816
REMARK INTER:                  -4.506
REMARK INTRA:                  -0.309
REMARK UNBOUND:                -0.414
REMARK SMILES CCCCCCCO
REMARK SMILES IDX 5 1 4 2 3 3 2 4 1 5 6 6 7 7 8 8
REMARK H PARENT 8 9
REMARK Flexibility Score: inf
ROOT
ATOM      1  C   UNL     1     118.708 116.420 119.614  1.00  0.00     0.002 C 
ENDROOT
BRANCH   1   2
ATOM      2  C   UNL     1     119.274 117.798 119.226  1.00  0.00     0.000 C 
BRANCH   2   3
ATOM      3  C   UNL     1     119.687 117.943 117.747  1.00  0.00    -0.000 C 
BRANCH   3   4
ATOM      4  C   UNL     1     118.755 118.820 116.894  1.00  0.00    -0.003 C 
ATOM      5  C   UNL     1     117.788 119.653 117.735  1.00  0.00     0.004 C 
ENDBRANCH   3   4
ENDBRANCH   2   3
ENDBRANCH   1   2
BRANCH   1   6
ATOM      6  C   UNL     1     117.245 116.235 119.190  1.00  0.00     0.028 C 
BRANCH   6   7
ATOM      7  C   UNL     1     116.291 116.571 120.339  1.00  0.00     0.156 C 
BRANCH   7   8
ATOM      8  O   UNL     1     115.876 117.908 120.250  1.00  0.00    -0.396 OA
ATOM      9  H   UNL     1     114.950 117.893 119.891  1.00  0.00     0.210 HD
ENDBRANCH   7   8
ENDBRANCH   6   7
ENDBRANCH   1   6
TORSDOF 6
ENDMDL
MODEL 6
REMARK VINA RESULT:    -3.322      2.693      3.690
REMARK INTER + INTRA:          -4.804
REMARK INTER:                  -4.493
REMARK INTRA:                  -0.311
REMARK UNBOUND:                -0.414
REMARK SMILES CCCCCCCO
REMARK SMILES IDX 5 1 4 2 3 3 2 4 1 5 6 6 7 7 8 8
REMARK H PARENT 8 9
REMARK Flexibility Score: inf
ROOT
ATOM      1  C   UNL     1     118.749 121.009 119.663  1.00  0.00     0.002 C 
ENDROOT
BRANCH   1   2
ATOM      2  C   UNL     1     118.199 119.675 119.124  1.00  0.00     0.000 C 
BRANCH   2   3
ATOM      3  C   UNL     1     117.937 119.642 117.605  1.00  0.00    -0.000 C 
BRANCH   3   4
ATOM      4  C   UNL     1     118.764 118.605 116.825  1.00  0.00    -0.003 C 
ATOM      5  C   UNL     1     119.791 117.885 117.697  1.00  0.00     0.004 C 
ENDBRANCH   3   4
ENDBRANCH   2   3
ENDBRANCH   1   2
BRANCH   1   6
ATOM      6  C   UNL     1     120.141 121.347 119.112  1.00  0.00     0.028 C 
BRANCH   6   7
ATOM      7  C   UNL     1     121.220 121.144 120.179  1.00  0.00     0.156 C 
BRANCH   7   8
ATOM      8  O   UNL     1     121.587 119.793 120.246  1.00  0.00    -0.396 OA
ATOM      9  H   UNL     1     122.288 119.724 120.947  1.00  0.00     0.210 HD
ENDBRANCH   7   8
ENDBRANCH   6   7
ENDBRANCH   1   6
TORSDOF 6
ENDMDL
MODEL 7
REMARK VINA RESULT:    -3.317      1.630      2.048
REMARK INTER + INTRA:          -4.798
REMARK INTER:                  -4.499
REMARK INTRA:                  -0.299
REMARK UNBOUND:                -0.414
REMARK SMILES CCCCCCCO
REMARK SMILES IDX 5 1 4 2 3 3 2 4 1 5 6 6 7 7 8 8
REMARK H PARENT 8 9
REMARK Flexibility Score: inf
ROOT
ATOM      1  C   UNL     1     119.708 120.101 118.082  1.00  0.00     0.002 C 
ENDROOT
BRANCH   1   2
ATOM      2  C   UNL     1     118.360 119.584 117.548  1.00  0.00     0.000 C 
BRANCH   2   3
ATOM      3  C   UNL     1     118.284 118.059 117.331  1.00  0.00    -0.000 C 
BRANCH   3   4
ATOM      4  C   UNL     1     117.640 117.269 118.483  1.00  0.00    -0.003 C 
ATOM      5  C   UNL     1     118.663 116.741 119.488  1.00  0.00     0.004 C 
ENDBRANCH   3   4
ENDBRANCH   2   3
ENDBRANCH   1   2
BRANCH   1   6
ATOM      6  C   UNL     1     119.550 121.098 119.238  1.00  0.00     0.028 C 
BRANCH   6   7
ATOM      7  C   UNL     1     118.406 120.686 120.168  1.00  0.00     0.156 C 
BRANCH   7   8
ATOM      8  O   UNL     1     117.523 121.759 120.354  1.00  0.00    -0.396 OA
ATOM      9  H   UNL     1     117.183 121.688 121.285  1.00  0.00     0.210 HD
ENDBRANCH   7   8
ENDBRANCH   6   7
ENDBRANCH   1   6
TORSDOF 6
ENDMDL
MODEL 8
REMARK VINA RESULT:    -3.316      2.527      3.759
REMARK INTER + INTRA:          -4.796
REMARK INTER:                  -4.561
REMARK INTRA:                  -0.234
REMARK UNBOUND:                -0.414
REMARK SMILES CCCCCCCO
REMARK SMILES IDX 5 1 4 2 3 3 2 4 1 5 6 6 7 7 8 8
REMARK H PARENT 8 9
REMARK Flexibility Score: inf
ROOT
ATOM      1  C   UNL     1     119.681 117.828 118.055  1.00  0.00     0.002 C 
ENDROOT
BRANCH   1   2
ATOM      2  C   UNL     1     119.359 119.170 117.372  1.00  0.00     0.000 C 
BRANCH   2   3
ATOM      3  C   UNL     1     117.902 119.650 117.527  1.00  0.00    -0.000 C 
BRANCH   3   4
ATOM      4  C   UNL     1     117.176 119.130 118.780  1.00  0.00    -0.003 C 
ATOM      5  C   UNL     1     116.355 120.210 119.484  1.00  0.00     0.004 C 
ENDBRANCH   3   4
ENDBRANCH   2   3
ENDBRANCH   1   2
BRANCH   1   6
ATOM      6  C   UNL     1     120.957 117.882 118.906  1.00  0.00     0.028 C 
BRANCH   6   7
ATOM      7  C   UNL     1     120.759 118.767 120.140  1.00  0.00     0.156 C 
BRANCH   7   8
ATOM      8  O   UNL     1     121.729 119.780 120.172  1.00  0.00    -0.396 OA
ATOM      9  H   UNL     1     121.524 120.391 119.416  1.00  0.00     0.210 HD
ENDBRANCH   7   8
ENDBRANCH   6   7
ENDBRANCH   1   6
TORSDOF 6
ENDMDL
MODEL 9
REMARK VINA RESULT:    -3.280      2.495      2.957
REMARK INTER + INTRA:          -4.749
REMARK INTER:                  -4.417
REMARK INTRA:                  -0.332
REMARK UNBOUND:                -0.414
REMARK SMILES CCCCCCCO
REMARK SMILES IDX 5 1 4 2 3 3 2 4 1 5 6 6 7 7 8 8
REMARK H PARENT 8 9
REMARK Flexibility Score: inf
ROOT
ATOM      1  C   UNL     1     119.766 119.754 117.719  1.00  0.00     0.002 C 
ENDROOT
BRANCH   1   2
ATOM      2  C   UNL     1     118.327 119.334 117.364  1.00  0.00     0.000 C 
BRANCH   2   3
ATOM      3  C   UNL     1     117.960 117.882 117.732  1.00  0.00    -0.000 C 
BRANCH   3   4
ATOM      4  C   UNL     1     117.429 117.689 119.163  1.00  0.00    -0.003 C 
ATOM      5  C   UNL     1     116.577 118.863 119.645  1.00  0.00     0.004 C 
ENDBRANCH   3   4
ENDBRANCH   2   3
ENDBRANCH   1   2
BRANCH   1   6
ATOM      6  C   UNL     1     119.831 120.691 118.933  1.00  0.00     0.028 C 
BRANCH   6   7
ATOM      7  C   UNL     1     120.233 119.928 120.198  1.00  0.00     0.156 C 
BRANCH   7   8
ATOM      8  O   UNL     1     121.547 119.452 120.080  1.00  0.00    -0.396 OA
ATOM      9  H   UNL     1     122.111 120.233 119.837  1.00  0.00     0.210 HD
ENDBRANCH   7   8
ENDBRANCH   6   7
ENDBRANCH   1   6
TORSDOF 6
ENDMDL
