MODEL 1
REMARK VINA RESULT:    -4.051      0.000      0.000
REMARK INTER + INTRA:          -8.173
REMARK INTER:                  -6.183
REMARK INTRA:                  -1.990
REMARK UNBOUND:                -1.990
REMARK SMILES OC[C@@H]1O[C@](CO)(O[C@@H]2O[C@H](CO)[C@H](O)[C@@H](O)[C@@H]2O)[C@H](O)[C@@H]1O
REMARK SMILES IDX 8 1 9 2 11 3 14 4 10 5 16 6 18 7 12 8 13 9 15 11 17 13 19 15
REMARK SMILES IDX 5 17 20 18 4 19 22 20 3 21 6 22 7 23 21 25 23 27 2 29 1 30
REMARK H PARENT 13 10 15 12 17 14 19 16 7 24 21 26 23 28 1 31
REMARK Flexibility Score: inf
ROOT
ATOM      1  O   UNL     1     144.392 137.098 144.388  1.00  0.00    -0.313 OA
ENDROOT
BRANCH   1   2
ATOM      2  C   UNL     1     143.757 137.020 145.658  1.00  0.00     0.285 C 
ATOM      3  C   UNL     1     143.969 139.338 146.250  1.00  0.00     0.178 C 
ATOM      4  C   UNL     1     144.997 139.010 147.360  1.00  0.00     0.177 C 
ATOM      5  O   UNL     1     143.095 138.243 145.970  1.00  0.00    -0.341 OA
ATOM      6  C   UNL     1     145.768 137.727 147.028  1.00  0.00     0.179 C 
ATOM      7  C   UNL     1     144.763 136.610 146.758  1.00  0.00     0.202 C 
BRANCH   3   8
ATOM      8  C   UNL     1     144.585 139.946 144.970  1.00  0.00     0.191 C 
BRANCH   8   9
ATOM      9  O   UNL     1     144.620 141.344 145.067  1.00  0.00    -0.394 OA
ATOM     10  H   UNL     1     145.455 141.633 144.615  1.00  0.00     0.210 HD
ENDBRANCH   8   9
ENDBRANCH   3   8
BRANCH   4  11
ATOM     11  O   UNL     1     145.887 140.083 147.536  1.00  0.00    -0.387 OA
ATOM     12  H   UNL     1     146.072 140.154 148.509  1.00  0.00     0.211 HD
ENDBRANCH   4  11
BRANCH   6  13
ATOM     13  O   UNL     1     146.580 137.359 148.115  1.00  0.00    -0.387 OA
ATOM     14  H   UNL     1     147.158 136.614 147.806  1.00  0.00     0.211 HD
ENDBRANCH   6  13
BRANCH   7  15
ATOM     15  O   UNL     1     145.453 135.445 146.387  1.00  0.00    -0.385 OA
ATOM     16  H   UNL     1     145.466 134.853 147.184  1.00  0.00     0.211 HD
ENDBRANCH   7  15
ENDBRANCH   1   2
BRANCH   1  17
ATOM     17  C   UNL     1     143.776 136.326 143.352  1.00  0.00     0.224 C 
ATOM     18  C   UNL     1     143.088 137.219 142.290  1.00  0.00     0.208 C 
ATOM     19  O   UNL     1     142.743 135.579 143.968  1.00  0.00    -0.337 OA
ATOM     20  C   UNL     1     141.918 136.361 141.852  1.00  0.00     0.180 C 
ATOM     21  C   UNL     1     141.656 135.457 143.069  1.00  0.00     0.179 C 
BRANCH  17  22
ATOM     22  C   UNL     1     144.749 135.285 142.711  1.00  0.00     0.225 C 
BRANCH  22  23
ATOM     23  O   UNL     1     145.446 134.541 143.673  1.00  0.00    -0.391 OA
ATOM     24  H   UNL     1     145.721 133.698 143.227  1.00  0.00     0.210 HD
ENDBRANCH  22  23
ENDBRANCH  17  22
BRANCH  18  25
ATOM     25  O   UNL     1     142.666 138.450 142.829  1.00  0.00    -0.385 OA
ATOM     26  H   UNL     1     142.769 139.150 142.133  1.00  0.00     0.211 HD
ENDBRANCH  18  25
BRANCH  20  27
ATOM     27  O   UNL     1     140.804 137.090 141.385  1.00  0.00    -0.387 OA
ATOM     28  H   UNL     1     141.097 137.730 140.689  1.00  0.00     0.211 HD
ENDBRANCH  20  27
BRANCH  21  29
ATOM     29  C   UNL     1     140.348 135.744 143.821  1.00  0.00     0.191 C 
BRANCH  29  30
ATOM     30  O   UNL     1     140.437 136.988 144.458  1.00  0.00    -0.394 OA
ATOM     31  H   UNL     1     141.313 136.999 144.923  1.00  0.00     0.210 HD
ENDBRANCH  29  30
ENDBRANCH  21  29
ENDBRANCH   1  17
TORSDOF 13
ENDMDL
MODEL 2
REMARK VINA RESULT:    -4.033      8.186     10.092
REMARK INTER + INTRA:          -8.144
REMARK INTER:                  -5.966
REMARK INTRA:                  -2.178
REMARK UNBOUND:                -1.990
REMARK SMILES OC[C@@H]1O[C@](CO)(O[C@@H]2O[C@H](CO)[C@H](O)[C@@H](O)[C@@H]2O)[C@H](O)[C@@H]1O
REMARK SMILES IDX 8 1 9 2 11 3 14 4 10 5 16 6 18 7 12 8 13 9 15 11 17 13 19 15
REMARK SMILES IDX 5 17 20 18 4 19 22 20 3 21 6 22 7 23 21 25 23 27 2 29 1 30
REMARK H PARENT 13 10 15 12 17 14 19 16 7 24 21 26 23 28 1 31
REMARK Flexibility Score: inf
ROOT
ATOM      1  O   UNL     1     134.516 134.409 144.378  1.00  0.00    -0.313 OA
ENDROOT
BRANCH   1   2
ATOM      2  C   UNL     1     134.778 135.021 145.635  1.00  0.00     0.285 C 
ATOM      3  C   UNL     1     136.422 133.449 146.404  1.00  0.00     0.178 C 
ATOM      4  C   UNL     1     135.463 132.905 147.491  1.00  0.00     0.177 C 
ATOM      5  O   UNL     1     136.127 134.797 146.037  1.00  0.00    -0.341 OA
ATOM      6  C   UNL     1     134.000 133.080 147.066  1.00  0.00     0.179 C 
ATOM      7  C   UNL     1     133.769 134.545 146.705  1.00  0.00     0.202 C 
BRANCH   3   8
ATOM      8  C   UNL     1     136.586 132.523 145.179  1.00  0.00     0.191 C 
BRANCH   8   9
ATOM      9  O   UNL     1     137.384 133.144 144.207  1.00  0.00    -0.394 OA
ATOM     10  H   UNL     1     138.321 133.066 144.527  1.00  0.00     0.210 HD
ENDBRANCH   8   9
ENDBRANCH   3   8
BRANCH   4  11
ATOM     11  O   UNL     1     135.737 131.553 147.755  1.00  0.00    -0.387 OA
ATOM     12  H   UNL     1     135.668 131.425 148.737  1.00  0.00     0.211 HD
ENDBRANCH   4  11
BRANCH   6  13
ATOM     13  O   UNL     1     133.146 132.730 148.125  1.00  0.00    -0.387 OA
ATOM     14  H   UNL     1     132.443 132.139 147.748  1.00  0.00     0.211 HD
ENDBRANCH   6  13
BRANCH   7  15
ATOM     15  O   UNL     1     132.451 134.709 146.248  1.00  0.00    -0.385 OA
ATOM     16  H   UNL     1     132.509 134.938 145.284  1.00  0.00     0.211 HD
ENDBRANCH   7  15
ENDBRANCH   1   2
BRANCH   1  17
ATOM     17  C   UNL     1     134.119 135.307 143.335  1.00  0.00     0.224 C 
ATOM     18  C   UNL     1     135.249 135.533 142.300  1.00  0.00     0.208 C 
ATOM     19  O   UNL     1     133.891 136.562 143.951  1.00  0.00    -0.337 OA
ATOM     20  C   UNL     1     135.006 136.964 141.861  1.00  0.00     0.180 C 
ATOM     21  C   UNL     1     134.284 137.594 143.065  1.00  0.00     0.179 C 
BRANCH  17  22
ATOM     22  C   UNL     1     132.771 134.897 142.661  1.00  0.00     0.225 C 
BRANCH  22  23
ATOM     23  O   UNL     1     131.715 134.822 143.580  1.00  0.00    -0.391 OA
ATOM     24  H   UNL     1     132.093 134.423 144.406  1.00  0.00     0.210 HD
ENDBRANCH  22  23
ENDBRANCH  17  22
BRANCH  18  25
ATOM     25  O   UNL     1     136.527 135.366 142.869  1.00  0.00    -0.385 OA
ATOM     26  H   UNL     1     136.718 134.394 142.932  1.00  0.00     0.211 HD
ENDBRANCH  18  25
BRANCH  20  27
ATOM     27  O   UNL     1     136.164 137.643 141.424  1.00  0.00    -0.387 OA
ATOM     28  H   UNL     1     136.481 137.240 140.578  1.00  0.00     0.211 HD
ENDBRANCH  20  27
BRANCH  21  29
ATOM     29  C   UNL     1     135.101 138.638 143.839  1.00  0.00     0.191 C 
BRANCH  29  30
ATOM     30  O   UNL     1     136.266 138.043 144.340  1.00  0.00    -0.394 OA
ATOM     31  H   UNL     1     136.456 137.267 143.752  1.00  0.00     0.210 HD
ENDBRANCH  29  30
ENDBRANCH  21  29
ENDBRANCH   1  17
TORSDOF 13
ENDMDL
MODEL 3
REMARK VINA RESULT:    -3.913      7.100     10.303
REMARK INTER + INTRA:          -7.961
REMARK INTER:                  -5.759
REMARK INTRA:                  -2.202
REMARK UNBOUND:                -1.990
REMARK SMILES OC[C@@H]1O[C@](CO)(O[C@@H]2O[C@H](CO)[C@H](O)[C@@H](O)[C@@H]2O)[C@H](O)[C@@H]1O
REMARK SMILES IDX 8 1 9 2 11 3 14 4 10 5 16 6 18 7 12 8 13 9 15 11 17 13 19 15
REMARK SMILES IDX 5 17 20 18 4 19 22 20 3 21 6 22 7 23 21 25 23 27 2 29 1 30
REMARK H PARENT 13 10 15 12 17 14 19 16 7 24 21 26 23 28 1 31
REMARK Flexibility Score: inf
ROOT
ATOM      1  O   UNL     1     135.094 135.496 145.586  1.00  0.00    -0.313 OA
ENDROOT
BRANCH   1   2
ATOM      2  C   UNL     1     134.803 134.333 144.821  1.00  0.00     0.285 C 
ATOM      3  C   UNL     1     134.866 135.368 142.655  1.00  0.00     0.178 C 
ATOM      4  C   UNL     1     133.337 135.195 142.475  1.00  0.00     0.177 C 
ATOM      5  O   UNL     1     135.428 134.399 143.541  1.00  0.00    -0.341 OA
ATOM      6  C   UNL     1     132.628 135.176 143.834  1.00  0.00     0.179 C 
ATOM      7  C   UNL     1     133.278 134.108 144.710  1.00  0.00     0.202 C 
BRANCH   3   8
ATOM      8  C   UNL     1     135.308 136.809 142.995  1.00  0.00     0.191 C 
BRANCH   8   9
ATOM      9  O   UNL     1     136.676 136.835 143.302  1.00  0.00    -0.394 OA
ATOM     10  H   UNL     1     137.050 137.626 142.833  1.00  0.00     0.210 HD
ENDBRANCH   8   9
ENDBRANCH   3   8
BRANCH   4  11
ATOM     11  O   UNL     1     132.820 136.221 141.668  1.00  0.00    -0.387 OA
ATOM     12  H   UNL     1     133.171 137.080 142.023  1.00  0.00     0.211 HD
ENDBRANCH   4  11
BRANCH   6  13
ATOM     13  O   UNL     1     131.269 134.860 143.662  1.00  0.00    -0.387 OA
ATOM     14  H   UNL     1     130.985 135.256 142.798  1.00  0.00     0.211 HD
ENDBRANCH   6  13
BRANCH   7  15
ATOM     15  O   UNL     1     132.683 134.124 145.982  1.00  0.00    -0.385 OA
ATOM     16  H   UNL     1     132.031 134.873 145.983  1.00  0.00     0.211 HD
ENDBRANCH   7  15
ENDBRANCH   1   2
BRANCH   1  17
ATOM     17  C   UNL     1     135.781 135.256 146.820  1.00  0.00     0.224 C 
ATOM     18  C   UNL     1     137.307 135.488 146.691  1.00  0.00     0.208 C 
ATOM     19  O   UNL     1     135.613 133.881 147.112  1.00  0.00    -0.337 OA
ATOM     20  C   UNL     1     137.873 134.478 147.671  1.00  0.00     0.180 C 
ATOM     21  C   UNL     1     136.785 133.392 147.739  1.00  0.00     0.179 C 
BRANCH  17  22
ATOM     22  C   UNL     1     135.161 136.039 148.022  1.00  0.00     0.225 C 
BRANCH  22  23
ATOM     23  O   UNL     1     133.763 135.949 148.054  1.00  0.00    -0.391 OA
ATOM     24  H   UNL     1     133.551 135.052 148.421  1.00  0.00     0.210 HD
ENDBRANCH  22  23
ENDBRANCH  17  22
BRANCH  18  25
ATOM     25  O   UNL     1     137.766 135.263 145.379  1.00  0.00    -0.385 OA
ATOM     26  H   UNL     1     138.726 135.010 145.420  1.00  0.00     0.211 HD
ENDBRANCH  18  25
BRANCH  20  27
ATOM     27  O   UNL     1     139.169 134.022 147.352  1.00  0.00    -0.387 OA
ATOM     28  H   UNL     1     139.111 133.337 146.640  1.00  0.00     0.211 HD
ENDBRANCH  20  27
BRANCH  21  29
ATOM     29  C   UNL     1     137.171 132.047 147.106  1.00  0.00     0.191 C 
BRANCH  29  30
ATOM     30  O   UNL     1     137.523 132.245 145.764  1.00  0.00    -0.394 OA
ATOM     31  H   UNL     1     136.890 132.921 145.409  1.00  0.00     0.210 HD
ENDBRANCH  29  30
ENDBRANCH  21  29
ENDBRANCH   1  17
TORSDOF 13
ENDMDL
MODEL 4
REMARK VINA RESULT:    -3.892      1.744      5.108
REMARK INTER + INTRA:          -7.930
REMARK INTER:                  -5.720
REMARK INTRA:                  -2.210
REMARK UNBOUND:                -1.990
REMARK SMILES OC[C@@H]1O[C@](CO)(O[C@@H]2O[C@H](CO)[C@H](O)[C@@H](O)[C@@H]2O)[C@H](O)[C@@H]1O
REMARK SMILES IDX 8 1 9 2 11 3 14 4 10 5 16 6 18 7 12 8 13 9 15 11 17 13 19 15
REMARK SMILES IDX 5 17 20 18 4 19 22 20 3 21 6 22 7 23 21 25 23 27 2 29 1 30
REMARK H PARENT 13 10 15 12 17 14 19 16 7 24 21 26 23 28 1 31
REMARK Flexibility Score: inf
ROOT
ATOM      1  O   UNL     1     143.074 137.253 145.572  1.00  0.00    -0.313 OA
ENDROOT
BRANCH   1   2
ATOM      2  C   UNL     1     144.265 137.554 144.856  1.00  0.00     0.285 C 
ATOM      3  C   UNL     1     143.439 137.049 142.659  1.00  0.00     0.178 C 
ATOM      4  C   UNL     1     144.346 135.798 142.553  1.00  0.00     0.177 C 
ATOM      5  O   UNL     1     143.964 138.035 143.549  1.00  0.00    -0.341 OA
ATOM      6  C   UNL     1     144.646 135.222 143.941  1.00  0.00     0.179 C 
ATOM      7  C   UNL     1     145.213 136.334 144.820  1.00  0.00     0.202 C 
BRANCH   3   8
ATOM      8  C   UNL     1     141.951 136.734 142.935  1.00  0.00     0.191 C 
BRANCH   8   9
ATOM      9  O   UNL     1     141.240 137.920 143.164  1.00  0.00    -0.394 OA
ATOM     10  H   UNL     1     141.834 138.660 142.873  1.00  0.00     0.210 HD
ENDBRANCH   8   9
ENDBRANCH   3   8
BRANCH   4  11
ATOM     11  O   UNL     1     143.746 134.825 141.738  1.00  0.00    -0.387 OA
ATOM     12  H   UNL     1     143.785 133.964 142.232  1.00  0.00     0.211 HD
ENDBRANCH   4  11
BRANCH   6  13
ATOM     13  O   UNL     1     145.594 134.190 143.839  1.00  0.00    -0.387 OA
ATOM     14  H   UNL     1     146.251 134.326 144.571  1.00  0.00     0.211 HD
ENDBRANCH   6  13
BRANCH   7  15
ATOM     15  O   UNL     1     145.430 135.838 146.115  1.00  0.00    -0.385 OA
ATOM     16  H   UNL     1     145.266 136.591 146.742  1.00  0.00     0.211 HD
ENDBRANCH   7  15
ENDBRANCH   1   2
BRANCH   1  17
ATOM     17  C   UNL     1     142.880 138.007 146.774  1.00  0.00     0.224 C 
ATOM     18  C   UNL     1     141.920 139.204 146.563  1.00  0.00     0.208 C 
ATOM     19  O   UNL     1     144.139 138.564 147.106  1.00  0.00    -0.337 OA
ATOM     20  C   UNL     1     142.464 140.233 147.535  1.00  0.00     0.180 C 
ATOM     21  C   UNL     1     143.945 139.843 147.684  1.00  0.00     0.179 C 
BRANCH  17  22
ATOM     22  C   UNL     1     142.460 137.117 147.988  1.00  0.00     0.225 C 
BRANCH  22  23
ATOM     23  O   UNL     1     143.272 135.982 148.125  1.00  0.00    -0.391 OA
ATOM     24  H   UNL     1     142.687 135.200 147.950  1.00  0.00     0.210 HD
ENDBRANCH  22  23
ENDBRANCH  17  22
BRANCH  18  25
ATOM     25  O   UNL     1     141.943 139.671 145.234  1.00  0.00    -0.385 OA
ATOM     26  H   UNL     1     142.644 139.173 144.738  1.00  0.00     0.211 HD
ENDBRANCH  18  25
BRANCH  20  27
ATOM     27  O   UNL     1     142.222 141.572 147.161  1.00  0.00    -0.387 OA
ATOM     28  H   UNL     1     142.394 141.679 146.193  1.00  0.00     0.211 HD
ENDBRANCH  20  27
BRANCH  21  29
ATOM     29  C   UNL     1     144.942 140.832 147.062  1.00  0.00     0.191 C 
BRANCH  29  30
ATOM     30  O   UNL     1     144.677 140.967 145.694  1.00  0.00    -0.394 OA
ATOM     31  H   UNL     1     144.951 140.111 145.273  1.00  0.00     0.210 HD
ENDBRANCH  29  30
ENDBRANCH  21  29
ENDBRANCH   1  17
TORSDOF 13
ENDMDL
MODEL 5
REMARK VINA RESULT:    -3.892      7.953     10.122
REMARK INTER + INTRA:          -7.929
REMARK INTER:                  -5.727
REMARK INTRA:                  -2.202
REMARK UNBOUND:                -1.990
REMARK SMILES OC[C@@H]1O[C@](CO)(O[C@@H]2O[C@H](CO)[C@H](O)[C@@H](O)[C@@H]2O)[C@H](O)[C@@H]1O
REMARK SMILES IDX 8 1 9 2 11 3 14 4 10 5 16 6 18 7 12 8 13 9 15 11 17 13 19 15
REMARK SMILES IDX 5 17 20 18 4 19 22 20 3 21 6 22 7 23 21 25 23 27 2 29 1 30
REMARK H PARENT 13 10 15 12 17 14 19 16 7 24 21 26 23 28 1 31
REMARK Flexibility Score: inf
ROOT
ATOM      1  O   UNL     1     137.706 143.251 145.586  1.00  0.00    -0.313 OA
ENDROOT
BRANCH   1   2
ATOM      2  C   UNL     1     136.836 144.103 144.852  1.00  0.00     0.285 C 
ATOM      3  C   UNL     1     137.675 143.584 142.662  1.00  0.00     0.178 C 
ATOM      4  C   UNL     1     138.289 144.998 142.510  1.00  0.00     0.177 C 
ATOM      5  O   UNL     1     136.566 143.561 143.561  1.00  0.00    -0.341 OA
ATOM      6  C   UNL     1     138.643 145.589 143.880  1.00  0.00     0.179 C 
ATOM      7  C   UNL     1     137.404 145.538 144.769  1.00  0.00     0.202 C 
BRANCH   3   8
ATOM      8  C   UNL     1     138.705 142.472 142.963  1.00  0.00     0.191 C 
BRANCH   8   9
ATOM      9  O   UNL     1     138.047 141.267 143.242  1.00  0.00    -0.394 OA
ATOM     10  H   UNL     1     138.672 140.731 143.797  1.00  0.00     0.210 HD
ENDBRANCH   8   9
ENDBRANCH   3   8
BRANCH   4  11
ATOM     11  O   UNL     1     139.426 144.952 141.688  1.00  0.00    -0.387 OA
ATOM     12  H   UNL     1     139.311 144.184 141.070  1.00  0.00     0.211 HD
ENDBRANCH   4  11
BRANCH   6  13
ATOM     13  O   UNL     1     139.048 146.927 143.736  1.00  0.00    -0.387 OA
ATOM     14  H   UNL     1     139.351 147.237 144.628  1.00  0.00     0.211 HD
ENDBRANCH   6  13
BRANCH   7  15
ATOM     15  O   UNL     1     137.730 146.014 146.049  1.00  0.00    -0.385 OA
ATOM     16  H   UNL     1     136.917 146.460 146.405  1.00  0.00     0.211 HD
ENDBRANCH   7  15
ENDBRANCH   1   2
BRANCH   1  17
ATOM     17  C   UNL     1     137.169 142.744 146.813  1.00  0.00     0.224 C 
ATOM     18  C   UNL     1     136.601 141.312 146.653  1.00  0.00     0.208 C 
ATOM     19  O   UNL     1     136.067 143.571 147.140  1.00  0.00    -0.337 OA
ATOM     20  C   UNL     1     135.456 141.303 147.646  1.00  0.00     0.180 C 
ATOM     21  C   UNL     1     135.063 142.787 147.759  1.00  0.00     0.179 C 
BRANCH  17  22
ATOM     22  C   UNL     1     138.172 142.855 148.006  1.00  0.00     0.225 C 
BRANCH  22  23
ATOM     23  O   UNL     1     138.722 144.138 148.125  1.00  0.00    -0.391 OA
ATOM     24  H   UNL     1     138.455 144.631 147.306  1.00  0.00     0.210 HD
ENDBRANCH  22  23
ENDBRANCH  17  22
BRANCH  18  25
ATOM     25  O   UNL     1     136.160 141.063 145.338  1.00  0.00    -0.385 OA
ATOM     26  H   UNL     1     136.416 141.835 144.769  1.00  0.00     0.211 HD
ENDBRANCH  18  25
BRANCH  20  27
ATOM     27  O   UNL     1     134.406 140.420 147.316  1.00  0.00    -0.387 OA
ATOM     28  H   UNL     1     134.477 140.166 146.363  1.00  0.00     0.211 HD
ENDBRANCH  20  27
BRANCH  21  29
ATOM     29  C   UNL     1     133.699 143.145 147.151  1.00  0.00     0.191 C 
BRANCH  29  30
ATOM     30  O   UNL     1     133.684 142.795 145.795  1.00  0.00    -0.394 OA
ATOM     31  H   UNL     1     132.858 143.193 145.416  1.00  0.00     0.210 HD
ENDBRANCH  29  30
ENDBRANCH  21  29
ENDBRANCH   1  17
TORSDOF 13
ENDMDL
MODEL 6
REMARK VINA RESULT:    -3.845      5.223      7.927
REMARK INTER + INTRA:          -7.858
REMARK INTER:                  -5.666
REMARK INTRA:                  -2.192
REMARK UNBOUND:                -1.990
REMARK SMILES OC[C@@H]1O[C@](CO)(O[C@@H]2O[C@H](CO)[C@H](O)[C@@H](O)[C@@H]2O)[C@H](O)[C@@H]1O
REMARK SMILES IDX 8 1 9 2 11 3 14 4 10 5 16 6 18 7 12 8 13 9 15 11 17 13 19 15
REMARK SMILES IDX 5 17 20 18 4 19 22 20 3 21 6 22 7 23 21 25 23 27 2 29 1 30
REMARK H PARENT 13 10 15 12 17 14 19 16 7 24 21 26 23 28 1 31
REMARK Flexibility Score: inf
ROOT
ATOM      1  O   UNL     1     140.820 143.108 145.103  1.00  0.00    -0.313 OA
ENDROOT
BRANCH   1   2
ATOM      2  C   UNL     1     139.429 142.842 144.968  1.00  0.00     0.285 C 
ATOM      3  C   UNL     1     139.265 143.258 142.609  1.00  0.00     0.178 C 
ATOM      4  C   UNL     1     138.434 144.543 142.844  1.00  0.00     0.177 C 
ATOM      5  O   UNL     1     139.136 142.317 143.675  1.00  0.00    -0.341 OA
ATOM      6  C   UNL     1     138.766 145.165 144.205  1.00  0.00     0.179 C 
ATOM      7  C   UNL     1     138.590 144.101 145.285  1.00  0.00     0.202 C 
BRANCH   3   8
ATOM      8  C   UNL     1     140.738 143.514 142.219  1.00  0.00     0.191 C 
BRANCH   8   9
ATOM      9  O   UNL     1     141.502 142.359 142.431  1.00  0.00    -0.394 OA
ATOM     10  H   UNL     1     141.392 142.125 143.389  1.00  0.00     0.210 HD
ENDBRANCH   8   9
ENDBRANCH   3   8
BRANCH   4  11
ATOM     11  O   UNL     1     138.662 145.469 141.813  1.00  0.00    -0.387 OA
ATOM     12  H   UNL     1     139.532 145.909 142.002  1.00  0.00     0.211 HD
ENDBRANCH   4  11
BRANCH   6  13
ATOM     13  O   UNL     1     137.893 146.234 144.470  1.00  0.00    -0.387 OA
ATOM     14  H   UNL     1     137.046 146.045 143.988  1.00  0.00     0.211 HD
ENDBRANCH   6  13
BRANCH   7  15
ATOM     15  O   UNL     1     138.955 144.637 146.530  1.00  0.00    -0.385 OA
ATOM     16  H   UNL     1     139.691 145.282 146.359  1.00  0.00     0.211 HD
ENDBRANCH   7  15
ENDBRANCH   1   2
BRANCH   1  17
ATOM     17  C   UNL     1     141.550 142.149 145.875  1.00  0.00     0.224 C 
ATOM     18  C   UNL     1     143.078 142.392 145.811  1.00  0.00     0.208 C 
ATOM     19  O   UNL     1     141.325 140.890 145.268  1.00  0.00    -0.337 OA
ATOM     20  C   UNL     1     143.636 140.986 145.919  1.00  0.00     0.180 C 
ATOM     21  C   UNL     1     142.498 140.103 145.378  1.00  0.00     0.179 C 
BRANCH  17  22
ATOM     22  C   UNL     1     141.030 142.029 147.343  1.00  0.00     0.225 C 
BRANCH  22  23
ATOM     23  O   UNL     1     141.106 143.244 148.039  1.00  0.00    -0.391 OA
ATOM     24  H   UNL     1     141.420 143.021 148.953  1.00  0.00     0.210 HD
ENDBRANCH  22  23
ENDBRANCH  17  22
BRANCH  18  25
ATOM     25  O   UNL     1     143.464 143.021 144.612  1.00  0.00    -0.385 OA
ATOM     26  H   UNL     1     142.751 142.874 143.936  1.00  0.00     0.211 HD
ENDBRANCH  18  25
BRANCH  20  27
ATOM     27  O   UNL     1     144.891 140.808 145.298  1.00  0.00    -0.387 OA
ATOM     28  H   UNL     1     145.302 139.968 145.621  1.00  0.00     0.211 HD
ENDBRANCH  20  27
BRANCH  21  29
ATOM     29  C   UNL     1     142.782 139.434 144.026  1.00  0.00     0.191 C 
BRANCH  29  30
ATOM     30  O   UNL     1     143.265 140.389 143.122  1.00  0.00    -0.394 OA
ATOM     31  H   UNL     1     143.801 141.029 143.657  1.00  0.00     0.210 HD
ENDBRANCH  29  30
ENDBRANCH  21  29
ENDBRANCH   1  17
TORSDOF 13
ENDMDL
MODEL 7
REMARK VINA RESULT:    -3.836      2.902      5.302
REMARK INTER + INTRA:          -7.844
REMARK INTER:                  -5.646
REMARK INTRA:                  -2.198
REMARK UNBOUND:                -1.990
REMARK SMILES OC[C@@H]1O[C@](CO)(O[C@@H]2O[C@H](CO)[C@H](O)[C@@H](O)[C@@H]2O)[C@H](O)[C@@H]1O
REMARK SMILES IDX 8 1 9 2 11 3 14 4 10 5 16 6 18 7 12 8 13 9 15 11 17 13 19 15
REMARK SMILES IDX 5 17 20 18 4 19 22 20 3 21 6 22 7 23 21 25 23 27 2 29 1 30
REMARK H PARENT 13 10 15 12 17 14 19 16 7 24 21 26 23 28 1 31
REMARK Flexibility Score: inf
ROOT
ATOM      1  O   UNL     1     141.511 134.529 145.101  1.00  0.00    -0.313 OA
ENDROOT
BRANCH   1   2
ATOM      2  C   UNL     1     141.996 135.860 144.978  1.00  0.00     0.285 C 
ATOM      3  C   UNL     1     142.393 135.825 142.611  1.00  0.00     0.178 C 
ATOM      4  C   UNL     1     143.927 135.873 142.818  1.00  0.00     0.177 C 
ATOM      5  O   UNL     1     141.673 136.402 143.700  1.00  0.00    -0.341 OA
ATOM      6  C   UNL     1     144.315 135.246 144.162  1.00  0.00     0.179 C 
ATOM      7  C   UNL     1     143.513 135.927 145.268  1.00  0.00     0.202 C 
BRANCH   3   8
ATOM      8  C   UNL     1     141.848 134.436 142.209  1.00  0.00     0.191 C 
BRANCH   8   9
ATOM      9  O   UNL     1     140.465 134.377 142.430  1.00  0.00    -0.394 OA
ATOM     10  H   UNL     1     140.044 134.305 141.534  1.00  0.00     0.210 HD
ENDBRANCH   8   9
ENDBRANCH   3   8
BRANCH   4  11
ATOM     11  O   UNL     1     144.585 135.217 141.764  1.00  0.00    -0.387 OA
ATOM     12  H   UNL     1     144.745 135.891 141.054  1.00  0.00     0.211 HD
ENDBRANCH   4  11
BRANCH   6  13
ATOM     13  O   UNL     1     145.685 135.440 144.405  1.00  0.00    -0.387 OA
ATOM     14  H   UNL     1     145.761 136.160 145.084  1.00  0.00     0.211 HD
ENDBRANCH   6  13
BRANCH   7  15
ATOM     15  O   UNL     1     143.808 135.319 146.498  1.00  0.00    -0.385 OA
ATOM     16  H   UNL     1     143.746 136.027 147.191  1.00  0.00     0.211 HD
ENDBRANCH   7  15
ENDBRANCH   1   2
BRANCH   1  17
ATOM     17  C   UNL     1     140.324 134.385 145.888  1.00  0.00     0.224 C 
ATOM     18  C   UNL     1     139.750 132.948 145.819  1.00  0.00     0.208 C 
ATOM     19  O   UNL     1     139.349 135.228 145.301  1.00  0.00    -0.337 OA
ATOM     20  C   UNL     1     138.258 133.187 145.947  1.00  0.00     0.180 C 
ATOM     21  C   UNL     1     138.075 134.621 145.422  1.00  0.00     0.179 C 
BRANCH  17  22
ATOM     22  C   UNL     1     140.506 134.880 147.359  1.00  0.00     0.225 C 
BRANCH  22  23
ATOM     23  O   UNL     1     141.535 134.203 148.027  1.00  0.00    -0.391 OA
ATOM     24  H   UNL     1     142.052 133.724 147.329  1.00  0.00     0.210 HD
ENDBRANCH  22  23
ENDBRANCH  17  22
BRANCH  18  25
ATOM     25  O   UNL     1     140.078 132.306 144.609  1.00  0.00    -0.385 OA
ATOM     26  H   UNL     1     140.990 131.924 144.693  1.00  0.00     0.211 HD
ENDBRANCH  18  25
BRANCH  20  27
ATOM     27  O   UNL     1     137.456 132.205 145.327  1.00  0.00    -0.387 OA
ATOM     28  H   UNL     1     136.716 131.954 145.934  1.00  0.00     0.211 HD
ENDBRANCH  20  27
BRANCH  21  29
ATOM     29  C   UNL     1     137.336 134.732 144.080  1.00  0.00     0.191 C 
BRANCH  29  30
ATOM     30  O   UNL     1     137.887 133.824 143.166  1.00  0.00    -0.394 OA
ATOM     31  H   UNL     1     138.653 133.397 143.629  1.00  0.00     0.210 HD
ENDBRANCH  29  30
ENDBRANCH  21  29
ENDBRANCH   1  17
TORSDOF 13
ENDMDL
MODEL 8
REMARK VINA RESULT:    -3.834      7.083      9.018
REMARK INTER + INTRA:          -7.842
REMARK INTER:                  -5.761
REMARK INTRA:                  -2.080
REMARK UNBOUND:                -1.990
REMARK SMILES OC[C@@H]1O[C@](CO)(O[C@@H]2O[C@H](CO)[C@H](O)[C@@H](O)[C@@H]2O)[C@H](O)[C@@H]1O
REMARK SMILES IDX 8 1 9 2 11 3 14 4 10 5 16 6 18 7 12 8 13 9 15 11 17 13 19 15
REMARK SMILES IDX 5 17 20 18 4 19 22 20 3 21 6 22 7 23 21 25 23 27 2 29 1 30
REMARK H PARENT 13 10 15 12 17 14 19 16 7 24 21 26 23 28 1 31
REMARK Flexibility Score: inf
ROOT
ATOM      1  O   UNL     1     135.871 134.480 144.871  1.00  0.00    -0.313 OA
ENDROOT
BRANCH   1   2
ATOM      2  C   UNL     1     135.928 133.117 145.272  1.00  0.00     0.285 C 
ATOM      3  C   UNL     1     137.176 133.446 147.297  1.00  0.00     0.178 C 
ATOM      4  C   UNL     1     138.423 132.748 146.699  1.00  0.00     0.177 C 
ATOM      5  O   UNL     1     135.958 133.008 146.694  1.00  0.00    -0.341 OA
ATOM      6  C   UNL     1     138.450 132.894 145.173  1.00  0.00     0.179 C 
ATOM      7  C   UNL     1     137.122 132.393 144.610  1.00  0.00     0.202 C 
BRANCH   3   8
ATOM      8  C   UNL     1     137.282 134.985 147.369  1.00  0.00     0.191 C 
BRANCH   8   9
ATOM      9  O   UNL     1     136.016 135.548 147.581  1.00  0.00    -0.394 OA
ATOM     10  H   UNL     1     135.366 134.800 147.514  1.00  0.00     0.210 HD
ENDBRANCH   8   9
ENDBRANCH   3   8
BRANCH   4  11
ATOM     11  O   UNL     1     139.597 133.274 147.262  1.00  0.00    -0.387 OA
ATOM     12  H   UNL     1     139.323 133.864 148.012  1.00  0.00     0.211 HD
ENDBRANCH   4  11
BRANCH   6  13
ATOM     13  O   UNL     1     139.494 132.124 144.634  1.00  0.00    -0.387 OA
ATOM     14  H   UNL     1     139.271 131.957 143.682  1.00  0.00     0.211 HD
ENDBRANCH   6  13
BRANCH   7  15
ATOM     15  O   UNL     1     137.105 132.583 143.219  1.00  0.00    -0.385 OA
ATOM     16  H   UNL     1     137.364 131.717 142.808  1.00  0.00     0.211 HD
ENDBRANCH   7  15
ENDBRANCH   1   2
BRANCH   1  17
ATOM     17  C   UNL     1     134.578 134.941 144.464  1.00  0.00     0.224 C 
ATOM     18  C   UNL     1     134.399 134.892 142.926  1.00  0.00     0.208 C 
ATOM     19  O   UNL     1     134.506 136.308 144.826  1.00  0.00    -0.337 OA
ATOM     20  C   UNL     1     133.477 136.068 142.668  1.00  0.00     0.180 C 
ATOM     21  C   UNL     1     133.750 137.009 143.855  1.00  0.00     0.179 C 
BRANCH  17  22
ATOM     22  C   UNL     1     133.413 134.225 145.220  1.00  0.00     0.225 C 
BRANCH  22  23
ATOM     23  O   UNL     1     133.290 134.659 146.547  1.00  0.00    -0.391 OA
ATOM     24  H   UNL     1     133.930 135.409 146.654  1.00  0.00     0.210 HD
ENDBRANCH  22  23
ENDBRANCH  17  22
BRANCH  18  25
ATOM     25  O   UNL     1     135.626 135.026 142.248  1.00  0.00    -0.385 OA
ATOM     26  H   UNL     1     135.906 134.129 141.925  1.00  0.00     0.211 HD
ENDBRANCH  18  25
BRANCH  20  27
ATOM     27  O   UNL     1     133.617 136.647 141.389  1.00  0.00    -0.387 OA
ATOM     28  H   UNL     1     132.750 136.608 140.914  1.00  0.00     0.211 HD
ENDBRANCH  20  27
BRANCH  21  29
ATOM     29  C   UNL     1     134.478 138.312 143.496  1.00  0.00     0.191 C 
BRANCH  29  30
ATOM     30  O   UNL     1     135.707 138.013 142.894  1.00  0.00    -0.394 OA
ATOM     31  H   UNL     1     135.492 137.541 142.048  1.00  0.00     0.210 HD
ENDBRANCH  29  30
ENDBRANCH  21  29
ENDBRANCH   1  17
TORSDOF 13
ENDMDL
MODEL 9
REMARK VINA RESULT:    -3.699      7.997     10.010
REMARK INTER + INTRA:          -7.635
REMARK INTER:                  -5.669
REMARK INTRA:                  -1.966
REMARK UNBOUND:                -1.990
REMARK SMILES OC[C@@H]1O[C@](CO)(O[C@@H]2O[C@H](CO)[C@H](O)[C@@H](O)[C@@H]2O)[C@H](O)[C@@H]1O
REMARK SMILES IDX 8 1 9 2 11 3 14 4 10 5 16 6 18 7 12 8 13 9 15 11 17 13 19 15
REMARK SMILES IDX 5 17 20 18 4 19 22 20 3 21 6 22 7 23 21 25 23 27 2 29 1 30
REMARK H PARENT 13 10 15 12 17 14 19 16 7 24 21 26 23 28 1 31
REMARK Flexibility Score: inf
ROOT
ATOM      1  O   UNL     1     137.173 144.417 144.401  1.00  0.00    -0.313 OA
ENDROOT
BRANCH   1   2
ATOM      2  C   UNL     1     137.526 143.880 145.669  1.00  0.00     0.285 C 
ATOM      3  C   UNL     1     135.405 142.875 146.177  1.00  0.00     0.178 C 
ATOM      4  C   UNL     1     135.133 143.902 147.303  1.00  0.00     0.177 C 
ATOM      5  O   UNL     1     136.799 142.682 145.933  1.00  0.00    -0.341 OA
ATOM      6  C   UNL     1     135.857 145.224 147.022  1.00  0.00     0.179 C 
ATOM      7  C   UNL     1     137.336 144.930 146.788  1.00  0.00     0.202 C 
BRANCH   3   8
ATOM      8  C   UNL     1     134.606 143.127 144.879  1.00  0.00     0.191 C 
BRANCH   8   9
ATOM      9  O   UNL     1     133.379 142.450 144.927  1.00  0.00    -0.394 OA
ATOM     10  H   UNL     1     133.291 141.973 144.060  1.00  0.00     0.210 HD
ENDBRANCH   8   9
ENDBRANCH   3   8
BRANCH   4  11
ATOM     11  O   UNL     1     133.753 144.121 147.444  1.00  0.00    -0.387 OA
ATOM     12  H   UNL     1     133.385 144.269 146.534  1.00  0.00     0.211 HD
ENDBRANCH   4  11
BRANCH   6  13
ATOM     13  O   UNL     1     135.731 146.085 148.125  1.00  0.00    -0.387 OA
ATOM     14  H   UNL     1     135.346 146.936 147.788  1.00  0.00     0.211 HD
ENDBRANCH   6  13
BRANCH   7  15
ATOM     15  O   UNL     1     138.001 146.123 146.463  1.00  0.00    -0.385 OA
ATOM     16  H   UNL     1     137.695 146.384 145.555  1.00  0.00     0.211 HD
ENDBRANCH   7  15
ENDBRANCH   1   2
BRANCH   1  17
ATOM     17  C   UNL     1     138.172 144.278 143.383  1.00  0.00     0.224 C 
ATOM     18  C   UNL     1     137.751 143.268 142.287  1.00  0.00     0.208 C 
ATOM     19  O   UNL     1     139.312 143.724 144.013  1.00  0.00    -0.337 OA
ATOM     20  C   UNL     1     139.080 142.673 141.865  1.00  0.00     0.180 C 
ATOM     21  C   UNL     1     139.968 142.855 143.108  1.00  0.00     0.179 C 
BRANCH  17  22
ATOM     22  C   UNL     1     138.622 145.649 142.785  1.00  0.00     0.225 C 
BRANCH  22  23
ATOM     23  O   UNL     1     138.624 146.675 143.740  1.00  0.00    -0.391 OA
ATOM     24  H   UNL     1     139.162 147.414 143.353  1.00  0.00     0.210 HD
ENDBRANCH  22  23
ENDBRANCH  17  22
BRANCH  18  25
ATOM     25  O   UNL     1     136.868 142.289 142.783  1.00  0.00    -0.385 OA
ATOM     26  H   UNL     1     136.866 141.520 142.154  1.00  0.00     0.211 HD
ENDBRANCH  18  25
BRANCH  20  27
ATOM     27  O   UNL     1     138.995 141.357 141.365  1.00  0.00    -0.387 OA
ATOM     28  H   UNL     1     138.172 141.263 140.824  1.00  0.00     0.211 HD
ENDBRANCH  20  27
BRANCH  21  29
ATOM     29  C   UNL     1     140.337 141.555 143.838  1.00  0.00     0.191 C 
BRANCH  29  30
ATOM     30  O   UNL     1     139.191 141.009 144.430  1.00  0.00    -0.394 OA
ATOM     31  H   UNL     1     139.362 140.036 144.519  1.00  0.00     0.210 HD
ENDBRANCH  29  30
ENDBRANCH  21  29
ENDBRANCH   1  17
TORSDOF 13
ENDMDL
