MODEL 1
REMARK VINA RESULT:    -5.392      0.000      0.000
REMARK INTER + INTRA:          -9.749
REMARK INTER:                  -8.229
REMARK INTRA:                  -1.520
REMARK UNBOUND:                -1.520
REMARK SMILES OC[C@@H]1O[C@H](O[C@]2(CO)O[C@H](CO)[C@@H](O)[C@H]2O)[C@@H](O)[C@H](O)[C@H]1O
REMARK SMILES IDX 6 1 5 2 3 3 22 4 4 5 20 6 18 7 2 8 1 9 23 11 21 13 19 15
REMARK SMILES IDX 7 17 16 18 10 19 14 20 11 21 8 22 9 23 17 25 15 27 12 29
REMARK SMILES IDX 13 30
REMARK H PARENT 1 10 23 12 21 14 19 16 9 24 17 26 15 28 13 31
REMARK Flexibility Score: inf
ROOT
ATOM      1  O   UNL     1       5.045  11.054  59.135  1.00  0.00    -0.313 OA
ENDROOT
BRANCH   1   2
ATOM      2  C   UNL     1       4.952  12.442  59.430  1.00  0.00     0.285 C 
ATOM      3  C   UNL     1       2.798  12.735  58.396  1.00  0.00     0.178 C 
ATOM      4  C   UNL     1       2.302  11.791  59.535  1.00  0.00     0.177 C 
ATOM      5  O   UNL     1       4.188  13.086  58.417  1.00  0.00    -0.341 OA
ATOM      6  C   UNL     1       2.826  12.305  60.886  1.00  0.00     0.179 C 
ATOM      7  C   UNL     1       4.336  12.662  60.837  1.00  0.00     0.202 C 
BRANCH   3   8
ATOM      8  C   UNL     1       2.434  12.175  57.010  1.00  0.00     0.191 C 
BRANCH   8   9
ATOM      9  O   UNL     1       1.178  12.639  56.585  1.00  0.00    -0.394 OA
ATOM     10  H   UNL     1       0.587  11.845  56.504  1.00  0.00     0.210 HD
ENDBRANCH   8   9
ENDBRANCH   3   8
BRANCH   4  11
ATOM     11  O   UNL     1       0.894  11.785  59.557  1.00  0.00    -0.387 OA
ATOM     12  H   UNL     1       0.612  10.898  59.901  1.00  0.00     0.211 HD
ENDBRANCH   4  11
BRANCH   6  13
ATOM     13  O   UNL     1       2.548  11.370  61.903  1.00  0.00    -0.387 OA
ATOM     14  H   UNL     1       1.811  11.735  62.448  1.00  0.00     0.211 HD
ENDBRANCH   6  13
BRANCH   7  15
ATOM     15  O   UNL     1       4.534  13.989  61.255  1.00  0.00    -0.385 OA
ATOM     16  H   UNL     1       5.372  14.028  61.778  1.00  0.00     0.211 HD
ENDBRANCH   7  15
ENDBRANCH   1   2
BRANCH   1  17
ATOM     17  C   UNL     1       6.341  10.564  58.789  1.00  0.00     0.224 C 
ATOM     18  C   UNL     1       7.401  11.197  59.716  1.00  0.00     0.208 C 
ATOM     19  O   UNL     1       6.312   9.177  59.071  1.00  0.00    -0.337 OA
ATOM     20  C   UNL     1       7.288  10.335  60.945  1.00  0.00     0.180 C 
ATOM     21  C   UNL     1       6.863   8.974  60.360  1.00  0.00     0.179 C 
BRANCH  17  22
ATOM     22  C   UNL     1       6.682  10.730  57.280  1.00  0.00     0.225 C 
BRANCH  22  23
ATOM     23  O   UNL     1       7.644   9.784  56.886  1.00  0.00    -0.391 OA
ATOM     24  H   UNL     1       8.514  10.255  56.798  1.00  0.00     0.210 HD
ENDBRANCH  22  23
ENDBRANCH  17  22
BRANCH  18  25
ATOM     25  O   UNL     1       8.688  11.094  59.162  1.00  0.00    -0.385 OA
ATOM     26  H   UNL     1       9.316  10.940  59.915  1.00  0.00     0.211 HD
ENDBRANCH  18  25
BRANCH  20  27
ATOM     27  O   UNL     1       8.499  10.304  61.673  1.00  0.00    -0.387 OA
ATOM     28  H   UNL     1       9.246  10.102  61.042  1.00  0.00     0.211 HD
ENDBRANCH  20  27
BRANCH  21  29
ATOM     29  C   UNL     1       5.842   8.248  61.260  1.00  0.00     0.191 C 
BRANCH  29  30
ATOM     30  O   UNL     1       4.748   9.070  61.557  1.00  0.00    -0.394 OA
ATOM     31  H   UNL     1       3.970   8.467  61.678  1.00  0.00     0.210 HD
ENDBRANCH  29  30
ENDBRANCH  21  29
ENDBRANCH   1  17
TORSDOF 13
ENDMDL
MODEL 2
REMARK VINA RESULT:    -5.374      1.762      5.411
REMARK INTER + INTRA:          -9.722
REMARK INTER:                  -8.157
REMARK INTRA:                  -1.565
REMARK UNBOUND:                -1.520
REMARK SMILES OC[C@@H]1O[C@H](O[C@]2(CO)O[C@H](CO)[C@@H](O)[C@H]2O)[C@@H](O)[C@H](O)[C@H]1O
REMARK SMILES IDX 6 1 5 2 3 3 22 4 4 5 20 6 18 7 2 8 1 9 23 11 21 13 19 15
REMARK SMILES IDX 7 17 16 18 10 19 14 20 11 21 8 22 9 23 17 25 15 27 12 29
REMARK SMILES IDX 13 30
REMARK H PARENT 1 10 23 12 21 14 19 16 9 24 17 26 15 28 13 31
REMARK Flexibility Score: inf
ROOT
ATOM      1  O   UNL     1       5.337  11.075  58.080  1.00  0.00    -0.313 OA
ENDROOT
BRANCH   1   2
ATOM      2  C   UNL     1       6.725  11.192  58.363  1.00  0.00     0.285 C 
ATOM      3  C   UNL     1       6.674   9.732  60.277  1.00  0.00     0.178 C 
ATOM      4  C   UNL     1       6.311   8.635  59.229  1.00  0.00     0.177 C 
ATOM      5  O   UNL     1       6.932  11.045  59.763  1.00  0.00    -0.341 OA
ATOM      6  C   UNL     1       7.309   8.696  58.062  1.00  0.00     0.179 C 
ATOM      7  C   UNL     1       7.537  10.146  57.554  1.00  0.00     0.202 C 
BRANCH   3   8
ATOM      8  C   UNL     1       5.611   9.817  61.386  1.00  0.00     0.191 C 
BRANCH   8   9
ATOM      9  O   UNL     1       4.712  10.871  61.152  1.00  0.00    -0.394 OA
ATOM     10  H   UNL     1       3.974  10.774  61.808  1.00  0.00     0.210 HD
ENDBRANCH   8   9
ENDBRANCH   3   8
BRANCH   4  11
ATOM     11  O   UNL     1       6.385   7.366  59.835  1.00  0.00    -0.387 OA
ATOM     12  H   UNL     1       6.947   7.463  60.647  1.00  0.00     0.211 HD
ENDBRANCH   4  11
BRANCH   6  13
ATOM     13  O   UNL     1       6.893   7.843  57.020  1.00  0.00    -0.387 OA
ATOM     14  H   UNL     1       6.046   8.204  56.662  1.00  0.00     0.211 HD
ENDBRANCH   6  13
BRANCH   7  15
ATOM     15  O   UNL     1       8.907  10.460  57.586  1.00  0.00    -0.385 OA
ATOM     16  H   UNL     1       9.140  10.740  58.505  1.00  0.00     0.211 HD
ENDBRANCH   7  15
ENDBRANCH   1   2
BRANCH   1  17
ATOM     17  C   UNL     1       4.776  12.082  57.235  1.00  0.00     0.224 C 
ATOM     18  C   UNL     1       3.260  12.197  57.498  1.00  0.00     0.208 C 
ATOM     19  O   UNL     1       5.367  13.299  57.651  1.00  0.00    -0.337 OA
ATOM     20  C   UNL     1       3.226  13.062  58.729  1.00  0.00     0.180 C 
ATOM     21  C   UNL     1       4.484  13.935  58.558  1.00  0.00     0.179 C 
BRANCH  17  22
ATOM     22  C   UNL     1       5.116  11.884  55.729  1.00  0.00     0.225 C 
BRANCH  22  23
ATOM     23  O   UNL     1       5.397  13.121  55.123  1.00  0.00    -0.391 OA
ATOM     24  H   UNL     1       6.298  13.409  55.424  1.00  0.00     0.210 HD
ENDBRANCH  22  23
ENDBRANCH  17  22
BRANCH  18  25
ATOM     25  O   UNL     1       2.605  12.836  56.432  1.00  0.00    -0.385 OA
ATOM     26  H   UNL     1       2.264  12.123  55.831  1.00  0.00     0.211 HD
ENDBRANCH  18  25
BRANCH  20  27
ATOM     27  O   UNL     1       2.019  13.791  58.821  1.00  0.00    -0.387 OA
ATOM     28  H   UNL     1       1.828  13.973  59.784  1.00  0.00     0.211 HD
ENDBRANCH  20  27
BRANCH  21  29
ATOM     29  C   UNL     1       5.202  14.189  59.900  1.00  0.00     0.191 C 
BRANCH  29  30
ATOM     30  O   UNL     1       4.358  13.931  60.987  1.00  0.00    -0.394 OA
ATOM     31  H   UNL     1       4.927  13.972  61.798  1.00  0.00     0.210 HD
ENDBRANCH  29  30
ENDBRANCH  21  29
ENDBRANCH   1  17
TORSDOF 13
ENDMDL
MODEL 3
REMARK VINA RESULT:    -5.288      1.332      2.818
REMARK INTER + INTRA:          -9.590
REMARK INTER:                  -8.122
REMARK INTRA:                  -1.469
REMARK UNBOUND:                -1.520
REMARK SMILES OC[C@@H]1O[C@H](O[C@]2(CO)O[C@H](CO)[C@@H](O)[C@H]2O)[C@@H](O)[C@H](O)[C@H]1O
REMARK SMILES IDX 6 1 5 2 3 3 22 4 4 5 20 6 18 7 2 8 1 9 23 11 21 13 19 15
REMARK SMILES IDX 7 17 16 18 10 19 14 20 11 21 8 22 9 23 17 25 15 27 12 29
REMARK SMILES IDX 13 30
REMARK H PARENT 1 10 23 12 21 14 19 16 9 24 17 26 15 28 13 31
REMARK Flexibility Score: inf
ROOT
ATOM      1  O   UNL     1       5.215  11.109  58.815  1.00  0.00    -0.313 OA
ENDROOT
BRANCH   1   2
ATOM      2  C   UNL     1       4.004  10.367  58.875  1.00  0.00     0.285 C 
ATOM      3  C   UNL     1       2.802  12.027  60.137  1.00  0.00     0.178 C 
ATOM      4  C   UNL     1       2.972  12.895  58.853  1.00  0.00     0.177 C 
ATOM      5  O   UNL     1       3.316  10.690  60.078  1.00  0.00    -0.341 OA
ATOM      6  C   UNL     1       2.533  12.081  57.626  1.00  0.00     0.179 C 
ATOM      7  C   UNL     1       3.129  10.647  57.625  1.00  0.00     0.202 C 
BRANCH   3   8
ATOM      8  C   UNL     1       3.377  12.740  61.374  1.00  0.00     0.191 C 
BRANCH   8   9
ATOM      9  O   UNL     1       4.223  13.799  61.005  1.00  0.00    -0.394 OA
ATOM     10  H   UNL     1       3.788  14.638  61.308  1.00  0.00     0.210 HD
ENDBRANCH   8   9
ENDBRANCH   3   8
BRANCH   4  11
ATOM     11  O   UNL     1       2.167  14.047  58.956  1.00  0.00    -0.387 OA
ATOM     12  H   UNL     1       1.936  14.156  59.915  1.00  0.00     0.211 HD
ENDBRANCH   4  11
BRANCH   6  13
ATOM     13  O   UNL     1       2.852  12.775  56.442  1.00  0.00    -0.387 OA
ATOM     14  H   UNL     1       2.867  13.738  56.657  1.00  0.00     0.211 HD
ENDBRANCH   6  13
BRANCH   7  15
ATOM     15  O   UNL     1       2.099   9.695  57.525  1.00  0.00    -0.385 OA
ATOM     16  H   UNL     1       2.473   8.876  57.114  1.00  0.00     0.211 HD
ENDBRANCH   7  15
ENDBRANCH   1   2
BRANCH   1  17
ATOM     17  C   UNL     1       6.359  10.415  58.313  1.00  0.00     0.224 C 
ATOM     18  C   UNL     1       7.646  11.087  58.834  1.00  0.00     0.208 C 
ATOM     19  O   UNL     1       6.301   9.121  58.887  1.00  0.00    -0.337 OA
ATOM     20  C   UNL     1       7.763  10.499  60.215  1.00  0.00     0.180 C 
ATOM     21  C   UNL     1       7.121   9.109  60.041  1.00  0.00     0.179 C 
BRANCH  17  22
ATOM     22  C   UNL     1       6.349  10.244  56.766  1.00  0.00     0.225 C 
BRANCH  22  23
ATOM     23  O   UNL     1       7.229   9.219  56.379  1.00  0.00    -0.391 OA
ATOM     24  H   UNL     1       7.156   8.488  57.047  1.00  0.00     0.210 HD
ENDBRANCH  22  23
ENDBRANCH  17  22
BRANCH  18  25
ATOM     25  O   UNL     1       8.759  10.731  58.054  1.00  0.00    -0.385 OA
ATOM     26  H   UNL     1       8.433  10.115  57.347  1.00  0.00     0.211 HD
ENDBRANCH  18  25
BRANCH  20  27
ATOM     27  O   UNL     1       9.106  10.470  60.657  1.00  0.00    -0.387 OA
ATOM     28  H   UNL     1       9.333   9.536  60.926  1.00  0.00     0.211 HD
ENDBRANCH  20  27
BRANCH  21  29
ATOM     29  C   UNL     1       6.290   8.695  61.273  1.00  0.00     0.191 C 
BRANCH  29  30
ATOM     30  O   UNL     1       5.523   9.763  61.753  1.00  0.00    -0.394 OA
ATOM     31  H   UNL     1       4.579   9.549  61.536  1.00  0.00     0.210 HD
ENDBRANCH  29  30
ENDBRANCH  21  29
ENDBRANCH   1  17
TORSDOF 13
ENDMDL
MODEL 4
REMARK VINA RESULT:    -5.275      1.691      5.486
REMARK INTER + INTRA:          -9.571
REMARK INTER:                  -7.902
REMARK INTRA:                  -1.669
REMARK UNBOUND:                -1.520
REMARK SMILES OC[C@@H]1O[C@H](O[C@]2(CO)O[C@H](CO)[C@@H](O)[C@H]2O)[C@@H](O)[C@H](O)[C@H]1O
REMARK SMILES IDX 6 1 5 2 3 3 22 4 4 5 20 6 18 7 2 8 1 9 23 11 21 13 19 15
REMARK SMILES IDX 7 17 16 18 10 19 14 20 11 21 8 22 9 23 17 25 15 27 12 29
REMARK SMILES IDX 13 30
REMARK H PARENT 1 10 23 12 21 14 19 16 9 24 17 26 15 28 13 31
REMARK Flexibility Score: inf
ROOT
ATOM      1  O   UNL     1       5.520  10.826  59.627  1.00  0.00    -0.313 OA
ENDROOT
BRANCH   1   2
ATOM      2  C   UNL     1       6.721  10.911  60.384  1.00  0.00     0.285 C 
ATOM      3  C   UNL     1       6.912   8.539  60.746  1.00  0.00     0.178 C 
ATOM      4  C   UNL     1       7.117   8.482  59.201  1.00  0.00     0.177 C 
ATOM      5  O   UNL     1       6.761   9.843  61.323  1.00  0.00    -0.341 OA
ATOM      6  C   UNL     1       8.187   9.506  58.791  1.00  0.00     0.179 C 
ATOM      7  C   UNL     1       7.959  10.894  59.448  1.00  0.00     0.202 C 
BRANCH   3   8
ATOM      8  C   UNL     1       5.739   7.646  61.187  1.00  0.00     0.191 C 
BRANCH   8   9
ATOM      9  O   UNL     1       4.667   7.728  60.283  1.00  0.00    -0.394 OA
ATOM     10  H   UNL     1       3.946   8.240  60.733  1.00  0.00     0.210 HD
ENDBRANCH   8   9
ENDBRANCH   3   8
BRANCH   4  11
ATOM     11  O   UNL     1       7.546   7.192  58.833  1.00  0.00    -0.387 OA
ATOM     12  H   UNL     1       8.533   7.173  58.933  1.00  0.00     0.211 HD
ENDBRANCH   4  11
BRANCH   6  13
ATOM     13  O   UNL     1       8.254   9.603  57.386  1.00  0.00    -0.387 OA
ATOM     14  H   UNL     1       7.914   8.755  57.013  1.00  0.00     0.211 HD
ENDBRANCH   6  13
BRANCH   7  15
ATOM     15  O   UNL     1       9.109  11.292  60.151  1.00  0.00    -0.385 OA
ATOM     16  H   UNL     1       9.901  10.956  59.664  1.00  0.00     0.211 HD
ENDBRANCH   7  15
ENDBRANCH   1   2
BRANCH   1  17
ATOM     17  C   UNL     1       4.577  11.883  59.815  1.00  0.00     0.224 C 
ATOM     18  C   UNL     1       5.323  13.200  60.113  1.00  0.00     0.208 C 
ATOM     19  O   UNL     1       3.930  12.041  58.566  1.00  0.00    -0.337 OA
ATOM     20  C   UNL     1       5.713  13.651  58.731  1.00  0.00     0.180 C 
ATOM     21  C   UNL     1       4.573  13.088  57.861  1.00  0.00     0.179 C 
BRANCH  17  22
ATOM     22  C   UNL     1       3.483  11.554  60.872  1.00  0.00     0.225 C 
BRANCH  22  23
ATOM     23  O   UNL     1       3.585  10.215  61.285  1.00  0.00    -0.391 OA
ATOM     24  H   UNL     1       2.961  10.083  62.046  1.00  0.00     0.210 HD
ENDBRANCH  22  23
ENDBRANCH  17  22
BRANCH  18  25
ATOM     25  O   UNL     1       4.472  14.142  60.714  1.00  0.00    -0.385 OA
ATOM     26  H   UNL     1       3.732  14.314  60.076  1.00  0.00     0.211 HD
ENDBRANCH  18  25
BRANCH  20  27
ATOM     27  O   UNL     1       5.859  15.056  58.663  1.00  0.00    -0.387 OA
ATOM     28  H   UNL     1       5.275  15.472  59.358  1.00  0.00     0.211 HD
ENDBRANCH  20  27
BRANCH  21  29
ATOM     29  C   UNL     1       5.081  12.572  56.499  1.00  0.00     0.191 C 
BRANCH  29  30
ATOM     30  O   UNL     1       5.862  11.420  56.650  1.00  0.00    -0.394 OA
ATOM     31  H   UNL     1       5.500  10.752  56.013  1.00  0.00     0.210 HD
ENDBRANCH  29  30
ENDBRANCH  21  29
ENDBRANCH   1  17
TORSDOF 13
ENDMDL
MODEL 5
REMARK VINA RESULT:    -5.259      1.491      2.622
REMARK INTER + INTRA:          -9.546
REMARK INTER:                  -7.615
REMARK INTRA:                  -1.931
REMARK UNBOUND:                -1.520
REMARK SMILES OC[C@@H]1O[C@H](O[C@]2(CO)O[C@H](CO)[C@@H](O)[C@H]2O)[C@@H](O)[C@H](O)[C@H]1O
REMARK SMILES IDX 6 1 5 2 3 3 22 4 4 5 20 6 18 7 2 8 1 9 23 11 21 13 19 15
REMARK SMILES IDX 7 17 16 18 10 19 14 20 11 21 8 22 9 23 17 25 15 27 12 29
REMARK SMILES IDX 13 30
REMARK H PARENT 1 10 23 12 21 14 19 16 9 24 17 26 15 28 13 31
REMARK Flexibility Score: inf
ROOT
ATOM      1  O   UNL     1       5.164  10.846  58.376  1.00  0.00    -0.313 OA
ENDROOT
BRANCH   1   2
ATOM      2  C   UNL     1       4.226  11.002  57.319  1.00  0.00     0.285 C 
ATOM      3  C   UNL     1       2.328  10.277  58.609  1.00  0.00     0.178 C 
ATOM      4  C   UNL     1       2.600  11.570  59.438  1.00  0.00     0.177 C 
ATOM      5  O   UNL     1       3.178  10.053  57.477  1.00  0.00    -0.341 OA
ATOM      6  C   UNL     1       2.744  12.765  58.483  1.00  0.00     0.179 C 
ATOM      7  C   UNL     1       3.680  12.454  57.284  1.00  0.00     0.202 C 
BRANCH   3   8
ATOM      8  C   UNL     1       2.335   9.027  59.507  1.00  0.00     0.191 C 
BRANCH   8   9
ATOM      9  O   UNL     1       3.636   8.524  59.672  1.00  0.00    -0.394 OA
ATOM     10  H   UNL     1       3.982   8.889  60.528  1.00  0.00     0.210 HD
ENDBRANCH   8   9
ENDBRANCH   3   8
BRANCH   4  11
ATOM     11  O   UNL     1       1.519  11.802  60.310  1.00  0.00    -0.387 OA
ATOM     12  H   UNL     1       1.336  12.777  60.294  1.00  0.00     0.211 HD
ENDBRANCH   4  11
BRANCH   6  13
ATOM     13  O   UNL     1       3.173  13.905  59.192  1.00  0.00    -0.387 OA
ATOM     14  H   UNL     1       4.158  13.867  59.247  1.00  0.00     0.211 HD
ENDBRANCH   6  13
BRANCH   7  15
ATOM     15  O   UNL     1       3.011  12.696  56.071  1.00  0.00    -0.385 OA
ATOM     16  H   UNL     1       2.965  11.846  55.568  1.00  0.00     0.211 HD
ENDBRANCH   7  15
ENDBRANCH   1   2
BRANCH   1  17
ATOM     17  C   UNL     1       6.382  10.175  58.049  1.00  0.00     0.224 C 
ATOM     18  C   UNL     1       7.578  11.120  58.286  1.00  0.00     0.208 C 
ATOM     19  O   UNL     1       6.494   9.114  58.980  1.00  0.00    -0.337 OA
ATOM     20  C   UNL     1       7.782  10.989  59.772  1.00  0.00     0.180 C 
ATOM     21  C   UNL     1       7.320   9.545  60.047  1.00  0.00     0.179 C 
BRANCH  17  22
ATOM     22  C   UNL     1       6.379   9.549  56.624  1.00  0.00     0.225 C 
BRANCH  22  23
ATOM     23  O   UNL     1       7.311   8.501  56.545  1.00  0.00    -0.391 OA
ATOM     24  H   UNL     1       6.935   7.723  57.034  1.00  0.00     0.210 HD
ENDBRANCH  22  23
ENDBRANCH  17  22
BRANCH  18  25
ATOM     25  O   UNL     1       8.719  10.682  57.595  1.00  0.00    -0.385 OA
ATOM     26  H   UNL     1       8.411  10.332  56.718  1.00  0.00     0.211 HD
ENDBRANCH  18  25
BRANCH  20  27
ATOM     27  O   UNL     1       9.121  11.253  60.139  1.00  0.00    -0.387 OA
ATOM     28  H   UNL     1       9.692  11.211  59.321  1.00  0.00     0.211 HD
ENDBRANCH  20  27
BRANCH  21  29
ATOM     29  C   UNL     1       6.561   9.422  61.384  1.00  0.00     0.191 C 
BRANCH  29  30
ATOM     30  O   UNL     1       5.373  10.162  61.366  1.00  0.00    -0.394 OA
ATOM     31  H   UNL     1       5.218  10.465  62.297  1.00  0.00     0.210 HD
ENDBRANCH  29  30
ENDBRANCH  21  29
ENDBRANCH   1  17
TORSDOF 13
ENDMDL
MODEL 6
REMARK VINA RESULT:    -5.130      1.493      5.534
REMARK INTER + INTRA:          -9.349
REMARK INTER:                  -7.487
REMARK INTRA:                  -1.862
REMARK UNBOUND:                -1.520
REMARK SMILES OC[C@@H]1O[C@H](O[C@]2(CO)O[C@H](CO)[C@@H](O)[C@H]2O)[C@@H](O)[C@H](O)[C@H]1O
REMARK SMILES IDX 6 1 5 2 3 3 22 4 4 5 20 6 18 7 2 8 1 9 23 11 21 13 19 15
REMARK SMILES IDX 7 17 16 18 10 19 14 20 11 21 8 22 9 23 17 25 15 27 12 29
REMARK SMILES IDX 13 30
REMARK H PARENT 1 10 23 12 21 14 19 16 9 24 17 26 15 28 13 31
REMARK Flexibility Score: inf
ROOT
ATOM      1  O   UNL     1       4.813  11.018  59.214  1.00  0.00    -0.313 OA
ENDROOT
BRANCH   1   2
ATOM      2  C   UNL     1       6.070  11.042  59.878  1.00  0.00     0.285 C 
ATOM      3  C   UNL     1       6.333   8.649  59.923  1.00  0.00     0.178 C 
ATOM      4  C   UNL     1       6.411   8.790  58.371  1.00  0.00     0.177 C 
ATOM      5  O   UNL     1       6.205   9.867  60.669  1.00  0.00    -0.341 OA
ATOM      6  C   UNL     1       7.426   9.886  58.010  1.00  0.00     0.179 C 
ATOM      7  C   UNL     1       7.227  11.176  58.853  1.00  0.00     0.202 C 
BRANCH   3   8
ATOM      8  C   UNL     1       5.215   7.677  60.339  1.00  0.00     0.191 C 
BRANCH   8   9
ATOM      9  O   UNL     1       3.951   8.281  60.246  1.00  0.00    -0.394 OA
ATOM     10  H   UNL     1       4.090   9.260  60.335  1.00  0.00     0.210 HD
ENDBRANCH   8   9
ENDBRANCH   3   8
BRANCH   4  11
ATOM     11  O   UNL     1       6.832   7.568  57.812  1.00  0.00    -0.387 OA
ATOM     12  H   UNL     1       7.767   7.418  58.107  1.00  0.00     0.211 HD
ENDBRANCH   4  11
BRANCH   6  13
ATOM     13  O   UNL     1       7.377  10.159  56.628  1.00  0.00    -0.387 OA
ATOM     14  H   UNL     1       7.842  11.017  56.479  1.00  0.00     0.211 HD
ENDBRANCH   6  13
BRANCH   7  15
ATOM     15  O   UNL     1       8.424  11.515  59.508  1.00  0.00    -0.385 OA
ATOM     16  H   UNL     1       8.499  12.501  59.524  1.00  0.00     0.211 HD
ENDBRANCH   7  15
ENDBRANCH   1   2
BRANCH   1  17
ATOM     17  C   UNL     1       3.832  11.945  59.680  1.00  0.00     0.224 C 
ATOM     18  C   UNL     1       3.414  12.884  58.529  1.00  0.00     0.208 C 
ATOM     19  O   UNL     1       2.700  11.165  60.016  1.00  0.00    -0.337 OA
ATOM     20  C   UNL     1       2.414  12.037  57.789  1.00  0.00     0.180 C 
ATOM     21  C   UNL     1       1.810  11.175  58.915  1.00  0.00     0.179 C 
BRANCH  17  22
ATOM     22  C   UNL     1       4.269  12.715  60.960  1.00  0.00     0.225 C 
BRANCH  22  23
ATOM     23  O   UNL     1       3.144  13.168  61.670  1.00  0.00    -0.391 OA
ATOM     24  H   UNL     1       2.335  12.828  61.205  1.00  0.00     0.210 HD
ENDBRANCH  22  23
ENDBRANCH  17  22
BRANCH  18  25
ATOM     25  O   UNL     1       2.802  14.049  59.019  1.00  0.00    -0.385 OA
ATOM     26  H   UNL     1       1.851  13.826  59.196  1.00  0.00     0.211 HD
ENDBRANCH  18  25
BRANCH  20  27
ATOM     27  O   UNL     1       1.473  12.829  57.093  1.00  0.00    -0.387 OA
ATOM     28  H   UNL     1       1.964  13.522  56.568  1.00  0.00     0.211 HD
ENDBRANCH  20  27
BRANCH  21  29
ATOM     29  C   UNL     1       1.529   9.730  58.453  1.00  0.00     0.191 C 
BRANCH  29  30
ATOM     30  O   UNL     1       2.664   9.149  57.875  1.00  0.00    -0.394 OA
ATOM     31  H   UNL     1       3.424   9.752  58.084  1.00  0.00     0.210 HD
ENDBRANCH  29  30
ENDBRANCH  21  29
ENDBRANCH   1  17
TORSDOF 13
ENDMDL
MODEL 7
REMARK VINA RESULT:    -5.120      1.570      5.310
REMARK INTER + INTRA:          -9.334
REMARK INTER:                  -7.659
REMARK INTRA:                  -1.675
REMARK UNBOUND:                -1.520
REMARK SMILES OC[C@@H]1O[C@H](O[C@]2(CO)O[C@H](CO)[C@@H](O)[C@H]2O)[C@@H](O)[C@H](O)[C@H]1O
REMARK SMILES IDX 6 1 5 2 3 3 22 4 4 5 20 6 18 7 2 8 1 9 23 11 21 13 19 15
REMARK SMILES IDX 7 17 16 18 10 19 14 20 11 21 8 22 9 23 17 25 15 27 12 29
REMARK SMILES IDX 13 30
REMARK H PARENT 1 10 23 12 21 14 19 16 9 24 17 26 15 28 13 31
REMARK Flexibility Score: inf
ROOT
ATOM      1  O   UNL     1       5.165  11.391  59.439  1.00  0.00    -0.313 OA
ENDROOT
BRANCH   1   2
ATOM      2  C   UNL     1       5.446  10.294  60.300  1.00  0.00     0.285 C 
ATOM      3  C   UNL     1       6.230   8.845  58.545  1.00  0.00     0.178 C 
ATOM      4  C   UNL     1       7.383   9.887  58.418  1.00  0.00     0.177 C 
ATOM      5  O   UNL     1       5.268   9.079  59.582  1.00  0.00    -0.341 OA
ATOM      6  C   UNL     1       7.976  10.161  59.809  1.00  0.00     0.179 C 
ATOM      7  C   UNL     1       6.880  10.409  60.881  1.00  0.00     0.202 C 
BRANCH   3   8
ATOM      8  C   UNL     1       5.498   8.656  57.204  1.00  0.00     0.191 C 
BRANCH   8   9
ATOM      9  O   UNL     1       5.330   9.881  56.537  1.00  0.00    -0.394 OA
ATOM     10  H   UNL     1       5.924   9.862  55.742  1.00  0.00     0.210 HD
ENDBRANCH   8   9
ENDBRANCH   3   8
BRANCH   4  11
ATOM     11  O   UNL     1       8.390   9.371  57.579  1.00  0.00    -0.387 OA
ATOM     12  H   UNL     1       8.916  10.144  57.246  1.00  0.00     0.211 HD
ENDBRANCH   4  11
BRANCH   6  13
ATOM     13  O   UNL     1       8.890  11.233  59.746  1.00  0.00    -0.387 OA
ATOM     14  H   UNL     1       8.635  11.795  58.976  1.00  0.00     0.211 HD
ENDBRANCH   6  13
BRANCH   7  15
ATOM     15  O   UNL     1       7.045   9.520  61.957  1.00  0.00    -0.385 OA
ATOM     16  H   UNL     1       7.918   9.705  62.381  1.00  0.00     0.211 HD
ENDBRANCH   7  15
ENDBRANCH   1   2
BRANCH   1  17
ATOM     17  C   UNL     1       4.036  12.195  59.786  1.00  0.00     0.224 C 
ATOM     18  C   UNL     1       3.612  13.049  58.572  1.00  0.00     0.208 C 
ATOM     19  O   UNL     1       2.985  11.283  60.044  1.00  0.00    -0.337 OA
ATOM     20  C   UNL     1       2.800  12.065  57.774  1.00  0.00     0.180 C 
ATOM     21  C   UNL     1       2.207  11.156  58.868  1.00  0.00     0.179 C 
BRANCH  17  22
ATOM     22  C   UNL     1       4.252  13.041  61.074  1.00  0.00     0.225 C 
BRANCH  22  23
ATOM     23  O   UNL     1       3.043  13.183  61.777  1.00  0.00    -0.391 OA
ATOM     24  H   UNL     1       2.457  12.419  61.531  1.00  0.00     0.210 HD
ENDBRANCH  22  23
ENDBRANCH  17  22
BRANCH  18  25
ATOM     25  O   UNL     1       2.815  14.136  58.968  1.00  0.00    -0.385 OA
ATOM     26  H   UNL     1       2.458  14.550  58.140  1.00  0.00     0.211 HD
ENDBRANCH  18  25
BRANCH  20  27
ATOM     27  O   UNL     1       1.835  12.716  56.971  1.00  0.00    -0.387 OA
ATOM     28  H   UNL     1       1.175  13.169  57.568  1.00  0.00     0.211 HD
ENDBRANCH  20  27
BRANCH  21  29
ATOM     29  C   UNL     1       2.154   9.678  58.429  1.00  0.00     0.191 C 
BRANCH  29  30
ATOM     30  O   UNL     1       2.334   8.816  59.518  1.00  0.00    -0.394 OA
ATOM     31  H   UNL     1       1.426   8.578  59.839  1.00  0.00     0.210 HD
ENDBRANCH  29  30
ENDBRANCH  21  29
ENDBRANCH   1  17
TORSDOF 13
ENDMDL
MODEL 8
REMARK VINA RESULT:    -5.055      1.586      3.599
REMARK INTER + INTRA:          -9.235
REMARK INTER:                  -7.628
REMARK INTRA:                  -1.607
REMARK UNBOUND:                -1.520
REMARK SMILES OC[C@@H]1O[C@H](O[C@]2(CO)O[C@H](CO)[C@@H](O)[C@H]2O)[C@@H](O)[C@H](O)[C@H]1O
REMARK SMILES IDX 6 1 5 2 3 3 22 4 4 5 20 6 18 7 2 8 1 9 23 11 21 13 19 15
REMARK SMILES IDX 7 17 16 18 10 19 14 20 11 21 8 22 9 23 17 25 15 27 12 29
REMARK SMILES IDX 13 30
REMARK H PARENT 1 10 23 12 21 14 19 16 9 24 17 26 15 28 13 31
REMARK Flexibility Score: inf
ROOT
ATOM      1  O   UNL     1       5.059  11.048  58.944  1.00  0.00    -0.313 OA
ENDROOT
BRANCH   1   2
ATOM      2  C   UNL     1       4.624  11.232  60.286  1.00  0.00     0.285 C 
ATOM      3  C   UNL     1       4.175  13.584  60.043  1.00  0.00     0.178 C 
ATOM      4  C   UNL     1       3.065  13.107  59.056  1.00  0.00     0.177 C 
ATOM      5  O   UNL     1       4.929  12.558  60.700  1.00  0.00    -0.341 OA
ATOM      6  C   UNL     1       2.226  12.007  59.726  1.00  0.00     0.179 C 
ATOM      7  C   UNL     1       3.107  10.929  60.414  1.00  0.00     0.202 C 
BRANCH   3   8
ATOM      8  C   UNL     1       5.140  14.571  59.362  1.00  0.00     0.191 C 
BRANCH   8   9
ATOM      9  O   UNL     1       5.540  14.105  58.099  1.00  0.00    -0.394 OA
ATOM     10  H   UNL     1       4.912  13.379  57.846  1.00  0.00     0.210 HD
ENDBRANCH   8   9
ENDBRANCH   3   8
BRANCH   4  11
ATOM     11  O   UNL     1       2.229  14.193  58.731  1.00  0.00    -0.387 OA
ATOM     12  H   UNL     1       2.040  14.678  59.575  1.00  0.00     0.211 HD
ENDBRANCH   4  11
BRANCH   6  13
ATOM     13  O   UNL     1       1.341  11.433  58.792  1.00  0.00    -0.387 OA
ATOM     14  H   UNL     1       0.607  12.077  58.645  1.00  0.00     0.211 HD
ENDBRANCH   6  13
BRANCH   7  15
ATOM     15  O   UNL     1       2.747  10.801  61.767  1.00  0.00    -0.385 OA
ATOM     16  H   UNL     1       1.764  10.704  61.818  1.00  0.00     0.211 HD
ENDBRANCH   7  15
ENDBRANCH   1   2
BRANCH   1  17
ATOM     17  C   UNL     1       6.382  10.540  58.772  1.00  0.00     0.224 C 
ATOM     18  C   UNL     1       6.320   9.057  58.347  1.00  0.00     0.208 C 
ATOM     19  O   UNL     1       6.930  11.264  57.686  1.00  0.00    -0.337 OA
ATOM     20  C   UNL     1       6.058   9.173  56.869  1.00  0.00     0.180 C 
ATOM     21  C   UNL     1       6.760  10.496  56.508  1.00  0.00     0.179 C 
BRANCH  17  22
ATOM     22  C   UNL     1       7.301  10.776  60.006  1.00  0.00     0.225 C 
BRANCH  22  23
ATOM     23  O   UNL     1       8.594  11.140  59.593  1.00  0.00    -0.391 OA
ATOM     24  H   UNL     1       8.566  11.303  58.613  1.00  0.00     0.210 HD
ENDBRANCH  22  23
ENDBRANCH  17  22
BRANCH  18  25
ATOM     25  O   UNL     1       7.544   8.409  58.578  1.00  0.00    -0.385 OA
ATOM     26  H   UNL     1       7.403   7.785  59.338  1.00  0.00     0.211 HD
ENDBRANCH  18  25
BRANCH  20  27
ATOM     27  O   UNL     1       6.541   8.046  56.164  1.00  0.00    -0.387 OA
ATOM     28  H   UNL     1       7.335   7.683  56.648  1.00  0.00     0.211 HD
ENDBRANCH  20  27
BRANCH  21  29
ATOM     29  C   UNL     1       5.968  11.307  55.461  1.00  0.00     0.191 C 
BRANCH  29  30
ATOM     30  O   UNL     1       5.113  12.232  56.073  1.00  0.00    -0.394 OA
ATOM     31  H   UNL     1       4.296  11.731  56.329  1.00  0.00     0.210 HD
ENDBRANCH  29  30
ENDBRANCH  21  29
ENDBRANCH   1  17
TORSDOF 13
ENDMDL
MODEL 9
REMARK VINA RESULT:    -4.996      1.824      5.228
REMARK INTER + INTRA:          -9.145
REMARK INTER:                  -7.713
REMARK INTRA:                  -1.432
REMARK UNBOUND:                -1.520
REMARK SMILES OC[C@@H]1O[C@H](O[C@]2(CO)O[C@H](CO)[C@@H](O)[C@H]2O)[C@@H](O)[C@H](O)[C@H]1O
REMARK SMILES IDX 6 1 5 2 3 3 22 4 4 5 20 6 18 7 2 8 1 9 23 11 21 13 19 15
REMARK SMILES IDX 7 17 16 18 10 19 14 20 11 21 8 22 9 23 17 25 15 27 12 29
REMARK SMILES IDX 13 30
REMARK H PARENT 1 10 23 12 21 14 19 16 9 24 17 26 15 28 13 31
REMARK Flexibility Score: inf
ROOT
ATOM      1  O   UNL     1       5.162  10.930  58.379  1.00  0.00    -0.313 OA
ENDROOT
BRANCH   1   2
ATOM      2  C   UNL     1       4.416   9.719  58.388  1.00  0.00     0.285 C 
ATOM      3  C   UNL     1       6.345   8.283  58.267  1.00  0.00     0.178 C 
ATOM      4  C   UNL     1       6.665   8.862  59.680  1.00  0.00     0.177 C 
ATOM      5  O   UNL     1       5.126   8.726  57.656  1.00  0.00    -0.341 OA
ATOM      6  C   UNL     1       5.414   8.761  60.567  1.00  0.00     0.179 C 
ATOM      7  C   UNL     1       4.134   9.261  59.843  1.00  0.00     0.202 C 
BRANCH   3   8
ATOM      8  C   UNL     1       7.515   8.506  57.294  1.00  0.00     0.191 C 
BRANCH   8   9
ATOM      9  O   UNL     1       8.073   9.785  57.452  1.00  0.00    -0.394 OA
ATOM     10  H   UNL     1       9.055   9.664  57.543  1.00  0.00     0.210 HD
ENDBRANCH   8   9
ENDBRANCH   3   8
BRANCH   4  11
ATOM     11  O   UNL     1       7.708   8.119  60.265  1.00  0.00    -0.387 OA
ATOM     12  H   UNL     1       8.555   8.595  60.062  1.00  0.00     0.211 HD
ENDBRANCH   4  11
BRANCH   6  13
ATOM     13  O   UNL     1       5.622   9.444  61.781  1.00  0.00    -0.387 OA
ATOM     14  H   UNL     1       4.879   9.207  62.387  1.00  0.00     0.211 HD
ENDBRANCH   6  13
BRANCH   7  15
ATOM     15  O   UNL     1       3.147   8.261  59.859  1.00  0.00    -0.385 OA
ATOM     16  H   UNL     1       2.396   8.558  59.288  1.00  0.00     0.211 HD
ENDBRANCH   7  15
ENDBRANCH   1   2
BRANCH   1  17
ATOM     17  C   UNL     1       4.736  11.929  57.452  1.00  0.00     0.224 C 
ATOM     18  C   UNL     1       3.215  12.154  57.589  1.00  0.00     0.208 C 
ATOM     19  O   UNL     1       5.375  13.125  57.860  1.00  0.00    -0.337 OA
ATOM     20  C   UNL     1       3.148  13.076  58.776  1.00  0.00     0.180 C 
ATOM     21  C   UNL     1       4.471  13.858  58.668  1.00  0.00     0.179 C 
BRANCH  17  22
ATOM     22  C   UNL     1       5.174  11.639  55.987  1.00  0.00     0.225 C 
BRANCH  22  23
ATOM     23  O   UNL     1       5.433  12.840  55.304  1.00  0.00    -0.391 OA
ATOM     24  H   UNL     1       5.231  13.591  55.923  1.00  0.00     0.210 HD
ENDBRANCH  22  23
ENDBRANCH  17  22
BRANCH  18  25
ATOM     25  O   UNL     1       2.688  12.782  56.449  1.00  0.00    -0.385 OA
ATOM     26  H   UNL     1       1.802  13.151  56.704  1.00  0.00     0.211 HD
ENDBRANCH  18  25
BRANCH  20  27
ATOM     27  O   UNL     1       1.989  13.886  58.742  1.00  0.00    -0.387 OA
ATOM     28  H   UNL     1       1.265  13.429  59.256  1.00  0.00     0.211 HD
ENDBRANCH  20  27
BRANCH  21  29
ATOM     29  C   UNL     1       5.101  14.128  60.050  1.00  0.00     0.191 C 
BRANCH  29  30
ATOM     30  O   UNL     1       4.192  13.875  61.084  1.00  0.00    -0.394 OA
ATOM     31  H   UNL     1       3.809  12.977  60.905  1.00  0.00     0.210 HD
ENDBRANCH  29  30
ENDBRANCH  21  29
ENDBRANCH   1  17
TORSDOF 13
ENDMDL
