MODEL 1
REMARK VINA RESULT:    -5.272      0.000      0.000
REMARK INTER + INTRA:          -6.038
REMARK INTER:                  -5.888
REMARK INTRA:                  -0.150
REMARK UNBOUND:                -0.150
REMARK SMILES O=C([O-])C=Cc1ccccc1
REMARK SMILES IDX 4 1 5 2 2 3 1 4 3 5 6 6 7 7 11 8 8 9 10 10 9 11
REMARK H PARENT
REMARK Flexibility Score: inf
ROOT
ATOM      1  C   UNL     1      65.030 150.253   4.329  1.00  0.00     0.025 C 
ATOM      2  C   UNL     1      64.720 149.204   5.108  1.00  0.00     0.010 C 
ENDROOT
BRANCH   1   3
ATOM      3  C   UNL     1      64.180 151.438   4.102  1.00  0.00     0.064 C 
ATOM      4  O   UNL     1      63.368 151.494   3.142  1.00  0.00    -0.545 OA
ATOM      5  O   UNL     1      64.228 152.488   5.011  1.00  0.00    -0.545 OA
ENDBRANCH   1   3
BRANCH   2   6
ATOM      6  C   UNL     1      63.404 148.961   5.734  1.00  0.00    -0.026 A 
ATOM      7  C   UNL     1      63.020 149.725   6.846  1.00  0.00     0.008 A 
ATOM      8  C   UNL     1      62.575 147.909   5.303  1.00  0.00     0.008 A 
ATOM      9  C   UNL     1      61.800 149.479   7.485  1.00  0.00     0.001 A 
ATOM     10  C   UNL     1      61.357 147.665   5.945  1.00  0.00     0.001 A 
ATOM     11  C   UNL     1      60.967 148.451   7.031  1.00  0.00     0.000 A 
ENDBRANCH   2   6
TORSDOF 2
ENDMDL
MODEL 2
REMARK VINA RESULT:    -5.091      2.866      3.746
REMARK INTER + INTRA:          -5.836
REMARK INTER:                  -5.571
REMARK INTRA:                  -0.265
REMARK UNBOUND:                -0.150
REMARK SMILES O=C([O-])C=Cc1ccccc1
REMARK SMILES IDX 4 1 5 2 2 3 1 4 3 5 6 6 7 7 11 8 8 9 10 10 9 11
REMARK H PARENT
REMARK Flexibility Score: inf
ROOT
ATOM      1  C   UNL     1      65.303 150.761   5.459  1.00  0.00     0.025 C 
ATOM      2  C   UNL     1      64.641 151.884   5.138  1.00  0.00     0.010 C 
ENDROOT
BRANCH   1   3
ATOM      3  C   UNL     1      64.906 149.390   5.084  1.00  0.00     0.064 C 
ATOM      4  O   UNL     1      64.140 148.704   5.809  1.00  0.00    -0.545 OA
ATOM      5  O   UNL     1      65.333 148.872   3.868  1.00  0.00    -0.545 OA
ENDBRANCH   1   3
BRANCH   2   6
ATOM      6  C   UNL     1      63.305 151.941   4.510  1.00  0.00    -0.026 A 
ATOM      7  C   UNL     1      62.164 151.984   5.324  1.00  0.00     0.008 A 
ATOM      8  C   UNL     1      63.151 151.850   3.115  1.00  0.00     0.008 A 
ATOM      9  C   UNL     1      60.887 151.989   4.752  1.00  0.00     0.001 A 
ATOM     10  C   UNL     1      61.874 151.855   2.546  1.00  0.00     0.001 A 
ATOM     11  C   UNL     1      60.743 151.928   3.363  1.00  0.00     0.000 A 
ENDBRANCH   2   6
TORSDOF 2
ENDMDL
MODEL 3
REMARK VINA RESULT:    -4.930      5.512      6.965
REMARK INTER + INTRA:          -5.656
REMARK INTER:                  -5.406
REMARK INTRA:                  -0.251
REMARK UNBOUND:                -0.150
REMARK SMILES O=C([O-])C=Cc1ccccc1
REMARK SMILES IDX 4 1 5 2 2 3 1 4 3 5 6 6 7 7 11 8 8 9 10 10 9 11
REMARK H PARENT
REMARK Flexibility Score: inf
ROOT
ATOM      1  C   UNL     1      58.717 153.273   5.287  1.00  0.00     0.025 C 
ATOM      2  C   UNL     1      58.605 152.680   4.087  1.00  0.00     0.010 C 
ENDROOT
BRANCH   1   3
ATOM      3  C   UNL     1      59.415 154.544   5.558  1.00  0.00     0.064 C 
ATOM      4  O   UNL     1      60.507 154.577   6.184  1.00  0.00    -0.545 OA
ATOM      5  O   UNL     1      58.891 155.725   5.048  1.00  0.00    -0.545 OA
ENDBRANCH   1   3
BRANCH   2   6
ATOM      6  C   UNL     1      59.309 153.096   2.857  1.00  0.00    -0.026 A 
ATOM      7  C   UNL     1      58.658 153.937   1.942  1.00  0.00     0.008 A 
ATOM      8  C   UNL     1      60.579 152.583   2.535  1.00  0.00     0.008 A 
ATOM      9  C   UNL     1      59.287 154.303   0.747  1.00  0.00     0.001 A 
ATOM     10  C   UNL     1      61.205 152.951   1.340  1.00  0.00     0.001 A 
ATOM     11  C   UNL     1      60.562 153.814   0.449  1.00  0.00     0.000 A 
ENDBRANCH   2   6
TORSDOF 2
ENDMDL
MODEL 4
REMARK VINA RESULT:    -4.728     17.885     18.943
REMARK INTER + INTRA:          -5.431
REMARK INTER:                  -5.199
REMARK INTRA:                  -0.232
REMARK UNBOUND:                -0.150
REMARK SMILES O=C([O-])C=Cc1ccccc1
REMARK SMILES IDX 4 1 5 2 2 3 1 4 3 5 6 6 7 7 11 8 8 9 10 10 9 11
REMARK H PARENT
REMARK Flexibility Score: inf
ROOT
ATOM      1  C   UNL     1      71.970 139.809  -9.818  1.00  0.00     0.025 C 
ATOM      2  C   UNL     1      70.869 139.120  -9.476  1.00  0.00     0.010 C 
ENDROOT
BRANCH   1   3
ATOM      3  C   UNL     1      73.078 140.167  -8.911  1.00  0.00     0.064 C 
ATOM      4  O   UNL     1      74.170 139.540  -8.925  1.00  0.00    -0.545 OA
ATOM      5  O   UNL     1      72.937 141.264  -8.072  1.00  0.00    -0.545 OA
ENDBRANCH   1   3
BRANCH   2   6
ATOM      6  C   UNL     1      70.481 138.752  -8.099  1.00  0.00    -0.026 A 
ATOM      7  C   UNL     1      70.991 137.574  -7.533  1.00  0.00     0.008 A 
ATOM      8  C   UNL     1      69.532 139.504  -7.383  1.00  0.00     0.008 A 
ATOM      9  C   UNL     1      70.599 137.181  -6.249  1.00  0.00     0.001 A 
ATOM     10  C   UNL     1      69.142 139.107  -6.100  1.00  0.00     0.001 A 
ATOM     11  C   UNL     1      69.678 137.950  -5.532  1.00  0.00     0.000 A 
ENDBRANCH   2   6
TORSDOF 2
ENDMDL
MODEL 5
REMARK VINA RESULT:    -4.724      2.312      4.277
REMARK INTER + INTRA:          -5.427
REMARK INTER:                  -5.176
REMARK INTRA:                  -0.251
REMARK UNBOUND:                -0.150
REMARK SMILES O=C([O-])C=Cc1ccccc1
REMARK SMILES IDX 4 1 5 2 2 3 1 4 3 5 6 6 7 7 11 8 8 9 10 10 9 11
REMARK H PARENT
REMARK Flexibility Score: inf
ROOT
ATOM      1  C   UNL     1      60.880 149.066   7.022  1.00  0.00     0.025 C 
ATOM      2  C   UNL     1      61.381 149.009   5.777  1.00  0.00     0.010 C 
ENDROOT
BRANCH   1   3
ATOM      3  C   UNL     1      61.394 149.909   8.119  1.00  0.00     0.064 C 
ATOM      4  O   UNL     1      61.995 149.412   9.106  1.00  0.00    -0.545 OA
ATOM      5  O   UNL     1      61.272 151.289   8.024  1.00  0.00    -0.545 OA
ENDBRANCH   1   3
BRANCH   2   6
ATOM      6  C   UNL     1      62.641 149.637   5.331  1.00  0.00    -0.026 A 
ATOM      7  C   UNL     1      62.593 150.850   4.627  1.00  0.00     0.008 A 
ATOM      8  C   UNL     1      63.880 148.992   5.505  1.00  0.00     0.008 A 
ATOM      9  C   UNL     1      63.770 151.438   4.152  1.00  0.00     0.001 A 
ATOM     10  C   UNL     1      65.054 149.583   5.029  1.00  0.00     0.001 A 
ATOM     11  C   UNL     1      65.000 150.806   4.357  1.00  0.00     0.000 A 
ENDBRANCH   2   6
TORSDOF 2
ENDMDL
MODEL 6
REMARK VINA RESULT:    -4.723     17.936     18.976
REMARK INTER + INTRA:          -5.425
REMARK INTER:                  -5.182
REMARK INTRA:                  -0.243
REMARK UNBOUND:                -0.150
REMARK SMILES O=C([O-])C=Cc1ccccc1
REMARK SMILES IDX 4 1 5 2 2 3 1 4 3 5 6 6 7 7 11 8 8 9 10 10 9 11
REMARK H PARENT
REMARK Flexibility Score: inf
ROOT
ATOM      1  C   UNL     1      71.844 139.863  -9.807  1.00  0.00     0.025 C 
ATOM      2  C   UNL     1      70.778 139.108  -9.495  1.00  0.00     0.010 C 
ENDROOT
BRANCH   1   3
ATOM      3  C   UNL     1      72.959 140.195  -8.900  1.00  0.00     0.064 C 
ATOM      4  O   UNL     1      72.884 141.152  -8.085  1.00  0.00    -0.545 OA
ATOM      5  O   UNL     1      74.090 139.389  -8.896  1.00  0.00    -0.545 OA
ENDBRANCH   1   3
BRANCH   2   6
ATOM      6  C   UNL     1      70.437 138.624  -8.142  1.00  0.00    -0.026 A 
ATOM      7  C   UNL     1      69.566 139.378  -7.341  1.00  0.00     0.008 A 
ATOM      8  C   UNL     1      71.049 137.478  -7.601  1.00  0.00     0.008 A 
ATOM      9  C   UNL     1      69.268 138.964  -6.038  1.00  0.00     0.001 A 
ATOM     10  C   UNL     1      70.749 137.068  -6.299  1.00  0.00     0.001 A 
ATOM     11  C   UNL     1      69.857 137.807  -5.519  1.00  0.00     0.000 A 
ENDBRANCH   2   6
TORSDOF 2
ENDMDL
MODEL 7
REMARK VINA RESULT:    -4.690      2.419      3.892
REMARK INTER + INTRA:          -5.389
REMARK INTER:                  -5.124
REMARK INTRA:                  -0.265
REMARK UNBOUND:                -0.150
REMARK SMILES O=C([O-])C=Cc1ccccc1
REMARK SMILES IDX 4 1 5 2 2 3 1 4 3 5 6 6 7 7 11 8 8 9 10 10 9 11
REMARK H PARENT
REMARK Flexibility Score: inf
ROOT
ATOM      1  C   UNL     1      60.863 152.525   5.503  1.00  0.00     0.025 C 
ATOM      2  C   UNL     1      61.376 151.729   4.551  1.00  0.00     0.010 C 
ENDROOT
BRANCH   1   3
ATOM      3  C   UNL     1      61.534 152.903   6.762  1.00  0.00     0.064 C 
ATOM      4  O   UNL     1      61.354 152.255   7.826  1.00  0.00    -0.545 OA
ATOM      5  O   UNL     1      62.438 153.957   6.756  1.00  0.00    -0.545 OA
ENDBRANCH   1   3
BRANCH   2   6
ATOM      6  C   UNL     1      62.622 150.945   4.669  1.00  0.00    -0.026 A 
ATOM      7  C   UNL     1      63.776 151.382   4.000  1.00  0.00     0.008 A 
ATOM      8  C   UNL     1      62.649 149.715   5.352  1.00  0.00     0.008 A 
ATOM      9  C   UNL     1      64.953 150.629   4.057  1.00  0.00     0.001 A 
ATOM     10  C   UNL     1      63.827 148.966   5.407  1.00  0.00     0.001 A 
ATOM     11  C   UNL     1      64.980 149.424   4.764  1.00  0.00     0.000 A 
ENDBRANCH   2   6
TORSDOF 2
ENDMDL
MODEL 8
REMARK VINA RESULT:    -4.680      2.603      4.433
REMARK INTER + INTRA:          -5.377
REMARK INTER:                  -5.236
REMARK INTRA:                  -0.141
REMARK UNBOUND:                -0.150
REMARK SMILES O=C([O-])C=Cc1ccccc1
REMARK SMILES IDX 4 1 5 2 2 3 1 4 3 5 6 6 7 7 11 8 8 9 10 10 9 11
REMARK H PARENT
REMARK Flexibility Score: inf
ROOT
ATOM      1  C   UNL     1      61.526 149.011   7.743  1.00  0.00     0.025 C 
ATOM      2  C   UNL     1      62.665 149.695   7.550  1.00  0.00     0.010 C 
ENDROOT
BRANCH   1   3
ATOM      3  C   UNL     1      60.786 148.262   6.708  1.00  0.00     0.064 C 
ATOM      4  O   UNL     1      59.584 148.522   6.439  1.00  0.00    -0.545 OA
ATOM      5  O   UNL     1      61.453 147.296   5.967  1.00  0.00    -0.545 OA
ENDBRANCH   1   3
BRANCH   2   6
ATOM      6  C   UNL     1      63.287 149.973   6.240  1.00  0.00    -0.026 A 
ATOM      7  C   UNL     1      64.358 149.178   5.804  1.00  0.00     0.008 A 
ATOM      8  C   UNL     1      62.896 151.082   5.468  1.00  0.00     0.008 A 
ATOM      9  C   UNL     1      64.994 149.454   4.589  1.00  0.00     0.001 A 
ATOM     10  C   UNL     1      63.534 151.355   4.254  1.00  0.00     0.001 A 
ATOM     11  C   UNL     1      64.579 150.540   3.813  1.00  0.00     0.000 A 
ENDBRANCH   2   6
TORSDOF 2
ENDMDL
MODEL 9
REMARK VINA RESULT:    -4.590      3.191      4.453
REMARK INTER + INTRA:          -5.277
REMARK INTER:                  -5.051
REMARK INTRA:                  -0.226
REMARK UNBOUND:                -0.150
REMARK SMILES O=C([O-])C=Cc1ccccc1
REMARK SMILES IDX 4 1 5 2 2 3 1 4 3 5 6 6 7 7 11 8 8 9 10 10 9 11
REMARK H PARENT
REMARK Flexibility Score: inf
ROOT
ATOM      1  C   UNL     1      63.143 149.825   6.130  1.00  0.00     0.025 C 
ATOM      2  C   UNL     1      63.143 151.038   5.553  1.00  0.00     0.010 C 
ENDROOT
BRANCH   1   3
ATOM      3  C   UNL     1      62.286 148.688   5.742  1.00  0.00     0.064 C 
ATOM      4  O   UNL     1      62.758 147.672   5.169  1.00  0.00    -0.545 OA
ATOM      5  O   UNL     1      60.939 148.711   6.080  1.00  0.00    -0.545 OA
ENDBRANCH   1   3
BRANCH   2   6
ATOM      6  C   UNL     1      62.166 151.511   4.551  1.00  0.00    -0.026 A 
ATOM      7  C   UNL     1      62.519 151.511   3.193  1.00  0.00     0.008 A 
ATOM      8  C   UNL     1      60.930 152.059   4.939  1.00  0.00     0.008 A 
ATOM      9  C   UNL     1      61.629 152.000   2.231  1.00  0.00     0.001 A 
ATOM     10  C   UNL     1      60.042 152.547   3.975  1.00  0.00     0.001 A 
ATOM     11  C   UNL     1      60.389 152.514   2.623  1.00  0.00     0.000 A 
ENDBRANCH   2   6
TORSDOF 2
ENDMDL
