MODEL 1
REMARK VINA RESULT:    -5.029      0.000      0.000
REMARK INTER + INTRA:          -5.500
REMARK INTER:                  -5.470
REMARK INTRA:                  -0.030
REMARK UNBOUND:                -0.030
REMARK SMILES O=C([O-])c1ccc(O)cc1
REMARK SMILES IDX 4 1 5 2 10 3 6 4 9 5 7 6 2 7 1 8 3 9 8 10
REMARK H PARENT 8 11
REMARK Flexibility Score: inf
ROOT
ATOM      1  C   UNL     1      12.471   5.897 -11.345  1.00  0.00    -0.003 A 
ATOM      2  C   UNL     1      13.134   5.388 -12.477  1.00  0.00     0.014 A 
ATOM      3  C   UNL     1      11.066   5.971 -11.353  1.00  0.00     0.014 A 
ATOM      4  C   UNL     1      12.405   4.964 -13.593  1.00  0.00     0.047 A 
ATOM      5  C   UNL     1      10.341   5.545 -12.472  1.00  0.00     0.047 A 
ATOM      6  C   UNL     1      11.007   5.042 -13.593  1.00  0.00     0.115 A 
ENDROOT
BRANCH   1   7
ATOM      7  C   UNL     1      13.243   6.345 -10.166  1.00  0.00     0.071 C 
ATOM      8  O   UNL     1      14.212   7.140 -10.298  1.00  0.00    -0.545 OA
ATOM      9  O   UNL     1      12.912   5.894  -8.893  1.00  0.00    -0.545 OA
ENDBRANCH   1   7
BRANCH   6  10
ATOM     10  O   UNL     1      10.271   4.621 -14.698  1.00  0.00    -0.508 OA
ATOM     11  H   UNL     1      10.697   4.529 -15.613  1.00  0.00     0.293 HD
ENDBRANCH   6  10
TORSDOF 2
ENDMDL
MODEL 2
REMARK VINA RESULT:    -5.021      1.701      4.468
REMARK INTER + INTRA:          -5.491
REMARK INTER:                  -5.455
REMARK INTRA:                  -0.036
REMARK UNBOUND:                -0.030
REMARK SMILES O=C([O-])c1ccc(O)cc1
REMARK SMILES IDX 4 1 5 2 10 3 6 4 9 5 7 6 2 7 1 8 3 9 8 10
REMARK H PARENT 8 11
REMARK Flexibility Score: inf
ROOT
ATOM      1  C   UNL     1      10.852   6.214 -11.367  1.00  0.00    -0.003 A 
ATOM      2  C   UNL     1      10.636   6.116  -9.980  1.00  0.00     0.014 A 
ATOM      3  C   UNL     1      12.173   6.234 -11.851  1.00  0.00     0.014 A 
ATOM      4  C   UNL     1      11.718   6.042  -9.098  1.00  0.00     0.047 A 
ATOM      5  C   UNL     1      13.253   6.159 -10.966  1.00  0.00     0.047 A 
ATOM      6  C   UNL     1      13.030   6.063  -9.589  1.00  0.00     0.115 A 
ENDROOT
BRANCH   1   7
ATOM      7  C   UNL     1       9.705   6.292 -12.298  1.00  0.00     0.071 C 
ATOM      8  O   UNL     1       9.894   6.366 -13.542  1.00  0.00    -0.545 OA
ATOM      9  O   UNL     1       8.402   6.287 -11.814  1.00  0.00    -0.545 OA
ENDBRANCH   1   7
BRANCH   6  10
ATOM     10  O   UNL     1      14.116   5.989  -8.720  1.00  0.00    -0.508 OA
ATOM     11  H   UNL     1      15.026   5.675  -9.036  1.00  0.00     0.293 HD
ENDBRANCH   6  10
TORSDOF 2
ENDMDL
MODEL 3
REMARK VINA RESULT:    -5.012      0.040      1.532
REMARK INTER + INTRA:          -5.481
REMARK INTER:                  -5.451
REMARK INTRA:                  -0.030
REMARK UNBOUND:                -0.030
REMARK SMILES O=C([O-])c1ccc(O)cc1
REMARK SMILES IDX 4 1 5 2 10 3 6 4 9 5 7 6 2 7 1 8 3 9 8 10
REMARK H PARENT 8 11
REMARK Flexibility Score: inf
ROOT
ATOM      1  C   UNL     1      12.458   5.905 -11.376  1.00  0.00    -0.003 A 
ATOM      2  C   UNL     1      11.054   5.991 -11.381  1.00  0.00     0.014 A 
ATOM      3  C   UNL     1      13.113   5.376 -12.504  1.00  0.00     0.014 A 
ATOM      4  C   UNL     1      10.322   5.557 -12.491  1.00  0.00     0.047 A 
ATOM      5  C   UNL     1      12.377   4.943 -13.612  1.00  0.00     0.047 A 
ATOM      6  C   UNL     1      10.982   5.031 -13.609  1.00  0.00     0.115 A 
ENDROOT
BRANCH   1   7
ATOM      7  C   UNL     1      13.230   6.365 -10.202  1.00  0.00     0.071 C 
ATOM      8  O   UNL     1      14.205   7.151 -10.344  1.00  0.00    -0.545 OA
ATOM      9  O   UNL     1      12.892   5.936  -8.923  1.00  0.00    -0.545 OA
ENDBRANCH   1   7
BRANCH   6  10
ATOM     10  O   UNL     1      10.263   4.596 -14.720  1.00  0.00    -0.508 OA
ATOM     11  H   UNL     1       9.600   3.832 -14.655  1.00  0.00     0.293 HD
ENDBRANCH   6  10
TORSDOF 2
ENDMDL
MODEL 4
REMARK VINA RESULT:    -4.983      3.612      4.962
REMARK INTER + INTRA:          -5.450
REMARK INTER:                  -5.417
REMARK INTRA:                  -0.033
REMARK UNBOUND:                -0.030
REMARK SMILES O=C([O-])c1ccc(O)cc1
REMARK SMILES IDX 4 1 5 2 10 3 6 4 9 5 7 6 2 7 1 8 3 9 8 10
REMARK H PARENT 8 11
REMARK Flexibility Score: inf
ROOT
ATOM      1  C   UNL     1      11.665   6.440 -15.248  1.00  0.00    -0.003 A 
ATOM      2  C   UNL     1      10.373   6.868 -15.602  1.00  0.00     0.014 A 
ATOM      3  C   UNL     1      12.777   7.153 -15.735  1.00  0.00     0.014 A 
ATOM      4  C   UNL     1      10.197   7.984 -16.426  1.00  0.00     0.047 A 
ATOM      5  C   UNL     1      12.597   8.268 -16.559  1.00  0.00     0.047 A 
ATOM      6  C   UNL     1      11.309   8.687 -16.907  1.00  0.00     0.115 A 
ENDROOT
BRANCH   1   7
ATOM      7  C   UNL     1      11.848   5.259 -14.375  1.00  0.00     0.071 C 
ATOM      8  O   UNL     1      12.828   5.193 -13.585  1.00  0.00    -0.545 OA
ATOM      9  O   UNL     1      10.943   4.206 -14.416  1.00  0.00    -0.545 OA
ENDBRANCH   1   7
BRANCH   6  10
ATOM     10  O   UNL     1      11.147   9.800 -17.728  1.00  0.00    -0.508 OA
ATOM     11  H   UNL     1      10.247  10.257 -17.828  1.00  0.00     0.293 HD
ENDBRANCH   6  10
TORSDOF 2
ENDMDL
MODEL 5
REMARK VINA RESULT:    -4.978      3.770      6.115
REMARK INTER + INTRA:          -5.445
REMARK INTER:                  -5.414
REMARK INTRA:                  -0.031
REMARK UNBOUND:                -0.030
REMARK SMILES O=C([O-])c1ccc(O)cc1
REMARK SMILES IDX 4 1 5 2 10 3 6 4 9 5 7 6 2 7 1 8 3 9 8 10
REMARK H PARENT 8 11
REMARK Flexibility Score: inf
ROOT
ATOM      1  C   UNL     1      10.248   7.486 -16.418  1.00  0.00    -0.003 A 
ATOM      2  C   UNL     1       9.776   6.280 -15.868  1.00  0.00     0.014 A 
ATOM      3  C   UNL     1      11.607   7.820 -16.264  1.00  0.00     0.014 A 
ATOM      4  C   UNL     1      10.644   5.429 -15.178  1.00  0.00     0.047 A 
ATOM      5  C   UNL     1      12.472   6.965 -15.573  1.00  0.00     0.047 A 
ATOM      6  C   UNL     1      11.995   5.770 -15.029  1.00  0.00     0.115 A 
ENDROOT
BRANCH   1   7
ATOM      7  C   UNL     1       9.328   8.385 -17.148  1.00  0.00     0.071 C 
ATOM      8  O   UNL     1       8.185   8.645 -16.686  1.00  0.00    -0.545 OA
ATOM      9  O   UNL     1       9.711   8.955 -18.356  1.00  0.00    -0.545 OA
ENDBRANCH   1   7
BRANCH   6  10
ATOM     10  O   UNL     1      12.869   4.929 -14.344  1.00  0.00    -0.508 OA
ATOM     11  H   UNL     1      13.627   5.298 -13.781  1.00  0.00     0.293 HD
ENDBRANCH   6  10
TORSDOF 2
ENDMDL
MODEL 6
REMARK VINA RESULT:    -4.968      3.609      4.725
REMARK INTER + INTRA:          -5.434
REMARK INTER:                  -5.401
REMARK INTRA:                  -0.033
REMARK UNBOUND:                -0.030
REMARK SMILES O=C([O-])c1ccc(O)cc1
REMARK SMILES IDX 4 1 5 2 10 3 6 4 9 5 7 6 2 7 1 8 3 9 8 10
REMARK H PARENT 8 11
REMARK Flexibility Score: inf
ROOT
ATOM      1  C   UNL     1      11.743   6.440 -15.217  1.00  0.00    -0.003 A 
ATOM      2  C   UNL     1      12.867   7.144 -15.688  1.00  0.00     0.014 A 
ATOM      3  C   UNL     1      10.460   6.860 -15.613  1.00  0.00     0.014 A 
ATOM      4  C   UNL     1      12.708   8.244 -16.536  1.00  0.00     0.047 A 
ATOM      5  C   UNL     1      10.306   7.961 -16.461  1.00  0.00     0.047 A 
ATOM      6  C   UNL     1      11.427   8.656 -16.925  1.00  0.00     0.115 A 
ENDROOT
BRANCH   1   7
ATOM      7  C   UNL     1      11.913   5.275 -14.320  1.00  0.00     0.071 C 
ATOM      8  O   UNL     1      12.859   5.239 -13.489  1.00  0.00    -0.545 OA
ATOM      9  O   UNL     1      11.031   4.203 -14.383  1.00  0.00    -0.545 OA
ENDBRANCH   1   7
BRANCH   6  10
ATOM     10  O   UNL     1      11.257   9.750 -17.769  1.00  0.00    -0.508 OA
ATOM     11  H   UNL     1      10.725   9.678 -18.629  1.00  0.00     0.293 HD
ENDBRANCH   6  10
TORSDOF 2
ENDMDL
MODEL 7
REMARK VINA RESULT:    -4.962      1.598      4.179
REMARK INTER + INTRA:          -5.427
REMARK INTER:                  -5.395
REMARK INTRA:                  -0.032
REMARK UNBOUND:                -0.030
REMARK SMILES O=C([O-])c1ccc(O)cc1
REMARK SMILES IDX 4 1 5 2 10 3 6 4 9 5 7 6 2 7 1 8 3 9 8 10
REMARK H PARENT 8 11
REMARK Flexibility Score: inf
ROOT
ATOM      1  C   UNL     1      11.114   5.588 -12.993  1.00  0.00    -0.003 A 
ATOM      2  C   UNL     1      12.293   5.957 -12.320  1.00  0.00     0.014 A 
ATOM      3  C   UNL     1       9.900   5.573 -12.281  1.00  0.00     0.014 A 
ATOM      4  C   UNL     1      12.258   6.302 -10.966  1.00  0.00     0.047 A 
ATOM      5  C   UNL     1       9.869   5.918 -10.926  1.00  0.00     0.047 A 
ATOM      6  C   UNL     1      11.045   6.282 -10.265  1.00  0.00     0.115 A 
ENDROOT
BRANCH   1   7
ATOM      7  C   UNL     1      11.153   5.225 -14.426  1.00  0.00     0.071 C 
ATOM      8  O   UNL     1      12.128   4.578 -14.897  1.00  0.00    -0.545 OA
ATOM      9  O   UNL     1      10.116   5.593 -15.275  1.00  0.00    -0.545 OA
ENDBRANCH   1   7
BRANCH   6  10
ATOM     10  O   UNL     1      10.998   6.624  -8.916  1.00  0.00    -0.508 OA
ATOM     11  H   UNL     1      11.789   7.053  -8.450  1.00  0.00     0.293 HD
ENDBRANCH   6  10
TORSDOF 2
ENDMDL
MODEL 8
REMARK VINA RESULT:    -4.949      1.561      2.385
REMARK INTER + INTRA:          -5.413
REMARK INTER:                  -5.378
REMARK INTRA:                  -0.035
REMARK UNBOUND:                -0.030
REMARK SMILES O=C([O-])c1ccc(O)cc1
REMARK SMILES IDX 4 1 5 2 10 3 6 4 9 5 7 6 2 7 1 8 3 9 8 10
REMARK H PARENT 8 11
REMARK Flexibility Score: inf
ROOT
ATOM      1  C   UNL     1      11.893   6.361 -10.727  1.00  0.00    -0.003 A 
ATOM      2  C   UNL     1      10.627   6.008 -10.224  1.00  0.00     0.014 A 
ATOM      3  C   UNL     1      12.010   6.736 -12.078  1.00  0.00     0.014 A 
ATOM      4  C   UNL     1       9.504   6.029 -11.056  1.00  0.00     0.047 A 
ATOM      5  C   UNL     1      10.884   6.755 -12.907  1.00  0.00     0.047 A 
ATOM      6  C   UNL     1       9.630   6.402 -12.400  1.00  0.00     0.115 A 
ENDROOT
BRANCH   1   7
ATOM      7  C   UNL     1      13.080   6.338  -9.844  1.00  0.00     0.071 C 
ATOM      8  O   UNL     1      13.083   5.647  -8.790  1.00  0.00    -0.545 OA
ATOM      9  O   UNL     1      14.210   7.081 -10.164  1.00  0.00    -0.545 OA
ENDBRANCH   1   7
BRANCH   6  10
ATOM     10  O   UNL     1       8.517   6.428 -13.238  1.00  0.00    -0.508 OA
ATOM     11  H   UNL     1       8.179   7.293 -13.643  1.00  0.00     0.293 HD
ENDBRANCH   6  10
TORSDOF 2
ENDMDL
MODEL 9
REMARK VINA RESULT:    -4.916      4.366      6.473
REMARK INTER + INTRA:          -5.377
REMARK INTER:                  -5.342
REMARK INTRA:                  -0.036
REMARK UNBOUND:                -0.030
REMARK SMILES O=C([O-])c1ccc(O)cc1
REMARK SMILES IDX 4 1 5 2 10 3 6 4 9 5 7 6 2 7 1 8 3 9 8 10
REMARK H PARENT 8 11
REMARK Flexibility Score: inf
ROOT
ATOM      1  C   UNL     1      10.774   8.354 -16.462  1.00  0.00    -0.003 A 
ATOM      2  C   UNL     1      10.613   7.892 -15.143  1.00  0.00     0.014 A 
ATOM      3  C   UNL     1      12.075   8.533 -16.968  1.00  0.00     0.014 A 
ATOM      4  C   UNL     1      11.729   7.616 -14.349  1.00  0.00     0.047 A 
ATOM      5  C   UNL     1      13.189   8.255 -16.169  1.00  0.00     0.047 A 
ATOM      6  C   UNL     1      13.021   7.797 -14.860  1.00  0.00     0.115 A 
ENDROOT
BRANCH   1   7
ATOM      7  C   UNL     1       9.591   8.645 -17.302  1.00  0.00     0.071 C 
ATOM      8  O   UNL     1       9.725   8.923 -18.524  1.00  0.00    -0.545 OA
ATOM      9  O   UNL     1       8.314   8.619 -16.753  1.00  0.00    -0.545 OA
ENDBRANCH   1   7
BRANCH   6  10
ATOM     10  O   UNL     1      14.140   7.524 -14.077  1.00  0.00    -0.508 OA
ATOM     11  H   UNL     1      14.797   6.794 -14.329  1.00  0.00     0.293 HD
ENDBRANCH   6  10
TORSDOF 2
ENDMDL
