MODEL 1
REMARK VINA RESULT:    -1.021      0.000      0.000
REMARK INTER + INTRA:          -1.340
REMARK INTER:                  -1.230
REMARK INTRA:                  -0.110
REMARK UNBOUND:                -0.110
REMARK SMILES NC(=O)C[C@H]([NH3+])C(=O)[O-]
REMARK SMILES IDX 4 1 5 2 6 3 7 7 8 8 9 9 2 10 3 11 1 12
REMARK H PARENT 6 4 6 5 6 6 1 13 1 14
REMARK Flexibility Score: inf
ROOT
ATOM      1  C   UNL     1       2.340  -0.201  -7.000  1.00  0.00     0.171 C 
ENDROOT
BRANCH   1   2
ATOM      2  C   UNL     1       2.019   0.007  -8.493  1.00  0.00     0.237 C 
BRANCH   2   3
ATOM      3  N   UNL     1       1.235  -1.112  -9.036  1.00  0.00    -0.350 N 
ATOM      4  H   UNL     1       0.550  -0.772  -9.749  1.00  0.00     0.345 HD
ATOM      5  H   UNL     1       0.717  -1.590  -8.263  1.00  0.00     0.345 HD
ATOM      6  H   UNL     1       1.872  -1.814  -9.477  1.00  0.00     0.345 HD
ENDBRANCH   2   3
BRANCH   2   7
ATOM      7  C   UNL     1       3.300   0.162  -9.268  1.00  0.00     0.100 C 
ATOM      8  O   UNL     1       3.303   0.020 -10.520  1.00  0.00    -0.544 OA
ATOM      9  O   UNL     1       4.483   0.479  -8.612  1.00  0.00    -0.544 OA
ENDBRANCH   2   7
ENDBRANCH   1   2
BRANCH   1  10
ATOM     10  C   UNL     1       1.796   0.914  -6.154  1.00  0.00     0.223 C 
ATOM     11  O   UNL     1       0.644   1.368  -6.384  1.00  0.00    -0.275 OA
ATOM     12  N   UNL     1       2.560   1.439  -5.068  1.00  0.00    -0.369 N 
ATOM     13  H   UNL     1       2.174   2.207  -4.476  1.00  0.00     0.159 HD
ATOM     14  H   UNL     1       3.508   1.059  -4.848  1.00  0.00     0.159 HD
ENDBRANCH   1  10
TORSDOF 4
ENDMDL
MODEL 2
REMARK VINA RESULT:    -0.876      2.124      2.379
REMARK INTER + INTRA:          -1.165
REMARK INTER:                  -1.067
REMARK INTRA:                  -0.098
REMARK UNBOUND:                -0.110
REMARK SMILES NC(=O)C[C@H]([NH3+])C(=O)[O-]
REMARK SMILES IDX 4 1 5 2 6 3 7 7 8 8 9 9 2 10 3 11 1 12
REMARK H PARENT 6 4 6 5 6 6 1 13 1 14
REMARK Flexibility Score: inf
ROOT
ATOM      1  C   UNL     1       1.746   0.235  -7.577  1.00  0.00     0.171 C 
ENDROOT
BRANCH   1   2
ATOM      2  C   UNL     1       2.535  -0.217  -8.821  1.00  0.00     0.237 C 
BRANCH   2   3
ATOM      3  N   UNL     1       2.982   0.933  -9.622  1.00  0.00    -0.350 N 
ATOM      4  H   UNL     1       2.488   0.957 -10.543  1.00  0.00     0.345 HD
ATOM      5  H   UNL     1       4.013   0.871  -9.787  1.00  0.00     0.345 HD
ATOM      6  H   UNL     1       2.793   1.823  -9.106  1.00  0.00     0.345 HD
ENDBRANCH   2   3
BRANCH   2   7
ATOM      7  C   UNL     1       1.679  -1.127  -9.661  1.00  0.00     0.100 C 
ATOM      8  O   UNL     1       0.465  -1.297  -9.372  1.00  0.00    -0.544 OA
ATOM      9  O   UNL     1       2.216  -1.771 -10.768  1.00  0.00    -0.544 OA
ENDBRANCH   2   7
ENDBRANCH   1   2
BRANCH   1  10
ATOM     10  C   UNL     1       2.615   0.281  -6.354  1.00  0.00     0.223 C 
ATOM     11  O   UNL     1       2.247   0.949  -5.351  1.00  0.00    -0.275 OA
ATOM     12  N   UNL     1       3.837  -0.455  -6.304  1.00  0.00    -0.369 N 
ATOM     13  H   UNL     1       4.432  -0.428  -5.448  1.00  0.00     0.159 HD
ATOM     14  H   UNL     1       4.146  -1.033  -7.118  1.00  0.00     0.159 HD
ENDBRANCH   1  10
TORSDOF 4
ENDMDL
MODEL 3
REMARK VINA RESULT:    -0.793      1.765      3.987
REMARK INTER + INTRA:          -1.066
REMARK INTER:                  -0.974
REMARK INTRA:                  -0.092
REMARK UNBOUND:                -0.110
REMARK SMILES NC(=O)C[C@H]([NH3+])C(=O)[O-]
REMARK SMILES IDX 4 1 5 2 6 3 7 7 8 8 9 9 2 10 3 11 1 12
REMARK H PARENT 6 4 6 5 6 6 1 13 1 14
REMARK Flexibility Score: inf
ROOT
ATOM      1  C   UNL     1       1.856  -0.001  -8.216  1.00  0.00     0.171 C 
ENDROOT
BRANCH   1   2
ATOM      2  C   UNL     1       2.549   0.231  -6.859  1.00  0.00     0.237 C 
BRANCH   2   3
ATOM      3  N   UNL     1       2.776  -1.035  -6.147  1.00  0.00    -0.350 N 
ATOM      4  H   UNL     1       3.711  -1.435  -6.391  1.00  0.00     0.345 HD
ATOM      5  H   UNL     1       2.031  -1.723  -6.402  1.00  0.00     0.345 HD
ATOM      6  H   UNL     1       2.727  -0.878  -5.114  1.00  0.00     0.345 HD
ENDBRANCH   2   3
BRANCH   2   7
ATOM      7  C   UNL     1       1.711   1.154  -6.015  1.00  0.00     0.100 C 
ATOM      8  O   UNL     1       2.216   1.728  -5.014  1.00  0.00    -0.544 OA
ATOM      9  O   UNL     1       0.382   1.392  -6.344  1.00  0.00    -0.544 OA
ENDBRANCH   2   7
ENDBRANCH   1   2
BRANCH   1  10
ATOM     10  C   UNL     1       2.844  -0.033  -9.346  1.00  0.00     0.223 C 
ATOM     11  O   UNL     1       2.529  -0.581 -10.436  1.00  0.00    -0.275 OA
ATOM     12  N   UNL     1       4.123   0.585  -9.209  1.00  0.00    -0.369 N 
ATOM     13  H   UNL     1       4.803   0.570 -10.001  1.00  0.00     0.159 HD
ATOM     14  H   UNL     1       4.392   1.064  -8.321  1.00  0.00     0.159 HD
ENDBRANCH   1  10
TORSDOF 4
ENDMDL
MODEL 4
REMARK VINA RESULT:    -0.774      2.033      2.310
REMARK INTER + INTRA:          -1.043
REMARK INTER:                  -0.951
REMARK INTRA:                  -0.092
REMARK UNBOUND:                -0.110
REMARK SMILES NC(=O)C[C@H]([NH3+])C(=O)[O-]
REMARK SMILES IDX 4 1 5 2 6 3 7 7 8 8 9 9 2 10 3 11 1 12
REMARK H PARENT 6 4 6 5 6 6 1 13 1 14
REMARK Flexibility Score: inf
ROOT
ATOM      1  C   UNL     1       1.645   0.129  -7.624  1.00  0.00     0.171 C 
ENDROOT
BRANCH   1   2
ATOM      2  C   UNL     1       2.515  -0.231  -8.845  1.00  0.00     0.237 C 
BRANCH   2   3
ATOM      3  N   UNL     1       2.954   0.972  -9.566  1.00  0.00    -0.350 N 
ATOM      4  H   UNL     1       2.303   1.189 -10.356  1.00  0.00     0.345 HD
ATOM      5  H   UNL     1       3.917   0.826  -9.946  1.00  0.00     0.345 HD
ATOM      6  H   UNL     1       2.987   1.789  -8.913  1.00  0.00     0.345 HD
ENDBRANCH   2   3
BRANCH   2   7
ATOM      7  C   UNL     1       1.740  -1.132  -9.769  1.00  0.00     0.100 C 
ATOM      8  O   UNL     1       2.284  -1.591 -10.808  1.00  0.00    -0.544 OA
ATOM      9  O   UNL     1       0.427  -1.478  -9.473  1.00  0.00    -0.544 OA
ENDBRANCH   2   7
ENDBRANCH   1   2
BRANCH   1  10
ATOM     10  C   UNL     1       2.473   0.302  -6.384  1.00  0.00     0.223 C 
ATOM     11  O   UNL     1       2.070   1.062  -5.463  1.00  0.00    -0.275 OA
ATOM     12  N   UNL     1       3.697  -0.416  -6.223  1.00  0.00    -0.369 N 
ATOM     13  H   UNL     1       4.263  -0.301  -5.354  1.00  0.00     0.159 HD
ATOM     14  H   UNL     1       4.035  -1.069  -6.965  1.00  0.00     0.159 HD
ENDBRANCH   1  10
TORSDOF 4
ENDMDL
MODEL 5
REMARK VINA RESULT:    -0.757      5.554      6.390
REMARK INTER + INTRA:          -1.022
REMARK INTER:                  -0.772
REMARK INTRA:                  -0.250
REMARK UNBOUND:                -0.110
REMARK SMILES NC(=O)C[C@H]([NH3+])C(=O)[O-]
REMARK SMILES IDX 4 1 5 2 6 3 7 7 8 8 9 9 2 10 3 11 1 12
REMARK H PARENT 6 4 6 5 6 6 1 13 1 14
REMARK Flexibility Score: inf
ROOT
ATOM      1  C   UNL     1       0.020  -3.259 -11.021  1.00  0.00     0.171 C 
ENDROOT
BRANCH   1   2
ATOM      2  C   UNL     1      -1.222  -4.163 -11.150  1.00  0.00     0.237 C 
BRANCH   2   3
ATOM      3  N   UNL     1      -1.543  -4.820  -9.875  1.00  0.00    -0.350 N 
ATOM      4  H   UNL     1      -0.700  -5.299  -9.483  1.00  0.00     0.345 HD
ATOM      5  H   UNL     1      -2.302  -5.526 -10.020  1.00  0.00     0.345 HD
ATOM      6  H   UNL     1      -1.890  -4.114  -9.185  1.00  0.00     0.345 HD
ENDBRANCH   2   3
BRANCH   2   7
ATOM      7  C   UNL     1      -0.987  -5.197 -12.218  1.00  0.00     0.100 C 
ATOM      8  O   UNL     1      -0.403  -4.880 -13.288  1.00  0.00    -0.544 OA
ATOM      9  O   UNL     1      -1.396  -6.511 -12.025  1.00  0.00    -0.544 OA
ENDBRANCH   2   7
ENDBRANCH   1   2
BRANCH   1  10
ATOM     10  C   UNL     1      -0.162  -2.212  -9.961  1.00  0.00     0.223 C 
ATOM     11  O   UNL     1      -1.312  -1.979  -9.504  1.00  0.00    -0.275 OA
ATOM     12  N   UNL     1       0.963  -1.504  -9.441  1.00  0.00    -0.369 N 
ATOM     13  H   UNL     1       0.833  -0.784  -8.696  1.00  0.00     0.159 HD
ATOM     14  H   UNL     1       1.927  -1.700  -9.792  1.00  0.00     0.159 HD
ENDBRANCH   1  10
TORSDOF 4
ENDMDL
MODEL 6
REMARK VINA RESULT:    -0.597      2.013      3.708
REMARK INTER + INTRA:          -0.829
REMARK INTER:                  -0.711
REMARK INTRA:                  -0.118
REMARK UNBOUND:                -0.110
REMARK SMILES NC(=O)C[C@H]([NH3+])C(=O)[O-]
REMARK SMILES IDX 4 1 5 2 6 3 7 7 8 8 9 9 2 10 3 11 1 12
REMARK H PARENT 6 4 6 5 6 6 1 13 1 14
REMARK Flexibility Score: inf
ROOT
ATOM      1  C   UNL     1       2.165   0.245  -8.832  1.00  0.00     0.171 C 
ENDROOT
BRANCH   1   2
ATOM      2  C   UNL     1       1.929   0.043  -7.322  1.00  0.00     0.237 C 
BRANCH   2   3
ATOM      3  N   UNL     1       1.162   1.157  -6.745  1.00  0.00    -0.350 N 
ATOM      4  H   UNL     1       1.279   1.188  -5.706  1.00  0.00     0.345 HD
ATOM      5  H   UNL     1       0.147   1.044  -6.972  1.00  0.00     0.345 HD
ATOM      6  H   UNL     1       1.484   2.064  -7.155  1.00  0.00     0.345 HD
ENDBRANCH   2   3
BRANCH   2   7
ATOM      7  C   UNL     1       3.252  -0.092  -6.617  1.00  0.00     0.100 C 
ATOM      8  O   UNL     1       3.318   0.044  -5.366  1.00  0.00    -0.544 OA
ATOM      9  O   UNL     1       4.404  -0.384  -7.336  1.00  0.00    -0.544 OA
ENDBRANCH   2   7
ENDBRANCH   1   2
BRANCH   1  10
ATOM     10  C   UNL     1       1.737  -0.954  -9.627  1.00  0.00     0.223 C 
ATOM     11  O   UNL     1       0.590  -1.443  -9.451  1.00  0.00    -0.275 OA
ATOM     12  N   UNL     1       2.605  -1.522 -10.607  1.00  0.00    -0.369 N 
ATOM     13  H   UNL     1       2.299  -2.350 -11.165  1.00  0.00     0.159 HD
ATOM     14  H   UNL     1       3.551  -1.116 -10.783  1.00  0.00     0.159 HD
ENDBRANCH   1  10
TORSDOF 4
ENDMDL
MODEL 7
REMARK VINA RESULT:    -0.523      1.922      3.890
REMARK INTER + INTRA:          -0.740
REMARK INTER:                  -0.625
REMARK INTRA:                  -0.115
REMARK UNBOUND:                -0.110
REMARK SMILES NC(=O)C[C@H]([NH3+])C(=O)[O-]
REMARK SMILES IDX 4 1 5 2 6 3 7 7 8 8 9 9 2 10 3 11 1 12
REMARK H PARENT 6 4 6 5 6 6 1 13 1 14
REMARK Flexibility Score: inf
ROOT
ATOM      1  C   UNL     1       2.618   0.600  -9.526  1.00  0.00     0.171 C 
ENDROOT
BRANCH   1   2
ATOM      2  C   UNL     1       3.298   0.691  -8.146  1.00  0.00     0.237 C 
BRANCH   2   3
ATOM      3  N   UNL     1       4.543  -0.089  -8.107  1.00  0.00    -0.350 N 
ATOM      4  H   UNL     1       5.116   0.085  -8.964  1.00  0.00     0.345 HD
ATOM      5  H   UNL     1       4.321  -1.110  -8.044  1.00  0.00     0.345 HD
ATOM      6  H   UNL     1       5.101   0.170  -7.261  1.00  0.00     0.345 HD
ENDBRANCH   2   3
BRANCH   2   7
ATOM      7  C   UNL     1       2.350   0.202  -7.083  1.00  0.00     0.100 C 
ATOM      8  O   UNL     1       2.678  -0.759  -6.337  1.00  0.00    -0.544 OA
ATOM      9  O   UNL     1       1.118   0.818  -6.905  1.00  0.00    -0.544 OA
ENDBRANCH   2   7
ENDBRANCH   1   2
BRANCH   1  10
ATOM     10  C   UNL     1       2.196  -0.804  -9.847  1.00  0.00     0.223 C 
ATOM     11  O   UNL     1       2.863  -1.485 -10.671  1.00  0.00    -0.275 OA
ATOM     12  N   UNL     1       1.066  -1.388  -9.199  1.00  0.00    -0.369 N 
ATOM     13  H   UNL     1       0.783  -2.369  -9.417  1.00  0.00     0.159 HD
ATOM     14  H   UNL     1       0.515  -0.847  -8.495  1.00  0.00     0.159 HD
ENDBRANCH   1  10
TORSDOF 4
ENDMDL
MODEL 8
REMARK VINA RESULT:     0.203      5.993      7.658
REMARK INTER + INTRA:           0.135
REMARK INTER:                   0.192
REMARK INTRA:                  -0.057
REMARK UNBOUND:                -0.110
REMARK SMILES NC(=O)C[C@H]([NH3+])C(=O)[O-]
REMARK SMILES IDX 4 1 5 2 6 3 7 7 8 8 9 9 2 10 3 11 1 12
REMARK H PARENT 6 4 6 5 6 6 1 13 1 14
REMARK Flexibility Score: inf
ROOT
ATOM      1  C   UNL     1      -1.508  -4.421 -12.080  1.00  0.00     0.171 C 
ENDROOT
BRANCH   1   2
ATOM      2  C   UNL     1      -0.791  -4.034 -10.771  1.00  0.00     0.237 C 
BRANCH   2   3
ATOM      3  N   UNL     1      -1.193  -4.908  -9.660  1.00  0.00    -0.350 N 
ATOM      4  H   UNL     1      -1.558  -4.345  -8.858  1.00  0.00     0.345 HD
ATOM      5  H   UNL     1      -0.373  -5.473  -9.338  1.00  0.00     0.345 HD
ATOM      6  H   UNL     1      -1.935  -5.574  -9.978  1.00  0.00     0.345 HD
ENDBRANCH   2   3
BRANCH   2   7
ATOM      7  C   UNL     1      -1.096  -2.599 -10.433  1.00  0.00     0.100 C 
ATOM      8  O   UNL     1      -2.082  -2.020 -10.961  1.00  0.00    -0.544 OA
ATOM      9  O   UNL     1      -0.302  -1.909  -9.525  1.00  0.00    -0.544 OA
ENDBRANCH   2   7
ENDBRANCH   1   2
BRANCH   1  10
ATOM     10  C   UNL     1      -0.817  -5.557 -12.776  1.00  0.00     0.223 C 
ATOM     11  O   UNL     1       0.092  -5.317 -13.615  1.00  0.00    -0.275 OA
ATOM     12  N   UNL     1      -1.158  -6.910 -12.471  1.00  0.00    -0.369 N 
ATOM     13  H   UNL     1      -0.668  -7.697 -12.950  1.00  0.00     0.159 HD
ATOM     14  H   UNL     1      -1.893  -7.128 -11.762  1.00  0.00     0.159 HD
ENDBRANCH   1  10
TORSDOF 4
ENDMDL
MODEL 9
REMARK VINA RESULT:     0.303      5.034      6.490
REMARK INTER + INTRA:           0.255
REMARK INTER:                   0.471
REMARK INTRA:                  -0.216
REMARK UNBOUND:                -0.110
REMARK SMILES NC(=O)C[C@H]([NH3+])C(=O)[O-]
REMARK SMILES IDX 4 1 5 2 6 3 7 7 8 8 9 9 2 10 3 11 1 12
REMARK H PARENT 6 4 6 5 6 6 1 13 1 14
REMARK Flexibility Score: inf
ROOT
ATOM      1  C   UNL     1      -0.392  -3.761 -11.591  1.00  0.00     0.171 C 
ENDROOT
BRANCH   1   2
ATOM      2  C   UNL     1      -0.355  -3.113 -10.193  1.00  0.00     0.237 C 
BRANCH   2   3
ATOM      3  N   UNL     1      -1.614  -2.419  -9.889  1.00  0.00    -0.350 N 
ATOM      4  H   UNL     1      -2.331  -3.091  -9.530  1.00  0.00     0.345 HD
ATOM      5  H   UNL     1      -1.982  -1.955 -10.752  1.00  0.00     0.345 HD
ATOM      6  H   UNL     1      -1.449  -1.676  -9.171  1.00  0.00     0.345 HD
ENDBRANCH   2   3
BRANCH   2   7
ATOM      7  C   UNL     1       0.797  -2.147 -10.115  1.00  0.00     0.100 C 
ATOM      8  O   UNL     1       0.764  -1.188  -9.298  1.00  0.00    -0.544 OA
ATOM      9  O   UNL     1       1.911  -2.315 -10.928  1.00  0.00    -0.544 OA
ENDBRANCH   2   7
ENDBRANCH   1   2
BRANCH   1  10
ATOM     10  C   UNL     1      -1.349  -4.916 -11.642  1.00  0.00     0.223 C 
ATOM     11  O   UNL     1      -2.406  -4.883 -10.958  1.00  0.00    -0.275 OA
ATOM     12  N   UNL     1      -1.089  -6.037 -12.487  1.00  0.00    -0.369 N 
ATOM     13  H   UNL     1      -1.763  -6.833 -12.528  1.00  0.00     0.159 HD
ATOM     14  H   UNL     1      -0.229  -6.072 -13.079  1.00  0.00     0.159 HD
ENDBRANCH   1  10
TORSDOF 4
ENDMDL
