MODEL 1
REMARK VINA RESULT:    -1.470      0.000      0.000
REMARK INTER + INTRA:          -5.321
REMARK INTER:                  -2.759
REMARK INTRA:                  -2.562
REMARK UNBOUND:                -2.562
REMARK SMILES O=C([O-])CCCCCCCCCCCCCCC(=O)[O-]
REMARK SMILES IDX 10 1 9 2 8 3 7 4 6 5 5 6 4 7 2 8 1 9 3 10 11 11 12 12 13 13
REMARK SMILES IDX 14 14 15 15 16 16 17 17 18 18 19 19 20 20
REMARK H PARENT
REMARK Flexibility Score: inf
ROOT
ATOM      1  C   UNL     1      21.004  27.099  14.939  1.00  0.00     0.000 C 
ENDROOT
BRANCH   1   2
ATOM      2  C   UNL     1      20.720  26.162  13.751  1.00  0.00     0.000 C 
BRANCH   2   3
ATOM      3  C   UNL     1      21.498  26.563  12.484  1.00  0.00     0.000 C 
BRANCH   3   4
ATOM      4  C   UNL     1      22.805  25.778  12.269  1.00  0.00     0.000 C 
BRANCH   4   5
ATOM      5  C   UNL     1      22.750  24.365  12.876  1.00  0.00     0.000 C 
BRANCH   5   6
ATOM      6  C   UNL     1      23.962  24.055  13.776  1.00  0.00     0.006 C 
BRANCH   6   7
ATOM      7  C   UNL     1      23.644  24.022  15.279  1.00  0.00     0.053 C 
BRANCH   7   8
ATOM      8  C   UNL     1      24.749  23.397  16.073  1.00  0.00     0.041 C 
ATOM      9  O   UNL     1      25.781  24.062  16.356  1.00  0.00    -0.550 OA
ATOM     10  O   UNL     1      24.655  22.070  16.473  1.00  0.00    -0.550 OA
ENDBRANCH   7   8
ENDBRANCH   6   7
ENDBRANCH   5   6
ENDBRANCH   4   5
ENDBRANCH   3   4
ENDBRANCH   2   3
ENDBRANCH   1   2
BRANCH   1  11
ATOM     11  C   UNL     1      21.223  28.557  14.503  1.00  0.00     0.000 C 
BRANCH  11  12
ATOM     12  C   UNL     1      21.997  29.378  15.544  1.00  0.00     0.000 C 
BRANCH  12  13
ATOM     13  C   UNL     1      23.199  30.086  14.900  1.00  0.00     0.000 C 
BRANCH  13  14
ATOM     14  C   UNL     1      23.693  29.377  13.629  1.00  0.00     0.000 C 
BRANCH  14  15
ATOM     15  C   UNL     1      25.073  28.727  13.811  1.00  0.00     0.000 C 
BRANCH  15  16
ATOM     16  C   UNL     1      24.966  27.429  14.620  1.00  0.00     0.006 C 
BRANCH  16  17
ATOM     17  C   UNL     1      25.886  27.467  15.845  1.00  0.00     0.053 C 
BRANCH  17  18
ATOM     18  C   UNL     1      25.097  27.737  17.085  1.00  0.00     0.041 C 
ATOM     19  O   UNL     1      24.173  26.955  17.432  1.00  0.00    -0.550 OA
ATOM     20  O   UNL     1      25.345  28.881  17.834  1.00  0.00    -0.550 OA
ENDBRANCH  17  18
ENDBRANCH  16  17
ENDBRANCH  15  16
ENDBRANCH  14  15
ENDBRANCH  13  14
ENDBRANCH  12  13
ENDBRANCH  11  12
ENDBRANCH   1  11
TORSDOF 15
ENDMDL
MODEL 2
REMARK VINA RESULT:    -1.447      1.817      2.834
REMARK INTER + INTRA:          -5.278
REMARK INTER:                  -2.545
REMARK INTRA:                  -2.733
REMARK UNBOUND:                -2.562
REMARK SMILES O=C([O-])CCCCCCCCCCCCCCC(=O)[O-]
REMARK SMILES IDX 10 1 9 2 8 3 7 4 6 5 5 6 4 7 2 8 1 9 3 10 11 11 12 12 13 13
REMARK SMILES IDX 14 14 15 15 16 16 17 17 18 18 19 19 20 20
REMARK H PARENT
REMARK Flexibility Score: inf
ROOT
ATOM      1  C   UNL     1      21.749  26.127  14.483  1.00  0.00     0.000 C 
ENDROOT
BRANCH   1   2
ATOM      2  C   UNL     1      22.864  25.245  15.073  1.00  0.00     0.000 C 
BRANCH   2   3
ATOM      3  C   UNL     1      23.796  24.669  13.991  1.00  0.00     0.000 C 
BRANCH   3   4
ATOM      4  C   UNL     1      24.839  23.667  14.521  1.00  0.00     0.000 C 
BRANCH   4   5
ATOM      5  C   UNL     1      25.917  24.342  15.388  1.00  0.00     0.000 C 
BRANCH   5   6
ATOM      6  C   UNL     1      25.911  23.840  16.844  1.00  0.00     0.006 C 
BRANCH   6   7
ATOM      7  C   UNL     1      25.317  24.833  17.856  1.00  0.00     0.053 C 
BRANCH   7   8
ATOM      8  C   UNL     1      24.214  24.223  18.662  1.00  0.00     0.041 C 
ATOM      9  O   UNL     1      23.041  24.674  18.577  1.00  0.00    -0.550 OA
ATOM     10  O   UNL     1      24.486  23.175  19.533  1.00  0.00    -0.550 OA
ENDBRANCH   7   8
ENDBRANCH   6   7
ENDBRANCH   5   6
ENDBRANCH   4   5
ENDBRANCH   3   4
ENDBRANCH   2   3
ENDBRANCH   1   2
BRANCH   1  11
ATOM     11  C   UNL     1      22.044  26.565  13.039  1.00  0.00     0.000 C 
BRANCH  11  12
ATOM     12  C   UNL     1      22.355  28.064  12.924  1.00  0.00     0.000 C 
BRANCH  12  13
ATOM     13  C   UNL     1      23.847  28.294  12.637  1.00  0.00     0.000 C 
BRANCH  13  14
ATOM     14  C   UNL     1      24.584  28.952  13.814  1.00  0.00     0.000 C 
BRANCH  14  15
ATOM     15  C   UNL     1      25.422  27.951  14.622  1.00  0.00     0.000 C 
BRANCH  15  16
ATOM     16  C   UNL     1      25.146  28.089  16.124  1.00  0.00     0.006 C 
BRANCH  16  17
ATOM     17  C   UNL     1      23.755  28.679  16.376  1.00  0.00     0.053 C 
BRANCH  17  18
ATOM     18  C   UNL     1      23.174  28.130  17.640  1.00  0.00     0.041 C 
ATOM     19  O   UNL     1      23.892  28.010  18.667  1.00  0.00    -0.550 OA
ATOM     20  O   UNL     1      21.853  27.703  17.671  1.00  0.00    -0.550 OA
ENDBRANCH  17  18
ENDBRANCH  16  17
ENDBRANCH  15  16
ENDBRANCH  14  15
ENDBRANCH  13  14
ENDBRANCH  12  13
ENDBRANCH  11  12
ENDBRANCH   1  11
TORSDOF 15
ENDMDL
MODEL 3
REMARK VINA RESULT:    -1.431      2.577      5.444
REMARK INTER + INTRA:          -5.248
REMARK INTER:                  -3.141
REMARK INTRA:                  -2.106
REMARK UNBOUND:                -2.562
REMARK SMILES O=C([O-])CCCCCCCCCCCCCCC(=O)[O-]
REMARK SMILES IDX 10 1 9 2 8 3 7 4 6 5 5 6 4 7 2 8 1 9 3 10 11 11 12 12 13 13
REMARK SMILES IDX 14 14 15 15 16 16 17 17 18 18 19 19 20 20
REMARK H PARENT
REMARK Flexibility Score: inf
ROOT
ATOM      1  C   UNL     1      22.399  26.386  17.877  1.00  0.00     0.000 C 
ENDROOT
BRANCH   1   2
ATOM      2  C   UNL     1      22.486  26.476  16.343  1.00  0.00     0.000 C 
BRANCH   2   3
ATOM      3  C   UNL     1      21.419  27.413  15.746  1.00  0.00     0.000 C 
BRANCH   3   4
ATOM      4  C   UNL     1      21.620  28.900  16.089  1.00  0.00     0.000 C 
BRANCH   4   5
ATOM      5  C   UNL     1      22.282  29.685  14.942  1.00  0.00     0.000 C 
BRANCH   5   6
ATOM      6  C   UNL     1      23.789  29.909  15.167  1.00  0.00     0.006 C 
BRANCH   6   7
ATOM      7  C   UNL     1      24.696  28.909  14.433  1.00  0.00     0.053 C 
BRANCH   7   8
ATOM      8  C   UNL     1      24.376  28.826  12.973  1.00  0.00     0.041 C 
ATOM      9  O   UNL     1      23.937  27.754  12.479  1.00  0.00    -0.550 OA
ATOM     10  O   UNL     1      24.594  29.924  12.149  1.00  0.00    -0.550 OA
ENDBRANCH   7   8
ENDBRANCH   6   7
ENDBRANCH   5   6
ENDBRANCH   4   5
ENDBRANCH   3   4
ENDBRANCH   2   3
ENDBRANCH   1   2
BRANCH   1  11
ATOM     11  C   UNL     1      23.759  26.605  18.560  1.00  0.00     0.000 C 
BRANCH  11  12
ATOM     12  C   UNL     1      24.556  27.762  17.940  1.00  0.00     0.000 C 
BRANCH  12  13
ATOM     13  C   UNL     1      25.998  27.331  17.634  1.00  0.00     0.000 C 
BRANCH  13  14
ATOM     14  C   UNL     1      26.112  25.835  17.300  1.00  0.00     0.000 C 
BRANCH  14  15
ATOM     15  C   UNL     1      26.125  25.565  15.788  1.00  0.00     0.000 C 
BRANCH  15  16
ATOM     16  C   UNL     1      25.253  24.352  15.439  1.00  0.00     0.006 C 
BRANCH  16  17
ATOM     17  C   UNL     1      26.080  23.256  14.759  1.00  0.00     0.053 C 
BRANCH  17  18
ATOM     18  C   UNL     1      25.206  22.111  14.362  1.00  0.00     0.041 C 
ATOM     19  O   UNL     1      25.080  21.801  13.147  1.00  0.00    -0.550 OA
ATOM     20  O   UNL     1      24.488  21.415  15.326  1.00  0.00    -0.550 OA
ENDBRANCH  17  18
ENDBRANCH  16  17
ENDBRANCH  15  16
ENDBRANCH  14  15
ENDBRANCH  13  14
ENDBRANCH  12  13
ENDBRANCH  11  12
ENDBRANCH   1  11
TORSDOF 15
ENDMDL
MODEL 4
REMARK VINA RESULT:    -1.428      1.938      4.118
REMARK INTER + INTRA:          -5.242
REMARK INTER:                  -2.732
REMARK INTRA:                  -2.510
REMARK UNBOUND:                -2.562
REMARK SMILES O=C([O-])CCCCCCCCCCCCCCC(=O)[O-]
REMARK SMILES IDX 10 1 9 2 8 3 7 4 6 5 5 6 4 7 2 8 1 9 3 10 11 11 12 12 13 13
REMARK SMILES IDX 14 14 15 15 16 16 17 17 18 18 19 19 20 20
REMARK H PARENT
REMARK Flexibility Score: inf
ROOT
ATOM      1  C   UNL     1      22.864  26.300  13.146  1.00  0.00     0.000 C 
ENDROOT
BRANCH   1   2
ATOM      2  C   UNL     1      23.458  24.883  13.241  1.00  0.00     0.000 C 
BRANCH   2   3
ATOM      3  C   UNL     1      24.082  24.597  14.620  1.00  0.00     0.000 C 
BRANCH   3   4
ATOM      4  C   UNL     1      24.301  25.851  15.488  1.00  0.00     0.000 C 
BRANCH   4   5
ATOM      5  C   UNL     1      25.791  26.182  15.678  1.00  0.00     0.000 C 
BRANCH   5   6
ATOM      6  C   UNL     1      26.031  27.244  16.768  1.00  0.00     0.006 C 
BRANCH   6   7
ATOM      7  C   UNL     1      24.919  27.332  17.824  1.00  0.00     0.053 C 
BRANCH   7   8
ATOM      8  C   UNL     1      25.301  26.651  19.102  1.00  0.00     0.041 C 
ATOM      9  O   UNL     1      25.442  25.400  19.136  1.00  0.00    -0.550 OA
ATOM     10  O   UNL     1      25.470  27.395  20.263  1.00  0.00    -0.550 OA
ENDBRANCH   7   8
ENDBRANCH   6   7
ENDBRANCH   5   6
ENDBRANCH   4   5
ENDBRANCH   3   4
ENDBRANCH   2   3
ENDBRANCH   1   2
BRANCH   1  11
ATOM     11  C   UNL     1      23.493  27.130  12.015  1.00  0.00     0.000 C 
BRANCH  11  12
ATOM     12  C   UNL     1      23.534  28.632  12.332  1.00  0.00     0.000 C 
BRANCH  12  13
ATOM     13  C   UNL     1      24.704  28.962  13.272  1.00  0.00     0.000 C 
BRANCH  13  14
ATOM     14  C   UNL     1      24.237  29.441  14.655  1.00  0.00     0.000 C 
BRANCH  14  15
ATOM     15  C   UNL     1      22.721  29.670  14.722  1.00  0.00     0.000 C 
BRANCH  15  16
ATOM     16  C   UNL     1      22.088  28.833  15.841  1.00  0.00     0.006 C 
BRANCH  16  17
ATOM     17  C   UNL     1      20.755  28.227  15.389  1.00  0.00     0.053 C 
BRANCH  17  18
ATOM     18  C   UNL     1      20.501  26.935  16.097  1.00  0.00     0.041 C 
ATOM     19  O   UNL     1      21.258  26.565  17.033  1.00  0.00    -0.550 OA
ATOM     20  O   UNL     1      19.458  26.112  15.691  1.00  0.00    -0.550 OA
ENDBRANCH  17  18
ENDBRANCH  16  17
ENDBRANCH  15  16
ENDBRANCH  14  15
ENDBRANCH  13  14
ENDBRANCH  12  13
ENDBRANCH  11  12
ENDBRANCH   1  11
TORSDOF 15
ENDMDL
MODEL 5
REMARK VINA RESULT:    -1.423      2.870      4.059
REMARK INTER + INTRA:          -5.232
REMARK INTER:                  -2.646
REMARK INTRA:                  -2.586
REMARK UNBOUND:                -2.562
REMARK SMILES O=C([O-])CCCCCCCCCCCCCCC(=O)[O-]
REMARK SMILES IDX 10 1 9 2 8 3 7 4 6 5 5 6 4 7 2 8 1 9 3 10 11 11 12 12 13 13
REMARK SMILES IDX 14 14 15 15 16 16 17 17 18 18 19 19 20 20
REMARK H PARENT
REMARK Flexibility Score: inf
ROOT
ATOM      1  C   UNL     1      20.533  26.107  17.541  1.00  0.00     0.000 C 
ENDROOT
BRANCH   1   2
ATOM      2  C   UNL     1      21.788  25.379  18.054  1.00  0.00     0.000 C 
BRANCH   2   3
ATOM      3  C   UNL     1      22.999  26.321  18.196  1.00  0.00     0.000 C 
BRANCH   3   4
ATOM      4  C   UNL     1      23.726  26.621  16.872  1.00  0.00     0.000 C 
BRANCH   4   5
ATOM      5  C   UNL     1      24.602  25.445  16.403  1.00  0.00     0.000 C 
BRANCH   5   6
ATOM      6  C   UNL     1      24.390  25.101  14.916  1.00  0.00     0.006 C 
BRANCH   6   7
ATOM      7  C   UNL     1      23.100  25.675  14.309  1.00  0.00     0.053 C 
BRANCH   7   8
ATOM      8  C   UNL     1      22.947  25.309  12.866  1.00  0.00     0.041 C 
ATOM      9  O   UNL     1      22.635  24.133  12.539  1.00  0.00    -0.550 OA
ATOM     10  O   UNL     1      23.181  26.258  11.878  1.00  0.00    -0.550 OA
ENDBRANCH   7   8
ENDBRANCH   6   7
ENDBRANCH   5   6
ENDBRANCH   4   5
ENDBRANCH   3   4
ENDBRANCH   2   3
ENDBRANCH   1   2
BRANCH   1  11
ATOM     11  C   UNL     1      20.311  27.463  18.231  1.00  0.00     0.000 C 
BRANCH  11  12
ATOM     12  C   UNL     1      20.290  28.636  17.241  1.00  0.00     0.000 C 
BRANCH  12  13
ATOM     13  C   UNL     1      20.411  28.135  15.794  1.00  0.00     0.000 C 
BRANCH  13  14
ATOM     14  C   UNL     1      21.346  29.005  14.940  1.00  0.00     0.000 C 
BRANCH  14  15
ATOM     15  C   UNL     1      22.289  29.870  15.790  1.00  0.00     0.000 C 
BRANCH  15  16
ATOM     16  C   UNL     1      23.691  29.926  15.170  1.00  0.00     0.006 C 
BRANCH  16  17
ATOM     17  C   UNL     1      23.678  29.399  13.731  1.00  0.00     0.053 C 
BRANCH  17  18
ATOM     18  C   UNL     1      24.984  28.749  13.401  1.00  0.00     0.041 C 
ATOM     19  O   UNL     1      25.686  28.237  14.312  1.00  0.00    -0.550 OA
ATOM     20  O   UNL     1      25.452  28.752  12.093  1.00  0.00    -0.550 OA
ENDBRANCH  17  18
ENDBRANCH  16  17
ENDBRANCH  15  16
ENDBRANCH  14  15
ENDBRANCH  13  14
ENDBRANCH  12  13
ENDBRANCH  11  12
ENDBRANCH   1  11
TORSDOF 15
ENDMDL
MODEL 6
REMARK VINA RESULT:    -1.420     21.799     23.644
REMARK INTER + INTRA:          -5.227
REMARK INTER:                  -2.660
REMARK INTRA:                  -2.567
REMARK UNBOUND:                -2.562
REMARK SMILES O=C([O-])CCCCCCCCCCCCCCC(=O)[O-]
REMARK SMILES IDX 10 1 9 2 8 3 7 4 6 5 5 6 4 7 2 8 1 9 3 10 11 11 12 12 13 13
REMARK SMILES IDX 14 14 15 15 16 16 17 17 18 18 19 19 20 20
REMARK H PARENT
REMARK Flexibility Score: inf
ROOT
ATOM      1  C   UNL     1       7.621  13.840  25.385  1.00  0.00     0.000 C 
ENDROOT
BRANCH   1   2
ATOM      2  C   UNL     1       7.749  15.236  24.750  1.00  0.00     0.000 C 
BRANCH   2   3
ATOM      3  C   UNL     1       6.554  16.148  25.085  1.00  0.00     0.000 C 
BRANCH   3   4
ATOM      4  C   UNL     1       6.837  17.181  26.192  1.00  0.00     0.000 C 
BRANCH   4   5
ATOM      5  C   UNL     1       6.320  16.725  27.568  1.00  0.00     0.000 C 
BRANCH   5   6
ATOM      6  C   UNL     1       7.432  16.140  28.459  1.00  0.00     0.006 C 
BRANCH   6   7
ATOM      7  C   UNL     1       8.853  16.576  28.069  1.00  0.00     0.053 C 
BRANCH   7   8
ATOM      8  C   UNL     1       9.815  15.429  28.074  1.00  0.00     0.041 C 
ATOM      9  O   UNL     1      10.543  15.207  27.070  1.00  0.00    -0.550 OA
ATOM     10  O   UNL     1       9.884  14.584  29.174  1.00  0.00    -0.550 OA
ENDBRANCH   7   8
ENDBRANCH   6   7
ENDBRANCH   5   6
ENDBRANCH   4   5
ENDBRANCH   3   4
ENDBRANCH   2   3
ENDBRANCH   1   2
BRANCH   1  11
ATOM     11  C   UNL     1       6.159  13.437  25.640  1.00  0.00     0.000 C 
BRANCH  11  12
ATOM     12  C   UNL     1       5.952  12.791  27.017  1.00  0.00     0.000 C 
BRANCH  12  13
ATOM     13  C   UNL     1       7.300  12.450  27.670  1.00  0.00     0.000 C 
BRANCH  13  14
ATOM     14  C   UNL     1       7.475  10.944  27.920  1.00  0.00     0.000 C 
BRANCH  14  15
ATOM     15  C   UNL     1       7.729  10.155  26.628  1.00  0.00     0.000 C 
BRANCH  15  16
ATOM     16  C   UNL     1       9.225   9.881  26.436  1.00  0.00     0.006 C 
BRANCH  16  17
ATOM     17  C   UNL     1       9.861  10.922  25.508  1.00  0.00     0.053 C 
BRANCH  17  18
ATOM     18  C   UNL     1      11.023  11.581  26.179  1.00  0.00     0.041 C 
ATOM     19  O   UNL     1      10.930  11.963  27.376  1.00  0.00    -0.550 OA
ATOM     20  O   UNL     1      12.193  11.822  25.470  1.00  0.00    -0.550 OA
ENDBRANCH  17  18
ENDBRANCH  16  17
ENDBRANCH  15  16
ENDBRANCH  14  15
ENDBRANCH  13  14
ENDBRANCH  12  13
ENDBRANCH  11  12
ENDBRANCH   1  11
TORSDOF 15
ENDMDL
MODEL 7
REMARK VINA RESULT:    -1.393      2.776      5.341
REMARK INTER + INTRA:          -5.176
REMARK INTER:                  -2.760
REMARK INTRA:                  -2.416
REMARK UNBOUND:                -2.562
REMARK SMILES O=C([O-])CCCCCCCCCCCCCCC(=O)[O-]
REMARK SMILES IDX 10 1 9 2 8 3 7 4 6 5 5 6 4 7 2 8 1 9 3 10 11 11 12 12 13 13
REMARK SMILES IDX 14 14 15 15 16 16 17 17 18 18 19 19 20 20
REMARK H PARENT
REMARK Flexibility Score: inf
ROOT
ATOM      1  C   UNL     1      23.878  29.770  14.027  1.00  0.00     0.000 C 
ENDROOT
BRANCH   1   2
ATOM      2  C   UNL     1      24.294  29.191  15.391  1.00  0.00     0.000 C 
BRANCH   2   3
ATOM      3  C   UNL     1      23.212  29.387  16.470  1.00  0.00     0.000 C 
BRANCH   3   4
ATOM      4  C   UNL     1      22.208  28.224  16.578  1.00  0.00     0.000 C 
BRANCH   4   5
ATOM      5  C   UNL     1      20.794  28.624  16.121  1.00  0.00     0.000 C 
BRANCH   5   6
ATOM      6  C   UNL     1      20.012  27.448  15.504  1.00  0.00     0.006 C 
BRANCH   6   7
ATOM      7  C   UNL     1      18.646  27.833  14.916  1.00  0.00     0.053 C 
BRANCH   7   8
ATOM      8  C   UNL     1      18.736  28.173  13.460  1.00  0.00     0.041 C 
ATOM      9  O   UNL     1      18.990  29.352  13.098  1.00  0.00    -0.550 OA
ATOM     10  O   UNL     1      18.507  27.193  12.502  1.00  0.00    -0.550 OA
ENDBRANCH   7   8
ENDBRANCH   6   7
ENDBRANCH   5   6
ENDBRANCH   4   5
ENDBRANCH   3   4
ENDBRANCH   2   3
ENDBRANCH   1   2
BRANCH   1  11
ATOM     11  C   UNL     1      24.653  29.143  12.857  1.00  0.00     0.000 C 
BRANCH  11  12
ATOM     12  C   UNL     1      23.743  28.384  11.880  1.00  0.00     0.000 C 
BRANCH  12  13
ATOM     13  C   UNL     1      22.386  28.067  12.529  1.00  0.00     0.000 C 
BRANCH  13  14
ATOM     14  C   UNL     1      22.154  26.559  12.713  1.00  0.00     0.000 C 
BRANCH  14  15
ATOM     15  C   UNL     1      23.428  25.810  13.129  1.00  0.00     0.000 C 
BRANCH  15  16
ATOM     16  C   UNL     1      23.391  25.448  14.619  1.00  0.00     0.006 C 
BRANCH  16  17
ATOM     17  C   UNL     1      24.783  25.566  15.249  1.00  0.00     0.053 C 
BRANCH  17  18
ATOM     18  C   UNL     1      25.339  24.210  15.545  1.00  0.00     0.041 C 
ATOM     19  O   UNL     1      25.507  23.841  16.738  1.00  0.00    -0.550 OA
ATOM     20  O   UNL     1      25.721  23.371  14.506  1.00  0.00    -0.550 OA
ENDBRANCH  17  18
ENDBRANCH  16  17
ENDBRANCH  15  16
ENDBRANCH  14  15
ENDBRANCH  13  14
ENDBRANCH  12  13
ENDBRANCH  11  12
ENDBRANCH   1  11
TORSDOF 15
ENDMDL
MODEL 8
REMARK VINA RESULT:    -1.368     21.549     23.252
REMARK INTER + INTRA:          -5.130
REMARK INTER:                  -2.501
REMARK INTRA:                  -2.629
REMARK UNBOUND:                -2.562
REMARK SMILES O=C([O-])CCCCCCCCCCCCCCC(=O)[O-]
REMARK SMILES IDX 10 1 9 2 8 3 7 4 6 5 5 6 4 7 2 8 1 9 3 10 11 11 12 12 13 13
REMARK SMILES IDX 14 14 15 15 16 16 17 17 18 18 19 19 20 20
REMARK H PARENT
REMARK Flexibility Score: inf
ROOT
ATOM      1  C   UNL     1       8.549  15.127  24.053  1.00  0.00     0.000 C 
ENDROOT
BRANCH   1   2
ATOM      2  C   UNL     1       8.357  13.718  24.641  1.00  0.00     0.000 C 
BRANCH   2   3
ATOM      3  C   UNL     1       7.285  12.906  23.890  1.00  0.00     0.000 C 
BRANCH   3   4
ATOM      4  C   UNL     1       6.071  12.510  24.751  1.00  0.00     0.000 C 
BRANCH   4   5
ATOM      5  C   UNL     1       6.174  13.040  26.192  1.00  0.00     0.000 C 
BRANCH   5   6
ATOM      6  C   UNL     1       6.241  11.911  27.238  1.00  0.00     0.006 C 
BRANCH   6   7
ATOM      7  C   UNL     1       6.943  10.634  26.750  1.00  0.00     0.053 C 
BRANCH   7   8
ATOM      8  C   UNL     1       8.409  10.646  27.053  1.00  0.00     0.041 C 
ATOM      9  O   UNL     1       9.251  10.621  26.117  1.00  0.00    -0.550 OA
ATOM     10  O   UNL     1       8.846  10.652  28.372  1.00  0.00    -0.550 OA
ENDBRANCH   7   8
ENDBRANCH   6   7
ENDBRANCH   5   6
ENDBRANCH   4   5
ENDBRANCH   3   4
ENDBRANCH   2   3
ENDBRANCH   1   2
BRANCH   1  11
ATOM     11  C   UNL     1       7.336  16.040  24.295  1.00  0.00     0.000 C 
BRANCH  11  12
ATOM     12  C   UNL     1       7.737  17.460  24.720  1.00  0.00     0.000 C 
BRANCH  12  13
ATOM     13  C   UNL     1       7.267  17.756  26.153  1.00  0.00     0.000 C 
BRANCH  13  14
ATOM     14  C   UNL     1       6.528  16.570  26.792  1.00  0.00     0.000 C 
BRANCH  14  15
ATOM     15  C   UNL     1       7.208  16.071  28.076  1.00  0.00     0.000 C 
BRANCH  15  16
ATOM     16  C   UNL     1       8.663  15.669  27.806  1.00  0.00     0.006 C 
BRANCH  16  17
ATOM     17  C   UNL     1       8.930  14.231  28.263  1.00  0.00     0.053 C 
BRANCH  17  18
ATOM     18  C   UNL     1      10.369  13.877  28.063  1.00  0.00     0.041 C 
ATOM     19  O   UNL     1      10.991  13.229  28.946  1.00  0.00    -0.550 OA
ATOM     20  O   UNL     1      11.040  14.305  26.924  1.00  0.00    -0.550 OA
ENDBRANCH  17  18
ENDBRANCH  16  17
ENDBRANCH  15  16
ENDBRANCH  14  15
ENDBRANCH  13  14
ENDBRANCH  12  13
ENDBRANCH  11  12
ENDBRANCH   1  11
TORSDOF 15
ENDMDL
MODEL 9
REMARK VINA RESULT:    -0.307      2.264      5.403
REMARK INTER + INTRA:          -3.138
REMARK INTER:                  -0.880
REMARK INTRA:                  -2.258
REMARK UNBOUND:                -2.562
REMARK SMILES O=C([O-])CCCCCCCCCCCCCCC(=O)[O-]
REMARK SMILES IDX 10 1 9 2 8 3 7 4 6 5 5 6 4 7 2 8 1 9 3 10 11 11 12 12 13 13
REMARK SMILES IDX 14 14 15 15 16 16 17 17 18 18 19 19 20 20
REMARK H PARENT
REMARK Flexibility Score: inf
ROOT
ATOM      1  C   UNL     1      22.109  25.539  16.843  1.00  0.00     0.000 C 
ENDROOT
BRANCH   1   2
ATOM      2  C   UNL     1      22.888  26.627  17.603  1.00  0.00     0.000 C 
BRANCH   2   3
ATOM      3  C   UNL     1      24.412  26.405  17.552  1.00  0.00     0.000 C 
BRANCH   3   4
ATOM      4  C   UNL     1      25.209  27.608  17.014  1.00  0.00     0.000 C 
BRANCH   4   5
ATOM      5  C   UNL     1      25.077  27.768  15.489  1.00  0.00     0.000 C 
BRANCH   5   6
ATOM      6  C   UNL     1      24.241  28.999  15.089  1.00  0.00     0.006 C 
BRANCH   6   7
ATOM      7  C   UNL     1      23.393  28.805  13.822  1.00  0.00     0.053 C 
BRANCH   7   8
ATOM      8  C   UNL     1      24.216  28.343  12.660  1.00  0.00     0.041 C 
ATOM      9  O   UNL     1      23.859  27.340  11.989  1.00  0.00    -0.550 OA
ATOM     10  O   UNL     1      25.397  29.001  12.338  1.00  0.00    -0.550 OA
ENDBRANCH   7   8
ENDBRANCH   6   7
ENDBRANCH   5   6
ENDBRANCH   4   5
ENDBRANCH   3   4
ENDBRANCH   2   3
ENDBRANCH   1   2
BRANCH   1  11
ATOM     11  C   UNL     1      21.574  26.032  15.489  1.00  0.00     0.000 C 
BRANCH  11  12
ATOM     12  C   UNL     1      21.985  25.123  14.321  1.00  0.00     0.000 C 
BRANCH  12  13
ATOM     13  C   UNL     1      23.497  24.857  14.341  1.00  0.00     0.000 C 
BRANCH  13  14
ATOM     14  C   UNL     1      23.884  23.574  13.588  1.00  0.00     0.000 C 
BRANCH  14  15
ATOM     15  C   UNL     1      25.206  22.971  14.084  1.00  0.00     0.000 C 
BRANCH  15  16
ATOM     16  C   UNL     1      25.678  23.664  15.368  1.00  0.00     0.006 C 
BRANCH  16  17
ATOM     17  C   UNL     1      26.125  22.639  16.415  1.00  0.00     0.053 C 
BRANCH  17  18
ATOM     18  C   UNL     1      24.939  21.977  17.039  1.00  0.00     0.041 C 
ATOM     19  O   UNL     1      23.839  22.587  17.115  1.00  0.00    -0.550 OA
ATOM     20  O   UNL     1      25.058  20.704  17.583  1.00  0.00    -0.550 OA
ENDBRANCH  17  18
ENDBRANCH  16  17
ENDBRANCH  15  16
ENDBRANCH  14  15
ENDBRANCH  13  14
ENDBRANCH  12  13
ENDBRANCH  11  12
ENDBRANCH   1  11
TORSDOF 15
ENDMDL
