MODEL 1
REMARK VINA RESULT:    -4.527      0.000      0.000
REMARK INTER + INTRA:          -5.100
REMARK INTER:                  -4.924
REMARK INTRA:                  -0.176
REMARK UNBOUND:                -0.176
REMARK SMILES C=C(C)[C@@H]1CC[C@@H](C)C[C@@H]1O
REMARK SMILES IDX 8 1 7 2 6 3 5 4 4 5 10 6 9 7 11 8 2 10 1 11 3 12
REMARK H PARENT 11 9
REMARK Flexibility Score: inf
ROOT
ATOM      1  C   UNL     1     180.656 178.530 185.223  1.00  0.00     0.008 C 
ATOM      2  C   UNL     1     179.933 179.826 184.838  1.00  0.00    -0.012 C 
ATOM      3  C   UNL     1     179.666 179.862 183.320  1.00  0.00     0.004 C 
ATOM      4  C   UNL     1     178.968 181.167 182.913  1.00  0.00     0.011 C 
ATOM      5  C   UNL     1     179.799 182.391 183.352  1.00  0.00     0.043 C 
ATOM      6  C   UNL     1     180.066 182.372 184.875  1.00  0.00     0.121 C 
ATOM      7  C   UNL     1     180.757 181.054 185.277  1.00  0.00     0.035 C 
ENDROOT
BRANCH   6   8
ATOM      8  O   UNL     1     178.866 182.520 185.593  1.00  0.00    -0.392 OA
ATOM      9  H   UNL     1     178.126 182.439 184.935  1.00  0.00     0.210 HD
ENDBRANCH   6   8
BRANCH   5  10
ATOM     10  C   UNL     1     179.176 183.706 182.891  1.00  0.00    -0.075 C 
ATOM     11  C   UNL     1     179.898 184.835 182.789  1.00  0.00     0.008 C 
ATOM     12  C   UNL     1     177.709 183.761 182.544  1.00  0.00     0.039 C 
ENDBRANCH   5  10
TORSDOF 2
ENDMDL
MODEL 2
REMARK VINA RESULT:    -4.502      1.487      4.618
REMARK INTER + INTRA:          -5.073
REMARK INTER:                  -4.887
REMARK INTRA:                  -0.186
REMARK UNBOUND:                -0.176
REMARK SMILES C=C(C)[C@@H]1CC[C@@H](C)C[C@@H]1O
REMARK SMILES IDX 8 1 7 2 6 3 5 4 4 5 10 6 9 7 11 8 2 10 1 11 3 12
REMARK H PARENT 11 9
REMARK Flexibility Score: inf
ROOT
ATOM      1  C   UNL     1     179.792 184.219 182.030  1.00  0.00     0.008 C 
ATOM      2  C   UNL     1     179.704 182.897 182.800  1.00  0.00    -0.012 C 
ATOM      3  C   UNL     1     180.941 182.716 183.702  1.00  0.00     0.004 C 
ATOM      4  C   UNL     1     180.883 181.383 184.460  1.00  0.00     0.011 C 
ATOM      5  C   UNL     1     180.744 180.201 183.477  1.00  0.00     0.043 C 
ATOM      6  C   UNL     1     179.501 180.365 182.573  1.00  0.00     0.121 C 
ATOM      7  C   UNL     1     179.562 181.711 181.824  1.00  0.00     0.035 C 
ENDROOT
BRANCH   6   8
ATOM      8  O   UNL     1     178.320 180.295 183.332  1.00  0.00    -0.392 OA
ATOM      9  H   UNL     1     177.575 180.147 182.692  1.00  0.00     0.210 HD
ENDBRANCH   6   8
BRANCH   5  10
ATOM     10  C   UNL     1     180.766 178.853 184.191  1.00  0.00    -0.075 C 
ATOM     11  C   UNL     1     180.630 178.754 185.524  1.00  0.00     0.008 C 
ATOM     12  C   UNL     1     180.949 177.584 183.395  1.00  0.00     0.039 C 
ENDBRANCH   5  10
TORSDOF 2
ENDMDL
MODEL 3
REMARK VINA RESULT:    -4.465      3.301      4.914
REMARK INTER + INTRA:          -5.033
REMARK INTER:                  -4.840
REMARK INTRA:                  -0.193
REMARK UNBOUND:                -0.176
REMARK SMILES C=C(C)[C@@H]1CC[C@@H](C)C[C@@H]1O
REMARK SMILES IDX 8 1 7 2 6 3 5 4 4 5 10 6 9 7 11 8 2 10 1 11 3 12
REMARK H PARENT 11 9
REMARK Flexibility Score: inf
ROOT
ATOM      1  C   UNL     1     183.624 181.775 188.614  1.00  0.00     0.008 C 
ATOM      2  C   UNL     1     182.900 181.312 187.344  1.00  0.00    -0.012 C 
ATOM      3  C   UNL     1     181.384 181.196 187.601  1.00  0.00     0.004 C 
ATOM      4  C   UNL     1     180.647 180.705 186.347  1.00  0.00     0.011 C 
ATOM      5  C   UNL     1     181.226 179.357 185.866  1.00  0.00     0.043 C 
ATOM      6  C   UNL     1     182.745 179.462 185.595  1.00  0.00     0.121 C 
ATOM      7  C   UNL     1     183.476 179.966 186.856  1.00  0.00     0.035 C 
ENDROOT
BRANCH   6   8
ATOM      8  O   UNL     1     183.000 180.328 184.518  1.00  0.00    -0.392 OA
ATOM      9  H   UNL     1     183.490 179.800 183.834  1.00  0.00     0.210 HD
ENDBRANCH   6   8
BRANCH   5  10
ATOM     10  C   UNL     1     180.463 178.798 184.668  1.00  0.00    -0.075 C 
ATOM     11  C   UNL     1     179.421 179.449 184.125  1.00  0.00     0.008 C 
ATOM     12  C   UNL     1     180.872 177.476 184.069  1.00  0.00     0.039 C 
ENDBRANCH   5  10
TORSDOF 2
ENDMDL
MODEL 4
REMARK VINA RESULT:    -4.417      1.414      4.092
REMARK INTER + INTRA:          -4.981
REMARK INTER:                  -4.788
REMARK INTRA:                  -0.192
REMARK UNBOUND:                -0.176
REMARK SMILES C=C(C)[C@@H]1CC[C@@H](C)C[C@@H]1O
REMARK SMILES IDX 8 1 7 2 6 3 5 4 4 5 10 6 9 7 11 8 2 10 1 11 3 12
REMARK H PARENT 11 9
REMARK Flexibility Score: inf
ROOT
ATOM      1  C   UNL     1     177.889 184.965 184.137  1.00  0.00     0.008 C 
ATOM      2  C   UNL     1     178.800 183.789 183.770  1.00  0.00    -0.012 C 
ATOM      3  C   UNL     1     178.195 182.982 182.603  1.00  0.00     0.004 C 
ATOM      4  C   UNL     1     179.081 181.783 182.241  1.00  0.00     0.011 C 
ATOM      5  C   UNL     1     179.308 180.880 183.472  1.00  0.00     0.043 C 
ATOM      6  C   UNL     1     179.925 181.675 184.647  1.00  0.00     0.121 C 
ATOM      7  C   UNL     1     179.034 182.883 184.996  1.00  0.00     0.035 C 
ENDROOT
BRANCH   6   8
ATOM      8  O   UNL     1     181.220 182.115 184.324  1.00  0.00    -0.392 OA
ATOM      9  H   UNL     1     181.845 181.640 184.933  1.00  0.00     0.210 HD
ENDBRANCH   6   8
BRANCH   5  10
ATOM     10  C   UNL     1     180.119 179.633 183.131  1.00  0.00    -0.075 C 
ATOM     11  C   UNL     1     180.275 178.627 184.009  1.00  0.00     0.008 C 
ATOM     12  C   UNL     1     180.774 179.510 181.778  1.00  0.00     0.039 C 
ENDBRANCH   5  10
TORSDOF 2
ENDMDL
MODEL 5
REMARK VINA RESULT:    -4.402      1.790      2.469
REMARK INTER + INTRA:          -4.964
REMARK INTER:                  -4.775
REMARK INTRA:                  -0.189
REMARK UNBOUND:                -0.176
REMARK SMILES C=C(C)[C@@H]1CC[C@@H](C)C[C@@H]1O
REMARK SMILES IDX 8 1 7 2 6 3 5 4 4 5 10 6 9 7 11 8 2 10 1 11 3 12
REMARK H PARENT 11 9
REMARK Flexibility Score: inf
ROOT
ATOM      1  C   UNL     1     181.595 176.682 183.439  1.00  0.00     0.008 C 
ATOM      2  C   UNL     1     180.701 177.918 183.285  1.00  0.00    -0.012 C 
ATOM      3  C   UNL     1     181.319 178.907 182.277  1.00  0.00     0.004 C 
ATOM      4  C   UNL     1     180.451 180.164 182.132  1.00  0.00     0.011 C 
ATOM      5  C   UNL     1     180.236 180.841 183.502  1.00  0.00     0.043 C 
ATOM      6  C   UNL     1     179.606 179.861 184.520  1.00  0.00     0.121 C 
ATOM      7  C   UNL     1     180.479 178.598 184.651  1.00  0.00     0.035 C 
ENDROOT
BRANCH   6   8
ATOM      8  O   UNL     1     178.305 179.504 184.127  1.00  0.00    -0.392 OA
ATOM      9  H   UNL     1     177.710 180.257 184.382  1.00  0.00     0.210 HD
ENDBRANCH   6   8
BRANCH   5  10
ATOM     10  C   UNL     1     179.444 182.140 183.386  1.00  0.00    -0.075 C 
ATOM     11  C   UNL     1     178.808 182.483 182.252  1.00  0.00     0.008 C 
ATOM     12  C   UNL     1     179.367 183.082 184.561  1.00  0.00     0.039 C 
ENDBRANCH   5  10
TORSDOF 2
ENDMDL
MODEL 6
REMARK VINA RESULT:    -4.354      2.790      5.058
REMARK INTER + INTRA:          -4.912
REMARK INTER:                  -4.720
REMARK INTRA:                  -0.192
REMARK UNBOUND:                -0.176
REMARK SMILES C=C(C)[C@@H]1CC[C@@H](C)C[C@@H]1O
REMARK SMILES IDX 8 1 7 2 6 3 5 4 4 5 10 6 9 7 11 8 2 10 1 11 3 12
REMARK H PARENT 11 9
REMARK Flexibility Score: inf
ROOT
ATOM      1  C   UNL     1     179.015 179.764 183.662  1.00  0.00     0.008 C 
ATOM      2  C   UNL     1     180.252 180.138 184.487  1.00  0.00    -0.012 C 
ATOM      3  C   UNL     1     181.238 178.954 184.544  1.00  0.00     0.004 C 
ATOM      4  C   UNL     1     182.470 179.301 185.391  1.00  0.00     0.011 C 
ATOM      5  C   UNL     1     182.052 179.734 186.812  1.00  0.00     0.043 C 
ATOM      6  C   UNL     1     181.069 180.928 186.770  1.00  0.00     0.121 C 
ATOM      7  C   UNL     1     179.841 180.575 185.908  1.00  0.00     0.035 C 
ENDROOT
BRANCH   6   8
ATOM      8  O   UNL     1     181.700 182.073 186.254  1.00  0.00    -0.392 OA
ATOM      9  H   UNL     1     181.373 182.846 186.785  1.00  0.00     0.210 HD
ENDBRANCH   6   8
BRANCH   5  10
ATOM     10  C   UNL     1     183.255 180.009 187.709  1.00  0.00    -0.075 C 
ATOM     11  C   UNL     1     183.136 180.111 189.044  1.00  0.00     0.008 C 
ATOM     12  C   UNL     1     184.624 180.180 187.098  1.00  0.00     0.039 C 
ENDBRANCH   5  10
TORSDOF 2
ENDMDL
MODEL 7
REMARK VINA RESULT:    -4.318      2.020      3.054
REMARK INTER + INTRA:          -4.873
REMARK INTER:                  -4.686
REMARK INTRA:                  -0.187
REMARK UNBOUND:                -0.176
REMARK SMILES C=C(C)[C@@H]1CC[C@@H](C)C[C@@H]1O
REMARK SMILES IDX 8 1 7 2 6 3 5 4 4 5 10 6 9 7 11 8 2 10 1 11 3 12
REMARK H PARENT 11 9
REMARK Flexibility Score: inf
ROOT
ATOM      1  C   UNL     1     181.926 176.397 183.371  1.00  0.00     0.008 C 
ATOM      2  C   UNL     1     181.596 177.876 183.600  1.00  0.00    -0.012 C 
ATOM      3  C   UNL     1     180.460 178.021 184.632  1.00  0.00     0.004 C 
ATOM      4  C   UNL     1     180.097 179.495 184.852  1.00  0.00     0.011 C 
ATOM      5  C   UNL     1     179.713 180.169 183.517  1.00  0.00     0.043 C 
ATOM      6  C   UNL     1     180.849 180.040 182.475  1.00  0.00     0.121 C 
ATOM      7  C   UNL     1     181.214 178.557 182.269  1.00  0.00     0.035 C 
ENDROOT
BRANCH   6   8
ATOM      8  O   UNL     1     181.985 180.758 182.886  1.00  0.00    -0.392 OA
ATOM      9  H   UNL     1     182.680 180.619 182.191  1.00  0.00     0.210 HD
ENDBRANCH   6   8
BRANCH   5  10
ATOM     10  C   UNL     1     179.267 181.615 183.708  1.00  0.00    -0.075 C 
ATOM     11  C   UNL     1     179.464 182.271 184.865  1.00  0.00     0.008 C 
ATOM     12  C   UNL     1     178.578 182.345 182.582  1.00  0.00     0.039 C 
ENDBRANCH   5  10
TORSDOF 2
ENDMDL
MODEL 8
REMARK VINA RESULT:    -4.285      1.923      2.505
REMARK INTER + INTRA:          -4.836
REMARK INTER:                  -4.645
REMARK INTRA:                  -0.192
REMARK UNBOUND:                -0.176
REMARK SMILES C=C(C)[C@@H]1CC[C@@H](C)C[C@@H]1O
REMARK SMILES IDX 8 1 7 2 6 3 5 4 4 5 10 6 9 7 11 8 2 10 1 11 3 12
REMARK H PARENT 11 9
REMARK Flexibility Score: inf
ROOT
ATOM      1  C   UNL     1     181.656 178.795 181.085  1.00  0.00     0.008 C 
ATOM      2  C   UNL     1     180.585 179.772 181.583  1.00  0.00    -0.012 C 
ATOM      3  C   UNL     1     180.802 181.168 180.966  1.00  0.00     0.004 C 
ATOM      4  C   UNL     1     179.755 182.167 181.476  1.00  0.00     0.011 C 
ATOM      5  C   UNL     1     179.776 182.241 183.018  1.00  0.00     0.043 C 
ATOM      6  C   UNL     1     179.550 180.848 183.651  1.00  0.00     0.121 C 
ATOM      7  C   UNL     1     180.598 179.848 183.124  1.00  0.00     0.035 C 
ENDROOT
BRANCH   6   8
ATOM      8  O   UNL     1     178.257 180.376 183.366  1.00  0.00    -0.392 OA
ATOM      9  H   UNL     1     177.719 180.494 184.192  1.00  0.00     0.210 HD
ENDBRANCH   6   8
BRANCH   5  10
ATOM     10  C   UNL     1     178.804 183.285 183.559  1.00  0.00    -0.075 C 
ATOM     11  C   UNL     1     178.854 183.707 184.834  1.00  0.00     0.008 C 
ATOM     12  C   UNL     1     177.746 183.867 182.655  1.00  0.00     0.039 C 
ENDBRANCH   5  10
TORSDOF 2
ENDMDL
MODEL 9
REMARK VINA RESULT:    -4.258      3.109      4.691
REMARK INTER + INTRA:          -4.808
REMARK INTER:                  -4.618
REMARK INTRA:                  -0.190
REMARK UNBOUND:                -0.176
REMARK SMILES C=C(C)[C@@H]1CC[C@@H](C)C[C@@H]1O
REMARK SMILES IDX 8 1 7 2 6 3 5 4 4 5 10 6 9 7 11 8 2 10 1 11 3 12
REMARK H PARENT 11 9
REMARK Flexibility Score: inf
ROOT
ATOM      1  C   UNL     1     183.425 175.591 181.792  1.00  0.00     0.008 C 
ATOM      2  C   UNL     1     182.791 176.708 182.628  1.00  0.00    -0.012 C 
ATOM      3  C   UNL     1     181.562 176.178 183.393  1.00  0.00     0.004 C 
ATOM      4  C   UNL     1     180.898 177.291 184.213  1.00  0.00     0.011 C 
ATOM      5  C   UNL     1     180.508 178.479 183.307  1.00  0.00     0.043 C 
ATOM      6  C   UNL     1     181.735 179.027 182.541  1.00  0.00     0.121 C 
ATOM      7  C   UNL     1     182.402 177.900 181.729  1.00  0.00     0.035 C 
ENDROOT
BRANCH   6   8
ATOM      8  O   UNL     1     182.666 179.590 183.431  1.00  0.00    -0.392 OA
ATOM      9  H   UNL     1     183.293 178.864 183.688  1.00  0.00     0.210 HD
ENDBRANCH   6   8
BRANCH   5  10
ATOM     10  C   UNL     1     179.771 179.572 184.075  1.00  0.00    -0.075 C 
ATOM     11  C   UNL     1     179.711 179.577 185.418  1.00  0.00     0.008 C 
ATOM     12  C   UNL     1     179.078 180.681 183.324  1.00  0.00     0.039 C 
ENDBRANCH   5  10
TORSDOF 2
ENDMDL
