MODEL 1
REMARK VINA RESULT:    -4.588      0.000      0.000
REMARK INTER + INTRA:          -5.092
REMARK INTER:                  -4.990
REMARK INTRA:                  -0.101
REMARK UNBOUND:                -0.101
REMARK SMILES Cc1ccc(C(C)C)cc1O
REMARK SMILES IDX 1 1 2 2 10 3 9 4 5 5 4 6 3 7 11 8 6 10 7 11 8 12
REMARK H PARENT 11 9
REMARK Flexibility Score: inf
ROOT
ATOM      1  C   UNL     1     176.064 171.694 150.842  1.00  0.00     0.048 C 
ATOM      2  C   UNL     1     175.494 173.084 150.881  1.00  0.00    -0.009 A 
ATOM      3  C   UNL     1     176.330 174.186 151.127  1.00  0.00     0.118 A 
ATOM      4  C   UNL     1     175.792 175.480 151.161  1.00  0.00     0.050 A 
ATOM      5  C   UNL     1     174.418 175.691 150.953  1.00  0.00    -0.042 A 
ATOM      6  C   UNL     1     173.589 174.583 150.708  1.00  0.00     0.004 A 
ATOM      7  C   UNL     1     174.122 173.292 150.672  1.00  0.00     0.007 A 
ENDROOT
BRANCH   3   8
ATOM      8  O   UNL     1     177.696 173.993 151.335  1.00  0.00    -0.508 OA
ATOM      9  H   UNL     1     178.042 173.435 152.107  1.00  0.00     0.293 HD
ENDBRANCH   3   8
BRANCH   5  10
ATOM     10  C   UNL     1     173.852 177.099 150.994  1.00  0.00     0.013 C 
ATOM     11  C   UNL     1     174.746 178.078 150.224  1.00  0.00     0.012 C 
ATOM     12  C   UNL     1     173.637 177.567 152.438  1.00  0.00     0.012 C 
ENDBRANCH   5  10
TORSDOF 2
ENDMDL
MODEL 2
REMARK VINA RESULT:    -4.477     11.333     12.505
REMARK INTER + INTRA:          -4.971
REMARK INTER:                  -4.844
REMARK INTRA:                  -0.127
REMARK UNBOUND:                -0.101
REMARK SMILES Cc1ccc(C(C)C)cc1O
REMARK SMILES IDX 1 1 2 2 10 3 9 4 5 5 4 6 3 7 11 8 6 10 7 11 8 12
REMARK H PARENT 11 9
REMARK Flexibility Score: inf
ROOT
ATOM      1  C   UNL     1     166.340 176.198 150.828  1.00  0.00     0.048 C 
ATOM      2  C   UNL     1     164.845 176.344 150.882  1.00  0.00    -0.009 A 
ATOM      3  C   UNL     1     164.016 175.222 150.709  1.00  0.00     0.118 A 
ATOM      4  C   UNL     1     162.623 175.367 150.760  1.00  0.00     0.050 A 
ATOM      5  C   UNL     1     162.040 176.626 150.982  1.00  0.00    -0.042 A 
ATOM      6  C   UNL     1     162.876 177.742 151.153  1.00  0.00     0.004 A 
ATOM      7  C   UNL     1     164.266 177.603 151.103  1.00  0.00     0.007 A 
ENDROOT
BRANCH   3   8
ATOM      8  O   UNL     1     164.581 173.965 150.489  1.00  0.00    -0.508 OA
ATOM      9  H   UNL     1     164.340 173.410 149.676  1.00  0.00     0.293 HD
ENDBRANCH   3   8
BRANCH   5  10
ATOM     10  C   UNL     1     160.529 176.764 151.034  1.00  0.00     0.013 C 
ATOM     11  C   UNL     1     160.118 178.095 151.675  1.00  0.00     0.012 C 
ATOM     12  C   UNL     1     159.890 175.579 151.766  1.00  0.00     0.012 C 
ENDBRANCH   5  10
TORSDOF 2
ENDMDL
MODEL 3
REMARK VINA RESULT:    -4.418     13.348     14.439
REMARK INTER + INTRA:          -4.907
REMARK INTER:                  -4.807
REMARK INTRA:                  -0.100
REMARK UNBOUND:                -0.101
REMARK SMILES Cc1ccc(C(C)C)cc1O
REMARK SMILES IDX 1 1 2 2 10 3 9 4 5 5 4 6 3 7 11 8 6 10 7 11 8 12
REMARK H PARENT 11 9
REMARK Flexibility Score: inf
ROOT
ATOM      1  C   UNL     1     161.901 176.970 157.139  1.00  0.00     0.048 C 
ATOM      2  C   UNL     1     161.859 177.093 155.642  1.00  0.00    -0.009 A 
ATOM      3  C   UNL     1     160.757 176.602 154.921  1.00  0.00     0.118 A 
ATOM      4  C   UNL     1     160.725 176.720 153.525  1.00  0.00     0.050 A 
ATOM      5  C   UNL     1     161.786 177.326 152.831  1.00  0.00    -0.042 A 
ATOM      6  C   UNL     1     162.884 177.814 153.561  1.00  0.00     0.004 A 
ATOM      7  C   UNL     1     162.920 177.699 154.953  1.00  0.00     0.007 A 
ENDROOT
BRANCH   3   8
ATOM      8  O   UNL     1     159.695 175.998 155.595  1.00  0.00    -0.508 OA
ATOM      9  H   UNL     1     159.845 175.241 156.253  1.00  0.00     0.293 HD
ENDBRANCH   3   8
BRANCH   5  10
ATOM     10  C   UNL     1     161.735 177.446 151.319  1.00  0.00     0.013 C 
ATOM     11  C   UNL     1     160.439 178.125 150.861  1.00  0.00     0.012 C 
ATOM     12  C   UNL     1     161.907 176.077 150.650  1.00  0.00     0.012 C 
ENDBRANCH   5  10
TORSDOF 2
ENDMDL
MODEL 4
REMARK VINA RESULT:    -4.405     13.508     14.513
REMARK INTER + INTRA:          -4.893
REMARK INTER:                  -4.768
REMARK INTRA:                  -0.126
REMARK UNBOUND:                -0.101
REMARK SMILES Cc1ccc(C(C)C)cc1O
REMARK SMILES IDX 1 1 2 2 10 3 9 4 5 5 4 6 3 7 11 8 6 10 7 11 8 12
REMARK H PARENT 11 9
REMARK Flexibility Score: inf
ROOT
ATOM      1  C   UNL     1     161.874 171.672 152.618  1.00  0.00     0.048 C 
ATOM      2  C   UNL     1     161.411 173.069 152.317  1.00  0.00    -0.009 A 
ATOM      3  C   UNL     1     160.108 173.473 152.656  1.00  0.00     0.118 A 
ATOM      4  C   UNL     1     159.684 174.778 152.372  1.00  0.00     0.050 A 
ATOM      5  C   UNL     1     160.548 175.694 151.748  1.00  0.00    -0.042 A 
ATOM      6  C   UNL     1     161.849 175.281 151.412  1.00  0.00     0.004 A 
ATOM      7  C   UNL     1     162.276 173.981 151.694  1.00  0.00     0.007 A 
ENDROOT
BRANCH   3   8
ATOM      8  O   UNL     1     159.239 172.576 153.277  1.00  0.00    -0.508 OA
ATOM      9  H   UNL     1     159.576 171.870 153.921  1.00  0.00     0.293 HD
ENDBRANCH   3   8
BRANCH   5  10
ATOM     10  C   UNL     1     160.072 177.104 151.447  1.00  0.00     0.013 C 
ATOM     11  C   UNL     1     160.583 177.581 150.082  1.00  0.00     0.012 C 
ATOM     12  C   UNL     1     160.482 178.075 152.560  1.00  0.00     0.012 C 
ENDBRANCH   5  10
TORSDOF 2
ENDMDL
MODEL 5
REMARK VINA RESULT:    -4.397     10.798     11.898
REMARK INTER + INTRA:          -4.884
REMARK INTER:                  -4.759
REMARK INTRA:                  -0.125
REMARK UNBOUND:                -0.101
REMARK SMILES Cc1ccc(C(C)C)cc1O
REMARK SMILES IDX 1 1 2 2 10 3 9 4 5 5 4 6 3 7 11 8 6 10 7 11 8 12
REMARK H PARENT 11 9
REMARK Flexibility Score: inf
ROOT
ATOM      1  C   UNL     1     166.392 174.941 150.528  1.00  0.00     0.048 C 
ATOM      2  C   UNL     1     165.092 175.666 150.733  1.00  0.00    -0.009 A 
ATOM      3  C   UNL     1     165.081 177.055 150.948  1.00  0.00     0.118 A 
ATOM      4  C   UNL     1     163.865 177.725 151.139  1.00  0.00     0.050 A 
ATOM      5  C   UNL     1     162.648 177.022 151.119  1.00  0.00    -0.042 A 
ATOM      6  C   UNL     1     162.668 175.633 150.905  1.00  0.00     0.004 A 
ATOM      7  C   UNL     1     163.879 174.961 150.714  1.00  0.00     0.007 A 
ENDROOT
BRANCH   3   8
ATOM      8  O   UNL     1     166.281 177.767 150.969  1.00  0.00    -0.508 OA
ATOM      9  H   UNL     1     166.772 178.005 150.115  1.00  0.00     0.293 HD
ENDBRANCH   3   8
BRANCH   5  10
ATOM     10  C   UNL     1     161.340 177.763 151.328  1.00  0.00     0.013 C 
ATOM     11  C   UNL     1     160.582 177.216 152.543  1.00  0.00     0.012 C 
ATOM     12  C   UNL     1     160.469 177.713 150.067  1.00  0.00     0.012 C 
ENDBRANCH   5  10
TORSDOF 2
ENDMDL
MODEL 6
REMARK VINA RESULT:    -4.375      1.789      2.299
REMARK INTER + INTRA:          -4.861
REMARK INTER:                  -4.735
REMARK INTRA:                  -0.126
REMARK UNBOUND:                -0.101
REMARK SMILES Cc1ccc(C(C)C)cc1O
REMARK SMILES IDX 1 1 2 2 10 3 9 4 5 5 4 6 3 7 11 8 6 10 7 11 8 12
REMARK H PARENT 11 9
REMARK Flexibility Score: inf
ROOT
ATOM      1  C   UNL     1     175.557 171.213 149.995  1.00  0.00     0.048 C 
ATOM      2  C   UNL     1     175.312 172.640 150.397  1.00  0.00    -0.009 A 
ATOM      3  C   UNL     1     174.005 173.157 150.415  1.00  0.00     0.118 A 
ATOM      4  C   UNL     1     173.784 174.489 150.791  1.00  0.00     0.050 A 
ATOM      5  C   UNL     1     174.859 175.321 151.151  1.00  0.00    -0.042 A 
ATOM      6  C   UNL     1     176.162 174.795 151.129  1.00  0.00     0.004 A 
ATOM      7  C   UNL     1     176.387 173.467 150.755  1.00  0.00     0.007 A 
ENDROOT
BRANCH   3   8
ATOM      8  O   UNL     1     172.928 172.344 150.061  1.00  0.00    -0.508 OA
ATOM      9  H   UNL     1     172.598 171.604 150.671  1.00  0.00     0.293 HD
ENDBRANCH   3   8
BRANCH   5  10
ATOM     10  C   UNL     1     174.602 176.761 151.555  1.00  0.00     0.013 C 
ATOM     11  C   UNL     1     174.762 177.708 150.359  1.00  0.00     0.012 C 
ATOM     12  C   UNL     1     175.511 177.180 152.715  1.00  0.00     0.012 C 
ENDBRANCH   5  10
TORSDOF 2
ENDMDL
MODEL 7
REMARK VINA RESULT:    -4.267      1.694      4.134
REMARK INTER + INTRA:          -4.742
REMARK INTER:                  -4.616
REMARK INTRA:                  -0.127
REMARK UNBOUND:                -0.101
REMARK SMILES Cc1ccc(C(C)C)cc1O
REMARK SMILES IDX 1 1 2 2 10 3 9 4 5 5 4 6 3 7 11 8 6 10 7 11 8 12
REMARK H PARENT 11 9
REMARK Flexibility Score: inf
ROOT
ATOM      1  C   UNL     1     172.456 176.945 151.590  1.00  0.00     0.048 C 
ATOM      2  C   UNL     1     173.527 175.924 151.328  1.00  0.00    -0.009 A 
ATOM      3  C   UNL     1     174.882 176.297 151.348  1.00  0.00     0.118 A 
ATOM      4  C   UNL     1     175.875 175.340 151.102  1.00  0.00     0.050 A 
ATOM      5  C   UNL     1     175.533 174.003 150.834  1.00  0.00    -0.042 A 
ATOM      6  C   UNL     1     174.175 173.639 150.816  1.00  0.00     0.004 A 
ATOM      7  C   UNL     1     173.182 174.591 151.060  1.00  0.00     0.007 A 
ENDROOT
BRANCH   3   8
ATOM      8  O   UNL     1     175.237 177.620 151.614  1.00  0.00    -0.508 OA
ATOM      9  H   UNL     1     176.147 177.860 151.990  1.00  0.00     0.293 HD
ENDBRANCH   3   8
BRANCH   5  10
ATOM     10  C   UNL     1     176.622 172.979 150.570  1.00  0.00     0.013 C 
ATOM     11  C   UNL     1     177.765 173.586 149.748  1.00  0.00     0.012 C 
ATOM     12  C   UNL     1     176.052 171.731 149.886  1.00  0.00     0.012 C 
ENDBRANCH   5  10
TORSDOF 2
ENDMDL
MODEL 8
REMARK VINA RESULT:    -4.245      9.010     12.235
REMARK INTER + INTRA:          -4.719
REMARK INTER:                  -4.594
REMARK INTRA:                  -0.125
REMARK UNBOUND:                -0.101
REMARK SMILES Cc1ccc(C(C)C)cc1O
REMARK SMILES IDX 1 1 2 2 10 3 9 4 5 5 4 6 3 7 11 8 6 10 7 11 8 12
REMARK H PARENT 11 9
REMARK Flexibility Score: inf
ROOT
ATOM      1  C   UNL     1     177.090 166.654 151.741  1.00  0.00     0.048 C 
ATOM      2  C   UNL     1     176.637 165.261 151.408  1.00  0.00    -0.009 A 
ATOM      3  C   UNL     1     175.294 165.012 151.076  1.00  0.00     0.118 A 
ATOM      4  C   UNL     1     174.878 163.710 150.768  1.00  0.00     0.050 A 
ATOM      5  C   UNL     1     175.791 162.642 150.786  1.00  0.00    -0.042 A 
ATOM      6  C   UNL     1     177.132 162.899 151.120  1.00  0.00     0.004 A 
ATOM      7  C   UNL     1     177.551 164.196 151.428  1.00  0.00     0.007 A 
ENDROOT
BRANCH   3   8
ATOM      8  O   UNL     1     174.376 166.062 151.053  1.00  0.00    -0.508 OA
ATOM      9  H   UNL     1     173.667 166.165 151.771  1.00  0.00     0.293 HD
ENDBRANCH   3   8
BRANCH   5  10
ATOM     10  C   UNL     1     175.324 161.237 150.449  1.00  0.00     0.013 C 
ATOM     11  C   UNL     1     176.415 160.454 149.709  1.00  0.00     0.012 C 
ATOM     12  C   UNL     1     174.022 161.267 149.641  1.00  0.00     0.012 C 
ENDBRANCH   5  10
TORSDOF 2
ENDMDL
MODEL 9
REMARK VINA RESULT:    -4.181     12.431     13.665
REMARK INTER + INTRA:          -4.649
REMARK INTER:                  -4.522
REMARK INTRA:                  -0.126
REMARK UNBOUND:                -0.101
REMARK SMILES Cc1ccc(C(C)C)cc1O
REMARK SMILES IDX 1 1 2 2 10 3 9 4 5 5 4 6 3 7 11 8 6 10 7 11 8 12
REMARK H PARENT 11 9
REMARK Flexibility Score: inf
ROOT
ATOM      1  C   UNL     1     158.996 174.752 151.861  1.00  0.00     0.048 C 
ATOM      2  C   UNL     1     160.266 175.541 152.010  1.00  0.00    -0.009 A 
ATOM      3  C   UNL     1     160.727 175.908 153.286  1.00  0.00     0.118 A 
ATOM      4  C   UNL     1     161.912 176.645 153.417  1.00  0.00     0.050 A 
ATOM      5  C   UNL     1     162.650 177.026 152.282  1.00  0.00    -0.042 A 
ATOM      6  C   UNL     1     162.180 176.656 151.010  1.00  0.00     0.004 A 
ATOM      7  C   UNL     1     160.999 175.921 150.875  1.00  0.00     0.007 A 
ENDROOT
BRANCH   3   8
ATOM      8  O   UNL     1     160.007 175.536 154.421  1.00  0.00    -0.508 OA
ATOM      9  H   UNL     1     160.309 174.772 155.015  1.00  0.00     0.293 HD
ENDBRANCH   3   8
BRANCH   5  10
ATOM     10  C   UNL     1     163.931 177.824 152.442  1.00  0.00     0.013 C 
ATOM     11  C   UNL     1     164.585 178.097 151.083  1.00  0.00     0.012 C 
ATOM     12  C   UNL     1     164.906 177.120 153.393  1.00  0.00     0.012 C 
ENDBRANCH   5  10
TORSDOF 2
ENDMDL
