MODEL 1
REMARK VINA RESULT:    -3.052      0.000      0.000
REMARK INTER + INTRA:          -5.108
REMARK INTER:                  -4.122
REMARK INTRA:                  -0.986
REMARK UNBOUND:                -0.986
REMARK SMILES O=C[C@H](O)[C@@H](O)[C@H](O)CO
REMARK SMILES IDX 7 1 9 2 10 3 5 5 3 6 2 7 1 8 4 9 6 11 8 13
REMARK H PARENT 10 4 4 10 6 12 8 14
REMARK Flexibility Score: inf
ROOT
ATOM      1  C   UNL     1     -10.792  31.003 107.125  1.00  0.00     0.171 C 
ENDROOT
BRANCH   1   2
ATOM      2  C   UNL     1     -11.591  31.645 105.977  1.00  0.00     0.190 C 
BRANCH   2   3
ATOM      3  O   UNL     1     -11.900  30.692 104.993  1.00  0.00    -0.394 OA
ATOM      4  H   UNL     1     -12.790  30.317 105.223  1.00  0.00     0.210 HD
ENDBRANCH   2   3
ENDBRANCH   1   2
BRANCH   1   5
ATOM      5  C   UNL     1      -9.369  30.582 106.675  1.00  0.00     0.181 C 
BRANCH   5   6
ATOM      6  C   UNL     1      -9.174  29.041 106.676  1.00  0.00     0.209 C 
BRANCH   6   7
ATOM      7  C   UNL     1      -7.729  28.667 106.466  1.00  0.00     0.258 C 
ATOM      8  O   UNL     1      -6.859  29.523 106.486  1.00  0.00    -0.300 OA
ENDBRANCH   6   7
BRANCH   6   9
ATOM      9  O   UNL     1      -9.966  28.441 105.683  1.00  0.00    -0.383 OA
ATOM     10  H   UNL     1      -9.996  27.466 105.868  1.00  0.00     0.211 HD
ENDBRANCH   6   9
ENDBRANCH   5   6
BRANCH   5  11
ATOM     11  O   UNL     1      -9.068  31.111 105.406  1.00  0.00    -0.387 OA
ATOM     12  H   UNL     1      -8.303  31.735 105.512  1.00  0.00     0.211 HD
ENDBRANCH   5  11
ENDBRANCH   1   5
BRANCH   1  13
ATOM     13  O   UNL     1     -11.490  29.884 107.610  1.00  0.00    -0.388 OA
ATOM     14  H   UNL     1     -11.850  29.402 106.820  1.00  0.00     0.211 HD
ENDBRANCH   1  13
TORSDOF 8
ENDMDL
MODEL 2
REMARK VINA RESULT:    -2.902      2.350      3.436
REMARK INTER + INTRA:          -4.905
REMARK INTER:                  -4.441
REMARK INTRA:                  -0.464
REMARK UNBOUND:                -0.986
REMARK SMILES O=C[C@H](O)[C@@H](O)[C@H](O)CO
REMARK SMILES IDX 7 1 9 2 10 3 5 5 3 6 2 7 1 8 4 9 6 11 8 13
REMARK H PARENT 10 4 4 10 6 12 8 14
REMARK Flexibility Score: inf
ROOT
ATOM      1  C   UNL     1      -7.913  29.078 106.269  1.00  0.00     0.171 C 
ENDROOT
BRANCH   1   2
ATOM      2  C   UNL     1      -9.430  28.840 106.365  1.00  0.00     0.190 C 
BRANCH   2   3
ATOM      3  O   UNL     1      -9.849  27.907 105.404  1.00  0.00    -0.394 OA
ATOM      4  H   UNL     1     -10.509  27.312 105.847  1.00  0.00     0.210 HD
ENDBRANCH   2   3
ENDBRANCH   1   2
BRANCH   1   5
ATOM      5  C   UNL     1      -7.428  30.137 107.294  1.00  0.00     0.181 C 
BRANCH   5   6
ATOM      6  C   UNL     1      -6.173  29.674 108.082  1.00  0.00     0.209 C 
BRANCH   6   7
ATOM      7  C   UNL     1      -4.905  30.191 107.454  1.00  0.00     0.258 C 
ATOM      8  O   UNL     1      -4.691  30.025 106.264  1.00  0.00    -0.300 OA
ENDBRANCH   6   7
BRANCH   6   9
ATOM      9  O   UNL     1      -6.126  28.271 108.158  1.00  0.00    -0.383 OA
ATOM     10  H   UNL     1      -5.491  28.029 108.883  1.00  0.00     0.211 HD
ENDBRANCH   6   9
ENDBRANCH   5   6
BRANCH   5  11
ATOM     11  O   UNL     1      -7.179  31.369 106.660  1.00  0.00    -0.387 OA
ATOM     12  H   UNL     1      -7.930  31.544 106.034  1.00  0.00     0.211 HD
ENDBRANCH   5  11
ENDBRANCH   1   5
BRANCH   1  13
ATOM     13  O   UNL     1      -7.587  29.492 104.965  1.00  0.00    -0.388 OA
ATOM     14  H   UNL     1      -8.413  29.877 104.569  1.00  0.00     0.211 HD
ENDBRANCH   1  13
TORSDOF 8
ENDMDL
MODEL 3
REMARK VINA RESULT:    -2.888      2.183      3.414
REMARK INTER + INTRA:          -4.888
REMARK INTER:                  -4.141
REMARK INTRA:                  -0.747
REMARK UNBOUND:                -0.986
REMARK SMILES O=C[C@H](O)[C@@H](O)[C@H](O)CO
REMARK SMILES IDX 7 1 9 2 10 3 5 5 3 6 2 7 1 8 4 9 6 11 8 13
REMARK H PARENT 10 4 4 10 6 12 8 14
REMARK Flexibility Score: inf
ROOT
ATOM      1  C   UNL     1      -8.159  29.018 106.117  1.00  0.00     0.171 C 
ENDROOT
BRANCH   1   2
ATOM      2  C   UNL     1      -9.638  28.687 106.381  1.00  0.00     0.190 C 
BRANCH   2   3
ATOM      3  O   UNL     1     -10.160  27.885 105.355  1.00  0.00    -0.394 OA
ATOM      4  H   UNL     1      -9.860  26.956 105.533  1.00  0.00     0.210 HD
ENDBRANCH   2   3
ENDBRANCH   1   2
BRANCH   1   5
ATOM      5  C   UNL     1      -7.887  30.545 106.182  1.00  0.00     0.181 C 
BRANCH   5   6
ATOM      6  C   UNL     1      -6.372  30.880 106.237  1.00  0.00     0.209 C 
BRANCH   6   7
ATOM      7  C   UNL     1      -5.868  31.378 104.907  1.00  0.00     0.258 C 
ATOM      8  O   UNL     1      -5.980  30.690 103.905  1.00  0.00    -0.300 OA
ENDBRANCH   6   7
BRANCH   6   9
ATOM      9  O   UNL     1      -5.630  29.754 106.632  1.00  0.00    -0.383 OA
ATOM     10  H   UNL     1      -4.863  29.663 106.007  1.00  0.00     0.211 HD
ENDBRANCH   6   9
ENDBRANCH   5   6
BRANCH   5  11
ATOM     11  O   UNL     1      -8.495  31.207 105.099  1.00  0.00    -0.387 OA
ATOM     12  H   UNL     1      -8.329  32.180 105.208  1.00  0.00     0.211 HD
ENDBRANCH   5  11
ENDBRANCH   1   5
BRANCH   1  13
ATOM     13  O   UNL     1      -7.788  28.521 104.855  1.00  0.00    -0.388 OA
ATOM     14  H   UNL     1      -7.252  29.230 104.410  1.00  0.00     0.211 HD
ENDBRANCH   1  13
TORSDOF 8
ENDMDL
MODEL 4
REMARK VINA RESULT:    -2.823      1.526      3.674
REMARK INTER + INTRA:          -4.800
REMARK INTER:                  -3.904
REMARK INTRA:                  -0.896
REMARK UNBOUND:                -0.986
REMARK SMILES O=C[C@H](O)[C@@H](O)[C@H](O)CO
REMARK SMILES IDX 7 1 9 2 10 3 5 5 3 6 2 7 1 8 4 9 6 11 8 13
REMARK H PARENT 10 4 4 10 6 12 8 14
REMARK Flexibility Score: inf
ROOT
ATOM      1  C   UNL     1      -8.691  29.833 106.450  1.00  0.00     0.171 C 
ENDROOT
BRANCH   1   2
ATOM      2  C   UNL     1      -8.573  28.364 106.009  1.00  0.00     0.190 C 
BRANCH   2   3
ATOM      3  O   UNL     1      -9.769  27.923 105.421  1.00  0.00    -0.394 OA
ATOM      4  H   UNL     1     -10.345  28.723 105.303  1.00  0.00     0.210 HD
ENDBRANCH   2   3
ENDBRANCH   1   2
BRANCH   1   5
ATOM      5  C   UNL     1     -10.134  30.190 106.895  1.00  0.00     0.181 C 
BRANCH   5   6
ATOM      6  C   UNL     1     -10.188  31.463 107.782  1.00  0.00     0.209 C 
BRANCH   6   7
ATOM      7  C   UNL     1     -10.718  32.648 107.016  1.00  0.00     0.258 C 
ATOM      8  O   UNL     1     -10.132  33.058 106.027  1.00  0.00    -0.300 OA
ENDBRANCH   6   7
BRANCH   6   9
ATOM      9  O   UNL     1      -8.914  31.764 108.295  1.00  0.00    -0.383 OA
ATOM     10  H   UNL     1      -8.385  32.180 107.564  1.00  0.00     0.211 HD
ENDBRANCH   6   9
ENDBRANCH   5   6
BRANCH   5  11
ATOM     11  O   UNL     1     -10.980  30.336 105.779  1.00  0.00    -0.387 OA
ATOM     12  H   UNL     1     -11.703  30.969 106.029  1.00  0.00     0.211 HD
ENDBRANCH   5  11
ENDBRANCH   1   5
BRANCH   1  13
ATOM     13  O   UNL     1      -8.298  30.670 105.392  1.00  0.00    -0.388 OA
ATOM     14  H   UNL     1      -7.385  30.999 105.606  1.00  0.00     0.211 HD
ENDBRANCH   1  13
TORSDOF 8
ENDMDL
MODEL 5
REMARK VINA RESULT:    -2.810      1.588      3.966
REMARK INTER + INTRA:          -4.782
REMARK INTER:                  -4.088
REMARK INTRA:                  -0.694
REMARK UNBOUND:                -0.986
REMARK SMILES O=C[C@H](O)[C@@H](O)[C@H](O)CO
REMARK SMILES IDX 7 1 9 2 10 3 5 5 3 6 2 7 1 8 4 9 6 11 8 13
REMARK H PARENT 10 4 4 10 6 12 8 14
REMARK Flexibility Score: inf
ROOT
ATOM      1  C   UNL     1      -8.001  29.938 106.259  1.00  0.00     0.171 C 
ENDROOT
BRANCH   1   2
ATOM      2  C   UNL     1      -8.091  28.413 106.444  1.00  0.00     0.190 C 
BRANCH   2   3
ATOM      3  O   UNL     1      -8.713  27.813 105.338  1.00  0.00    -0.394 OA
ATOM      4  H   UNL     1      -8.435  26.861 105.332  1.00  0.00     0.210 HD
ENDBRANCH   2   3
ENDBRANCH   1   2
BRANCH   1   5
ATOM      5  C   UNL     1      -9.334  30.645 106.619  1.00  0.00     0.181 C 
BRANCH   5   6
ATOM      6  C   UNL     1      -9.396  32.105 106.096  1.00  0.00     0.209 C 
BRANCH   6   7
ATOM      7  C   UNL     1     -10.364  32.938 106.897  1.00  0.00     0.258 C 
ATOM      8  O   UNL     1     -11.466  32.499 107.187  1.00  0.00    -0.300 OA
ENDBRANCH   6   7
BRANCH   6   9
ATOM      9  O   UNL     1      -9.763  32.130 104.739  1.00  0.00    -0.383 OA
ATOM     10  H   UNL     1     -10.630  31.654 104.651  1.00  0.00     0.211 HD
ENDBRANCH   6   9
ENDBRANCH   5   6
BRANCH   5  11
ATOM     11  O   UNL     1     -10.435  29.908 106.143  1.00  0.00    -0.387 OA
ATOM     12  H   UNL     1     -11.191  30.540 106.020  1.00  0.00     0.211 HD
ENDBRANCH   5  11
ENDBRANCH   1   5
BRANCH   1  13
ATOM     13  O   UNL     1      -7.653  30.226 104.928  1.00  0.00    -0.388 OA
ATOM     14  H   UNL     1      -6.773  29.798 104.759  1.00  0.00     0.211 HD
ENDBRANCH   1  13
TORSDOF 8
ENDMDL
MODEL 6
REMARK VINA RESULT:    -2.700      9.792     11.145
REMARK INTER + INTRA:          -4.633
REMARK INTER:                  -3.946
REMARK INTRA:                  -0.687
REMARK UNBOUND:                -0.986
REMARK SMILES O=C[C@H](O)[C@@H](O)[C@H](O)CO
REMARK SMILES IDX 7 1 9 2 10 3 5 5 3 6 2 7 1 8 4 9 6 11 8 13
REMARK H PARENT 10 4 4 10 6 12 8 14
REMARK Flexibility Score: inf
ROOT
ATOM      1  C   UNL     1     -15.504  28.247  97.468  1.00  0.00     0.171 C 
ENDROOT
BRANCH   1   2
ATOM      2  C   UNL     1     -15.221  26.955  98.254  1.00  0.00     0.190 C 
BRANCH   2   3
ATOM      3  O   UNL     1     -14.178  27.150  99.173  1.00  0.00    -0.394 OA
ATOM      4  H   UNL     1     -13.328  27.051  98.670  1.00  0.00     0.210 HD
ENDBRANCH   2   3
ENDBRANCH   1   2
BRANCH   1   5
ATOM      5  C   UNL     1     -14.471  28.471  96.332  1.00  0.00     0.181 C 
BRANCH   5   6
ATOM      6  C   UNL     1     -14.412  29.949  95.860  1.00  0.00     0.209 C 
BRANCH   6   7
ATOM      7  C   UNL     1     -13.957  30.054  94.427  1.00  0.00     0.258 C 
ATOM      8  O   UNL     1     -13.387  29.118  93.889  1.00  0.00    -0.300 OA
ENDBRANCH   6   7
BRANCH   6   9
ATOM      9  O   UNL     1     -13.555  30.698  96.684  1.00  0.00    -0.383 OA
ATOM     10  H   UNL     1     -12.842  30.088  97.013  1.00  0.00     0.211 HD
ENDBRANCH   6   9
ENDBRANCH   5   6
BRANCH   5  11
ATOM     11  O   UNL     1     -13.192  28.033  96.726  1.00  0.00    -0.387 OA
ATOM     12  H   UNL     1     -13.186  27.970  97.717  1.00  0.00     0.211 HD
ENDBRANCH   5  11
ENDBRANCH   1   5
BRANCH   1  13
ATOM     13  O   UNL     1     -15.489  29.342  98.349  1.00  0.00    -0.388 OA
ATOM     14  H   UNL     1     -16.231  29.944  98.076  1.00  0.00     0.211 HD
ENDBRANCH   1  13
TORSDOF 8
ENDMDL
MODEL 7
REMARK VINA RESULT:    -2.686      1.740      3.118
REMARK INTER + INTRA:          -4.614
REMARK INTER:                  -4.274
REMARK INTRA:                  -0.339
REMARK UNBOUND:                -0.986
REMARK SMILES O=C[C@H](O)[C@@H](O)[C@H](O)CO
REMARK SMILES IDX 7 1 9 2 10 3 5 5 3 6 2 7 1 8 4 9 6 11 8 13
REMARK H PARENT 10 4 4 10 6 12 8 14
REMARK Flexibility Score: inf
ROOT
ATOM      1  C   UNL     1      -8.544  28.914 106.426  1.00  0.00     0.171 C 
ENDROOT
BRANCH   1   2
ATOM      2  C   UNL     1      -9.911  29.570 106.690  1.00  0.00     0.190 C 
BRANCH   2   3
ATOM      3  O   UNL     1     -10.059  30.736 105.924  1.00  0.00    -0.394 OA
ATOM      4  H   UNL     1     -10.112  31.496 106.561  1.00  0.00     0.210 HD
ENDBRANCH   2   3
ENDBRANCH   1   2
BRANCH   1   5
ATOM      5  C   UNL     1      -7.462  29.961 106.052  1.00  0.00     0.181 C 
BRANCH   5   6
ATOM      6  C   UNL     1      -6.089  29.662 106.711  1.00  0.00     0.209 C 
BRANCH   6   7
ATOM      7  C   UNL     1      -6.238  28.774 107.919  1.00  0.00     0.258 C 
ATOM      8  O   UNL     1      -6.049  29.217 109.040  1.00  0.00    -0.300 OA
ENDBRANCH   6   7
BRANCH   6   9
ATOM      9  O   UNL     1      -5.446  30.857 107.079  1.00  0.00    -0.383 OA
ATOM     10  H   UNL     1      -5.985  31.612 106.725  1.00  0.00     0.211 HD
ENDBRANCH   6   9
ENDBRANCH   5   6
BRANCH   5  11
ATOM     11  O   UNL     1      -7.322  30.058 104.654  1.00  0.00    -0.387 OA
ATOM     12  H   UNL     1      -7.924  30.782 104.340  1.00  0.00     0.211 HD
ENDBRANCH   5  11
ENDBRANCH   1   5
BRANCH   1  13
ATOM     13  O   UNL     1      -8.672  27.970 105.392  1.00  0.00    -0.388 OA
ATOM     14  H   UNL     1      -7.764  27.608 105.216  1.00  0.00     0.211 HD
ENDBRANCH   1  13
TORSDOF 8
ENDMDL
MODEL 8
REMARK VINA RESULT:    -2.662      2.489      3.605
REMARK INTER + INTRA:          -4.582
REMARK INTER:                  -3.638
REMARK INTRA:                  -0.944
REMARK UNBOUND:                -0.986
REMARK SMILES O=C[C@H](O)[C@@H](O)[C@H](O)CO
REMARK SMILES IDX 7 1 9 2 10 3 5 5 3 6 2 7 1 8 4 9 6 11 8 13
REMARK H PARENT 10 4 4 10 6 12 8 14
REMARK Flexibility Score: inf
ROOT
ATOM      1  C   UNL     1      -7.716  29.331 106.173  1.00  0.00     0.171 C 
ENDROOT
BRANCH   1   2
ATOM      2  C   UNL     1      -8.947  30.002 106.807  1.00  0.00     0.190 C 
BRANCH   2   3
ATOM      3  O   UNL     1      -9.651  30.753 105.853  1.00  0.00    -0.394 OA
ATOM      4  H   UNL     1     -10.568  30.376 105.807  1.00  0.00     0.210 HD
ENDBRANCH   2   3
ENDBRANCH   1   2
BRANCH   1   5
ATOM      5  C   UNL     1      -6.626  30.367 105.789  1.00  0.00     0.181 C 
BRANCH   5   6
ATOM      6  C   UNL     1      -6.572  30.638 104.261  1.00  0.00     0.209 C 
BRANCH   6   7
ATOM      7  C   UNL     1      -5.254  31.243 103.854  1.00  0.00     0.258 C 
ATOM      8  O   UNL     1      -4.455  31.613 104.700  1.00  0.00    -0.300 OA
ENDBRANCH   6   7
BRANCH   6   9
ATOM      9  O   UNL     1      -7.622  31.487 103.872  1.00  0.00    -0.383 OA
ATOM     10  H   UNL     1      -7.259  32.410 103.814  1.00  0.00     0.211 HD
ENDBRANCH   6   9
ENDBRANCH   5   6
BRANCH   5  11
ATOM     11  O   UNL     1      -6.812  31.572 106.492  1.00  0.00    -0.387 OA
ATOM     12  H   UNL     1      -6.107  31.626 107.190  1.00  0.00     0.211 HD
ENDBRANCH   5  11
ENDBRANCH   1   5
BRANCH   1  13
ATOM     13  O   UNL     1      -8.112  28.610 105.033  1.00  0.00    -0.388 OA
ATOM     14  H   UNL     1      -7.301  28.158 104.679  1.00  0.00     0.211 HD
ENDBRANCH   1  13
TORSDOF 8
ENDMDL
MODEL 9
REMARK VINA RESULT:    -2.609      1.980      3.863
REMARK INTER + INTRA:          -4.510
REMARK INTER:                  -3.821
REMARK INTRA:                  -0.689
REMARK UNBOUND:                -0.986
REMARK SMILES O=C[C@H](O)[C@@H](O)[C@H](O)CO
REMARK SMILES IDX 7 1 9 2 10 3 5 5 3 6 2 7 1 8 4 9 6 11 8 13
REMARK H PARENT 10 4 4 10 6 12 8 14
REMARK Flexibility Score: inf
ROOT
ATOM      1  C   UNL     1     -10.708  30.835 106.822  1.00  0.00     0.171 C 
ENDROOT
BRANCH   1   2
ATOM      2  C   UNL     1     -11.571  30.545 108.062  1.00  0.00     0.190 C 
BRANCH   2   3
ATOM      3  O   UNL     1     -12.910  30.332 107.698  1.00  0.00    -0.394 OA
ATOM      4  H   UNL     1     -13.203  31.135 107.193  1.00  0.00     0.210 HD
ENDBRANCH   2   3
ENDBRANCH   1   2
BRANCH   1   5
ATOM      5  C   UNL     1     -11.453  31.725 105.793  1.00  0.00     0.181 C 
BRANCH   5   6
ATOM      6  C   UNL     1     -10.508  32.722 105.070  1.00  0.00     0.209 C 
BRANCH   6   7
ATOM      7  C   UNL     1     -11.172  33.336 103.864  1.00  0.00     0.258 C 
ATOM      8  O   UNL     1     -11.120  32.781 102.778  1.00  0.00    -0.300 OA
ENDBRANCH   6   7
BRANCH   6   9
ATOM      9  O   UNL     1      -9.319  32.082 104.679  1.00  0.00    -0.383 OA
ATOM     10  H   UNL     1      -9.238  31.246 105.209  1.00  0.00     0.211 HD
ENDBRANCH   6   9
ENDBRANCH   5   6
BRANCH   5  11
ATOM     11  O   UNL     1     -12.140  30.934 104.853  1.00  0.00    -0.387 OA
ATOM     12  H   UNL     1     -11.463  30.493 104.276  1.00  0.00     0.211 HD
ENDBRANCH   5  11
ENDBRANCH   1   5
BRANCH   1  13
ATOM     13  O   UNL     1     -10.333  29.621 106.220  1.00  0.00    -0.388 OA
ATOM     14  H   UNL     1     -11.084  28.986 106.358  1.00  0.00     0.211 HD
ENDBRANCH   1  13
TORSDOF 8
ENDMDL
