MODEL 1
REMARK VINA RESULT:    25.983      0.000      0.000
REMARK INTER + INTRA:          31.530
REMARK INTER:                  31.299
REMARK INTRA:                   0.231
REMARK UNBOUND:                 0.231
REMARK SMILES Oc1cc(O)c2cc(O)c(-c3ccc(O)c(O)c3)[o+]c2c1
REMARK SMILES IDX 10 1 19 2 20 3 21 4 2 5 3 6 4 7 6 8 7 9 8 10 11 11 12 12
REMARK SMILES IDX 13 13 14 14 18 15 16 16 15 17 17 19 9 21 1 23 5 25
REMARK H PARENT 15 18 17 20 9 22 1 24 5 26
REMARK Flexibility Score: inf
ROOT
ATOM      1  C   UNL     1       8.209   2.179  21.674  1.00  0.00     0.402 A 
ATOM      2  O   UNL     1       7.642   2.764  20.619  1.00  0.00    -0.202 OA
ATOM      3  C   UNL     1       7.895   4.019  20.261  1.00  0.00     0.368 A 
ATOM      4  C   UNL     1       7.255   4.561  19.142  1.00  0.00     0.162 A 
ATOM      5  C   UNL     1       7.510   5.883  18.756  1.00  0.00     0.128 A 
ATOM      6  C   UNL     1       8.409   6.664  19.490  1.00  0.00     0.093 A 
ATOM      7  C   UNL     1       9.060   6.133  20.614  1.00  0.00     0.136 A 
ATOM      8  C   UNL     1       8.803   4.804  21.003  1.00  0.00     0.125 A 
ATOM      9  C   UNL     1       9.429   4.220  22.110  1.00  0.00     0.078 A 
ATOM     10  C   UNL     1       9.144   2.894  22.449  1.00  0.00     0.223 A 
ENDROOT
BRANCH   1  11
ATOM     11  C   UNL     1       7.840   0.779  21.979  1.00  0.00     0.087 A 
ATOM     12  C   UNL     1       7.850   0.337  23.313  1.00  0.00     0.022 A 
ATOM     13  C   UNL     1       7.524  -0.986  23.623  1.00  0.00     0.051 A 
ATOM     14  C   UNL     1       7.198  -1.891  22.609  1.00  0.00     0.157 A 
ATOM     15  C   UNL     1       7.532  -0.139  20.959  1.00  0.00     0.068 A 
ATOM     16  C   UNL     1       7.206  -1.468  21.268  1.00  0.00     0.158 A 
BRANCH  14  17
ATOM     17  O   UNL     1       6.875  -3.203  22.949  1.00  0.00    -0.504 OA
ATOM     18  H   UNL     1       7.409  -3.729  23.631  1.00  0.00     0.293 HD
ENDBRANCH  14  17
BRANCH  16  19
ATOM     19  O   UNL     1       6.897  -2.369  20.250  1.00  0.00    -0.504 OA
ATOM     20  H   UNL     1       6.070  -2.257  19.676  1.00  0.00     0.293 HD
ENDBRANCH  16  19
ENDBRANCH   1  11
BRANCH  10  21
ATOM     21  O   UNL     1       9.803   2.289  23.520  1.00  0.00    -0.500 OA
ATOM     22  H   UNL     1       9.346   1.596  24.102  1.00  0.00     0.294 HD
ENDBRANCH  10  21
BRANCH   5  23
ATOM     23  O   UNL     1       6.876   6.432  17.644  1.00  0.00    -0.507 OA
ATOM     24  H   UNL     1       7.184   6.223  16.701  1.00  0.00     0.293 HD
ENDBRANCH   5  23
BRANCH   7  25
ATOM     25  O   UNL     1       9.955   6.921  21.337  1.00  0.00    -0.507 OA
ATOM     26  H   UNL     1       9.733   7.262  22.266  1.00  0.00     0.293 HD
ENDBRANCH   7  25
TORSDOF 6
ENDMDL
MODEL 2
REMARK VINA RESULT:    27.784      8.815     12.236
REMARK INTER + INTRA:          33.699
REMARK INTER:                  33.383
REMARK INTRA:                   0.317
REMARK UNBOUND:                 0.231
REMARK SMILES Oc1cc(O)c2cc(O)c(-c3ccc(O)c(O)c3)[o+]c2c1
REMARK SMILES IDX 10 1 19 2 20 3 21 4 2 5 3 6 4 7 6 8 7 9 8 10 11 11 12 12
REMARK SMILES IDX 13 13 14 14 18 15 16 16 15 17 17 19 9 21 1 23 5 25
REMARK H PARENT 15 18 17 20 9 22 1 24 5 26
REMARK Flexibility Score: inf
ROOT
ATOM      1  C   UNL     1      15.108   7.881  16.123  1.00  0.00     0.402 A 
ATOM      2  O   UNL     1      15.456   6.728  16.693  1.00  0.00    -0.202 OA
ATOM      3  C   UNL     1      14.983   5.551  16.299  1.00  0.00     0.368 A 
ATOM      4  C   UNL     1      15.395   4.386  16.953  1.00  0.00     0.162 A 
ATOM      5  C   UNL     1      14.901   3.138  16.550  1.00  0.00     0.128 A 
ATOM      6  C   UNL     1      13.992   3.057  15.490  1.00  0.00     0.093 A 
ATOM      7  C   UNL     1      13.570   4.217  14.823  1.00  0.00     0.136 A 
ATOM      8  C   UNL     1      14.066   5.471  15.228  1.00  0.00     0.125 A 
ATOM      9  C   UNL     1      13.687   6.660  14.595  1.00  0.00     0.078 A 
ATOM     10  C   UNL     1      14.215   7.879  15.032  1.00  0.00     0.223 A 
ENDROOT
BRANCH   1  11
ATOM     11  C   UNL     1      15.695   9.131  16.656  1.00  0.00     0.087 A 
ATOM     12  C   UNL     1      15.021  10.348  16.463  1.00  0.00     0.022 A 
ATOM     13  C   UNL     1      15.566  11.543  16.941  1.00  0.00     0.051 A 
ATOM     14  C   UNL     1      16.796  11.544  17.603  1.00  0.00     0.157 A 
ATOM     15  C   UNL     1      16.943   9.137  17.304  1.00  0.00     0.068 A 
ATOM     16  C   UNL     1      17.492  10.336  17.784  1.00  0.00     0.158 A 
BRANCH  14  17
ATOM     17  O   UNL     1      17.313  12.751  18.071  1.00  0.00    -0.504 OA
ATOM     18  H   UNL     1      18.156  13.160  17.685  1.00  0.00     0.293 HD
ENDBRANCH  14  17
BRANCH  16  19
ATOM     19  O   UNL     1      18.727  10.332  18.430  1.00  0.00    -0.504 OA
ATOM     20  H   UNL     1      19.514  10.861  18.075  1.00  0.00     0.293 HD
ENDBRANCH  16  19
ENDBRANCH   1  11
BRANCH  10  21
ATOM     21  O   UNL     1      13.880   9.062  14.373  1.00  0.00    -0.500 OA
ATOM     22  H   UNL     1      14.575   9.770  14.166  1.00  0.00     0.294 HD
ENDBRANCH  10  21
BRANCH   5  23
ATOM     23  O   UNL     1      15.306   1.972  17.196  1.00  0.00    -0.507 OA
ATOM     24  H   UNL     1      14.742   1.547  17.924  1.00  0.00     0.293 HD
ENDBRANCH   5  23
BRANCH   7  25
ATOM     25  O   UNL     1      12.665   4.123  13.766  1.00  0.00    -0.507 OA
ATOM     26  H   UNL     1      12.795   3.459  13.012  1.00  0.00     0.293 HD
ENDBRANCH   7  25
TORSDOF 6
ENDMDL
MODEL 3
REMARK VINA RESULT:    28.061     11.245     12.685
REMARK INTER + INTRA:          34.033
REMARK INTER:                  33.733
REMARK INTRA:                   0.301
REMARK UNBOUND:                 0.231
REMARK SMILES Oc1cc(O)c2cc(O)c(-c3ccc(O)c(O)c3)[o+]c2c1
REMARK SMILES IDX 10 1 19 2 20 3 21 4 2 5 3 6 4 7 6 8 7 9 8 10 11 11 12 12
REMARK SMILES IDX 13 13 14 14 18 15 16 16 15 17 17 19 9 21 1 23 5 25
REMARK H PARENT 15 18 17 20 9 22 1 24 5 26
REMARK Flexibility Score: inf
ROOT
ATOM      1  C   UNL     1      17.200   3.258  13.683  1.00  0.00     0.402 A 
ATOM      2  O   UNL     1      16.060   3.879  13.380  1.00  0.00    -0.202 OA
ATOM      3  C   UNL     1      15.114   4.140  14.277  1.00  0.00     0.368 A 
ATOM      4  C   UNL     1      13.944   4.792  13.878  1.00  0.00     0.162 A 
ATOM      5  C   UNL     1      12.938   5.070  14.812  1.00  0.00     0.128 A 
ATOM      6  C   UNL     1      13.104   4.695  16.149  1.00  0.00     0.093 A 
ATOM      7  C   UNL     1      14.274   4.041  16.565  1.00  0.00     0.136 A 
ATOM      8  C   UNL     1      15.285   3.761  15.626  1.00  0.00     0.125 A 
ATOM      9  C   UNL     1      16.476   3.119  15.985  1.00  0.00     0.078 A 
ATOM     10  C   UNL     1      17.451   2.871  15.014  1.00  0.00     0.223 A 
ENDROOT
BRANCH   1  11
ATOM     11  C   UNL     1      18.174   3.014  12.595  1.00  0.00     0.087 A 
ATOM     12  C   UNL     1      19.087   1.954  12.711  1.00  0.00     0.022 A 
ATOM     13  C   UNL     1      20.028   1.717  11.706  1.00  0.00     0.051 A 
ATOM     14  C   UNL     1      20.082   2.542  10.579  1.00  0.00     0.157 A 
ATOM     15  C   UNL     1      18.244   3.856  11.470  1.00  0.00     0.068 A 
ATOM     16  C   UNL     1      19.189   3.620  10.461  1.00  0.00     0.158 A 
BRANCH  14  17
ATOM     17  O   UNL     1      21.030   2.279   9.592  1.00  0.00    -0.504 OA
ATOM     18  H   UNL     1      20.848   1.639   8.828  1.00  0.00     0.293 HD
ENDBRANCH  14  17
BRANCH  16  19
ATOM     19  O   UNL     1      19.247   4.456   9.346  1.00  0.00    -0.504 OA
ATOM     20  H   UNL     1      18.638   5.260   9.254  1.00  0.00     0.293 HD
ENDBRANCH  16  19
ENDBRANCH   1  11
BRANCH  10  21
ATOM     21  O   UNL     1      18.661   2.277  15.375  1.00  0.00    -0.500 OA
ATOM     22  H   UNL     1      18.852   2.000  16.331  1.00  0.00     0.294 HD
ENDBRANCH  10  21
BRANCH   5  23
ATOM     23  O   UNL     1      11.768   5.718  14.423  1.00  0.00    -0.507 OA
ATOM     24  H   UNL     1      11.785   6.503  13.782  1.00  0.00     0.293 HD
ENDBRANCH   5  23
BRANCH   7  25
ATOM     25  O   UNL     1      14.429   3.673  17.902  1.00  0.00    -0.507 OA
ATOM     26  H   UNL     1      15.220   3.988  18.452  1.00  0.00     0.293 HD
ENDBRANCH   7  25
TORSDOF 6
ENDMDL
MODEL 4
REMARK VINA RESULT:    28.816     11.293     12.859
REMARK INTER + INTRA:          34.942
REMARK INTER:                  34.525
REMARK INTRA:                   0.417
REMARK UNBOUND:                 0.231
REMARK SMILES Oc1cc(O)c2cc(O)c(-c3ccc(O)c(O)c3)[o+]c2c1
REMARK SMILES IDX 10 1 19 2 20 3 21 4 2 5 3 6 4 7 6 8 7 9 8 10 11 11 12 12
REMARK SMILES IDX 13 13 14 14 18 15 16 16 15 17 17 19 9 21 1 23 5 25
REMARK H PARENT 15 18 17 20 9 22 1 24 5 26
REMARK Flexibility Score: inf
ROOT
ATOM      1  C   UNL     1      14.942  -2.346  12.985  1.00  0.00     0.402 A 
ATOM      2  O   UNL     1      14.328  -2.919  14.020  1.00  0.00    -0.202 OA
ATOM      3  C   UNL     1      13.009  -2.902  14.183  1.00  0.00     0.368 A 
ATOM      4  C   UNL     1      12.442  -3.523  15.299  1.00  0.00     0.162 A 
ATOM      5  C   UNL     1      11.053  -3.509  15.484  1.00  0.00     0.128 A 
ATOM      6  C   UNL     1      10.231  -2.873  14.549  1.00  0.00     0.093 A 
ATOM      7  C   UNL     1      10.785  -2.247  13.422  1.00  0.00     0.136 A 
ATOM      8  C   UNL     1      12.181  -2.260  13.236  1.00  0.00     0.125 A 
ATOM      9  C   UNL     1      12.789  -1.658  12.129  1.00  0.00     0.078 A 
ATOM     10  C   UNL     1      14.179  -1.706  11.988  1.00  0.00     0.223 A 
ENDROOT
BRANCH   1  11
ATOM     11  C   UNL     1      16.418  -2.423  12.918  1.00  0.00     0.087 A 
ATOM     12  C   UNL     1      17.127  -3.026  13.970  1.00  0.00     0.022 A 
ATOM     13  C   UNL     1      18.522  -3.093  13.937  1.00  0.00     0.051 A 
ATOM     14  C   UNL     1      19.232  -2.546  12.864  1.00  0.00     0.157 A 
ATOM     15  C   UNL     1      17.135  -1.855  11.850  1.00  0.00     0.068 A 
ATOM     16  C   UNL     1      18.536  -1.919  11.816  1.00  0.00     0.158 A 
BRANCH  14  17
ATOM     17  O   UNL     1      20.623  -2.630  12.858  1.00  0.00    -0.504 OA
ATOM     18  H   UNL     1      21.111  -3.458  12.538  1.00  0.00     0.293 HD
ENDBRANCH  14  17
BRANCH  16  19
ATOM     19  O   UNL     1      19.238  -1.358  10.749  1.00  0.00    -0.504 OA
ATOM     20  H   UNL     1      18.851  -0.600  10.200  1.00  0.00     0.293 HD
ENDBRANCH  16  19
ENDBRANCH   1  11
BRANCH  10  21
ATOM     21  O   UNL     1      14.786  -1.153  10.861  1.00  0.00    -0.500 OA
ATOM     22  H   UNL     1      14.910  -0.152  10.760  1.00  0.00     0.294 HD
ENDBRANCH  10  21
BRANCH   5  23
ATOM     23  O   UNL     1      10.479  -4.125  16.595  1.00  0.00    -0.507 OA
ATOM     24  H   UNL     1       9.570  -4.570  16.543  1.00  0.00     0.293 HD
ENDBRANCH   5  23
BRANCH   7  25
ATOM     25  O   UNL     1       9.954  -1.616  12.496  1.00  0.00    -0.507 OA
ATOM     26  H   UNL     1       9.520  -2.128  11.737  1.00  0.00     0.293 HD
ENDBRANCH   7  25
TORSDOF 6
ENDMDL
