MODEL 1
REMARK VINA RESULT:    -5.203      0.000      0.000
REMARK INTER + INTRA:          -7.138
REMARK INTER:                  -6.724
REMARK INTRA:                  -0.414
REMARK UNBOUND:                -0.414
REMARK SMILES C=CC(=O)CCCCC
REMARK SMILES IDX 6 1 7 2 8 3 9 4 5 5 3 6 4 7 2 8 1 9
REMARK H PARENT
REMARK Flexibility Score: inf
ROOT
ATOM      1  C   UNL     1      -0.916  27.833  29.117  1.00  0.00     0.008 C 
ENDROOT
BRANCH   1   2
ATOM      2  C   UNL     1       0.168  26.749  28.975  1.00  0.00     0.000 C 
BRANCH   2   3
ATOM      3  C   UNL     1      -0.211  25.669  27.951  1.00  0.00    -0.003 C 
ATOM      4  C   UNL     1      -1.526  25.972  27.233  1.00  0.00     0.004 C 
ENDBRANCH   2   3
ENDBRANCH   1   2
BRANCH   1   5
ATOM      5  C   UNL     1      -1.472  27.914  30.546  1.00  0.00     0.080 C 
BRANCH   5   6
ATOM      6  C   UNL     1      -2.900  28.377  30.566  1.00  0.00     0.155 C 
ATOM      7  O   UNL     1      -3.275  29.188  31.456  1.00  0.00    -0.295 OA
BRANCH   6   8
ATOM      8  C   UNL     1      -3.858  27.860  29.568  1.00  0.00     0.039 C 
ATOM      9  C   UNL     1      -4.647  26.815  29.811  1.00  0.00     0.012 C 
ENDBRANCH   6   8
ENDBRANCH   5   6
ENDBRANCH   1   5
TORSDOF 5
ENDMDL
MODEL 2
REMARK VINA RESULT:    -5.109      1.652      4.059
REMARK INTER + INTRA:          -7.017
REMARK INTER:                  -6.666
REMARK INTRA:                  -0.350
REMARK UNBOUND:                -0.414
REMARK SMILES C=CC(=O)CCCCC
REMARK SMILES IDX 6 1 7 2 8 3 9 4 5 5 3 6 4 7 2 8 1 9
REMARK H PARENT
REMARK Flexibility Score: inf
ROOT
ATOM      1  C   UNL     1      -2.510  28.269  30.550  1.00  0.00     0.008 C 
ENDROOT
BRANCH   1   2
ATOM      2  C   UNL     1      -3.646  27.231  30.515  1.00  0.00     0.000 C 
BRANCH   2   3
ATOM      3  C   UNL     1      -4.958  27.812  29.967  1.00  0.00    -0.003 C 
ATOM      4  C   UNL     1      -4.961  29.340  29.940  1.00  0.00     0.004 C 
ENDBRANCH   2   3
ENDBRANCH   1   2
BRANCH   1   5
ATOM      5  C   UNL     1      -1.259  27.785  29.804  1.00  0.00     0.080 C 
BRANCH   5   6
ATOM      6  C   UNL     1      -1.540  27.518  28.353  1.00  0.00     0.155 C 
ATOM      7  O   UNL     1      -2.182  28.370  27.680  1.00  0.00    -0.295 OA
BRANCH   6   8
ATOM      8  C   UNL     1      -1.092  26.255  27.734  1.00  0.00     0.039 C 
ATOM      9  C   UNL     1       0.086  25.700  28.016  1.00  0.00     0.012 C 
ENDBRANCH   6   8
ENDBRANCH   5   6
ENDBRANCH   1   5
TORSDOF 5
ENDMDL
MODEL 3
REMARK VINA RESULT:    -4.982      1.508      2.001
REMARK INTER + INTRA:          -6.852
REMARK INTER:                  -6.592
REMARK INTRA:                  -0.260
REMARK UNBOUND:                -0.414
REMARK SMILES C=CC(=O)CCCCC
REMARK SMILES IDX 6 1 7 2 8 3 9 4 5 5 3 6 4 7 2 8 1 9
REMARK H PARENT
REMARK Flexibility Score: inf
ROOT
ATOM      1  C   UNL     1      -1.415  27.795  29.011  1.00  0.00     0.008 C 
ENDROOT
BRANCH   1   2
ATOM      2  C   UNL     1      -1.951  26.999  27.807  1.00  0.00     0.000 C 
BRANCH   2   3
ATOM      3  C   UNL     1      -1.076  25.782  27.470  1.00  0.00    -0.003 C 
ATOM      4  C   UNL     1       0.272  25.807  28.190  1.00  0.00     0.004 C 
ENDBRANCH   2   3
ENDBRANCH   1   2
BRANCH   1   5
ATOM      5  C   UNL     1      -2.362  27.731  30.217  1.00  0.00     0.080 C 
BRANCH   5   6
ATOM      6  C   UNL     1      -3.789  27.984  29.823  1.00  0.00     0.155 C 
ATOM      7  O   UNL     1      -4.608  27.025  29.812  1.00  0.00    -0.295 OA
BRANCH   6   8
ATOM      8  C   UNL     1      -4.216  29.340  29.425  1.00  0.00     0.039 C 
ATOM      9  C   UNL     1      -4.519  29.653  28.166  1.00  0.00     0.012 C 
ENDBRANCH   6   8
ENDBRANCH   5   6
ENDBRANCH   1   5
TORSDOF 5
ENDMDL
MODEL 4
REMARK VINA RESULT:    -4.751      1.884      4.566
REMARK INTER + INTRA:          -6.553
REMARK INTER:                  -6.413
REMARK INTRA:                  -0.140
REMARK UNBOUND:                -0.414
REMARK SMILES C=CC(=O)CCCCC
REMARK SMILES IDX 6 1 7 2 8 3 9 4 5 5 3 6 4 7 2 8 1 9
REMARK H PARENT
REMARK Flexibility Score: inf
ROOT
ATOM      1  C   UNL     1      -3.413  28.049  30.024  1.00  0.00     0.008 C 
ENDROOT
BRANCH   1   2
ATOM      2  C   UNL     1      -4.947  27.932  30.068  1.00  0.00     0.000 C 
BRANCH   2   3
ATOM      3  C   UNL     1      -5.642  29.302  30.086  1.00  0.00    -0.003 C 
ATOM      4  C   UNL     1      -5.836  29.883  28.685  1.00  0.00     0.004 C 
ENDBRANCH   2   3
ENDBRANCH   1   2
BRANCH   1   5
ATOM      5  C   UNL     1      -2.840  27.650  28.657  1.00  0.00     0.080 C 
BRANCH   5   6
ATOM      6  C   UNL     1      -1.379  27.313  28.738  1.00  0.00     0.155 C 
ATOM      7  O   UNL     1      -0.640  27.951  29.536  1.00  0.00    -0.295 OA
BRANCH   6   8
ATOM      8  C   UNL     1      -0.814  26.263  27.867  1.00  0.00     0.039 C 
ATOM      9  C   UNL     1       0.369  25.699  28.104  1.00  0.00     0.012 C 
ENDBRANCH   6   8
ENDBRANCH   5   6
ENDBRANCH   1   5
TORSDOF 5
ENDMDL
MODEL 5
REMARK VINA RESULT:    -4.728      1.868      2.296
REMARK INTER + INTRA:          -6.524
REMARK INTER:                  -6.341
REMARK INTRA:                  -0.183
REMARK UNBOUND:                -0.414
REMARK SMILES C=CC(=O)CCCCC
REMARK SMILES IDX 6 1 7 2 8 3 9 4 5 5 3 6 4 7 2 8 1 9
REMARK H PARENT
REMARK Flexibility Score: inf
ROOT
ATOM      1  C   UNL     1      -2.542  28.264  27.511  1.00  0.00     0.008 C 
ENDROOT
BRANCH   1   2
ATOM      2  C   UNL     1      -1.500  27.481  28.330  1.00  0.00     0.000 C 
BRANCH   2   3
ATOM      3  C   UNL     1      -1.009  26.219  27.605  1.00  0.00    -0.003 C 
ATOM      4  C   UNL     1       0.322  25.703  28.154  1.00  0.00     0.004 C 
ENDBRANCH   2   3
ENDBRANCH   1   2
BRANCH   1   5
ATOM      5  C   UNL     1      -3.098  29.469  28.282  1.00  0.00     0.080 C 
BRANCH   5   6
ATOM      6  C   UNL     1      -4.468  29.197  28.835  1.00  0.00     0.155 C 
ATOM      7  O   UNL     1      -5.477  29.682  28.254  1.00  0.00    -0.295 OA
BRANCH   6   8
ATOM      8  C   UNL     1      -4.623  28.395  30.065  1.00  0.00     0.039 C 
ATOM      9  C   UNL     1      -4.664  27.064  30.048  1.00  0.00     0.012 C 
ENDBRANCH   6   8
ENDBRANCH   5   6
ENDBRANCH   1   5
TORSDOF 5
ENDMDL
MODEL 6
REMARK VINA RESULT:    -4.598      1.839      2.670
REMARK INTER + INTRA:          -6.356
REMARK INTER:                  -5.848
REMARK INTRA:                  -0.508
REMARK UNBOUND:                -0.414
REMARK SMILES C=CC(=O)CCCCC
REMARK SMILES IDX 6 1 7 2 8 3 9 4 5 5 3 6 4 7 2 8 1 9
REMARK H PARENT
REMARK Flexibility Score: inf
ROOT
ATOM      1  C   UNL     1      -3.134  27.718  30.507  1.00  0.00     0.008 C 
ENDROOT
BRANCH   1   2
ATOM      2  C   UNL     1      -1.602  27.853  30.437  1.00  0.00     0.000 C 
BRANCH   2   3
ATOM      3  C   UNL     1      -1.072  27.812  28.996  1.00  0.00    -0.003 C 
ATOM      4  C   UNL     1      -1.975  27.011  28.058  1.00  0.00     0.004 C 
ENDBRANCH   2   3
ENDBRANCH   1   2
BRANCH   1   5
ATOM      5  C   UNL     1      -3.809  29.015  30.973  1.00  0.00     0.080 C 
BRANCH   5   6
ATOM      6  C   UNL     1      -4.939  29.416  30.067  1.00  0.00     0.155 C 
ATOM      7  O   UNL     1      -6.057  29.715  30.569  1.00  0.00    -0.295 OA
BRANCH   6   8
ATOM      8  C   UNL     1      -4.744  29.427  28.604  1.00  0.00     0.039 C 
ATOM      9  C   UNL     1      -4.277  30.492  27.954  1.00  0.00     0.012 C 
ENDBRANCH   6   8
ENDBRANCH   5   6
ENDBRANCH   1   5
TORSDOF 5
ENDMDL
MODEL 7
REMARK VINA RESULT:    -4.573      1.988      4.208
REMARK INTER + INTRA:          -6.323
REMARK INTER:                  -5.946
REMARK INTRA:                  -0.377
REMARK UNBOUND:                -0.414
REMARK SMILES C=CC(=O)CCCCC
REMARK SMILES IDX 6 1 7 2 8 3 9 4 5 5 3 6 4 7 2 8 1 9
REMARK H PARENT
REMARK Flexibility Score: inf
ROOT
ATOM      1  C   UNL     1      -4.500  27.787  29.721  1.00  0.00     0.008 C 
ENDROOT
BRANCH   1   2
ATOM      2  C   UNL     1      -5.346  29.044  29.991  1.00  0.00     0.000 C 
BRANCH   2   3
ATOM      3  C   UNL     1      -5.791  29.744  28.698  1.00  0.00    -0.003 C 
ATOM      4  C   UNL     1      -4.623  30.044  27.758  1.00  0.00     0.004 C 
ENDBRANCH   2   3
ENDBRANCH   1   2
BRANCH   1   5
ATOM      5  C   UNL     1      -3.183  27.794  30.508  1.00  0.00     0.080 C 
BRANCH   5   6
ATOM      6  C   UNL     1      -1.993  27.607  29.611  1.00  0.00     0.155 C 
ATOM      7  O   UNL     1      -0.832  27.704  30.094  1.00  0.00    -0.295 OA
BRANCH   6   8
ATOM      8  C   UNL     1      -2.187  27.342  28.171  1.00  0.00     0.039 C 
ATOM      9  C   UNL     1      -1.638  26.296  27.557  1.00  0.00     0.012 C 
ENDBRANCH   6   8
ENDBRANCH   5   6
ENDBRANCH   1   5
TORSDOF 5
ENDMDL
MODEL 8
REMARK VINA RESULT:    -4.206      3.943      5.389
REMARK INTER + INTRA:          -5.849
REMARK INTER:                  -5.702
REMARK INTRA:                  -0.147
REMARK UNBOUND:                -0.414
REMARK SMILES C=CC(=O)CCCCC
REMARK SMILES IDX 6 1 7 2 8 3 9 4 5 5 3 6 4 7 2 8 1 9
REMARK H PARENT
REMARK Flexibility Score: inf
ROOT
ATOM      1  C   UNL     1      -4.062  31.018  27.888  1.00  0.00     0.008 C 
ENDROOT
BRANCH   1   2
ATOM      2  C   UNL     1      -5.261  31.962  27.686  1.00  0.00     0.000 C 
BRANCH   2   3
ATOM      3  C   UNL     1      -4.948  33.112  26.717  1.00  0.00    -0.003 C 
ATOM      4  C   UNL     1      -5.237  32.750  25.260  1.00  0.00     0.004 C 
ENDBRANCH   2   3
ENDBRANCH   1   2
BRANCH   1   5
ATOM      5  C   UNL     1      -4.500  29.561  28.092  1.00  0.00     0.080 C 
BRANCH   5   6
ATOM      6  C   UNL     1      -3.335  28.664  28.401  1.00  0.00     0.155 C 
ATOM      7  O   UNL     1      -2.290  28.742  27.700  1.00  0.00    -0.295 OA
BRANCH   6   8
ATOM      8  C   UNL     1      -3.432  27.681  29.498  1.00  0.00     0.039 C 
ATOM      9  C   UNL     1      -4.601  27.258  29.977  1.00  0.00     0.012 C 
ENDBRANCH   6   8
ENDBRANCH   5   6
ENDBRANCH   1   5
TORSDOF 5
ENDMDL
MODEL 9
REMARK VINA RESULT:    -4.191      2.982      4.957
REMARK INTER + INTRA:          -5.829
REMARK INTER:                  -5.449
REMARK INTRA:                  -0.380
REMARK UNBOUND:                -0.414
REMARK SMILES C=CC(=O)CCCCC
REMARK SMILES IDX 6 1 7 2 8 3 9 4 5 5 3 6 4 7 2 8 1 9
REMARK H PARENT
REMARK Flexibility Score: inf
ROOT
ATOM      1  C   UNL     1      -5.958  29.488  28.975  1.00  0.00     0.008 C 
ENDROOT
BRANCH   1   2
ATOM      2  C   UNL     1      -5.990  30.965  28.545  1.00  0.00     0.000 C 
BRANCH   2   3
ATOM      3  C   UNL     1      -4.730  31.381  27.770  1.00  0.00    -0.003 C 
ATOM      4  C   UNL     1      -4.920  32.682  26.991  1.00  0.00     0.004 C 
ENDBRANCH   2   3
ENDBRANCH   1   2
BRANCH   1   5
ATOM      5  C   UNL     1      -5.374  29.306  30.383  1.00  0.00     0.080 C 
BRANCH   5   6
ATOM      6  C   UNL     1      -3.968  28.778  30.343  1.00  0.00     0.155 C 
ATOM      7  O   UNL     1      -3.164  29.090  31.263  1.00  0.00    -0.295 OA
BRANCH   6   8
ATOM      8  C   UNL     1      -3.531  27.926  29.219  1.00  0.00     0.039 C 
ATOM      9  C   UNL     1      -2.559  28.290  28.385  1.00  0.00     0.012 C 
ENDBRANCH   6   8
ENDBRANCH   5   6
ENDBRANCH   1   5
TORSDOF 5
ENDMDL
