MODEL 1
REMARK VINA RESULT:    -3.155      0.000      0.000
REMARK INTER + INTRA:          -3.926
REMARK INTER:                  -3.800
REMARK INTRA:                  -0.126
REMARK UNBOUND:                -0.126
REMARK SMILES CC[C@@H](C)[C@H]([NH3+])C(=O)[O-]
REMARK SMILES IDX 3 1 4 2 5 3 6 4 7 8 8 9 9 10 2 11 1 12
REMARK H PARENT 6 5 6 6 6 7
REMARK Flexibility Score: inf
ROOT
ATOM      1  C   UNL     1      45.479  18.583  76.519  1.00  0.00     0.050 C 
ATOM      2  C   UNL     1      45.701  17.067  76.665  1.00  0.00     0.014 C 
ENDROOT
BRANCH   1   3
ATOM      3  C   UNL     1      46.062  19.331  77.767  1.00  0.00     0.230 C 
BRANCH   3   4
ATOM      4  N   UNL     1      46.845  18.438  78.635  1.00  0.00    -0.350 N 
ATOM      5  H   UNL     1      47.775  18.210  78.225  1.00  0.00     0.345 HD
ATOM      6  H   UNL     1      46.319  17.545  78.780  1.00  0.00     0.345 HD
ATOM      7  H   UNL     1      46.985  18.882  79.572  1.00  0.00     0.345 HD
ENDBRANCH   3   4
BRANCH   3   8
ATOM      8  C   UNL     1      45.011  20.075  78.556  1.00  0.00     0.099 C 
ATOM      9  O   UNL     1      43.810  19.701  78.510  1.00  0.00    -0.544 OA
ATOM     10  O   UNL     1      45.358  21.150  79.365  1.00  0.00    -0.544 OA
ENDBRANCH   3   8
ENDBRANCH   1   3
BRANCH   1  11
ATOM     11  C   UNL     1      46.027  19.041  75.139  1.00  0.00     0.006 C 
ATOM     12  C   UNL     1      46.976  20.237  75.204  1.00  0.00     0.004 C 
ENDBRANCH   1  11
TORSDOF 4
ENDMDL
MODEL 2
REMARK VINA RESULT:    -3.122      2.829      3.655
REMARK INTER + INTRA:          -3.887
REMARK INTER:                  -3.759
REMARK INTRA:                  -0.129
REMARK UNBOUND:                -0.126
REMARK SMILES CC[C@@H](C)[C@H]([NH3+])C(=O)[O-]
REMARK SMILES IDX 3 1 4 2 5 3 6 4 7 8 8 9 9 10 2 11 1 12
REMARK H PARENT 6 5 6 6 6 7
REMARK Flexibility Score: inf
ROOT
ATOM      1  C   UNL     1      45.833  18.650  76.817  1.00  0.00     0.050 C 
ATOM      2  C   UNL     1      45.624  17.129  76.924  1.00  0.00     0.014 C 
ENDROOT
BRANCH   1   3
ATOM      3  C   UNL     1      45.885  19.077  75.309  1.00  0.00     0.230 C 
BRANCH   3   4
ATOM      4  N   UNL     1      46.066  17.927  74.411  1.00  0.00    -0.350 N 
ATOM      5  H   UNL     1      46.183  17.035  74.936  1.00  0.00     0.345 HD
ATOM      6  H   UNL     1      46.917  18.077  73.821  1.00  0.00     0.345 HD
ATOM      7  H   UNL     1      45.244  17.840  73.771  1.00  0.00     0.345 HD
ENDBRANCH   3   4
BRANCH   3   8
ATOM      8  C   UNL     1      46.910  20.151  75.034  1.00  0.00     0.099 C 
ATOM      9  O   UNL     1      47.685  20.530  75.951  1.00  0.00    -0.544 OA
ATOM     10  O   UNL     1      47.037  20.704  73.766  1.00  0.00    -0.544 OA
ENDBRANCH   3   8
ENDBRANCH   1   3
BRANCH   1  11
ATOM     11  C   UNL     1      44.764  19.366  77.687  1.00  0.00     0.006 C 
ATOM     12  C   UNL     1      45.322  20.463  78.593  1.00  0.00     0.004 C 
ENDBRANCH   1  11
TORSDOF 4
ENDMDL
MODEL 3
REMARK VINA RESULT:    -3.117      2.380      3.694
REMARK INTER + INTRA:          -3.881
REMARK INTER:                  -3.820
REMARK INTRA:                  -0.061
REMARK UNBOUND:                -0.126
REMARK SMILES CC[C@@H](C)[C@H]([NH3+])C(=O)[O-]
REMARK SMILES IDX 3 1 4 2 5 3 6 4 7 8 8 9 9 10 2 11 1 12
REMARK H PARENT 6 5 6 6 6 7
REMARK Flexibility Score: inf
ROOT
ATOM      1  C   UNL     1      45.008  19.898  77.927  1.00  0.00     0.050 C 
ATOM      2  C   UNL     1      45.997  20.841  78.634  1.00  0.00     0.014 C 
ENDROOT
BRANCH   1   3
ATOM      3  C   UNL     1      45.600  18.448  77.869  1.00  0.00     0.230 C 
BRANCH   3   4
ATOM      4  N   UNL     1      46.894  18.347  78.561  1.00  0.00    -0.350 N 
ATOM      5  H   UNL     1      47.261  17.373  78.565  1.00  0.00     0.345 HD
ATOM      6  H   UNL     1      46.785  18.663  79.552  1.00  0.00     0.345 HD
ATOM      7  H   UNL     1      47.594  18.973  78.101  1.00  0.00     0.345 HD
ENDBRANCH   3   4
BRANCH   3   8
ATOM      8  C   UNL     1      45.688  17.900  76.465  1.00  0.00     0.099 C 
ATOM      9  O   UNL     1      45.653  16.657  76.272  1.00  0.00    -0.544 OA
ATOM     10  O   UNL     1      45.771  18.756  75.373  1.00  0.00    -0.544 OA
ENDBRANCH   3   8
ENDBRANCH   1   3
BRANCH   1  11
ATOM     11  C   UNL     1      43.615  20.034  78.602  1.00  0.00     0.006 C 
ATOM     12  C   UNL     1      43.463  21.268  79.491  1.00  0.00     0.004 C 
ENDBRANCH   1  11
TORSDOF 4
ENDMDL
MODEL 4
REMARK VINA RESULT:    -2.940     11.815     12.437
REMARK INTER + INTRA:          -3.668
REMARK INTER:                  -3.590
REMARK INTRA:                  -0.078
REMARK UNBOUND:                -0.126
REMARK SMILES CC[C@@H](C)[C@H]([NH3+])C(=O)[O-]
REMARK SMILES IDX 3 1 4 2 5 3 6 4 7 8 8 9 9 10 2 11 1 12
REMARK H PARENT 6 5 6 6 6 7
REMARK Flexibility Score: inf
ROOT
ATOM      1  C   UNL     1      55.207  17.421  85.333  1.00  0.00     0.050 C 
ATOM      2  C   UNL     1      55.996  16.231  85.906  1.00  0.00     0.014 C 
ENDROOT
BRANCH   1   3
ATOM      3  C   UNL     1      54.628  18.292  86.501  1.00  0.00     0.230 C 
BRANCH   3   4
ATOM      4  N   UNL     1      54.762  17.629  87.807  1.00  0.00    -0.350 N 
ATOM      5  H   UNL     1      53.941  17.807  88.422  1.00  0.00     0.345 HD
ATOM      6  H   UNL     1      55.620  17.984  88.291  1.00  0.00     0.345 HD
ATOM      7  H   UNL     1      54.872  16.598  87.675  1.00  0.00     0.345 HD
ENDBRANCH   3   4
BRANCH   3   8
ATOM      8  C   UNL     1      53.206  18.737  86.259  1.00  0.00     0.099 C 
ATOM      9  O   UNL     1      52.593  19.391  87.143  1.00  0.00    -0.544 OA
ATOM     10  O   UNL     1      52.572  18.466  85.053  1.00  0.00    -0.544 OA
ENDBRANCH   3   8
ENDBRANCH   1   3
BRANCH   1  11
ATOM     11  C   UNL     1      56.103  18.172  84.310  1.00  0.00     0.006 C 
ATOM     12  C   UNL     1      56.124  19.690  84.486  1.00  0.00     0.004 C 
ENDBRANCH   1  11
TORSDOF 4
ENDMDL
MODEL 5
REMARK VINA RESULT:    -2.911     17.113     18.106
REMARK INTER + INTRA:          -3.632
REMARK INTER:                  -3.499
REMARK INTRA:                  -0.133
REMARK UNBOUND:                -0.126
REMARK SMILES CC[C@@H](C)[C@H]([NH3+])C(=O)[O-]
REMARK SMILES IDX 3 1 4 2 5 3 6 4 7 8 8 9 9 10 2 11 1 12
REMARK H PARENT 6 5 6 6 6 7
REMARK Flexibility Score: inf
ROOT
ATOM      1  C   UNL     1      50.163  34.694  84.660  1.00  0.00     0.050 C 
ATOM      2  C   UNL     1      50.162  34.186  83.207  1.00  0.00     0.014 C 
ENDROOT
BRANCH   1   3
ATOM      3  C   UNL     1      48.698  34.728  85.216  1.00  0.00     0.230 C 
BRANCH   3   4
ATOM      4  N   UNL     1      47.860  35.714  84.515  1.00  0.00    -0.350 N 
ATOM      5  H   UNL     1      47.151  35.260  83.903  1.00  0.00     0.345 HD
ATOM      6  H   UNL     1      48.466  36.326  83.921  1.00  0.00     0.345 HD
ATOM      7  H   UNL     1      47.372  36.325  85.209  1.00  0.00     0.345 HD
ENDBRANCH   3   4
BRANCH   3   8
ATOM      8  C   UNL     1      48.637  34.926  86.711  1.00  0.00     0.099 C 
ATOM      9  O   UNL     1      49.055  35.998  87.221  1.00  0.00    -0.544 OA
ATOM     10  O   UNL     1      48.088  33.950  87.535  1.00  0.00    -0.544 OA
ENDBRANCH   3   8
ENDBRANCH   1   3
BRANCH   1  11
ATOM     11  C   UNL     1      51.179  33.856  85.484  1.00  0.00     0.006 C 
ATOM     12  C   UNL     1      52.393  34.644  85.976  1.00  0.00     0.004 C 
ENDBRANCH   1  11
TORSDOF 4
ENDMDL
MODEL 6
REMARK VINA RESULT:    -2.906     17.600     18.355
REMARK INTER + INTRA:          -3.627
REMARK INTER:                  -3.846
REMARK INTRA:                   0.219
REMARK UNBOUND:                -0.126
REMARK SMILES CC[C@@H](C)[C@H]([NH3+])C(=O)[O-]
REMARK SMILES IDX 3 1 4 2 5 3 6 4 7 8 8 9 9 10 2 11 1 12
REMARK H PARENT 6 5 6 6 6 7
REMARK Flexibility Score: inf
ROOT
ATOM      1  C   UNL     1      45.807  31.183  90.907  1.00  0.00     0.050 C 
ATOM      2  C   UNL     1      46.001  31.976  89.602  1.00  0.00     0.014 C 
ENDROOT
BRANCH   1   3
ATOM      3  C   UNL     1      44.437  31.564  91.565  1.00  0.00     0.230 C 
BRANCH   3   4
ATOM      4  N   UNL     1      44.555  32.722  92.464  1.00  0.00    -0.350 N 
ATOM      5  H   UNL     1      44.826  33.588  91.953  1.00  0.00     0.345 HD
ATOM      6  H   UNL     1      45.282  32.526  93.191  1.00  0.00     0.345 HD
ATOM      7  H   UNL     1      43.647  32.887  92.956  1.00  0.00     0.345 HD
ENDBRANCH   3   4
BRANCH   3   8
ATOM      8  C   UNL     1      43.770  30.401  92.260  1.00  0.00     0.099 C 
ATOM      9  O   UNL     1      44.402  29.740  93.125  1.00  0.00    -0.544 OA
ATOM     10  O   UNL     1      42.450  30.069  91.982  1.00  0.00    -0.544 OA
ENDBRANCH   3   8
ENDBRANCH   1   3
BRANCH   1  11
ATOM     11  C   UNL     1      46.020  29.673  90.612  1.00  0.00     0.006 C 
ATOM     12  C   UNL     1      47.462  29.195  90.779  1.00  0.00     0.004 C 
ENDBRANCH   1  11
TORSDOF 4
ENDMDL
MODEL 7
REMARK VINA RESULT:    -2.892      6.753      7.943
REMARK INTER + INTRA:          -3.610
REMARK INTER:                  -3.549
REMARK INTRA:                  -0.061
REMARK UNBOUND:                -0.126
REMARK SMILES CC[C@@H](C)[C@H]([NH3+])C(=O)[O-]
REMARK SMILES IDX 3 1 4 2 5 3 6 4 7 8 8 9 9 10 2 11 1 12
REMARK H PARENT 6 5 6 6 6 7
REMARK Flexibility Score: inf
ROOT
ATOM      1  C   UNL     1      39.641  20.328  79.609  1.00  0.00     0.050 C 
ATOM      2  C   UNL     1      41.110  19.883  79.497  1.00  0.00     0.014 C 
ENDROOT
BRANCH   1   3
ATOM      3  C   UNL     1      38.795  19.209  80.309  1.00  0.00     0.230 C 
BRANCH   3   4
ATOM      4  N   UNL     1      38.594  18.039  79.441  1.00  0.00    -0.350 N 
ATOM      5  H   UNL     1      38.615  17.146  79.977  1.00  0.00     0.345 HD
ATOM      6  H   UNL     1      39.349  18.009  78.717  1.00  0.00     0.345 HD
ATOM      7  H   UNL     1      37.677  18.117  78.944  1.00  0.00     0.345 HD
ENDBRANCH   3   4
BRANCH   3   8
ATOM      8  C   UNL     1      37.482  19.715  80.856  1.00  0.00     0.099 C 
ATOM      9  O   UNL     1      36.648  20.260  80.085  1.00  0.00    -0.544 OA
ATOM     10  O   UNL     1      37.162  19.556  82.199  1.00  0.00    -0.544 OA
ENDBRANCH   3   8
ENDBRANCH   1   3
BRANCH   1  11
ATOM     11  C   UNL     1      39.591  21.731  80.276  1.00  0.00     0.006 C 
ATOM     12  C   UNL     1      39.048  22.838  79.373  1.00  0.00     0.004 C 
ENDBRANCH   1  11
TORSDOF 4
ENDMDL
MODEL 8
REMARK VINA RESULT:    -2.871      1.882      2.766
REMARK INTER + INTRA:          -3.584
REMARK INTER:                  -3.452
REMARK INTRA:                  -0.132
REMARK UNBOUND:                -0.126
REMARK SMILES CC[C@@H](C)[C@H]([NH3+])C(=O)[O-]
REMARK SMILES IDX 3 1 4 2 5 3 6 4 7 8 8 9 9 10 2 11 1 12
REMARK H PARENT 6 5 6 6 6 7
REMARK Flexibility Score: inf
ROOT
ATOM      1  C   UNL     1      47.906  20.203  77.480  1.00  0.00     0.050 C 
ATOM      2  C   UNL     1      48.906  21.027  78.309  1.00  0.00     0.014 C 
ENDROOT
BRANCH   1   3
ATOM      3  C   UNL     1      46.925  19.436  78.432  1.00  0.00     0.230 C 
BRANCH   3   4
ATOM      4  N   UNL     1      47.595  18.350  79.164  1.00  0.00    -0.350 N 
ATOM      5  H   UNL     1      47.145  18.162  80.084  1.00  0.00     0.345 HD
ATOM      6  H   UNL     1      48.595  18.609  79.333  1.00  0.00     0.345 HD
ATOM      7  H   UNL     1      47.584  17.474  78.593  1.00  0.00     0.345 HD
ENDBRANCH   3   4
BRANCH   3   8
ATOM      8  C   UNL     1      45.687  18.936  77.728  1.00  0.00     0.099 C 
ATOM      9  O   UNL     1      44.556  19.389  78.047  1.00  0.00    -0.544 OA
ATOM     10  O   UNL     1      45.781  18.004  76.702  1.00  0.00    -0.544 OA
ENDBRANCH   3   8
ENDBRANCH   1   3
BRANCH   1  11
ATOM     11  C   UNL     1      47.240  21.132  76.428  1.00  0.00     0.006 C 
ATOM     12  C   UNL     1      47.596  20.800  74.979  1.00  0.00     0.004 C 
ENDBRANCH   1  11
TORSDOF 4
ENDMDL
MODEL 9
REMARK VINA RESULT:    -2.839     17.369     18.118
REMARK INTER + INTRA:          -3.546
REMARK INTER:                  -3.478
REMARK INTRA:                  -0.068
REMARK UNBOUND:                -0.126
REMARK SMILES CC[C@@H](C)[C@H]([NH3+])C(=O)[O-]
REMARK SMILES IDX 3 1 4 2 5 3 6 4 7 8 8 9 9 10 2 11 1 12
REMARK H PARENT 6 5 6 6 6 7
REMARK Flexibility Score: inf
ROOT
ATOM      1  C   UNL     1      45.466  30.053  90.939  1.00  0.00     0.050 C 
ATOM      2  C   UNL     1      46.844  29.372  90.858  1.00  0.00     0.014 C 
ENDROOT
BRANCH   1   3
ATOM      3  C   UNL     1      44.878  29.899  92.384  1.00  0.00     0.230 C 
BRANCH   3   4
ATOM      4  N   UNL     1      44.874  28.500  92.836  1.00  0.00    -0.350 N 
ATOM      5  H   UNL     1      45.441  28.366  93.700  1.00  0.00     0.345 HD
ATOM      6  H   UNL     1      45.270  27.889  92.084  1.00  0.00     0.345 HD
ATOM      7  H   UNL     1      43.894  28.186  93.020  1.00  0.00     0.345 HD
ENDBRANCH   3   4
BRANCH   3   8
ATOM      8  C   UNL     1      43.513  30.525  92.536  1.00  0.00     0.099 C 
ATOM      9  O   UNL     1      43.390  31.631  93.125  1.00  0.00    -0.544 OA
ATOM     10  O   UNL     1      42.386  29.912  92.002  1.00  0.00    -0.544 OA
ENDBRANCH   3   8
ENDBRANCH   1   3
BRANCH   1  11
ATOM     11  C   UNL     1      45.595  31.510  90.413  1.00  0.00     0.006 C 
ATOM     12  C   UNL     1      46.624  31.687  89.298  1.00  0.00     0.004 C 
ENDBRANCH   1  11
TORSDOF 4
ENDMDL
