MODEL 1
REMARK VINA RESULT:    32.235      0.000      0.000
REMARK INTER + INTRA:          39.503
REMARK INTER:                  39.772
REMARK INTRA:                  -0.269
REMARK UNBOUND:                -0.269
REMARK SMILES O=c1c(O)c(-c2cc(O)c(O)c(O)c2)oc2cc(O)cc(O)c12
REMARK SMILES IDX 5 1 3 2 2 3 1 4 23 5 21 6 20 7 18 8 17 9 16 10 15 11 6 12
REMARK SMILES IDX 7 13 8 14 14 15 10 16 12 17 9 18 11 20 13 22 4 24 22 26
REMARK SMILES IDX 19 28
REMARK H PARENT 9 19 11 21 13 23 4 25 22 27 19 29
REMARK Flexibility Score: inf
ROOT
ATOM      1  C   UNL     1      20.128 -12.676 -16.343  1.00  0.00     0.180 A 
ATOM      2  C   UNL     1      20.024 -13.018 -17.706  1.00  0.00     0.208 A 
ATOM      3  C   UNL     1      21.089 -12.708 -18.567  1.00  0.00     0.238 A 
ATOM      4  O   UNL     1      21.011 -13.019 -19.787  1.00  0.00    -0.285 OA
ATOM      5  C   UNL     1      22.225 -12.046 -18.059  1.00  0.00     0.111 A 
ATOM      6  C   UNL     1      23.339 -11.694 -18.859  1.00  0.00     0.134 A 
ATOM      7  C   UNL     1      24.429 -11.029 -18.280  1.00  0.00     0.093 A 
ATOM      8  C   UNL     1      24.428 -10.708 -16.918  1.00  0.00     0.123 A 
ATOM      9  C   UNL     1      23.332 -11.053 -16.125  1.00  0.00     0.094 A 
ATOM     10  C   UNL     1      22.236 -11.719 -16.682  1.00  0.00     0.146 A 
ATOM     11  O   UNL     1      21.209 -12.039 -15.903  1.00  0.00    -0.452 OA
ENDROOT
BRANCH   1  12
ATOM     12  C   UNL     1      19.056 -12.987 -15.371  1.00  0.00     0.029 A 
ATOM     13  C   UNL     1      18.841 -14.317 -14.984  1.00  0.00     0.062 A 
ATOM     14  C   UNL     1      17.824 -14.651 -14.083  1.00  0.00     0.162 A 
ATOM     15  C   UNL     1      18.211 -11.987 -14.869  1.00  0.00     0.062 A 
ATOM     16  C   UNL     1      16.988 -13.634 -13.562  1.00  0.00     0.200 A 
ATOM     17  C   UNL     1      17.190 -12.302 -13.969  1.00  0.00     0.162 A 
BRANCH  14  18
ATOM     18  O   UNL     1      17.680 -15.997 -13.737  1.00  0.00    -0.504 OA
ATOM     19  H   UNL     1      17.119 -16.658 -14.253  1.00  0.00     0.293 HD
ENDBRANCH  14  18
BRANCH  16  20
ATOM     20  O   UNL     1      15.962 -13.904 -12.654  1.00  0.00    -0.502 OA
ATOM     21  H   UNL     1      15.955 -13.586 -11.695  1.00  0.00     0.293 HD
ENDBRANCH  16  20
BRANCH  17  22
ATOM     22  O   UNL     1      16.377 -11.272 -13.492  1.00  0.00    -0.504 OA
ATOM     23  H   UNL     1      15.492 -11.037 -13.924  1.00  0.00     0.293 HD
ENDBRANCH  17  22
ENDBRANCH   1  12
BRANCH   2  24
ATOM     24  O   UNL     1      18.866 -13.628 -18.194  1.00  0.00    -0.502 OA
ATOM     25  H   UNL     1      18.767 -13.911 -19.161  1.00  0.00     0.293 HD
ENDBRANCH   2  24
BRANCH   6  26
ATOM     26  O   UNL     1      23.369 -12.000 -20.221  1.00  0.00    -0.507 OA
ATOM     27  H   UNL     1      22.976 -12.860 -20.583  1.00  0.00     0.293 HD
ENDBRANCH   6  26
BRANCH   8  28
ATOM     28  O   UNL     1      25.509 -10.045 -16.343  1.00  0.00    -0.508 OA
ATOM     29  H   UNL     1      25.518  -9.038 -16.237  1.00  0.00     0.293 HD
ENDBRANCH   8  28
TORSDOF 7
ENDMDL
MODEL 2
REMARK VINA RESULT:    32.436      1.169      2.771
REMARK INTER + INTRA:          39.752
REMARK INTER:                  40.112
REMARK INTRA:                  -0.360
REMARK UNBOUND:                -0.269
REMARK SMILES O=c1c(O)c(-c2cc(O)c(O)c(O)c2)oc2cc(O)cc(O)c12
REMARK SMILES IDX 5 1 3 2 2 3 1 4 23 5 21 6 20 7 18 8 17 9 16 10 15 11 6 12
REMARK SMILES IDX 7 13 8 14 14 15 10 16 12 17 9 18 11 20 13 22 4 24 22 26
REMARK SMILES IDX 19 28
REMARK H PARENT 9 19 11 21 13 23 4 25 22 27 19 29
REMARK Flexibility Score: inf
ROOT
ATOM      1  C   UNL     1      20.278 -12.562 -15.707  1.00  0.00     0.180 A 
ATOM      2  C   UNL     1      21.433 -12.095 -15.050  1.00  0.00     0.208 A 
ATOM      3  C   UNL     1      22.563 -11.765 -15.816  1.00  0.00     0.238 A 
ATOM      4  O   UNL     1      23.600 -11.337 -15.239  1.00  0.00    -0.285 OA
ATOM      5  C   UNL     1      22.527 -11.927 -17.216  1.00  0.00     0.111 A 
ATOM      6  C   UNL     1      23.623 -11.622 -18.059  1.00  0.00     0.134 A 
ATOM      7  C   UNL     1      23.512 -11.818 -19.443  1.00  0.00     0.093 A 
ATOM      8  C   UNL     1      22.327 -12.313 -20.000  1.00  0.00     0.123 A 
ATOM      9  C   UNL     1      21.245 -12.615 -19.172  1.00  0.00     0.094 A 
ATOM     10  C   UNL     1      21.334 -12.424 -17.790  1.00  0.00     0.146 A 
ATOM     11  O   UNL     1      20.286 -12.715 -17.028  1.00  0.00    -0.452 OA
ENDROOT
BRANCH   1  12
ATOM     12  C   UNL     1      19.042 -12.911 -14.971  1.00  0.00     0.029 A 
ATOM     13  C   UNL     1      18.770 -14.255 -14.678  1.00  0.00     0.062 A 
ATOM     14  C   UNL     1      17.601 -14.623 -14.003  1.00  0.00     0.162 A 
ATOM     15  C   UNL     1      18.105 -11.931 -14.610  1.00  0.00     0.062 A 
ATOM     16  C   UNL     1      16.670 -13.628 -13.620  1.00  0.00     0.200 A 
ATOM     17  C   UNL     1      16.933 -12.281 -13.935  1.00  0.00     0.162 A 
BRANCH  14  18
ATOM     18  O   UNL     1      17.407 -15.981 -13.737  1.00  0.00    -0.504 OA
ATOM     19  H   UNL     1      17.090 -16.345 -12.850  1.00  0.00     0.293 HD
ENDBRANCH  14  18
BRANCH  16  20
ATOM     20  O   UNL     1      15.490 -13.932 -12.937  1.00  0.00    -0.502 OA
ATOM     21  H   UNL     1      14.573 -13.621 -13.224  1.00  0.00     0.293 HD
ENDBRANCH  16  20
BRANCH  17  22
ATOM     22  O   UNL     1      16.033 -11.272 -13.590  1.00  0.00    -0.504 OA
ATOM     23  H   UNL     1      15.678 -11.163 -12.647  1.00  0.00     0.293 HD
ENDBRANCH  17  22
ENDBRANCH   1  12
BRANCH   2  24
ATOM     24  O   UNL     1      21.460 -11.992 -13.657  1.00  0.00    -0.502 OA
ATOM     25  H   UNL     1      20.672 -12.256 -13.078  1.00  0.00     0.293 HD
ENDBRANCH   2  24
BRANCH   6  26
ATOM     26  O   UNL     1      24.818 -11.128 -17.532  1.00  0.00    -0.507 OA
ATOM     27  H   UNL     1      25.552 -10.763 -18.128  1.00  0.00     0.293 HD
ENDBRANCH   6  26
BRANCH   8  28
ATOM     28  O   UNL     1      22.217 -12.510 -21.374  1.00  0.00    -0.508 OA
ATOM     29  H   UNL     1      22.207 -13.440 -21.778  1.00  0.00     0.293 HD
ENDBRANCH   8  28
TORSDOF 7
ENDMDL
MODEL 3
REMARK VINA RESULT:    34.147      4.604      7.875
REMARK INTER + INTRA:          41.862
REMARK INTER:                  42.160
REMARK INTRA:                  -0.298
REMARK UNBOUND:                -0.269
REMARK SMILES O=c1c(O)c(-c2cc(O)c(O)c(O)c2)oc2cc(O)cc(O)c12
REMARK SMILES IDX 5 1 3 2 2 3 1 4 23 5 21 6 20 7 18 8 17 9 16 10 15 11 6 12
REMARK SMILES IDX 7 13 8 14 14 15 10 16 12 17 9 18 11 20 13 22 4 24 22 26
REMARK SMILES IDX 19 28
REMARK H PARENT 9 19 11 21 13 23 4 25 22 27 19 29
REMARK Flexibility Score: inf
ROOT
ATOM      1  C   UNL     1      22.572  -8.340 -18.412  1.00  0.00     0.180 A 
ATOM      2  C   UNL     1      23.441  -8.607 -17.336  1.00  0.00     0.208 A 
ATOM      3  C   UNL     1      23.715  -9.942 -17.000  1.00  0.00     0.238 A 
ATOM      4  O   UNL     1      24.500 -10.193 -16.045  1.00  0.00    -0.285 OA
ATOM      5  C   UNL     1      23.104 -10.983 -17.728  1.00  0.00     0.111 A 
ATOM      6  C   UNL     1      23.323 -12.355 -17.451  1.00  0.00     0.134 A 
ATOM      7  C   UNL     1      22.670 -13.332 -18.215  1.00  0.00     0.093 A 
ATOM      8  C   UNL     1      21.802 -12.966 -19.250  1.00  0.00     0.123 A 
ATOM      9  C   UNL     1      21.582 -11.615 -19.526  1.00  0.00     0.094 A 
ATOM     10  C   UNL     1      22.226 -10.625 -18.778  1.00  0.00     0.146 A 
ATOM     11  O   UNL     1      22.002  -9.348 -19.066  1.00  0.00    -0.452 OA
ENDROOT
BRANCH   1  12
ATOM     12  C   UNL     1      22.250  -6.960 -18.838  1.00  0.00     0.029 A 
ATOM     13  C   UNL     1      23.207  -6.214 -19.540  1.00  0.00     0.062 A 
ATOM     14  C   UNL     1      22.946  -4.899 -19.941  1.00  0.00     0.162 A 
ATOM     15  C   UNL     1      21.027  -6.358 -18.506  1.00  0.00     0.062 A 
ATOM     16  C   UNL     1      21.701  -4.305 -19.623  1.00  0.00     0.200 A 
ATOM     17  C   UNL     1      20.749  -5.046 -18.898  1.00  0.00     0.162 A 
BRANCH  14  18
ATOM     18  O   UNL     1      23.945  -4.225 -20.646  1.00  0.00    -0.504 OA
ATOM     19  H   UNL     1      24.499  -3.471 -20.265  1.00  0.00     0.293 HD
ENDBRANCH  14  18
BRANCH  16  20
ATOM     20  O   UNL     1      21.378  -3.000 -20.002  1.00  0.00    -0.502 OA
ATOM     21  H   UNL     1      22.016  -2.371 -20.468  1.00  0.00     0.293 HD
ENDBRANCH  16  20
BRANCH  17  22
ATOM     22  O   UNL     1      19.516  -4.491 -18.551  1.00  0.00    -0.504 OA
ATOM     23  H   UNL     1      18.842  -4.194 -19.245  1.00  0.00     0.293 HD
ENDBRANCH  17  22
ENDBRANCH   1  12
BRANCH   2  24
ATOM     24  O   UNL     1      23.995  -7.557 -16.599  1.00  0.00    -0.502 OA
ATOM     25  H   UNL     1      24.971  -7.298 -16.672  1.00  0.00     0.293 HD
ENDBRANCH   2  24
BRANCH   6  26
ATOM     26  O   UNL     1      24.182 -12.751 -16.424  1.00  0.00    -0.507 OA
ATOM     27  H   UNL     1      24.155 -13.687 -16.039  1.00  0.00     0.293 HD
ENDBRANCH   6  26
BRANCH   8  28
ATOM     28  O   UNL     1      21.151 -13.936 -20.009  1.00  0.00    -0.508 OA
ATOM     29  H   UNL     1      21.317 -14.030 -21.004  1.00  0.00     0.293 HD
ENDBRANCH   8  28
TORSDOF 7
ENDMDL
