MODEL 1
REMARK VINA RESULT:    27.016      0.000      0.000
REMARK INTER + INTRA:          33.443
REMARK INTER:                  34.123
REMARK INTRA:                  -0.680
REMARK UNBOUND:                -0.680
REMARK SMILES O=C(C=Cc1ccc(O)cc1)c1ccc(O)cc1O
REMARK SMILES IDX 4 1 3 2 5 3 6 4 7 5 8 6 11 7 10 8 9 9 2 11 1 12 12 13 18 14
REMARK SMILES IDX 13 15 17 16 14 17 15 18 19 19 16 21
REMARK H PARENT 9 10 19 20 16 22
REMARK Flexibility Score: inf
ROOT
ATOM      1  C   UNL     1      -6.879 -19.644   4.861  1.00  0.00     0.012 C 
ATOM      2  C   UNL     1      -7.820 -20.563   5.134  1.00  0.00     0.053 C 
ENDROOT
BRANCH   1   3
ATOM      3  C   UNL     1      -6.212 -18.814   5.894  1.00  0.00    -0.025 A 
ATOM      4  C   UNL     1      -6.767 -18.774   7.184  1.00  0.00     0.012 A 
ATOM      5  C   UNL     1      -6.170 -18.012   8.193  1.00  0.00     0.047 A 
ATOM      6  C   UNL     1      -5.004 -17.288   7.931  1.00  0.00     0.115 A 
ATOM      7  C   UNL     1      -5.028 -18.092   5.641  1.00  0.00     0.012 A 
ATOM      8  C   UNL     1      -4.433 -17.332   6.653  1.00  0.00     0.047 A 
BRANCH   6   9
ATOM      9  O   UNL     1      -4.420 -16.533   8.945  1.00  0.00    -0.508 OA
ATOM     10  H   UNL     1      -3.941 -16.971   9.723  1.00  0.00     0.293 HD
ENDBRANCH   6   9
ENDBRANCH   1   3
BRANCH   2  11
ATOM     11  C   UNL     1      -8.471 -21.381   4.090  1.00  0.00     0.189 C 
ATOM     12  O   UNL     1      -9.640 -21.801   4.299  1.00  0.00    -0.289 OA
BRANCH  11  13
ATOM     13  C   UNL     1      -7.790 -21.763   2.832  1.00  0.00     0.064 A 
ATOM     14  C   UNL     1      -8.299 -21.384   1.568  1.00  0.00     0.130 A 
ATOM     15  C   UNL     1      -6.637 -22.564   2.895  1.00  0.00     0.020 A 
ATOM     16  C   UNL     1      -7.656 -21.818   0.402  1.00  0.00     0.093 A 
ATOM     17  C   UNL     1      -5.998 -22.982   1.726  1.00  0.00     0.047 A 
ATOM     18  C   UNL     1      -6.508 -22.612   0.476  1.00  0.00     0.119 A 
BRANCH  14  19
ATOM     19  O   UNL     1      -9.422 -20.564   1.436  1.00  0.00    -0.507 OA
ATOM     20  H   UNL     1      -9.844 -20.078   2.217  1.00  0.00     0.293 HD
ENDBRANCH  14  19
BRANCH  18  21
ATOM     21  O   UNL     1      -5.882 -23.027  -0.697  1.00  0.00    -0.508 OA
ATOM     22  H   UNL     1      -5.991 -22.516  -1.565  1.00  0.00     0.293 HD
ENDBRANCH  18  21
ENDBRANCH  11  13
ENDBRANCH   2  11
TORSDOF 6
ENDMDL
MODEL 2
REMARK VINA RESULT:    29.926      2.379      4.302
REMARK INTER + INTRA:          37.119
REMARK INTER:                  37.663
REMARK INTRA:                  -0.544
REMARK UNBOUND:                -0.680
REMARK SMILES O=C(C=Cc1ccc(O)cc1)c1ccc(O)cc1O
REMARK SMILES IDX 4 1 3 2 5 3 6 4 7 5 8 6 11 7 10 8 9 9 2 11 1 12 12 13 18 14
REMARK SMILES IDX 13 15 17 16 14 17 15 18 19 19 16 21
REMARK H PARENT 9 10 19 20 16 22
REMARK Flexibility Score: inf
ROOT
ATOM      1  C   UNL     1      -7.397 -19.388   5.272  1.00  0.00     0.012 C 
ATOM      2  C   UNL     1      -7.601 -20.714   5.215  1.00  0.00     0.053 C 
ENDROOT
BRANCH   1   3
ATOM      3  C   UNL     1      -6.379 -18.745   6.139  1.00  0.00    -0.025 A 
ATOM      4  C   UNL     1      -6.562 -18.788   7.532  1.00  0.00     0.012 A 
ATOM      5  C   UNL     1      -5.626 -18.204   8.391  1.00  0.00     0.047 A 
ATOM      6  C   UNL     1      -4.489 -17.578   7.872  1.00  0.00     0.115 A 
ATOM      7  C   UNL     1      -5.222 -18.125   5.624  1.00  0.00     0.012 A 
ATOM      8  C   UNL     1      -4.288 -17.542   6.486  1.00  0.00     0.047 A 
BRANCH   6   9
ATOM      9  O   UNL     1      -3.565 -17.000   8.739  1.00  0.00    -0.508 OA
ATOM     10  H   UNL     1      -2.596 -17.294   8.754  1.00  0.00     0.293 HD
ENDBRANCH   6   9
ENDBRANCH   1   3
BRANCH   2  11
ATOM     11  C   UNL     1      -8.620 -21.334   4.342  1.00  0.00     0.189 C 
ATOM     12  O   UNL     1      -8.241 -21.875   3.270  1.00  0.00    -0.289 OA
BRANCH  11  13
ATOM     13  C   UNL     1     -10.066 -21.305   4.656  1.00  0.00     0.064 A 
ATOM     14  C   UNL     1     -10.843 -22.486   4.684  1.00  0.00     0.130 A 
ATOM     15  C   UNL     1     -10.692 -20.066   4.881  1.00  0.00     0.020 A 
ATOM     16  C   UNL     1     -12.220 -22.405   4.926  1.00  0.00     0.093 A 
ATOM     17  C   UNL     1     -12.064 -20.000   5.131  1.00  0.00     0.047 A 
ATOM     18  C   UNL     1     -12.832 -21.170   5.151  1.00  0.00     0.119 A 
BRANCH  14  19
ATOM     19  O   UNL     1     -10.278 -23.750   4.500  1.00  0.00    -0.507 OA
ATOM     20  H   UNL     1      -9.285 -23.896   4.367  1.00  0.00     0.293 HD
ENDBRANCH  14  19
BRANCH  18  21
ATOM     21  O   UNL     1     -14.202 -21.115   5.395  1.00  0.00    -0.508 OA
ATOM     22  H   UNL     1     -14.672 -21.826   5.943  1.00  0.00     0.293 HD
ENDBRANCH  18  21
ENDBRANCH  11  13
ENDBRANCH   2  11
TORSDOF 6
ENDMDL
