MODEL 1
REMARK VINA RESULT:    -5.289      0.000      0.000
REMARK INTER + INTRA:         -10.043
REMARK INTER:                  -8.226
REMARK INTRA:                  -1.816
REMARK UNBOUND:                -1.816
REMARK SMILES COc1cc(CNC(=O)CCCCC=CC(C)C)ccc1O
REMARK SMILES IDX 11 1 12 2 13 3 14 4 15 5 16 6 17 7 18 8 10 9 8 10 9 11 7 12
REMARK SMILES IDX 6 14 5 15 4 16 19 17 3 18 20 19 21 20 2 21 1 22 22 23
REMARK H PARENT 7 13 22 24
REMARK Flexibility Score: inf
ROOT
ATOM      1  C   UNL     1      18.479   6.660 141.383  1.00  0.00     0.010 C 
ENDROOT
BRANCH   1   2
ATOM      2  C   UNL     1      17.956   6.844 139.946  1.00  0.00     0.005 C 
BRANCH   2   3
ATOM      3  C   UNL     1      16.527   7.397 139.907  1.00  0.00     0.027 C 
BRANCH   3   4
ATOM      4  C   UNL     1      15.707   6.907 141.070  1.00  0.00    -0.031 C 
ATOM      5  C   UNL     1      14.384   6.703 140.960  1.00  0.00    -0.028 C 
BRANCH   5   6
ATOM      6  C   UNL     1      13.546   6.148 142.089  1.00  0.00     0.005 C 
ATOM      7  C   UNL     1      14.420   5.498 143.169  1.00  0.00     0.012 C 
ATOM      8  C   UNL     1      12.486   5.170 141.568  1.00  0.00     0.012 C 
ENDBRANCH   5   6
ENDBRANCH   3   4
ENDBRANCH   2   3
ENDBRANCH   1   2
BRANCH   1   9
ATOM      9  C   UNL     1      19.963   6.273 141.422  1.00  0.00     0.100 C 
BRANCH   9  10
ATOM     10  C   UNL     1      20.143   4.787 141.529  1.00  0.00     0.220 C 
ATOM     11  O   UNL     1      20.570   4.291 142.606  1.00  0.00    -0.275 OA
ATOM     12  N   UNL     1      19.796   3.937 140.428  1.00  0.00    -0.352 N 
ATOM     13  H   UNL     1      19.531   4.381 139.521  1.00  0.00     0.163 HD
BRANCH  12  14
ATOM     14  C   UNL     1      19.470   2.525 140.611  1.00  0.00     0.151 C 
BRANCH  14  15
ATOM     15  C   UNL     1      18.043   2.398 141.061  1.00  0.00    -0.025 A 
ATOM     16  C   UNL     1      17.657   1.317 141.873  1.00  0.00     0.056 A 
ATOM     17  C   UNL     1      17.067   3.290 140.592  1.00  0.00     0.009 A 
ATOM     18  C   UNL     1      16.308   1.141 142.237  1.00  0.00     0.160 A 
ATOM     19  C   UNL     1      15.728   3.125 140.953  1.00  0.00     0.050 A 
ATOM     20  C   UNL     1      15.347   2.054 141.776  1.00  0.00     0.157 A 
BRANCH  18  21
ATOM     21  O   UNL     1      15.885   0.071 143.046  1.00  0.00    -0.493 OA
ATOM     22  C   UNL     1      15.527  -1.217 142.553  1.00  0.00     0.278 C 
ENDBRANCH  18  21
BRANCH  20  23
ATOM     23  O   UNL     1      14.012   1.891 142.143  1.00  0.00    -0.504 OA
ATOM     24  H   UNL     1      13.387   2.684 142.251  1.00  0.00     0.293 HD
ENDBRANCH  20  23
ENDBRANCH  14  15
ENDBRANCH  12  14
ENDBRANCH   9  10
ENDBRANCH   1   9
TORSDOF 10
ENDMDL
MODEL 2
REMARK VINA RESULT:    -5.277      3.433      6.556
REMARK INTER + INTRA:         -10.024
REMARK INTER:                  -9.277
REMARK INTRA:                  -0.747
REMARK UNBOUND:                -1.816
REMARK SMILES COc1cc(CNC(=O)CCCCC=CC(C)C)ccc1O
REMARK SMILES IDX 11 1 12 2 13 3 14 4 15 5 16 6 17 7 18 8 10 9 8 10 9 11 7 12
REMARK SMILES IDX 6 14 5 15 4 16 19 17 3 18 20 19 21 20 2 21 1 22 22 23
REMARK H PARENT 7 13 22 24
REMARK Flexibility Score: inf
ROOT
ATOM      1  C   UNL     1      15.522   7.078 140.001  1.00  0.00     0.010 C 
ENDROOT
BRANCH   1   2
ATOM      2  C   UNL     1      16.951   6.531 140.168  1.00  0.00     0.005 C 
BRANCH   2   3
ATOM      3  C   UNL     1      17.714   7.219 141.306  1.00  0.00     0.027 C 
BRANCH   3   4
ATOM      4  C   UNL     1      19.088   6.635 141.491  1.00  0.00    -0.031 C 
ATOM      5  C   UNL     1      19.317   5.319 141.346  1.00  0.00    -0.028 C 
BRANCH   5   6
ATOM      6  C   UNL     1      20.697   4.712 141.459  1.00  0.00     0.005 C 
ATOM      7  C   UNL     1      20.686   3.456 142.340  1.00  0.00     0.012 C 
ATOM      8  C   UNL     1      21.718   5.738 141.965  1.00  0.00     0.012 C 
ENDBRANCH   5   6
ENDBRANCH   3   4
ENDBRANCH   2   3
ENDBRANCH   1   2
BRANCH   1   9
ATOM      9  C   UNL     1      14.739   7.088 141.320  1.00  0.00     0.100 C 
BRANCH   9  10
ATOM     10  C   UNL     1      14.344   5.702 141.738  1.00  0.00     0.220 C 
ATOM     11  O   UNL     1      14.807   5.221 142.807  1.00  0.00    -0.275 OA
ATOM     12  N   UNL     1      13.418   4.946 140.947  1.00  0.00    -0.352 N 
ATOM     13  H   UNL     1      13.121   5.332 140.023  1.00  0.00     0.163 HD
BRANCH  12  14
ATOM     14  C   UNL     1      12.626   3.856 141.510  1.00  0.00     0.151 C 
BRANCH  14  15
ATOM     15  C   UNL     1      11.182   4.267 141.563  1.00  0.00    -0.025 A 
ATOM     16  C   UNL     1      10.177   3.287 141.648  1.00  0.00     0.056 A 
ATOM     17  C   UNL     1      10.820   5.615 141.423  1.00  0.00     0.009 A 
ATOM     18  C   UNL     1       8.817   3.652 141.618  1.00  0.00     0.160 A 
ATOM     19  C   UNL     1       9.473   5.985 141.398  1.00  0.00     0.050 A 
ATOM     20  C   UNL     1       8.472   5.007 141.498  1.00  0.00     0.157 A 
BRANCH  18  21
ATOM     21  O   UNL     1       7.785   2.700 141.699  1.00  0.00    -0.493 OA
ATOM     22  C   UNL     1       7.948   1.376 142.199  1.00  0.00     0.278 C 
ENDBRANCH  18  21
BRANCH  20  23
ATOM     23  O   UNL     1       7.127   5.375 141.480  1.00  0.00    -0.504 OA
ATOM     24  H   UNL     1       6.791   6.145 140.908  1.00  0.00     0.293 HD
ENDBRANCH  20  23
ENDBRANCH  14  15
ENDBRANCH  12  14
ENDBRANCH   9  10
ENDBRANCH   1   9
TORSDOF 10
ENDMDL
MODEL 3
REMARK VINA RESULT:    -5.249      2.119      3.623
REMARK INTER + INTRA:          -9.981
REMARK INTER:                  -9.079
REMARK INTRA:                  -0.902
REMARK UNBOUND:                -1.816
REMARK SMILES COc1cc(CNC(=O)CCCCC=CC(C)C)ccc1O
REMARK SMILES IDX 11 1 12 2 13 3 14 4 15 5 16 6 17 7 18 8 10 9 8 10 9 11 7 12
REMARK SMILES IDX 6 14 5 15 4 16 19 17 3 18 20 19 21 20 2 21 1 22 22 23
REMARK H PARENT 7 13 22 24
REMARK Flexibility Score: inf
ROOT
ATOM      1  C   UNL     1      16.861   6.371 139.876  1.00  0.00     0.010 C 
ENDROOT
BRANCH   1   2
ATOM      2  C   UNL     1      15.490   7.069 139.943  1.00  0.00     0.005 C 
BRANCH   2   3
ATOM      3  C   UNL     1      14.988   7.240 141.382  1.00  0.00     0.027 C 
BRANCH   3   4
ATOM      4  C   UNL     1      13.637   6.607 141.581  1.00  0.00    -0.031 C 
ATOM      5  C   UNL     1      13.470   5.276 141.521  1.00  0.00    -0.028 C 
BRANCH   5   6
ATOM      6  C   UNL     1      12.141   4.606 141.782  1.00  0.00     0.005 C 
ATOM      7  C   UNL     1      12.040   3.258 141.056  1.00  0.00     0.012 C 
ATOM      8  C   UNL     1      10.970   5.526 141.413  1.00  0.00     0.012 C 
ENDBRANCH   5   6
ENDBRANCH   3   4
ENDBRANCH   2   3
ENDBRANCH   1   2
BRANCH   1   9
ATOM      9  C   UNL     1      18.026   7.344 140.099  1.00  0.00     0.100 C 
BRANCH   9  10
ATOM     10  C   UNL     1      18.915   6.892 141.221  1.00  0.00     0.220 C 
ATOM     11  O   UNL     1      18.491   6.945 142.406  1.00  0.00    -0.275 OA
ATOM     12  N   UNL     1      20.220   6.370 140.942  1.00  0.00    -0.352 N 
ATOM     13  H   UNL     1      20.579   6.422 139.962  1.00  0.00     0.163 HD
BRANCH  12  14
ATOM     14  C   UNL     1      20.915   5.481 141.869  1.00  0.00     0.151 C 
BRANCH  14  15
ATOM     15  C   UNL     1      20.845   4.072 141.354  1.00  0.00    -0.025 A 
ATOM     16  C   UNL     1      19.823   3.214 141.795  1.00  0.00     0.056 A 
ATOM     17  C   UNL     1      21.853   3.570 140.517  1.00  0.00     0.009 A 
ATOM     18  C   UNL     1      19.791   1.867 141.383  1.00  0.00     0.160 A 
ATOM     19  C   UNL     1      21.825   2.237 140.100  1.00  0.00     0.050 A 
ATOM     20  C   UNL     1      20.796   1.386 140.528  1.00  0.00     0.157 A 
BRANCH  18  21
ATOM     21  O   UNL     1      18.785   0.979 141.804  1.00  0.00    -0.493 OA
ATOM     22  C   UNL     1      17.497   1.381 142.261  1.00  0.00     0.278 C 
ENDBRANCH  18  21
BRANCH  20  23
ATOM     23  O   UNL     1      20.762   0.057 140.108  1.00  0.00    -0.504 OA
ATOM     24  H   UNL     1      21.325  -0.659 140.557  1.00  0.00     0.293 HD
ENDBRANCH  20  23
ENDBRANCH  14  15
ENDBRANCH  12  14
ENDBRANCH   9  10
ENDBRANCH   1   9
TORSDOF 10
ENDMDL
MODEL 4
REMARK VINA RESULT:    -5.216      2.146      5.217
REMARK INTER + INTRA:          -9.929
REMARK INTER:                  -8.820
REMARK INTRA:                  -1.109
REMARK UNBOUND:                -1.816
REMARK SMILES COc1cc(CNC(=O)CCCCC=CC(C)C)ccc1O
REMARK SMILES IDX 11 1 12 2 13 3 14 4 15 5 16 6 17 7 18 8 10 9 8 10 9 11 7 12
REMARK SMILES IDX 6 14 5 15 4 16 19 17 3 18 20 19 21 20 2 21 1 22 22 23
REMARK H PARENT 7 13 22 24
REMARK Flexibility Score: inf
ROOT
ATOM      1  C   UNL     1      21.814   5.778 141.583  1.00  0.00     0.010 C 
ENDROOT
BRANCH   1   2
ATOM      2  C   UNL     1      22.122   4.673 140.556  1.00  0.00     0.005 C 
BRANCH   2   3
ATOM      3  C   UNL     1      22.448   3.330 141.220  1.00  0.00     0.027 C 
BRANCH   3   4
ATOM      4  C   UNL     1      21.481   2.253 140.806  1.00  0.00    -0.031 C 
ATOM      5  C   UNL     1      20.413   1.943 141.558  1.00  0.00    -0.028 C 
BRANCH   5   6
ATOM      6  C   UNL     1      19.388   0.915 141.137  1.00  0.00     0.005 C 
ATOM      7  C   UNL     1      17.959   1.418 141.377  1.00  0.00     0.012 C 
ATOM      8  C   UNL     1      19.628  -0.430 141.834  1.00  0.00     0.012 C 
ENDBRANCH   5   6
ENDBRANCH   3   4
ENDBRANCH   2   3
ENDBRANCH   1   2
BRANCH   1   9
ATOM      9  C   UNL     1      20.523   5.508 142.367  1.00  0.00     0.100 C 
BRANCH   9  10
ATOM     10  C   UNL     1      19.309   5.940 141.596  1.00  0.00     0.220 C 
ATOM     11  O   UNL     1      19.190   7.147 141.254  1.00  0.00    -0.275 OA
ATOM     12  N   UNL     1      18.314   4.980 141.220  1.00  0.00    -0.352 N 
ATOM     13  H   UNL     1      18.394   4.007 141.592  1.00  0.00     0.163 HD
BRANCH  12  14
ATOM     14  C   UNL     1      17.410   5.200 140.094  1.00  0.00     0.151 C 
BRANCH  14  15
ATOM     15  C   UNL     1      16.040   5.529 140.614  1.00  0.00    -0.025 A 
ATOM     16  C   UNL     1      15.049   4.532 140.660  1.00  0.00     0.056 A 
ATOM     17  C   UNL     1      15.707   6.848 140.955  1.00  0.00     0.009 A 
ATOM     18  C   UNL     1      13.738   4.845 141.068  1.00  0.00     0.160 A 
ATOM     19  C   UNL     1      14.410   7.165 141.366  1.00  0.00     0.050 A 
ATOM     20  C   UNL     1      13.426   6.166 141.426  1.00  0.00     0.157 A 
BRANCH  18  21
ATOM     21  O   UNL     1      12.721   3.875 141.126  1.00  0.00    -0.493 OA
ATOM     22  C   UNL     1      12.479   3.028 142.245  1.00  0.00     0.278 C 
ENDBRANCH  18  21
BRANCH  20  23
ATOM     23  O   UNL     1      12.133   6.478 141.843  1.00  0.00    -0.504 OA
ATOM     24  H   UNL     1      11.421   5.763 141.958  1.00  0.00     0.293 HD
ENDBRANCH  20  23
ENDBRANCH  14  15
ENDBRANCH  12  14
ENDBRANCH   9  10
ENDBRANCH   1   9
TORSDOF 10
ENDMDL
MODEL 5
REMARK VINA RESULT:    -5.169      1.026      1.451
REMARK INTER + INTRA:          -9.855
REMARK INTER:                  -8.331
REMARK INTRA:                  -1.525
REMARK UNBOUND:                -1.816
REMARK SMILES COc1cc(CNC(=O)CCCCC=CC(C)C)ccc1O
REMARK SMILES IDX 11 1 12 2 13 3 14 4 15 5 16 6 17 7 18 8 10 9 8 10 9 11 7 12
REMARK SMILES IDX 6 14 5 15 4 16 19 17 3 18 20 19 21 20 2 21 1 22 22 23
REMARK H PARENT 7 13 22 24
REMARK Flexibility Score: inf
ROOT
ATOM      1  C   UNL     1      17.880   7.338 142.403  1.00  0.00     0.010 C 
ENDROOT
BRANCH   1   2
ATOM      2  C   UNL     1      16.514   6.659 142.194  1.00  0.00     0.005 C 
BRANCH   2   3
ATOM      3  C   UNL     1      15.683   7.336 141.098  1.00  0.00     0.027 C 
BRANCH   3   4
ATOM      4  C   UNL     1      14.337   6.683 140.934  1.00  0.00    -0.031 C 
ATOM      5  C   UNL     1      14.034   5.534 141.560  1.00  0.00    -0.028 C 
BRANCH   5   6
ATOM      6  C   UNL     1      12.670   4.889 141.469  1.00  0.00     0.005 C 
ATOM      7  C   UNL     1      11.553   5.896 141.772  1.00  0.00     0.012 C 
ATOM      8  C   UNL     1      12.572   3.660 142.381  1.00  0.00     0.012 C 
ENDBRANCH   5   6
ENDBRANCH   3   4
ENDBRANCH   2   3
ENDBRANCH   1   2
BRANCH   1   9
ATOM      9  C   UNL     1      18.876   7.009 141.283  1.00  0.00     0.100 C 
BRANCH   9  10
ATOM     10  C   UNL     1      19.531   5.676 141.500  1.00  0.00     0.220 C 
ATOM     11  O   UNL     1      20.418   5.559 142.386  1.00  0.00    -0.275 OA
ATOM     12  N   UNL     1      19.121   4.538 140.730  1.00  0.00    -0.352 N 
ATOM     13  H   UNL     1      18.450   4.683 139.944  1.00  0.00     0.163 HD
BRANCH  12  14
ATOM     14  C   UNL     1      19.326   3.170 141.200  1.00  0.00     0.151 C 
BRANCH  14  15
ATOM     15  C   UNL     1      17.994   2.536 141.481  1.00  0.00    -0.025 A 
ATOM     16  C   UNL     1      17.906   1.461 142.382  1.00  0.00     0.056 A 
ATOM     17  C   UNL     1      16.852   2.936 140.772  1.00  0.00     0.009 A 
ATOM     18  C   UNL     1      16.678   0.804 142.595  1.00  0.00     0.160 A 
ATOM     19  C   UNL     1      15.630   2.293 140.982  1.00  0.00     0.050 A 
ATOM     20  C   UNL     1      15.540   1.231 141.893  1.00  0.00     0.157 A 
BRANCH  18  21
ATOM     21  O   UNL     1      16.552  -0.276 143.488  1.00  0.00    -0.493 OA
ATOM     22  C   UNL     1      17.306  -1.481 143.403  1.00  0.00     0.278 C 
ENDBRANCH  18  21
BRANCH  20  23
ATOM     23  O   UNL     1      14.319   0.592 142.109  1.00  0.00    -0.504 OA
ATOM     24  H   UNL     1      14.020  -0.194 141.540  1.00  0.00     0.293 HD
ENDBRANCH  20  23
ENDBRANCH  14  15
ENDBRANCH  12  14
ENDBRANCH   9  10
ENDBRANCH   1   9
TORSDOF 10
ENDMDL
MODEL 6
REMARK VINA RESULT:    -5.153      3.110      6.376
REMARK INTER + INTRA:          -9.832
REMARK INTER:                  -9.089
REMARK INTRA:                  -0.742
REMARK UNBOUND:                -1.816
REMARK SMILES COc1cc(CNC(=O)CCCCC=CC(C)C)ccc1O
REMARK SMILES IDX 11 1 12 2 13 3 14 4 15 5 16 6 17 7 18 8 10 9 8 10 9 11 7 12
REMARK SMILES IDX 6 14 5 15 4 16 19 17 3 18 20 19 21 20 2 21 1 22 22 23
REMARK H PARENT 7 13 22 24
REMARK Flexibility Score: inf
ROOT
ATOM      1  C   UNL     1      15.557   7.001 139.912  1.00  0.00     0.010 C 
ENDROOT
BRANCH   1   2
ATOM      2  C   UNL     1      16.989   6.473 140.120  1.00  0.00     0.005 C 
BRANCH   2   3
ATOM      3  C   UNL     1      17.839   7.408 140.989  1.00  0.00     0.027 C 
BRANCH   3   4
ATOM      4  C   UNL     1      18.829   6.644 141.826  1.00  0.00    -0.031 C 
ATOM      5  C   UNL     1      20.016   6.257 141.331  1.00  0.00    -0.028 C 
BRANCH   5   6
ATOM      6  C   UNL     1      21.058   5.549 142.166  1.00  0.00     0.005 C 
ATOM      7  C   UNL     1      22.468   6.072 141.863  1.00  0.00     0.012 C 
ATOM      8  C   UNL     1      20.979   4.028 141.985  1.00  0.00     0.012 C 
ENDBRANCH   5   6
ENDBRANCH   3   4
ENDBRANCH   2   3
ENDBRANCH   1   2
BRANCH   1   9
ATOM      9  C   UNL     1      14.723   6.959 141.199  1.00  0.00     0.100 C 
BRANCH   9  10
ATOM     10  C   UNL     1      14.667   5.574 141.775  1.00  0.00     0.220 C 
ATOM     11  O   UNL     1      15.104   5.369 142.939  1.00  0.00    -0.275 OA
ATOM     12  N   UNL     1      14.086   4.503 141.021  1.00  0.00    -0.352 N 
ATOM     13  H   UNL     1      13.814   4.681 140.029  1.00  0.00     0.163 HD
BRANCH  12  14
ATOM     14  C   UNL     1      13.552   3.304 141.662  1.00  0.00     0.151 C 
BRANCH  14  15
ATOM     15  C   UNL     1      12.051   3.347 141.627  1.00  0.00    -0.025 A 
ATOM     16  C   UNL     1      11.391   4.548 141.309  1.00  0.00     0.056 A 
ATOM     17  C   UNL     1      11.298   2.228 142.011  1.00  0.00     0.009 A 
ATOM     18  C   UNL     1       9.986   4.625 141.350  1.00  0.00     0.160 A 
ATOM     19  C   UNL     1       9.903   2.295 142.049  1.00  0.00     0.050 A 
ATOM     20  C   UNL     1       9.246   3.489 141.716  1.00  0.00     0.157 A 
BRANCH  18  21
ATOM     21  O   UNL     1       9.291   5.808 141.040  1.00  0.00    -0.493 OA
ATOM     22  C   UNL     1       9.140   6.909 141.931  1.00  0.00     0.278 C 
ENDBRANCH  18  21
BRANCH  20  23
ATOM     23  O   UNL     1       7.853   3.557 141.747  1.00  0.00    -0.504 OA
ATOM     24  H   UNL     1       7.313   3.826 140.930  1.00  0.00     0.293 HD
ENDBRANCH  20  23
ENDBRANCH  14  15
ENDBRANCH  12  14
ENDBRANCH   9  10
ENDBRANCH   1   9
TORSDOF 10
ENDMDL
MODEL 7
REMARK VINA RESULT:    -5.042      2.015      5.397
REMARK INTER + INTRA:          -9.659
REMARK INTER:                  -8.758
REMARK INTRA:                  -0.901
REMARK UNBOUND:                -1.816
REMARK SMILES COc1cc(CNC(=O)CCCCC=CC(C)C)ccc1O
REMARK SMILES IDX 11 1 12 2 13 3 14 4 15 5 16 6 17 7 18 8 10 9 8 10 9 11 7 12
REMARK SMILES IDX 6 14 5 15 4 16 19 17 3 18 20 19 21 20 2 21 1 22 22 23
REMARK H PARENT 7 13 22 24
REMARK Flexibility Score: inf
ROOT
ATOM      1  C   UNL     1      20.155   2.643 142.072  1.00  0.00     0.010 C 
ENDROOT
BRANCH   1   2
ATOM      2  C   UNL     1      20.879   1.798 141.007  1.00  0.00     0.005 C 
BRANCH   2   3
ATOM      3  C   UNL     1      20.209   0.438 140.782  1.00  0.00     0.027 C 
BRANCH   3   4
ATOM      4  C   UNL     1      19.014   0.249 141.678  1.00  0.00    -0.031 C 
ATOM      5  C   UNL     1      18.566  -0.975 142.001  1.00  0.00    -0.028 C 
BRANCH   5   6
ATOM      6  C   UNL     1      17.412  -1.199 142.950  1.00  0.00     0.005 C 
ATOM      7  C   UNL     1      16.690   0.115 143.275  1.00  0.00     0.012 C 
ATOM      8  C   UNL     1      17.871  -1.912 144.229  1.00  0.00     0.012 C 
ENDBRANCH   5   6
ENDBRANCH   3   4
ENDBRANCH   2   3
ENDBRANCH   1   2
BRANCH   1   9
ATOM      9  C   UNL     1      20.658   4.092 142.114  1.00  0.00     0.100 C 
BRANCH   9  10
ATOM     10  C   UNL     1      19.662   5.040 141.513  1.00  0.00     0.220 C 
ATOM     11  O   UNL     1      19.929   6.270 141.464  1.00  0.00    -0.275 OA
ATOM     12  N   UNL     1      18.434   4.544 140.965  1.00  0.00    -0.352 N 
ATOM     13  H   UNL     1      18.200   3.535 141.098  1.00  0.00     0.163 HD
BRANCH  12  14
ATOM     14  C   UNL     1      17.680   5.284 139.957  1.00  0.00     0.151 C 
BRANCH  14  15
ATOM     15  C   UNL     1      16.311   5.599 140.491  1.00  0.00    -0.025 A 
ATOM     16  C   UNL     1      15.346   4.581 140.589  1.00  0.00     0.056 A 
ATOM     17  C   UNL     1      15.953   6.920 140.795  1.00  0.00     0.009 A 
ATOM     18  C   UNL     1      14.035   4.876 141.012  1.00  0.00     0.160 A 
ATOM     19  C   UNL     1      14.656   7.220 141.221  1.00  0.00     0.050 A 
ATOM     20  C   UNL     1      13.699   6.200 141.332  1.00  0.00     0.157 A 
BRANCH  18  21
ATOM     21  O   UNL     1      13.043   3.885 141.120  1.00  0.00    -0.493 OA
ATOM     22  C   UNL     1      13.300   2.521 141.439  1.00  0.00     0.278 C 
ENDBRANCH  18  21
BRANCH  20  23
ATOM     23  O   UNL     1      12.406   6.496 141.763  1.00  0.00    -0.504 OA
ATOM     24  H   UNL     1      11.587   6.194 141.244  1.00  0.00     0.293 HD
ENDBRANCH  20  23
ENDBRANCH  14  15
ENDBRANCH  12  14
ENDBRANCH   9  10
ENDBRANCH   1   9
TORSDOF 10
ENDMDL
MODEL 8
REMARK VINA RESULT:    -5.037      2.503      5.942
REMARK INTER + INTRA:          -9.650
REMARK INTER:                  -8.162
REMARK INTRA:                  -1.488
REMARK UNBOUND:                -1.816
REMARK SMILES COc1cc(CNC(=O)CCCCC=CC(C)C)ccc1O
REMARK SMILES IDX 11 1 12 2 13 3 14 4 15 5 16 6 17 7 18 8 10 9 8 10 9 11 7 12
REMARK SMILES IDX 6 14 5 15 4 16 19 17 3 18 20 19 21 20 2 21 1 22 22 23
REMARK H PARENT 7 13 22 24
REMARK Flexibility Score: inf
ROOT
ATOM      1  C   UNL     1      13.252   4.929 142.270  1.00  0.00     0.010 C 
ENDROOT
BRANCH   1   2
ATOM      2  C   UNL     1      12.859   3.966 141.135  1.00  0.00     0.005 C 
BRANCH   2   3
ATOM      3  C   UNL     1      14.053   3.162 140.607  1.00  0.00     0.027 C 
BRANCH   3   4
ATOM      4  C   UNL     1      15.017   2.807 141.706  1.00  0.00    -0.031 C 
ATOM      5  C   UNL     1      15.844   1.753 141.601  1.00  0.00    -0.028 C 
BRANCH   5   6
ATOM      6  C   UNL     1      16.869   1.410 142.658  1.00  0.00     0.005 C 
ATOM      7  C   UNL     1      18.298   1.583 142.129  1.00  0.00     0.012 C 
ATOM      8  C   UNL     1      16.647  -0.003 143.212  1.00  0.00     0.012 C 
ENDBRANCH   5   6
ENDBRANCH   3   4
ENDBRANCH   2   3
ENDBRANCH   1   2
BRANCH   1   9
ATOM      9  C   UNL     1      13.406   6.377 141.784  1.00  0.00     0.100 C 
BRANCH   9  10
ATOM     10  C   UNL     1      14.792   6.644 141.275  1.00  0.00     0.220 C 
ATOM     11  O   UNL     1      14.947   7.107 140.114  1.00  0.00    -0.275 OA
ATOM     12  N   UNL     1      15.927   6.409 142.118  1.00  0.00    -0.352 N 
ATOM     13  H   UNL     1      15.776   5.943 143.040  1.00  0.00     0.163 HD
BRANCH  12  14
ATOM     14  C   UNL     1      17.204   7.086 141.905  1.00  0.00     0.151 C 
BRANCH  14  15
ATOM     15  C   UNL     1      18.217   6.092 141.411  1.00  0.00    -0.025 A 
ATOM     16  C   UNL     1      19.538   6.142 141.890  1.00  0.00     0.056 A 
ATOM     17  C   UNL     1      17.885   5.181 140.398  1.00  0.00     0.009 A 
ATOM     18  C   UNL     1      20.518   5.269 141.377  1.00  0.00     0.160 A 
ATOM     19  C   UNL     1      18.849   4.309 139.888  1.00  0.00     0.050 A 
ATOM     20  C   UNL     1      20.164   4.349 140.378  1.00  0.00     0.157 A 
BRANCH  18  21
ATOM     21  O   UNL     1      21.850   5.290 141.830  1.00  0.00    -0.493 OA
ATOM     22  C   UNL     1      22.691   6.439 141.799  1.00  0.00     0.278 C 
ENDBRANCH  18  21
BRANCH  20  23
ATOM     23  O   UNL     1      21.127   3.475 139.875  1.00  0.00    -0.504 OA
ATOM     24  H   UNL     1      21.720   2.924 140.488  1.00  0.00     0.293 HD
ENDBRANCH  20  23
ENDBRANCH  14  15
ENDBRANCH  12  14
ENDBRANCH   9  10
ENDBRANCH   1   9
TORSDOF 10
ENDMDL
MODEL 9
REMARK VINA RESULT:    -4.999      1.885      4.961
REMARK INTER + INTRA:          -9.592
REMARK INTER:                  -8.007
REMARK INTRA:                  -1.584
REMARK UNBOUND:                -1.816
REMARK SMILES COc1cc(CNC(=O)CCCCC=CC(C)C)ccc1O
REMARK SMILES IDX 11 1 12 2 13 3 14 4 15 5 16 6 17 7 18 8 10 9 8 10 9 11 7 12
REMARK SMILES IDX 6 14 5 15 4 16 19 17 3 18 20 19 21 20 2 21 1 22 22 23
REMARK H PARENT 7 13 22 24
REMARK Flexibility Score: inf
ROOT
ATOM      1  C   UNL     1      13.261   4.179 141.094  1.00  0.00     0.010 C 
ENDROOT
BRANCH   1   2
ATOM      2  C   UNL     1      13.632   5.443 141.890  1.00  0.00     0.005 C 
BRANCH   2   3
ATOM      3  C   UNL     1      13.992   6.624 140.982  1.00  0.00     0.027 C 
BRANCH   3   4
ATOM      4  C   UNL     1      15.416   7.070 141.183  1.00  0.00    -0.031 C 
ATOM      5  C   UNL     1      16.137   6.658 142.238  1.00  0.00    -0.028 C 
BRANCH   5   6
ATOM      6  C   UNL     1      17.588   7.033 142.433  1.00  0.00     0.005 C 
ATOM      7  C   UNL     1      17.765   7.995 143.614  1.00  0.00     0.012 C 
ATOM      8  C   UNL     1      18.192   7.613 141.148  1.00  0.00     0.012 C 
ENDBRANCH   5   6
ENDBRANCH   3   4
ENDBRANCH   2   3
ENDBRANCH   1   2
BRANCH   1   9
ATOM      9  C   UNL     1      12.996   2.970 142.001  1.00  0.00     0.100 C 
BRANCH   9  10
ATOM     10  C   UNL     1      13.976   1.863 141.746  1.00  0.00     0.220 C 
ATOM     11  O   UNL     1      13.732   1.015 140.847  1.00  0.00    -0.275 OA
ATOM     12  N   UNL     1      15.197   1.794 142.494  1.00  0.00    -0.352 N 
ATOM     13  H   UNL     1      15.332   2.455 143.291  1.00  0.00     0.163 HD
BRANCH  12  14
ATOM     14  C   UNL     1      16.376   1.094 141.990  1.00  0.00     0.151 C 
BRANCH  14  15
ATOM     15  C   UNL     1      17.324   2.088 141.382  1.00  0.00    -0.025 A 
ATOM     16  C   UNL     1      18.697   2.019 141.676  1.00  0.00     0.056 A 
ATOM     17  C   UNL     1      16.838   3.152 140.607  1.00  0.00     0.009 A 
ATOM     18  C   UNL     1      19.586   2.991 141.178  1.00  0.00     0.160 A 
ATOM     19  C   UNL     1      17.714   4.117 140.106  1.00  0.00     0.050 A 
ATOM     20  C   UNL     1      19.086   4.038 140.387  1.00  0.00     0.157 A 
BRANCH  18  21
ATOM     21  O   UNL     1      20.965   2.956 141.452  1.00  0.00    -0.493 OA
ATOM     22  C   UNL     1      21.922   2.251 140.667  1.00  0.00     0.278 C 
ENDBRANCH  18  21
BRANCH  20  23
ATOM     23  O   UNL     1      19.963   4.997 139.882  1.00  0.00    -0.504 OA
ATOM     24  H   UNL     1      19.684   5.966 139.763  1.00  0.00     0.293 HD
ENDBRANCH  20  23
ENDBRANCH  14  15
ENDBRANCH  12  14
ENDBRANCH   9  10
ENDBRANCH   1   9
TORSDOF 10
ENDMDL
