MODEL 1
REMARK VINA RESULT:    -6.717      0.000      0.000
REMARK INTER + INTRA:         -14.417
REMARK INTER:                 -13.000
REMARK INTRA:                  -1.417
REMARK UNBOUND:                -1.417
REMARK SMILES CCCCCCCCCCCCCCCCCC(=O)[O-]
REMARK SMILES IDX 10 1 11 2 12 3 13 4 14 5 15 6 16 7 17 8 18 9 19 10 20 11
REMARK SMILES IDX 9 12 8 13 7 14 6 15 5 16 4 17 3 18 2 19 1 20
REMARK H PARENT
REMARK Flexibility Score: inf
ROOT
ATOM      1  C   UNL     1      -4.623   0.200   2.992  1.00  0.00     0.000 C 
ENDROOT
BRANCH   1   2
ATOM      2  C   UNL     1      -5.999  -0.384   3.351  1.00  0.00     0.000 C 
BRANCH   2   3
ATOM      3  C   UNL     1      -5.873  -1.452   4.444  1.00  0.00     0.000 C 
BRANCH   3   4
ATOM      4  C   UNL     1      -4.401  -1.773   4.733  1.00  0.00     0.000 C 
BRANCH   4   5
ATOM      5  C   UNL     1      -4.059  -1.508   6.205  1.00  0.00     0.000 C 
BRANCH   5   6
ATOM      6  C   UNL     1      -2.624  -1.925   6.570  1.00  0.00     0.000 C 
BRANCH   6   7
ATOM      7  C   UNL     1      -2.025  -1.118   7.742  1.00  0.00     0.006 C 
BRANCH   7   8
ATOM      8  C   UNL     1      -2.477   0.348   7.727  1.00  0.00     0.053 C 
BRANCH   8   9
ATOM      9  C   UNL     1      -1.838   1.105   8.847  1.00  0.00     0.041 C 
ATOM     10  O   UNL     1      -1.277   0.488   9.791  1.00  0.00    -0.550 OA
ATOM     11  O   UNL     1      -1.818   2.495   8.824  1.00  0.00    -0.550 OA
ENDBRANCH   8   9
ENDBRANCH   7   8
ENDBRANCH   6   7
ENDBRANCH   5   6
ENDBRANCH   4   5
ENDBRANCH   3   4
ENDBRANCH   2   3
ENDBRANCH   1   2
BRANCH   1  12
ATOM     12  C   UNL     1      -4.512   1.697   3.321  1.00  0.00     0.000 C 
BRANCH  12  13
ATOM     13  C   UNL     1      -3.579   1.973   4.513  1.00  0.00    -0.000 C 
BRANCH  13  14
ATOM     14  C   UNL     1      -3.118   3.438   4.578  1.00  0.00    -0.000 C 
BRANCH  14  15
ATOM     15  C   UNL     1      -4.243   4.392   5.016  1.00  0.00    -0.000 C 
BRANCH  15  16
ATOM     16  C   UNL     1      -4.012   5.835   4.539  1.00  0.00    -0.000 C 
BRANCH  16  17
ATOM     17  C   UNL     1      -5.312   6.532   4.108  1.00  0.00    -0.000 C 
BRANCH  17  18
ATOM     18  C   UNL     1      -6.208   5.575   3.307  1.00  0.00    -0.000 C 
BRANCH  18  19
ATOM     19  C   UNL     1      -6.791   6.230   2.045  1.00  0.00    -0.003 C 
ATOM     20  C   UNL     1      -5.737   6.969   1.222  1.00  0.00     0.004 C 
ENDBRANCH  18  19
ENDBRANCH  17  18
ENDBRANCH  16  17
ENDBRANCH  15  16
ENDBRANCH  14  15
ENDBRANCH  13  14
ENDBRANCH  12  13
ENDBRANCH   1  12
TORSDOF 16
ENDMDL
MODEL 2
REMARK VINA RESULT:    -6.651      3.884      8.266
REMARK INTER + INTRA:         -14.289
REMARK INTER:                 -12.943
REMARK INTRA:                  -1.346
REMARK UNBOUND:                -1.417
REMARK SMILES CCCCCCCCCCCCCCCCCC(=O)[O-]
REMARK SMILES IDX 10 1 11 2 12 3 13 4 14 5 15 6 16 7 17 8 18 9 19 10 20 11
REMARK SMILES IDX 9 12 8 13 7 14 6 15 5 16 4 17 3 18 2 19 1 20
REMARK H PARENT
REMARK Flexibility Score: inf
ROOT
ATOM      1  C   UNL     1      -3.295   3.509   5.578  1.00  0.00     0.000 C 
ENDROOT
BRANCH   1   2
ATOM      2  C   UNL     1      -4.473   4.495   5.534  1.00  0.00     0.000 C 
BRANCH   2   3
ATOM      3  C   UNL     1      -4.152   5.692   4.630  1.00  0.00     0.000 C 
BRANCH   3   4
ATOM      4  C   UNL     1      -5.437   6.391   4.168  1.00  0.00     0.000 C 
BRANCH   4   5
ATOM      5  C   UNL     1      -5.377   6.720   2.671  1.00  0.00     0.000 C 
BRANCH   5   6
ATOM      6  C   UNL     1      -6.695   6.420   1.938  1.00  0.00     0.000 C 
BRANCH   6   7
ATOM      7  C   UNL     1      -7.811   5.892   2.864  1.00  0.00     0.006 C 
BRANCH   7   8
ATOM      8  C   UNL     1      -9.145   5.719   2.126  1.00  0.00     0.053 C 
BRANCH   8   9
ATOM      9  C   UNL     1     -10.265   5.543   3.101  1.00  0.00     0.041 C 
ATOM     10  O   UNL     1     -10.802   6.547   3.639  1.00  0.00    -0.550 OA
ATOM     11  O   UNL     1     -10.751   4.271   3.378  1.00  0.00    -0.550 OA
ENDBRANCH   8   9
ENDBRANCH   7   8
ENDBRANCH   6   7
ENDBRANCH   5   6
ENDBRANCH   4   5
ENDBRANCH   3   4
ENDBRANCH   2   3
ENDBRANCH   1   2
BRANCH   1  12
ATOM     12  C   UNL     1      -3.062   2.805   4.232  1.00  0.00     0.000 C 
BRANCH  12  13
ATOM     13  C   UNL     1      -4.045   1.644   3.995  1.00  0.00    -0.000 C 
BRANCH  13  14
ATOM     14  C   UNL     1      -4.042   1.154   2.538  1.00  0.00    -0.000 C 
BRANCH  14  15
ATOM     15  C   UNL     1      -5.032   0.001   2.300  1.00  0.00    -0.000 C 
BRANCH  15  16
ATOM     16  C   UNL     1      -6.257   0.074   3.226  1.00  0.00    -0.000 C 
BRANCH  16  17
ATOM     17  C   UNL     1      -6.649  -1.296   3.800  1.00  0.00    -0.000 C 
BRANCH  17  18
ATOM     18  C   UNL     1      -6.009  -1.515   5.180  1.00  0.00    -0.000 C 
BRANCH  18  19
ATOM     19  C   UNL     1      -4.752  -2.396   5.113  1.00  0.00    -0.003 C 
ATOM     20  C   UNL     1      -3.601  -1.851   5.959  1.00  0.00     0.004 C 
ENDBRANCH  18  19
ENDBRANCH  17  18
ENDBRANCH  16  17
ENDBRANCH  15  16
ENDBRANCH  14  15
ENDBRANCH  13  14
ENDBRANCH  12  13
ENDBRANCH   1  12
TORSDOF 16
ENDMDL
MODEL 3
REMARK VINA RESULT:    -6.571      3.108      7.492
REMARK INTER + INTRA:         -14.135
REMARK INTER:                 -12.331
REMARK INTRA:                  -1.804
REMARK UNBOUND:                -1.417
REMARK SMILES CCCCCCCCCCCCCCCCCC(=O)[O-]
REMARK SMILES IDX 10 1 11 2 12 3 13 4 14 5 15 6 16 7 17 8 18 9 19 10 20 11
REMARK SMILES IDX 9 12 8 13 7 14 6 15 5 16 4 17 3 18 2 19 1 20
REMARK H PARENT
REMARK Flexibility Score: inf
ROOT
ATOM      1  C   UNL     1      -3.945   1.082   2.865  1.00  0.00     0.000 C 
ENDROOT
BRANCH   1   2
ATOM      2  C   UNL     1      -4.338   1.985   4.045  1.00  0.00     0.000 C 
BRANCH   2   3
ATOM      3  C   UNL     1      -3.176   2.903   4.444  1.00  0.00     0.000 C 
BRANCH   3   4
ATOM      4  C   UNL     1      -3.490   3.653   5.745  1.00  0.00     0.000 C 
BRANCH   4   5
ATOM      5  C   UNL     1      -4.573   4.717   5.520  1.00  0.00     0.000 C 
BRANCH   5   6
ATOM      6  C   UNL     1      -4.182   5.753   4.454  1.00  0.00     0.000 C 
BRANCH   6   7
ATOM      7  C   UNL     1      -5.332   6.708   4.069  1.00  0.00     0.006 C 
BRANCH   7   8
ATOM      8  C   UNL     1      -5.949   6.356   2.709  1.00  0.00     0.053 C 
BRANCH   8   9
ATOM      9  C   UNL     1      -7.409   6.070   2.853  1.00  0.00     0.041 C 
ATOM     10  O   UNL     1      -7.917   5.927   3.997  1.00  0.00    -0.550 OA
ATOM     11  O   UNL     1      -8.221   6.012   1.727  1.00  0.00    -0.550 OA
ENDBRANCH   8   9
ENDBRANCH   7   8
ENDBRANCH   6   7
ENDBRANCH   5   6
ENDBRANCH   4   5
ENDBRANCH   3   4
ENDBRANCH   2   3
ENDBRANCH   1   2
BRANCH   1  12
ATOM     12  C   UNL     1      -5.148   0.339   2.263  1.00  0.00     0.000 C 
BRANCH  12  13
ATOM     13  C   UNL     1      -6.319   0.211   3.254  1.00  0.00    -0.000 C 
BRANCH  13  14
ATOM     14  C   UNL     1      -6.545  -1.236   3.721  1.00  0.00    -0.000 C 
BRANCH  14  15
ATOM     15  C   UNL     1      -5.838  -1.544   5.052  1.00  0.00    -0.000 C 
BRANCH  15  16
ATOM     16  C   UNL     1      -4.680  -2.541   4.888  1.00  0.00    -0.000 C 
BRANCH  16  17
ATOM     17  C   UNL     1      -3.528  -2.278   5.871  1.00  0.00    -0.000 C 
BRANCH  17  18
ATOM     18  C   UNL     1      -3.632  -0.868   6.472  1.00  0.00    -0.000 C 
BRANCH  18  19
ATOM     19  C   UNL     1      -2.531  -0.585   7.506  1.00  0.00    -0.003 C 
ATOM     20  C   UNL     1      -2.522   0.868   7.980  1.00  0.00     0.004 C 
ENDBRANCH  18  19
ENDBRANCH  17  18
ENDBRANCH  16  17
ENDBRANCH  15  16
ENDBRANCH  14  15
ENDBRANCH  13  14
ENDBRANCH  12  13
ENDBRANCH   1  12
TORSDOF 16
ENDMDL
MODEL 4
REMARK VINA RESULT:    -6.551      2.383      3.288
REMARK INTER + INTRA:         -14.097
REMARK INTER:                 -13.004
REMARK INTRA:                  -1.093
REMARK UNBOUND:                -1.417
REMARK SMILES CCCCCCCCCCCCCCCCCC(=O)[O-]
REMARK SMILES IDX 10 1 11 2 12 3 13 4 14 5 15 6 16 7 17 8 18 9 19 10 20 11
REMARK SMILES IDX 9 12 8 13 7 14 6 15 5 16 4 17 3 18 2 19 1 20
REMARK H PARENT
REMARK Flexibility Score: inf
ROOT
ATOM      1  C   UNL     1      -4.429   1.866   3.473  1.00  0.00     0.000 C 
ENDROOT
BRANCH   1   2
ATOM      2  C   UNL     1      -4.313   0.403   3.017  1.00  0.00     0.000 C 
BRANCH   2   3
ATOM      3  C   UNL     1      -5.640  -0.340   3.214  1.00  0.00     0.000 C 
BRANCH   3   4
ATOM      4  C   UNL     1      -5.585  -1.246   4.450  1.00  0.00     0.000 C 
BRANCH   4   5
ATOM      5  C   UNL     1      -4.141  -1.666   4.761  1.00  0.00     0.000 C 
BRANCH   5   6
ATOM      6  C   UNL     1      -3.729  -1.366   6.211  1.00  0.00     0.000 C 
BRANCH   6   7
ATOM      7  C   UNL     1      -2.864  -2.473   6.850  1.00  0.00     0.006 C 
BRANCH   7   8
ATOM      8  C   UNL     1      -3.438  -3.874   6.599  1.00  0.00     0.053 C 
BRANCH   8   9
ATOM      9  C   UNL     1      -2.832  -4.866   7.541  1.00  0.00     0.041 C 
ATOM     10  O   UNL     1      -2.216  -5.870   7.094  1.00  0.00    -0.550 OA
ATOM     11  O   UNL     1      -2.903  -4.655   8.912  1.00  0.00    -0.550 OA
ENDBRANCH   8   9
ENDBRANCH   7   8
ENDBRANCH   6   7
ENDBRANCH   5   6
ENDBRANCH   4   5
ENDBRANCH   3   4
ENDBRANCH   2   3
ENDBRANCH   1   2
BRANCH   1  12
ATOM     12  C   UNL     1      -3.587   2.163   4.724  1.00  0.00     0.000 C 
BRANCH  12  13
ATOM     13  C   UNL     1      -3.135   3.633   4.797  1.00  0.00    -0.000 C 
BRANCH  13  14
ATOM     14  C   UNL     1      -4.257   4.574   5.264  1.00  0.00    -0.000 C 
BRANCH  14  15
ATOM     15  C   UNL     1      -4.279   5.900   4.484  1.00  0.00    -0.000 C 
BRANCH  15  16
ATOM     16  C   UNL     1      -5.675   6.240   3.938  1.00  0.00    -0.000 C 
BRANCH  16  17
ATOM     17  C   UNL     1      -5.637   6.752   2.490  1.00  0.00    -0.000 C 
BRANCH  17  18
ATOM     18  C   UNL     1      -6.908   6.342   1.730  1.00  0.00    -0.000 C 
BRANCH  18  19
ATOM     19  C   UNL     1      -7.996   5.782   2.659  1.00  0.00    -0.003 C 
ATOM     20  C   UNL     1      -9.395   5.863   2.049  1.00  0.00     0.004 C 
ENDBRANCH  18  19
ENDBRANCH  17  18
ENDBRANCH  16  17
ENDBRANCH  15  16
ENDBRANCH  14  15
ENDBRANCH  13  14
ENDBRANCH  12  13
ENDBRANCH   1  12
TORSDOF 16
ENDMDL
MODEL 5
REMARK VINA RESULT:    -6.538      1.719      3.151
REMARK INTER + INTRA:         -14.071
REMARK INTER:                 -13.082
REMARK INTRA:                  -0.988
REMARK UNBOUND:                -1.417
REMARK SMILES CCCCCCCCCCCCCCCCCC(=O)[O-]
REMARK SMILES IDX 10 1 11 2 12 3 13 4 14 5 15 6 16 7 17 8 18 9 19 10 20 11
REMARK SMILES IDX 9 12 8 13 7 14 6 15 5 16 4 17 3 18 2 19 1 20
REMARK H PARENT
REMARK Flexibility Score: inf
ROOT
ATOM      1  C   UNL     1      -3.229   2.486   4.070  1.00  0.00     0.000 C 
ENDROOT
BRANCH   1   2
ATOM      2  C   UNL     1      -4.693   2.366   3.617  1.00  0.00     0.000 C 
BRANCH   2   3
ATOM      3  C   UNL     1      -4.901   1.111   2.760  1.00  0.00     0.000 C 
BRANCH   3   4
ATOM      4  C   UNL     1      -4.551  -0.157   3.548  1.00  0.00     0.000 C 
BRANCH   4   5
ATOM      5  C   UNL     1      -5.819  -0.919   3.958  1.00  0.00     0.000 C 
BRANCH   5   6
ATOM      6  C   UNL     1      -5.606  -1.818   5.188  1.00  0.00     0.000 C 
BRANCH   6   7
ATOM      7  C   UNL     1      -4.123  -2.134   5.473  1.00  0.00     0.006 C 
BRANCH   7   8
ATOM      8  C   UNL     1      -3.544  -1.250   6.585  1.00  0.00     0.053 C 
BRANCH   8   9
ATOM      9  C   UNL     1      -2.233  -1.791   7.058  1.00  0.00     0.041 C 
ATOM     10  O   UNL     1      -1.555  -1.158   7.909  1.00  0.00    -0.550 OA
ATOM     11  O   UNL     1      -1.784  -3.023   6.597  1.00  0.00    -0.550 OA
ENDBRANCH   8   9
ENDBRANCH   7   8
ENDBRANCH   6   7
ENDBRANCH   5   6
ENDBRANCH   4   5
ENDBRANCH   3   4
ENDBRANCH   2   3
ENDBRANCH   1   2
BRANCH   1  12
ATOM     12  C   UNL     1      -2.949   3.797   4.821  1.00  0.00     0.000 C 
BRANCH  12  13
ATOM     13  C   UNL     1      -4.237   4.500   5.285  1.00  0.00    -0.000 C 
BRANCH  13  14
ATOM     14  C   UNL     1      -4.467   5.844   4.576  1.00  0.00    -0.000 C 
BRANCH  14  15
ATOM     15  C   UNL     1      -5.873   5.955   3.963  1.00  0.00    -0.000 C 
BRANCH  15  16
ATOM     16  C   UNL     1      -5.865   6.641   2.587  1.00  0.00    -0.000 C 
BRANCH  16  17
ATOM     17  C   UNL     1      -7.080   6.261   1.727  1.00  0.00    -0.000 C 
BRANCH  17  18
ATOM     18  C   UNL     1      -8.168   5.593   2.582  1.00  0.00    -0.000 C 
BRANCH  18  19
ATOM     19  C   UNL     1      -9.583   6.054   2.202  1.00  0.00    -0.003 C 
ATOM     20  C   UNL     1      -9.895   5.851   0.720  1.00  0.00     0.004 C 
ENDBRANCH  18  19
ENDBRANCH  17  18
ENDBRANCH  16  17
ENDBRANCH  15  16
ENDBRANCH  14  15
ENDBRANCH  13  14
ENDBRANCH  12  13
ENDBRANCH   1  12
TORSDOF 16
ENDMDL
MODEL 6
REMARK VINA RESULT:    -6.526      5.605      7.283
REMARK INTER + INTRA:         -14.047
REMARK INTER:                 -13.181
REMARK INTRA:                  -0.867
REMARK UNBOUND:                -1.417
REMARK SMILES CCCCCCCCCCCCCCCCCC(=O)[O-]
REMARK SMILES IDX 10 1 11 2 12 3 13 4 14 5 15 6 16 7 17 8 18 9 19 10 20 11
REMARK SMILES IDX 9 12 8 13 7 14 6 15 5 16 4 17 3 18 2 19 1 20
REMARK H PARENT
REMARK Flexibility Score: inf
ROOT
ATOM      1  C   UNL     1      -4.370   0.648   3.149  1.00  0.00     0.000 C 
ENDROOT
BRANCH   1   2
ATOM      2  C   UNL     1      -5.207   0.417   1.881  1.00  0.00     0.000 C 
BRANCH   2   3
ATOM      3  C   UNL     1      -4.312   0.360   0.637  1.00  0.00     0.000 C 
BRANCH   3   4
ATOM      4  C   UNL     1      -5.155   0.323  -0.645  1.00  0.00     0.000 C 
BRANCH   4   5
ATOM      5  C   UNL     1      -4.306  -0.102  -1.850  1.00  0.00     0.000 C 
BRANCH   5   6
ATOM      6  C   UNL     1      -5.119  -0.847  -2.922  1.00  0.00     0.000 C 
BRANCH   6   7
ATOM      7  C   UNL     1      -4.346  -2.004  -3.590  1.00  0.00     0.006 C 
BRANCH   7   8
ATOM      8  C   UNL     1      -2.995  -2.268  -2.910  1.00  0.00     0.053 C 
BRANCH   8   9
ATOM      9  C   UNL     1      -1.876  -2.105  -3.888  1.00  0.00     0.041 C 
ATOM     10  O   UNL     1      -1.450  -0.956  -4.179  1.00  0.00    -0.550 OA
ATOM     11  O   UNL     1      -1.267  -3.226  -4.441  1.00  0.00    -0.550 OA
ENDBRANCH   8   9
ENDBRANCH   7   8
ENDBRANCH   6   7
ENDBRANCH   5   6
ENDBRANCH   4   5
ENDBRANCH   3   4
ENDBRANCH   2   3
ENDBRANCH   1   2
BRANCH   1  12
ATOM     12  C   UNL     1      -4.417   2.108   3.630  1.00  0.00     0.000 C 
BRANCH  12  13
ATOM     13  C   UNL     1      -3.247   2.459   4.566  1.00  0.00    -0.000 C 
BRANCH  13  14
ATOM     14  C   UNL     1      -3.588   3.601   5.537  1.00  0.00    -0.000 C 
BRANCH  14  15
ATOM     15  C   UNL     1      -3.773   4.950   4.822  1.00  0.00    -0.000 C 
BRANCH  15  16
ATOM     16  C   UNL     1      -5.210   5.484   4.931  1.00  0.00    -0.000 C 
BRANCH  16  17
ATOM     17  C   UNL     1      -5.592   6.404   3.761  1.00  0.00    -0.000 C 
BRANCH  17  18
ATOM     18  C   UNL     1      -6.733   5.792   2.933  1.00  0.00    -0.000 C 
BRANCH  18  19
ATOM     19  C   UNL     1      -6.852   6.422   1.537  1.00  0.00    -0.003 C 
ATOM     20  C   UNL     1      -5.602   7.202   1.130  1.00  0.00     0.004 C 
ENDBRANCH  18  19
ENDBRANCH  17  18
ENDBRANCH  16  17
ENDBRANCH  15  16
ENDBRANCH  14  15
ENDBRANCH  13  14
ENDBRANCH  12  13
ENDBRANCH   1  12
TORSDOF 16
ENDMDL
MODEL 7
REMARK VINA RESULT:    -6.480      3.104      3.706
REMARK INTER + INTRA:         -13.958
REMARK INTER:                 -12.946
REMARK INTRA:                  -1.012
REMARK UNBOUND:                -1.417
REMARK SMILES CCCCCCCCCCCCCCCCCC(=O)[O-]
REMARK SMILES IDX 10 1 11 2 12 3 13 4 14 5 15 6 16 7 17 8 18 9 19 10 20 11
REMARK SMILES IDX 9 12 8 13 7 14 6 15 5 16 4 17 3 18 2 19 1 20
REMARK H PARENT
REMARK Flexibility Score: inf
ROOT
ATOM      1  C   UNL     1      -5.411   0.273   3.020  1.00  0.00     0.000 C 
ENDROOT
BRANCH   1   2
ATOM      2  C   UNL     1      -5.744  -0.974   3.853  1.00  0.00     0.000 C 
BRANCH   2   3
ATOM      3  C   UNL     1      -4.466  -1.651   4.361  1.00  0.00     0.000 C 
BRANCH   3   4
ATOM      4  C   UNL     1      -4.550  -1.925   5.868  1.00  0.00     0.000 C 
BRANCH   4   5
ATOM      5  C   UNL     1      -3.247  -1.528   6.574  1.00  0.00     0.000 C 
BRANCH   5   6
ATOM      6  C   UNL     1      -2.397  -2.742   6.989  1.00  0.00     0.000 C 
BRANCH   6   7
ATOM      7  C   UNL     1      -3.191  -4.065   7.035  1.00  0.00     0.006 C 
BRANCH   7   8
ATOM      8  C   UNL     1      -2.525  -5.110   7.940  1.00  0.00     0.053 C 
BRANCH   8   9
ATOM      9  C   UNL     1      -2.793  -6.491   7.432  1.00  0.00     0.041 C 
ATOM     10  O   UNL     1      -2.656  -7.485   8.193  1.00  0.00    -0.550 OA
ATOM     11  O   UNL     1      -3.245  -6.677   6.131  1.00  0.00    -0.550 OA
ENDBRANCH   8   9
ENDBRANCH   7   8
ENDBRANCH   6   7
ENDBRANCH   5   6
ENDBRANCH   4   5
ENDBRANCH   3   4
ENDBRANCH   2   3
ENDBRANCH   1   2
BRANCH   1  12
ATOM     12  C   UNL     1      -4.100   0.945   3.458  1.00  0.00     0.000 C 
BRANCH  12  13
ATOM     13  C   UNL     1      -4.259   2.459   3.688  1.00  0.00    -0.000 C 
BRANCH  13  14
ATOM     14  C   UNL     1      -3.319   2.994   4.780  1.00  0.00    -0.000 C 
BRANCH  14  15
ATOM     15  C   UNL     1      -3.447   4.514   4.976  1.00  0.00    -0.000 C 
BRANCH  15  16
ATOM     16  C   UNL     1      -4.906   4.965   5.157  1.00  0.00    -0.000 C 
BRANCH  16  17
ATOM     17  C   UNL     1      -5.269   6.166   4.269  1.00  0.00    -0.000 C 
BRANCH  17  18
ATOM     18  C   UNL     1      -6.695   6.024   3.713  1.00  0.00    -0.000 C 
BRANCH  18  19
ATOM     19  C   UNL     1      -6.733   6.047   2.177  1.00  0.00    -0.003 C 
ATOM     20  C   UNL     1      -5.792   7.090   1.577  1.00  0.00     0.004 C 
ENDBRANCH  18  19
ENDBRANCH  17  18
ENDBRANCH  16  17
ENDBRANCH  15  16
ENDBRANCH  14  15
ENDBRANCH  13  14
ENDBRANCH  12  13
ENDBRANCH   1  12
TORSDOF 16
ENDMDL
MODEL 8
REMARK VINA RESULT:    -6.477      2.535      4.251
REMARK INTER + INTRA:         -13.953
REMARK INTER:                 -12.772
REMARK INTRA:                  -1.181
REMARK UNBOUND:                -1.417
REMARK SMILES CCCCCCCCCCCCCCCCCC(=O)[O-]
REMARK SMILES IDX 10 1 11 2 12 3 13 4 14 5 15 6 16 7 17 8 18 9 19 10 20 11
REMARK SMILES IDX 9 12 8 13 7 14 6 15 5 16 4 17 3 18 2 19 1 20
REMARK H PARENT
REMARK Flexibility Score: inf
ROOT
ATOM      1  C   UNL     1      -3.550   3.395   7.537  1.00  0.00     0.000 C 
ENDROOT
BRANCH   1   2
ATOM      2  C   UNL     1      -3.044   2.735   8.829  1.00  0.00     0.000 C 
BRANCH   2   3
ATOM      3  C   UNL     1      -1.839   1.830   8.548  1.00  0.00     0.000 C 
BRANCH   3   4
ATOM      4  C   UNL     1      -2.140   0.377   8.937  1.00  0.00     0.000 C 
BRANCH   4   5
ATOM      5  C   UNL     1      -1.269  -0.599   8.135  1.00  0.00     0.000 C 
BRANCH   5   6
ATOM      6  C   UNL     1      -2.094  -1.646   7.367  1.00  0.00     0.000 C 
BRANCH   6   7
ATOM      7  C   UNL     1      -3.302  -1.049   6.615  1.00  0.00     0.006 C 
BRANCH   7   8
ATOM      8  C   UNL     1      -4.157  -2.131   5.939  1.00  0.00     0.053 C 
BRANCH   8   9
ATOM      9  C   UNL     1      -4.708  -1.630   4.643  1.00  0.00     0.041 C 
ATOM     10  O   UNL     1      -3.942  -1.425   3.664  1.00  0.00    -0.550 OA
ATOM     11  O   UNL     1      -6.077  -1.436   4.498  1.00  0.00    -0.550 OA
ENDBRANCH   8   9
ENDBRANCH   7   8
ENDBRANCH   6   7
ENDBRANCH   5   6
ENDBRANCH   4   5
ENDBRANCH   3   4
ENDBRANCH   2   3
ENDBRANCH   1   2
BRANCH   1  12
ATOM     12  C   UNL     1      -2.872   2.829   6.279  1.00  0.00     0.000 C 
BRANCH  12  13
ATOM     13  C   UNL     1      -3.212   3.633   5.012  1.00  0.00    -0.000 C 
BRANCH  13  14
ATOM     14  C   UNL     1      -4.400   4.586   5.216  1.00  0.00    -0.000 C 
BRANCH  14  15
ATOM     15  C   UNL     1      -4.219   5.924   4.478  1.00  0.00    -0.000 C 
BRANCH  15  16
ATOM     16  C   UNL     1      -5.553   6.524   4.007  1.00  0.00    -0.000 C 
BRANCH  16  17
ATOM     17  C   UNL     1      -5.547   6.886   2.514  1.00  0.00    -0.000 C 
BRANCH  17  18
ATOM     18  C   UNL     1      -6.764   6.279   1.798  1.00  0.00    -0.000 C 
BRANCH  18  19
ATOM     19  C   UNL     1      -7.756   5.626   2.773  1.00  0.00    -0.003 C 
ATOM     20  C   UNL     1      -9.211   5.795   2.338  1.00  0.00     0.004 C 
ENDBRANCH  18  19
ENDBRANCH  17  18
ENDBRANCH  16  17
ENDBRANCH  15  16
ENDBRANCH  14  15
ENDBRANCH  13  14
ENDBRANCH  12  13
ENDBRANCH   1  12
TORSDOF 16
ENDMDL
MODEL 9
REMARK VINA RESULT:    -6.461      5.257      7.042
REMARK INTER + INTRA:         -13.921
REMARK INTER:                 -13.028
REMARK INTRA:                  -0.894
REMARK UNBOUND:                -1.417
REMARK SMILES CCCCCCCCCCCCCCCCCC(=O)[O-]
REMARK SMILES IDX 10 1 11 2 12 3 13 4 14 5 15 6 16 7 17 8 18 9 19 10 20 11
REMARK SMILES IDX 9 12 8 13 7 14 6 15 5 16 4 17 3 18 2 19 1 20
REMARK H PARENT
REMARK Flexibility Score: inf
ROOT
ATOM      1  C   UNL     1      -4.507   2.110   3.628  1.00  0.00     0.000 C 
ENDROOT
BRANCH   1   2
ATOM      2  C   UNL     1      -4.246   0.687   3.108  1.00  0.00     0.000 C 
BRANCH   2   3
ATOM      3  C   UNL     1      -5.096   0.392   1.866  1.00  0.00     0.000 C 
BRANCH   3   4
ATOM      4  C   UNL     1      -4.226   0.338   0.604  1.00  0.00     0.000 C 
BRANCH   4   5
ATOM      5  C   UNL     1      -5.090   0.180  -0.654  1.00  0.00     0.000 C 
BRANCH   5   6
ATOM      6  C   UNL     1      -4.284   0.328  -1.956  1.00  0.00     0.000 C 
BRANCH   6   7
ATOM      7  C   UNL     1      -3.484  -0.936  -2.335  1.00  0.00     0.006 C 
BRANCH   7   8
ATOM      8  C   UNL     1      -4.292  -1.887  -3.229  1.00  0.00     0.053 C 
BRANCH   8   9
ATOM      9  C   UNL     1      -3.875  -3.305  -2.997  1.00  0.00     0.041 C 
ATOM     10  O   UNL     1      -2.671  -3.580  -2.753  1.00  0.00    -0.550 OA
ATOM     11  O   UNL     1      -4.827  -4.318  -2.999  1.00  0.00    -0.550 OA
ENDBRANCH   8   9
ENDBRANCH   7   8
ENDBRANCH   6   7
ENDBRANCH   5   6
ENDBRANCH   4   5
ENDBRANCH   3   4
ENDBRANCH   2   3
ENDBRANCH   1   2
BRANCH   1  12
ATOM     12  C   UNL     1      -3.298   2.697   4.374  1.00  0.00     0.000 C 
BRANCH  12  13
ATOM     13  C   UNL     1      -3.653   3.971   5.162  1.00  0.00    -0.000 C 
BRANCH  13  14
ATOM     14  C   UNL     1      -4.987   4.591   4.717  1.00  0.00    -0.000 C 
BRANCH  14  15
ATOM     15  C   UNL     1      -4.911   6.122   4.582  1.00  0.00    -0.000 C 
BRANCH  15  16
ATOM     16  C   UNL     1      -5.540   6.631   3.275  1.00  0.00    -0.000 C 
BRANCH  16  17
ATOM     17  C   UNL     1      -6.609   5.678   2.720  1.00  0.00    -0.000 C 
BRANCH  17  18
ATOM     18  C   UNL     1      -7.348   6.315   1.533  1.00  0.00    -0.000 C 
BRANCH  18  19
ATOM     19  C   UNL     1      -8.839   5.947   1.500  1.00  0.00    -0.003 C 
ATOM     20  C   UNL     1      -9.409   5.660   2.888  1.00  0.00     0.004 C 
ENDBRANCH  18  19
ENDBRANCH  17  18
ENDBRANCH  16  17
ENDBRANCH  15  16
ENDBRANCH  14  15
ENDBRANCH  13  14
ENDBRANCH  12  13
ENDBRANCH   1  12
TORSDOF 16
ENDMDL
