MODEL 1
REMARK VINA RESULT:    -4.676      0.000      0.000
REMARK INTER + INTRA:          -7.974
REMARK INTER:                  -6.727
REMARK INTRA:                  -1.247
REMARK UNBOUND:                -1.247
REMARK SMILES O=C(CO)[C@@H](O)[C@@H](O)[C@H](O)CO
REMARK SMILES IDX 7 1 9 2 11 3 12 4 10 6 5 8 2 9 1 10 3 11 4 12 6 14 8 16
REMARK H PARENT 12 5 10 7 4 13 6 15 8 17
REMARK Flexibility Score: inf
ROOT
ATOM      1  C   UNL     1     -33.948  93.875   6.585  1.00  0.00     0.181 C 
ENDROOT
BRANCH   1   2
ATOM      2  C   UNL     1     -34.930  94.235   7.739  1.00  0.00     0.171 C 
BRANCH   2   3
ATOM      3  C   UNL     1     -35.284  93.052   8.669  1.00  0.00     0.190 C 
BRANCH   3   4
ATOM      4  O   UNL     1     -36.013  92.083   7.964  1.00  0.00    -0.394 OA
ATOM      5  H   UNL     1     -36.588  91.618   8.626  1.00  0.00     0.210 HD
ENDBRANCH   3   4
ENDBRANCH   2   3
BRANCH   2   6
ATOM      6  O   UNL     1     -34.460  95.344   8.467  1.00  0.00    -0.388 OA
ATOM      7  H   UNL     1     -33.863  95.876   7.880  1.00  0.00     0.211 HD
ENDBRANCH   2   6
ENDBRANCH   1   2
BRANCH   1   8
ATOM      8  C   UNL     1     -32.692  93.057   7.011  1.00  0.00     0.214 C 
BRANCH   8   9
ATOM      9  C   UNL     1     -32.686  91.685   6.363  1.00  0.00     0.189 C 
ATOM     10  O   UNL     1     -33.474  90.839   6.760  1.00  0.00    -0.294 OA
BRANCH   9  11
ATOM     11  C   UNL     1     -31.727  91.342   5.250  1.00  0.00     0.234 C 
BRANCH  11  12
ATOM     12  O   UNL     1     -32.052  92.046   4.083  1.00  0.00    -0.388 OA
ATOM     13  H   UNL     1     -32.028  91.381   3.345  1.00  0.00     0.211 HD
ENDBRANCH  11  12
ENDBRANCH   9  11
ENDBRANCH   8   9
BRANCH   8  14
ATOM     14  O   UNL     1     -31.499  93.750   6.733  1.00  0.00    -0.382 OA
ATOM     15  H   UNL     1     -31.739  94.593   6.267  1.00  0.00     0.211 HD
ENDBRANCH   8  14
ENDBRANCH   1   8
BRANCH   1  16
ATOM     16  O   UNL     1     -34.646  93.221   5.551  1.00  0.00    -0.387 OA
ATOM     17  H   UNL     1     -35.338  93.845   5.209  1.00  0.00     0.211 HD
ENDBRANCH   1  16
TORSDOF 10
ENDMDL
MODEL 2
REMARK VINA RESULT:    -4.374     16.992     19.436
REMARK INTER + INTRA:          -7.538
REMARK INTER:                  -6.296
REMARK INTRA:                  -1.243
REMARK UNBOUND:                -1.247
REMARK SMILES O=C(CO)[C@@H](O)[C@@H](O)[C@H](O)CO
REMARK SMILES IDX 7 1 9 2 11 3 12 4 10 6 5 8 2 9 1 10 3 11 4 12 6 14 8 16
REMARK H PARENT 12 5 10 7 4 13 6 15 8 17
REMARK Flexibility Score: inf
ROOT
ATOM      1  C   UNL     1     -18.603  96.648  -4.426  1.00  0.00     0.181 C 
ENDROOT
BRANCH   1   2
ATOM      2  C   UNL     1     -17.867  97.163  -5.698  1.00  0.00     0.171 C 
BRANCH   2   3
ATOM      3  C   UNL     1     -16.948  96.118  -6.372  1.00  0.00     0.190 C 
BRANCH   3   4
ATOM      4  O   UNL     1     -15.899  95.768  -5.509  1.00  0.00    -0.394 OA
ATOM      5  H   UNL     1     -16.099  94.857  -5.170  1.00  0.00     0.210 HD
ENDBRANCH   3   4
ENDBRANCH   2   3
BRANCH   2   6
ATOM      6  O   UNL     1     -18.780  97.718  -6.614  1.00  0.00    -0.388 OA
ATOM      7  H   UNL     1     -19.666  97.788  -6.172  1.00  0.00     0.211 HD
ENDBRANCH   2   6
ENDBRANCH   1   2
BRANCH   1   8
ATOM      8  C   UNL     1     -19.330  95.279  -4.588  1.00  0.00     0.214 C 
BRANCH   8   9
ATOM      9  C   UNL     1     -18.678  94.209  -3.732  1.00  0.00     0.189 C 
ATOM     10  O   UNL     1     -17.619  93.720  -4.100  1.00  0.00    -0.294 OA
BRANCH   9  11
ATOM     11  C   UNL     1     -19.309  93.730  -2.448  1.00  0.00     0.234 C 
BRANCH  11  12
ATOM     12  O   UNL     1     -19.314  94.752  -1.489  1.00  0.00    -0.388 OA
ATOM     13  H   UNL     1     -19.471  95.596  -1.987  1.00  0.00     0.211 HD
ENDBRANCH  11  12
ENDBRANCH   9  11
ENDBRANCH   8   9
BRANCH   8  14
ATOM     14  O   UNL     1     -20.704  95.381  -4.303  1.00  0.00    -0.382 OA
ATOM     15  H   UNL     1     -21.100  96.032  -4.941  1.00  0.00     0.211 HD
ENDBRANCH   8  14
ENDBRANCH   1   8
BRANCH   1  16
ATOM     16  O   UNL     1     -17.712  96.618  -3.337  1.00  0.00    -0.387 OA
ATOM     17  H   UNL     1     -18.112  96.049  -2.630  1.00  0.00     0.211 HD
ENDBRANCH   1  16
TORSDOF 10
ENDMDL
MODEL 3
REMARK VINA RESULT:    -4.315     17.694     20.280
REMARK INTER + INTRA:          -7.454
REMARK INTER:                  -6.623
REMARK INTRA:                  -0.832
REMARK UNBOUND:                -1.247
REMARK SMILES O=C(CO)[C@@H](O)[C@@H](O)[C@H](O)CO
REMARK SMILES IDX 7 1 9 2 11 3 12 4 10 6 5 8 2 9 1 10 3 11 4 12 6 14 8 16
REMARK H PARENT 12 5 10 7 4 13 6 15 8 17
REMARK Flexibility Score: inf
ROOT
ATOM      1  C   UNL     1     -18.211  96.366  -6.048  1.00  0.00     0.181 C 
ENDROOT
BRANCH   1   2
ATOM      2  C   UNL     1     -17.008  95.393  -6.229  1.00  0.00     0.171 C 
BRANCH   2   3
ATOM      3  C   UNL     1     -16.679  95.051  -7.700  1.00  0.00     0.190 C 
BRANCH   3   4
ATOM      4  O   UNL     1     -16.272  96.204  -8.387  1.00  0.00    -0.394 OA
ATOM      5  H   UNL     1     -15.857  95.901  -9.236  1.00  0.00     0.210 HD
ENDBRANCH   3   4
ENDBRANCH   2   3
BRANCH   2   6
ATOM      6  O   UNL     1     -15.875  95.866  -5.541  1.00  0.00    -0.388 OA
ATOM      7  H   UNL     1     -15.066  95.602  -6.050  1.00  0.00     0.211 HD
ENDBRANCH   2   6
ENDBRANCH   1   2
BRANCH   1   8
ATOM      8  C   UNL     1     -18.781  96.457  -4.600  1.00  0.00     0.214 C 
BRANCH   8   9
ATOM      9  C   UNL     1     -19.398  95.139  -4.171  1.00  0.00     0.189 C 
ATOM     10  O   UNL     1     -20.387  94.728  -4.763  1.00  0.00    -0.294 OA
BRANCH   9  11
ATOM     11  C   UNL     1     -18.828  94.334  -3.031  1.00  0.00     0.234 C 
BRANCH  11  12
ATOM     12  O   UNL     1     -18.967  95.024  -1.819  1.00  0.00    -0.388 OA
ATOM     13  H   UNL     1     -18.465  94.498  -1.143  1.00  0.00     0.211 HD
ENDBRANCH  11  12
ENDBRANCH   9  11
ENDBRANCH   8   9
BRANCH   8  14
ATOM     14  O   UNL     1     -17.803  96.877  -3.680  1.00  0.00    -0.382 OA
ATOM     15  H   UNL     1     -16.912  96.670  -4.067  1.00  0.00     0.211 HD
ENDBRANCH   8  14
ENDBRANCH   1   8
BRANCH   1  16
ATOM     16  O   UNL     1     -17.871  97.642  -6.536  1.00  0.00    -0.387 OA
ATOM     17  H   UNL     1     -17.163  97.528  -7.222  1.00  0.00     0.211 HD
ENDBRANCH   1  16
TORSDOF 10
ENDMDL
MODEL 4
REMARK VINA RESULT:    -4.231      1.219      2.277
REMARK INTER + INTRA:          -7.332
REMARK INTER:                  -6.370
REMARK INTRA:                  -0.962
REMARK UNBOUND:                -1.247
REMARK SMILES O=C(CO)[C@@H](O)[C@@H](O)[C@H](O)CO
REMARK SMILES IDX 7 1 9 2 11 3 12 4 10 6 5 8 2 9 1 10 3 11 4 12 6 14 8 16
REMARK H PARENT 12 5 10 7 4 13 6 15 8 17
REMARK Flexibility Score: inf
ROOT
ATOM      1  C   UNL     1     -33.864  92.605   7.741  1.00  0.00     0.181 C 
ENDROOT
BRANCH   1   2
ATOM      2  C   UNL     1     -35.050  93.602   7.895  1.00  0.00     0.171 C 
BRANCH   2   3
ATOM      3  C   UNL     1     -34.665  95.087   7.702  1.00  0.00     0.190 C 
BRANCH   3   4
ATOM      4  O   UNL     1     -33.977  95.560   8.829  1.00  0.00    -0.394 OA
ATOM      5  H   UNL     1     -33.262  96.163   8.496  1.00  0.00     0.210 HD
ENDBRANCH   3   4
ENDBRANCH   2   3
BRANCH   2   6
ATOM      6  O   UNL     1     -36.125  93.233   7.065  1.00  0.00    -0.388 OA
ATOM      7  H   UNL     1     -36.804  92.767   7.619  1.00  0.00     0.211 HD
ENDBRANCH   2   6
ENDBRANCH   1   2
BRANCH   1   8
ATOM      8  C   UNL     1     -33.148  92.631   6.357  1.00  0.00     0.214 C 
BRANCH   8   9
ATOM      9  C   UNL     1     -32.155  91.491   6.233  1.00  0.00     0.189 C 
ATOM     10  O   UNL     1     -32.090  90.662   7.130  1.00  0.00    -0.294 OA
BRANCH   9  11
ATOM     11  C   UNL     1     -31.245  91.363   5.037  1.00  0.00     0.234 C 
BRANCH  11  12
ATOM     12  O   UNL     1     -31.902  91.774   3.869  1.00  0.00    -0.388 OA
ATOM     13  H   UNL     1     -31.758  92.754   3.803  1.00  0.00     0.211 HD
ENDBRANCH  11  12
ENDBRANCH   9  11
ENDBRANCH   8   9
BRANCH   8  14
ATOM     14  O   UNL     1     -34.069  92.614   5.294  1.00  0.00    -0.382 OA
ATOM     15  H   UNL     1     -33.573  92.820   4.458  1.00  0.00     0.211 HD
ENDBRANCH   8  14
ENDBRANCH   1   8
BRANCH   1  16
ATOM     16  O   UNL     1     -32.941  92.795   8.788  1.00  0.00    -0.387 OA
ATOM     17  H   UNL     1     -32.031  92.817   8.392  1.00  0.00     0.211 HD
ENDBRANCH   1  16
TORSDOF 10
ENDMDL
MODEL 5
REMARK VINA RESULT:    -4.211      1.274      4.126
REMARK INTER + INTRA:          -7.305
REMARK INTER:                  -5.883
REMARK INTRA:                  -1.422
REMARK UNBOUND:                -1.247
REMARK SMILES O=C(CO)[C@@H](O)[C@@H](O)[C@H](O)CO
REMARK SMILES IDX 7 1 9 2 11 3 12 4 10 6 5 8 2 9 1 10 3 11 4 12 6 14 8 16
REMARK H PARENT 12 5 10 7 4 13 6 15 8 17
REMARK Flexibility Score: inf
ROOT
ATOM      1  C   UNL     1     -32.301  91.613   7.542  1.00  0.00     0.181 C 
ENDROOT
BRANCH   1   2
ATOM      2  C   UNL     1     -31.089  91.786   6.579  1.00  0.00     0.171 C 
BRANCH   2   3
ATOM      3  C   UNL     1     -31.330  91.257   5.146  1.00  0.00     0.190 C 
BRANCH   3   4
ATOM      4  O   UNL     1     -32.253  92.075   4.477  1.00  0.00    -0.394 OA
ATOM      5  H   UNL     1     -32.097  91.948   3.506  1.00  0.00     0.210 HD
ENDBRANCH   3   4
ENDBRANCH   2   3
BRANCH   2   6
ATOM      6  O   UNL     1     -30.644  93.121   6.571  1.00  0.00    -0.388 OA
ATOM      7  H   UNL     1     -29.669  93.126   6.386  1.00  0.00     0.211 HD
ENDBRANCH   2   6
ENDBRANCH   1   2
BRANCH   1   8
ATOM      8  C   UNL     1     -32.840  92.930   8.176  1.00  0.00     0.214 C 
BRANCH   8   9
ATOM      9  C   UNL     1     -33.936  93.540   7.323  1.00  0.00     0.189 C 
ATOM     10  O   UNL     1     -33.650  93.982   6.219  1.00  0.00    -0.294 OA
BRANCH   9  11
ATOM     11  C   UNL     1     -35.362  93.621   7.808  1.00  0.00     0.234 C 
BRANCH  11  12
ATOM     12  O   UNL     1     -35.933  92.343   7.880  1.00  0.00    -0.388 OA
ATOM     13  H   UNL     1     -35.249  91.760   8.301  1.00  0.00     0.211 HD
ENDBRANCH  11  12
ENDBRANCH   9  11
ENDBRANCH   8   9
BRANCH   8  14
ATOM     14  O   UNL     1     -33.284  92.730   9.496  1.00  0.00    -0.382 OA
ATOM     15  H   UNL     1     -33.655  93.589   9.827  1.00  0.00     0.211 HD
ENDBRANCH   8  14
ENDBRANCH   1   8
BRANCH   1  16
ATOM     16  O   UNL     1     -33.332  90.910   6.890  1.00  0.00    -0.387 OA
ATOM     17  H   UNL     1     -34.146  90.967   7.456  1.00  0.00     0.211 HD
ENDBRANCH   1  16
TORSDOF 10
ENDMDL
MODEL 6
REMARK VINA RESULT:    -4.209      1.479      4.253
REMARK INTER + INTRA:          -7.302
REMARK INTER:                  -6.807
REMARK INTRA:                  -0.494
REMARK UNBOUND:                -1.247
REMARK SMILES O=C(CO)[C@@H](O)[C@@H](O)[C@H](O)CO
REMARK SMILES IDX 7 1 9 2 11 3 12 4 10 6 5 8 2 9 1 10 3 11 4 12 6 14 8 16
REMARK H PARENT 12 5 10 7 4 13 6 15 8 17
REMARK Flexibility Score: inf
ROOT
ATOM      1  C   UNL     1     -34.368  91.558   6.993  1.00  0.00     0.181 C 
ENDROOT
BRANCH   1   2
ATOM      2  C   UNL     1     -33.475  92.311   5.963  1.00  0.00     0.171 C 
BRANCH   2   3
ATOM      3  C   UNL     1     -32.256  91.502   5.462  1.00  0.00     0.190 C 
BRANCH   3   4
ATOM      4  O   UNL     1     -31.998  91.799   4.116  1.00  0.00    -0.394 OA
ATOM      5  H   UNL     1     -31.391  91.091   3.777  1.00  0.00     0.210 HD
ENDBRANCH   3   4
ENDBRANCH   2   3
BRANCH   2   6
ATOM      6  O   UNL     1     -34.249  92.799   4.893  1.00  0.00    -0.388 OA
ATOM      7  H   UNL     1     -34.671  93.652   5.173  1.00  0.00     0.211 HD
ENDBRANCH   2   6
ENDBRANCH   1   2
BRANCH   1   8
ATOM      8  C   UNL     1     -35.323  92.461   7.831  1.00  0.00     0.214 C 
BRANCH   8   9
ATOM      9  C   UNL     1     -34.548  93.297   8.831  1.00  0.00     0.189 C 
ATOM     10  O   UNL     1     -34.397  92.871   9.968  1.00  0.00    -0.294 OA
BRANCH   9  11
ATOM     11  C   UNL     1     -33.971  94.640   8.460  1.00  0.00     0.234 C 
BRANCH  11  12
ATOM     12  O   UNL     1     -34.990  95.586   8.285  1.00  0.00    -0.388 OA
ATOM     13  H   UNL     1     -35.395  95.394   7.399  1.00  0.00     0.211 HD
ENDBRANCH  11  12
ENDBRANCH   9  11
ENDBRANCH   8   9
BRANCH   8  14
ATOM     14  O   UNL     1     -36.125  93.275   7.010  1.00  0.00    -0.382 OA
ATOM     15  H   UNL     1     -35.529  93.917   6.542  1.00  0.00     0.211 HD
ENDBRANCH   8  14
ENDBRANCH   1   8
BRANCH   1  16
ATOM     16  O   UNL     1     -35.084  90.533   6.346  1.00  0.00    -0.387 OA
ATOM     17  H   UNL     1     -35.567  90.013   7.039  1.00  0.00     0.211 HD
ENDBRANCH   1  16
TORSDOF 10
ENDMDL
MODEL 7
REMARK VINA RESULT:    -4.189      1.888      3.526
REMARK INTER + INTRA:          -7.273
REMARK INTER:                  -6.478
REMARK INTRA:                  -0.795
REMARK UNBOUND:                -1.247
REMARK SMILES O=C(CO)[C@@H](O)[C@@H](O)[C@H](O)CO
REMARK SMILES IDX 7 1 9 2 11 3 12 4 10 6 5 8 2 9 1 10 3 11 4 12 6 14 8 16
REMARK H PARENT 12 5 10 7 4 13 6 15 8 17
REMARK Flexibility Score: inf
ROOT
ATOM      1  C   UNL     1     -33.828  93.702   6.254  1.00  0.00     0.181 C 
ENDROOT
BRANCH   1   2
ATOM      2  C   UNL     1     -34.982  92.656   6.215  1.00  0.00     0.171 C 
BRANCH   2   3
ATOM      3  C   UNL     1     -34.553  91.218   6.588  1.00  0.00     0.190 C 
BRANCH   3   4
ATOM      4  O   UNL     1     -35.561  90.306   6.239  1.00  0.00    -0.394 OA
ATOM      5  H   UNL     1     -35.659  90.351   5.253  1.00  0.00     0.210 HD
ENDBRANCH   3   4
ENDBRANCH   2   3
BRANCH   2   6
ATOM      6  O   UNL     1     -36.074  93.088   6.990  1.00  0.00    -0.388 OA
ATOM      7  H   UNL     1     -36.214  94.056   6.824  1.00  0.00     0.211 HD
ENDBRANCH   2   6
ENDBRANCH   1   2
BRANCH   1   8
ATOM      8  C   UNL     1     -33.874  94.698   7.451  1.00  0.00     0.214 C 
BRANCH   8   9
ATOM      9  C   UNL     1     -33.152  94.134   8.661  1.00  0.00     0.189 C 
ATOM     10  O   UNL     1     -31.940  94.277   8.747  1.00  0.00    -0.294 OA
BRANCH   9  11
ATOM     11  C   UNL     1     -33.891  93.397   9.749  1.00  0.00     0.234 C 
BRANCH  11  12
ATOM     12  O   UNL     1     -35.274  93.593   9.628  1.00  0.00    -0.388 OA
ATOM     13  H   UNL     1     -35.467  93.590   8.654  1.00  0.00     0.211 HD
ENDBRANCH  11  12
ENDBRANCH   9  11
ENDBRANCH   8   9
BRANCH   8  14
ATOM     14  O   UNL     1     -33.357  95.959   7.100  1.00  0.00    -0.382 OA
ATOM     15  H   UNL     1     -34.121  96.544   6.857  1.00  0.00     0.211 HD
ENDBRANCH   8  14
ENDBRANCH   1   8
BRANCH   1  16
ATOM     16  O   UNL     1     -32.585  93.043   6.195  1.00  0.00    -0.387 OA
ATOM     17  H   UNL     1     -31.881  93.696   6.448  1.00  0.00     0.211 HD
ENDBRANCH   1  16
TORSDOF 10
ENDMDL
MODEL 8
REMARK VINA RESULT:    -4.187      1.732      4.200
REMARK INTER + INTRA:          -7.270
REMARK INTER:                  -6.530
REMARK INTRA:                  -0.740
REMARK UNBOUND:                -1.247
REMARK SMILES O=C(CO)[C@@H](O)[C@@H](O)[C@H](O)CO
REMARK SMILES IDX 7 1 9 2 11 3 12 4 10 6 5 8 2 9 1 10 3 11 4 12 6 14 8 16
REMARK H PARENT 12 5 10 7 4 13 6 15 8 17
REMARK Flexibility Score: inf
ROOT
ATOM      1  C   UNL     1     -32.330  91.607   5.581  1.00  0.00     0.181 C 
ENDROOT
BRANCH   1   2
ATOM      2  C   UNL     1     -31.248  91.867   6.671  1.00  0.00     0.171 C 
BRANCH   2   3
ATOM      3  C   UNL     1     -30.173  90.761   6.781  1.00  0.00     0.190 C 
BRANCH   3   4
ATOM      4  O   UNL     1     -29.295  90.828   5.689  1.00  0.00    -0.394 OA
ATOM      5  H   UNL     1     -28.442  91.204   6.029  1.00  0.00     0.210 HD
ENDBRANCH   3   4
ENDBRANCH   2   3
BRANCH   2   6
ATOM      6  O   UNL     1     -30.669  93.139   6.507  1.00  0.00    -0.388 OA
ATOM      7  H   UNL     1     -29.684  93.048   6.589  1.00  0.00     0.211 HD
ENDBRANCH   2   6
ENDBRANCH   1   2
BRANCH   1   8
ATOM      8  C   UNL     1     -33.619  92.474   5.703  1.00  0.00     0.214 C 
BRANCH   8   9
ATOM      9  C   UNL     1     -34.649  91.802   6.591  1.00  0.00     0.189 C 
ATOM     10  O   UNL     1     -34.923  90.626   6.395  1.00  0.00    -0.294 OA
BRANCH   9  11
ATOM     11  C   UNL     1     -35.345  92.551   7.700  1.00  0.00     0.234 C 
BRANCH  11  12
ATOM     12  O   UNL     1     -35.838  93.778   7.235  1.00  0.00    -0.388 OA
ATOM     13  H   UNL     1     -35.664  94.436   7.957  1.00  0.00     0.211 HD
ENDBRANCH  11  12
ENDBRANCH   9  11
ENDBRANCH   8   9
BRANCH   8  14
ATOM     14  O   UNL     1     -33.332  93.773   6.160  1.00  0.00    -0.382 OA
ATOM     15  H   UNL     1     -32.586  94.132   5.611  1.00  0.00     0.211 HD
ENDBRANCH   8  14
ENDBRANCH   1   8
BRANCH   1  16
ATOM     16  O   UNL     1     -31.758  91.733   4.301  1.00  0.00    -0.387 OA
ATOM     17  H   UNL     1     -32.443  92.122   3.697  1.00  0.00     0.211 HD
ENDBRANCH   1  16
TORSDOF 10
ENDMDL
MODEL 9
REMARK VINA RESULT:    -4.109     17.928     19.918
REMARK INTER + INTRA:          -7.157
REMARK INTER:                  -6.151
REMARK INTRA:                  -1.006
REMARK UNBOUND:                -1.247
REMARK SMILES O=C(CO)[C@@H](O)[C@@H](O)[C@H](O)CO
REMARK SMILES IDX 7 1 9 2 11 3 12 4 10 6 5 8 2 9 1 10 3 11 4 12 6 14 8 16
REMARK H PARENT 12 5 10 7 4 13 6 15 8 17
REMARK Flexibility Score: inf
ROOT
ATOM      1  C   UNL     1     -18.881  96.788  -4.578  1.00  0.00     0.181 C 
ENDROOT
BRANCH   1   2
ATOM      2  C   UNL     1     -17.974  96.253  -3.431  1.00  0.00     0.171 C 
BRANCH   2   3
ATOM      3  C   UNL     1     -18.157  94.749  -3.120  1.00  0.00     0.190 C 
BRANCH   3   4
ATOM      4  O   UNL     1     -19.132  94.575  -2.128  1.00  0.00    -0.394 OA
ATOM      5  H   UNL     1     -18.705  94.807  -1.262  1.00  0.00     0.210 HD
ENDBRANCH   3   4
ENDBRANCH   2   3
BRANCH   2   6
ATOM      6  O   UNL     1     -16.624  96.573  -3.670  1.00  0.00    -0.388 OA
ATOM      7  H   UNL     1     -16.586  97.452  -4.129  1.00  0.00     0.211 HD
ENDBRANCH   2   6
ENDBRANCH   1   2
BRANCH   1   8
ATOM      8  C   UNL     1     -18.139  97.150  -5.900  1.00  0.00     0.214 C 
BRANCH   8   9
ATOM      9  C   UNL     1     -18.140  95.980  -6.866  1.00  0.00     0.189 C 
ATOM     10  O   UNL     1     -19.116  95.804  -7.582  1.00  0.00    -0.294 OA
BRANCH   9  11
ATOM     11  C   UNL     1     -16.973  95.029  -6.957  1.00  0.00     0.234 C 
BRANCH  11  12
ATOM     12  O   UNL     1     -15.875  95.524  -6.239  1.00  0.00    -0.388 OA
ATOM     13  H   UNL     1     -15.381  96.115  -6.865  1.00  0.00     0.211 HD
ENDBRANCH  11  12
ENDBRANCH   9  11
ENDBRANCH   8   9
BRANCH   8  14
ATOM     14  O   UNL     1     -18.678  98.300  -6.503  1.00  0.00    -0.382 OA
ATOM     15  H   UNL     1     -18.160  99.084  -6.183  1.00  0.00     0.211 HD
ENDBRANCH   8  14
ENDBRANCH   1   8
BRANCH   1  16
ATOM     16  O   UNL     1     -19.928  95.879  -4.823  1.00  0.00    -0.387 OA
ATOM     17  H   UNL     1     -19.671  95.004  -4.430  1.00  0.00     0.211 HD
ENDBRANCH   1  16
TORSDOF 10
ENDMDL
