MODEL 1
REMARK VINA RESULT:    -3.463      0.000      0.000
REMARK INTER + INTRA:          -4.181
REMARK INTER:                  -4.071
REMARK INTRA:                  -0.110
REMARK UNBOUND:                -0.110
REMARK SMILES CCCCC(=O)[O-]
REMARK SMILES IDX 4 1 5 2 6 3 7 4 3 5 2 6 1 7
REMARK H PARENT
REMARK Flexibility Score: inf
ROOT
ATOM      1  C   UNL     1      27.075  38.055  -0.371  1.00  0.00     0.053 C 
ENDROOT
BRANCH   1   2
ATOM      2  C   UNL     1      27.421  38.022   1.083  1.00  0.00     0.041 C 
ATOM      3  O   UNL     1      28.125  38.937   1.588  1.00  0.00    -0.550 OA
ATOM      4  O   UNL     1      27.008  36.957   1.873  1.00  0.00    -0.550 OA
ENDBRANCH   1   2
BRANCH   1   5
ATOM      5  C   UNL     1      28.118  37.285  -1.188  1.00  0.00     0.006 C 
BRANCH   5   6
ATOM      6  C   UNL     1      27.533  35.975  -1.728  1.00  0.00    -0.003 C 
ATOM      7  C   UNL     1      27.915  34.794  -0.839  1.00  0.00     0.004 C 
ENDBRANCH   5   6
ENDBRANCH   1   5
TORSDOF 3
ENDMDL
MODEL 2
REMARK VINA RESULT:    -3.383      1.305      1.801
REMARK INTER + INTRA:          -4.087
REMARK INTER:                  -4.033
REMARK INTRA:                  -0.053
REMARK UNBOUND:                -0.110
REMARK SMILES CCCCC(=O)[O-]
REMARK SMILES IDX 4 1 5 2 6 3 7 4 3 5 2 6 1 7
REMARK H PARENT
REMARK Flexibility Score: inf
ROOT
ATOM      1  C   UNL     1      28.125  37.341  -0.247  1.00  0.00     0.053 C 
ENDROOT
BRANCH   1   2
ATOM      2  C   UNL     1      27.339  38.472   0.337  1.00  0.00     0.041 C 
ATOM      3  O   UNL     1      26.294  38.879  -0.236  1.00  0.00    -0.550 OA
ATOM      4  O   UNL     1      27.787  39.111   1.487  1.00  0.00    -0.550 OA
ENDBRANCH   1   2
BRANCH   1   5
ATOM      5  C   UNL     1      27.411  36.009   0.002  1.00  0.00     0.006 C 
BRANCH   5   6
ATOM      6  C   UNL     1      27.749  34.993  -1.095  1.00  0.00    -0.003 C 
ATOM      7  C   UNL     1      28.125  35.693  -2.398  1.00  0.00     0.004 C 
ENDBRANCH   5   6
ENDBRANCH   1   5
TORSDOF 3
ENDMDL
MODEL 3
REMARK VINA RESULT:    -3.274     18.625     19.133
REMARK INTER + INTRA:          -3.958
REMARK INTER:                  -3.861
REMARK INTRA:                  -0.097
REMARK UNBOUND:                -0.110
REMARK SMILES CCCCC(=O)[O-]
REMARK SMILES IDX 4 1 5 2 6 3 7 4 3 5 2 6 1 7
REMARK H PARENT
REMARK Flexibility Score: inf
ROOT
ATOM      1  C   UNL     1      10.808  32.412   3.267  1.00  0.00     0.053 C 
ENDROOT
BRANCH   1   2
ATOM      2  C   UNL     1      10.314  31.931   1.939  1.00  0.00     0.041 C 
ATOM      3  O   UNL     1       9.213  31.325   1.855  1.00  0.00    -0.550 OA
ATOM      4  O   UNL     1      11.091  32.109   0.802  1.00  0.00    -0.550 OA
ENDBRANCH   1   2
BRANCH   1   5
ATOM      5  C   UNL     1      10.247  31.541   4.395  1.00  0.00     0.006 C 
BRANCH   5   6
ATOM      6  C   UNL     1       9.240  32.326   5.244  1.00  0.00    -0.003 C 
ATOM      7  C   UNL     1       7.878  31.637   5.262  1.00  0.00     0.004 C 
ENDBRANCH   5   6
ENDBRANCH   1   5
TORSDOF 3
ENDMDL
MODEL 4
REMARK VINA RESULT:    -2.914     18.680     19.083
REMARK INTER + INTRA:          -3.535
REMARK INTER:                  -3.517
REMARK INTRA:                  -0.018
REMARK UNBOUND:                -0.110
REMARK SMILES CCCCC(=O)[O-]
REMARK SMILES IDX 4 1 5 2 6 3 7 4 3 5 2 6 1 7
REMARK H PARENT
REMARK Flexibility Score: inf
ROOT
ATOM      1  C   UNL     1      10.126  32.320   4.264  1.00  0.00     0.053 C 
ENDROOT
BRANCH   1   2
ATOM      2  C   UNL     1       9.183  31.805   5.304  1.00  0.00     0.041 C 
ATOM      3  O   UNL     1       7.972  32.152   5.290  1.00  0.00    -0.550 OA
ATOM      4  O   UNL     1       9.650  30.980   6.320  1.00  0.00    -0.550 OA
ENDBRANCH   1   2
BRANCH   1   5
ATOM      5  C   UNL     1       9.828  31.679   2.905  1.00  0.00     0.006 C 
BRANCH   5   6
ATOM      6  C   UNL     1      10.536  32.435   1.775  1.00  0.00    -0.003 C 
ATOM      7  C   UNL     1      11.002  31.478   0.681  1.00  0.00     0.004 C 
ENDBRANCH   5   6
ENDBRANCH   1   5
TORSDOF 3
ENDMDL
MODEL 5
REMARK VINA RESULT:    -2.893     11.543     12.295
REMARK INTER + INTRA:          -3.510
REMARK INTER:                  -3.457
REMARK INTRA:                  -0.052
REMARK UNBOUND:                -0.110
REMARK SMILES CCCCC(=O)[O-]
REMARK SMILES IDX 4 1 5 2 6 3 7 4 3 5 2 6 1 7
REMARK H PARENT
REMARK Flexibility Score: inf
ROOT
ATOM      1  C   UNL     1      24.276  33.177  10.500  1.00  0.00     0.053 C 
ENDROOT
BRANCH   1   2
ATOM      2  C   UNL     1      23.458  33.942  11.491  1.00  0.00     0.041 C 
ATOM      3  O   UNL     1      22.801  34.953  11.125  1.00  0.00    -0.550 OA
ATOM      4  O   UNL     1      23.457  33.569  12.829  1.00  0.00    -0.550 OA
ENDBRANCH   1   2
BRANCH   1   5
ATOM      5  C   UNL     1      25.345  32.345  11.216  1.00  0.00     0.006 C 
BRANCH   5   6
ATOM      6  C   UNL     1      25.490  30.964  10.567  1.00  0.00    -0.003 C 
ATOM      7  C   UNL     1      25.019  30.985   9.115  1.00  0.00     0.004 C 
ENDBRANCH   5   6
ENDBRANCH   1   5
TORSDOF 3
ENDMDL
MODEL 6
REMARK VINA RESULT:    -2.762     11.950     12.996
REMARK INTER + INTRA:          -3.357
REMARK INTER:                  -3.252
REMARK INTRA:                  -0.105
REMARK UNBOUND:                -0.110
REMARK SMILES CCCCC(=O)[O-]
REMARK SMILES IDX 4 1 5 2 6 3 7 4 3 5 2 6 1 7
REMARK H PARENT
REMARK Flexibility Score: inf
ROOT
ATOM      1  C   UNL     1      25.845  32.556  11.826  1.00  0.00     0.053 C 
ENDROOT
BRANCH   1   2
ATOM      2  C   UNL     1      24.831  32.728  10.740  1.00  0.00     0.041 C 
ATOM      3  O   UNL     1      24.798  31.925   9.771  1.00  0.00    -0.550 OA
ATOM      4  O   UNL     1      23.954  33.805  10.772  1.00  0.00    -0.550 OA
ENDBRANCH   1   2
BRANCH   1   5
ATOM      5  C   UNL     1      26.621  33.858  12.047  1.00  0.00     0.006 C 
BRANCH   5   6
ATOM      6  C   UNL     1      26.586  34.274  13.522  1.00  0.00    -0.003 C 
ATOM      7  C   UNL     1      25.307  35.040  13.849  1.00  0.00     0.004 C 
ENDBRANCH   5   6
ENDBRANCH   1   5
TORSDOF 3
ENDMDL
MODEL 7
REMARK VINA RESULT:    -2.739     11.738     12.858
REMARK INTER + INTRA:          -3.330
REMARK INTER:                  -3.312
REMARK INTRA:                  -0.017
REMARK UNBOUND:                -0.110
REMARK SMILES CCCCC(=O)[O-]
REMARK SMILES IDX 4 1 5 2 6 3 7 4 3 5 2 6 1 7
REMARK H PARENT
REMARK Flexibility Score: inf
ROOT
ATOM      1  C   UNL     1      24.676  33.109  10.548  1.00  0.00     0.053 C 
ENDROOT
BRANCH   1   2
ATOM      2  C   UNL     1      24.956  31.665  10.278  1.00  0.00     0.041 C 
ATOM      3  O   UNL     1      25.439  30.934  11.183  1.00  0.00    -0.550 OA
ATOM      4  O   UNL     1      24.728  31.136   9.014  1.00  0.00    -0.550 OA
ENDBRANCH   1   2
BRANCH   1   5
ATOM      5  C   UNL     1      23.821  33.264  11.809  1.00  0.00     0.006 C 
BRANCH   5   6
ATOM      6  C   UNL     1      22.884  34.472  11.692  1.00  0.00    -0.003 C 
ATOM      7  C   UNL     1      22.907  35.312  12.966  1.00  0.00     0.004 C 
ENDBRANCH   5   6
ENDBRANCH   1   5
TORSDOF 3
ENDMDL
MODEL 8
REMARK VINA RESULT:    -2.695     11.560     12.407
REMARK INTER + INTRA:          -3.278
REMARK INTER:                  -3.206
REMARK INTRA:                  -0.073
REMARK UNBOUND:                -0.110
REMARK SMILES CCCCC(=O)[O-]
REMARK SMILES IDX 4 1 5 2 6 3 7 4 3 5 2 6 1 7
REMARK H PARENT
REMARK Flexibility Score: inf
ROOT
ATOM      1  C   UNL     1      24.838  33.602  12.013  1.00  0.00     0.053 C 
ENDROOT
BRANCH   1   2
ATOM      2  C   UNL     1      26.265  33.490  12.444  1.00  0.00     0.041 C 
ATOM      3  O   UNL     1      27.157  34.164  11.863  1.00  0.00    -0.550 OA
ATOM      4  O   UNL     1      26.620  32.605  13.455  1.00  0.00    -0.550 OA
ENDBRANCH   1   2
BRANCH   1   5
ATOM      5  C   UNL     1      24.666  33.074  10.585  1.00  0.00     0.006 C 
BRANCH   5   6
ATOM      6  C   UNL     1      25.088  31.603  10.489  1.00  0.00    -0.003 C 
ATOM      7  C   UNL     1      24.762  31.025   9.114  1.00  0.00     0.004 C 
ENDBRANCH   5   6
ENDBRANCH   1   5
TORSDOF 3
ENDMDL
