MODEL 1
REMARK VINA RESULT:    -6.218      0.000      0.000
REMARK INTER + INTRA:         -10.735
REMARK INTER:                  -9.126
REMARK INTRA:                  -1.608
REMARK UNBOUND:                -1.608
REMARK SMILES O=c1c(O[C@H]2O[C@H](CO)[C@@H](O)[C@@H](O)[C@@H]2O)c(-c2ccc(O)c(O)c2)oc2cc(O)cc(O)c12
REMARK SMILES IDX 4 1 3 2 16 3 25 4 2 5 26 6 1 7 33 8 27 9 31 10 28 11 30 12
REMARK SMILES IDX 17 13 20 14 19 15 22 16 18 17 24 18 21 19 23 21 32 23 29 25
REMARK SMILES IDX 5 27 14 28 6 29 12 30 7 31 10 32 15 33 13 35 8 37 9 38 11 40
REMARK H PARENT 21 20 23 22 32 24 29 26 15 34 13 36 9 39 11 41
REMARK Flexibility Score: inf
ROOT
ATOM      1  O   UNL     1      -9.786  32.555   6.929  1.00  0.00    -0.454 OA
ENDROOT
BRANCH   1   2
ATOM      2  C   UNL     1     -10.024  33.909   7.257  1.00  0.00     0.214 A 
ATOM      3  C   UNL     1     -10.855  34.186   8.358  1.00  0.00     0.180 A 
ATOM      4  O   UNL     1     -11.206  35.433   8.641  1.00  0.00    -0.452 OA
ATOM      5  C   UNL     1      -9.509  35.006   6.522  1.00  0.00     0.239 A 
ATOM      6  C   UNL     1     -10.760  36.486   7.970  1.00  0.00     0.146 A 
ATOM      7  O   UNL     1      -8.790  34.799   5.512  1.00  0.00    -0.285 OA
ATOM      8  C   UNL     1      -9.839  36.330   6.904  1.00  0.00     0.111 A 
ATOM      9  C   UNL     1     -11.218  37.753   8.337  1.00  0.00     0.094 A 
ATOM     10  C   UNL     1      -9.341  37.504   6.262  1.00  0.00     0.134 A 
ATOM     11  C   UNL     1     -10.778  38.888   7.654  1.00  0.00     0.123 A 
ATOM     12  C   UNL     1      -9.848  38.758   6.624  1.00  0.00     0.093 A 
BRANCH   3  13
ATOM     13  C   UNL     1     -11.380  33.110   9.217  1.00  0.00     0.025 A 
ATOM     14  C   UNL     1     -12.430  31.113  10.891  1.00  0.00     0.157 A 
ATOM     15  C   UNL     1     -13.125  31.506   9.739  1.00  0.00     0.051 A 
ATOM     16  C   UNL     1     -11.212  31.734  11.217  1.00  0.00     0.158 A 
ATOM     17  C   UNL     1     -12.606  32.505   8.910  1.00  0.00     0.016 A 
ATOM     18  C   UNL     1     -10.698  32.734  10.384  1.00  0.00     0.062 A 
BRANCH  14  19
ATOM     19  O   UNL     1     -12.948  30.115  11.715  1.00  0.00    -0.504 OA
ATOM     20  H   UNL     1     -13.928  29.859  11.688  1.00  0.00     0.293 HD
ENDBRANCH  14  19
BRANCH  16  21
ATOM     21  O   UNL     1     -10.502  31.375  12.362  1.00  0.00    -0.504 OA
ATOM     22  H   UNL     1     -10.685  30.513  12.860  1.00  0.00     0.293 HD
ENDBRANCH  16  21
ENDBRANCH   3  13
BRANCH  10  23
ATOM     23  O   UNL     1      -8.333  37.495   5.293  1.00  0.00    -0.507 OA
ATOM     24  H   UNL     1      -7.862  38.318   4.949  1.00  0.00     0.293 HD
ENDBRANCH  10  23
BRANCH  11  25
ATOM     25  O   UNL     1     -11.250  40.153   8.000  1.00  0.00    -0.508 OA
ATOM     26  H   UNL     1     -10.767  40.732   8.677  1.00  0.00     0.293 HD
ENDBRANCH  11  25
ENDBRANCH   1   2
BRANCH   1  27
ATOM     27  C   UNL     1      -8.678  31.751   7.353  1.00  0.00     0.339 C 
ATOM     28  C   UNL     1      -7.428  32.008   6.487  1.00  0.00     0.214 C 
ATOM     29  O   UNL     1      -9.014  30.372   7.384  1.00  0.00    -0.332 OA
ATOM     30  C   UNL     1      -7.536  31.359   5.089  1.00  0.00     0.180 C 
ATOM     31  C   UNL     1      -9.360  29.889   6.097  1.00  0.00     0.179 C 
ATOM     32  C   UNL     1      -8.126  29.931   5.163  1.00  0.00     0.177 C 
BRANCH  28  33
ATOM     33  O   UNL     1      -6.307  31.487   7.159  1.00  0.00    -0.384 OA
ATOM     34  H   UNL     1      -6.646  30.834   7.824  1.00  0.00     0.211 HD
ENDBRANCH  28  33
BRANCH  30  35
ATOM     35  O   UNL     1      -8.250  32.183   4.201  1.00  0.00    -0.387 OA
ATOM     36  H   UNL     1      -7.781  32.174   3.332  1.00  0.00     0.211 HD
ENDBRANCH  30  35
BRANCH  31  37
ATOM     37  C   UNL     1      -9.885  28.452   6.264  1.00  0.00     0.191 C 
BRANCH  37  38
ATOM     38  O   UNL     1      -8.877  27.510   6.016  1.00  0.00    -0.394 OA
ATOM     39  H   UNL     1      -8.856  27.366   5.034  1.00  0.00     0.210 HD
ENDBRANCH  37  38
ENDBRANCH  31  37
BRANCH  32  40
ATOM     40  O   UNL     1      -8.476  29.491   3.875  1.00  0.00    -0.387 OA
ATOM     41  H   UNL     1      -8.936  30.249   3.430  1.00  0.00     0.211 HD
ENDBRANCH  32  40
ENDBRANCH   1  27
TORSDOF 12
ENDMDL
MODEL 2
REMARK VINA RESULT:    -6.083      1.227      2.325
REMARK INTER + INTRA:         -10.536
REMARK INTER:                  -9.352
REMARK INTRA:                  -1.183
REMARK UNBOUND:                -1.608
REMARK SMILES O=c1c(O[C@H]2O[C@H](CO)[C@@H](O)[C@@H](O)[C@@H]2O)c(-c2ccc(O)c(O)c2)oc2cc(O)cc(O)c12
REMARK SMILES IDX 4 1 3 2 16 3 25 4 2 5 26 6 1 7 33 8 27 9 31 10 28 11 30 12
REMARK SMILES IDX 17 13 20 14 19 15 22 16 18 17 24 18 21 19 23 21 32 23 29 25
REMARK SMILES IDX 5 27 14 28 6 29 12 30 7 31 10 32 15 33 13 35 8 37 9 38 11 40
REMARK H PARENT 21 20 23 22 32 24 29 26 15 34 13 36 9 39 11 41
REMARK Flexibility Score: inf
ROOT
ATOM      1  O   UNL     1      -9.044  31.936   6.745  1.00  0.00    -0.454 OA
ENDROOT
BRANCH   1   2
ATOM      2  C   UNL     1      -9.464  33.274   6.921  1.00  0.00     0.214 A 
ATOM      3  C   UNL     1     -10.511  33.525   7.827  1.00  0.00     0.180 A 
ATOM      4  O   UNL     1     -11.022  34.743   7.946  1.00  0.00    -0.452 OA
ATOM      5  C   UNL     1      -8.922  34.375   6.213  1.00  0.00     0.239 A 
ATOM      6  C   UNL     1     -10.556  35.796   7.291  1.00  0.00     0.146 A 
ATOM      7  O   UNL     1      -8.008  34.188   5.370  1.00  0.00    -0.285 OA
ATOM      8  C   UNL     1      -9.438  35.677   6.427  1.00  0.00     0.111 A 
ATOM      9  C   UNL     1     -11.189  37.028   7.471  1.00  0.00     0.094 A 
ATOM     10  C   UNL     1      -8.937  36.859   5.802  1.00  0.00     0.134 A 
ATOM     11  C   UNL     1     -10.734  38.162   6.798  1.00  0.00     0.123 A 
ATOM     12  C   UNL     1      -9.617  38.072   5.969  1.00  0.00     0.093 A 
BRANCH   3  13
ATOM     13  C   UNL     1     -11.089  32.450   8.653  1.00  0.00     0.025 A 
ATOM     14  C   UNL     1     -12.256  30.448  10.242  1.00  0.00     0.157 A 
ATOM     15  C   UNL     1     -12.636  30.597   8.901  1.00  0.00     0.051 A 
ATOM     16  C   UNL     1     -11.299  31.316  10.796  1.00  0.00     0.158 A 
ATOM     17  C   UNL     1     -12.062  31.598   8.113  1.00  0.00     0.016 A 
ATOM     18  C   UNL     1     -10.727  32.316  10.002  1.00  0.00     0.062 A 
BRANCH  14  19
ATOM     19  O   UNL     1     -12.829  29.448  11.026  1.00  0.00    -0.504 OA
ATOM     20  H   UNL     1     -12.380  29.112  11.869  1.00  0.00     0.293 HD
ENDBRANCH  14  19
BRANCH  16  21
ATOM     21  O   UNL     1     -10.907  31.203  12.129  1.00  0.00    -0.504 OA
ATOM     22  H   UNL     1     -11.514  30.806  12.836  1.00  0.00     0.293 HD
ENDBRANCH  16  21
ENDBRANCH   3  13
BRANCH  10  23
ATOM     23  O   UNL     1      -7.766  36.899   5.038  1.00  0.00    -0.507 OA
ATOM     24  H   UNL     1      -7.646  36.434   4.150  1.00  0.00     0.293 HD
ENDBRANCH  10  23
BRANCH  11  25
ATOM     25  O   UNL     1     -11.377  39.388   6.955  1.00  0.00    -0.508 OA
ATOM     26  H   UNL     1     -10.868  40.263   6.910  1.00  0.00     0.293 HD
ENDBRANCH  11  25
ENDBRANCH   1   2
BRANCH   1  27
ATOM     27  C   UNL     1      -9.006  31.202   5.514  1.00  0.00     0.339 C 
ATOM     28  C   UNL     1      -9.907  29.952   5.573  1.00  0.00     0.214 C 
ATOM     29  O   UNL     1      -7.677  30.868   5.145  1.00  0.00    -0.332 OA
ATOM     30  C   UNL     1      -9.288  28.819   6.422  1.00  0.00     0.180 C 
ATOM     31  C   UNL     1      -7.063  30.025   6.106  1.00  0.00     0.179 C 
ATOM     32  C   UNL     1      -7.776  28.652   6.141  1.00  0.00     0.177 C 
BRANCH  28  33
ATOM     33  O   UNL     1     -10.114  29.491   4.260  1.00  0.00    -0.384 OA
ATOM     34  H   UNL     1      -9.928  28.516   4.263  1.00  0.00     0.211 HD
ENDBRANCH  28  33
BRANCH  30  35
ATOM     35  O   UNL     1      -9.557  29.006   7.790  1.00  0.00    -0.387 OA
ATOM     36  H   UNL     1      -9.401  28.147   8.252  1.00  0.00     0.211 HD
ENDBRANCH  30  35
BRANCH  31  37
ATOM     37  C   UNL     1      -5.582  29.877   5.717  1.00  0.00     0.191 C 
BRANCH  37  38
ATOM     38  O   UNL     1      -4.843  31.011   6.086  1.00  0.00    -0.394 OA
ATOM     39  H   UNL     1      -4.049  31.039   5.491  1.00  0.00     0.210 HD
ENDBRANCH  37  38
ENDBRANCH  31  37
BRANCH  32  40
ATOM     40  O   UNL     1      -7.196  27.828   7.121  1.00  0.00    -0.387 OA
ATOM     41  H   UNL     1      -7.540  26.912   6.963  1.00  0.00     0.211 HD
ENDBRANCH  32  40
ENDBRANCH   1  27
TORSDOF 12
ENDMDL
MODEL 3
REMARK VINA RESULT:    -5.974      2.011      5.059
REMARK INTER + INTRA:         -10.376
REMARK INTER:                  -9.395
REMARK INTRA:                  -0.981
REMARK UNBOUND:                -1.608
REMARK SMILES O=c1c(O[C@H]2O[C@H](CO)[C@@H](O)[C@@H](O)[C@@H]2O)c(-c2ccc(O)c(O)c2)oc2cc(O)cc(O)c12
REMARK SMILES IDX 4 1 3 2 16 3 25 4 2 5 26 6 1 7 33 8 27 9 31 10 28 11 30 12
REMARK SMILES IDX 17 13 20 14 19 15 22 16 18 17 24 18 21 19 23 21 32 23 29 25
REMARK SMILES IDX 5 27 14 28 6 29 12 30 7 31 10 32 15 33 13 35 8 37 9 38 11 40
REMARK H PARENT 21 20 23 22 32 24 29 26 15 34 13 36 9 39 11 41
REMARK Flexibility Score: inf
ROOT
ATOM      1  O   UNL     1      -9.809  31.483   7.531  1.00  0.00    -0.454 OA
ENDROOT
BRANCH   1   2
ATOM      2  C   UNL     1      -9.556  32.807   7.104  1.00  0.00     0.214 A 
ATOM      3  C   UNL     1      -8.315  33.080   6.500  1.00  0.00     0.180 A 
ATOM      4  O   UNL     1      -7.978  34.323   6.186  1.00  0.00    -0.452 OA
ATOM      5  C   UNL     1     -10.460  33.884   7.281  1.00  0.00     0.239 A 
ATOM      6  C   UNL     1      -8.786  35.361   6.349  1.00  0.00     0.146 A 
ATOM      7  O   UNL     1     -11.565  33.687   7.846  1.00  0.00    -0.285 OA
ATOM      8  C   UNL     1     -10.098  35.186   6.857  1.00  0.00     0.111 A 
ATOM      9  C   UNL     1      -8.316  36.632   6.010  1.00  0.00     0.094 A 
ATOM     10  C   UNL     1     -10.947  36.331   6.947  1.00  0.00     0.134 A 
ATOM     11  C   UNL     1      -9.132  37.753   6.170  1.00  0.00     0.123 A 
ATOM     12  C   UNL     1     -10.436  37.598   6.638  1.00  0.00     0.093 A 
BRANCH   3  13
ATOM     13  C   UNL     1      -7.343  32.010   6.217  1.00  0.00     0.025 A 
ATOM     14  C   UNL     1      -5.526  29.921   5.734  1.00  0.00     0.157 A 
ATOM     15  C   UNL     1      -6.800  29.899   5.149  1.00  0.00     0.051 A 
ATOM     16  C   UNL     1      -5.165  30.986   6.578  1.00  0.00     0.158 A 
ATOM     17  C   UNL     1      -7.706  30.934   5.396  1.00  0.00     0.016 A 
ATOM     18  C   UNL     1      -6.077  32.019   6.822  1.00  0.00     0.062 A 
BRANCH  14  19
ATOM     19  O   UNL     1      -4.622  28.889   5.486  1.00  0.00    -0.504 OA
ATOM     20  H   UNL     1      -3.693  28.889   5.889  1.00  0.00     0.293 HD
ENDBRANCH  14  19
BRANCH  16  21
ATOM     21  O   UNL     1      -3.910  31.033   7.186  1.00  0.00    -0.504 OA
ATOM     22  H   UNL     1      -3.600  31.838   7.716  1.00  0.00     0.293 HD
ENDBRANCH  16  21
ENDBRANCH   3  13
BRANCH  10  23
ATOM     23  O   UNL     1     -12.299  36.272   7.302  1.00  0.00    -0.507 OA
ATOM     24  H   UNL     1     -12.640  35.987   8.208  1.00  0.00     0.293 HD
ENDBRANCH  10  23
BRANCH  11  25
ATOM     25  O   UNL     1      -8.661  39.026   5.857  1.00  0.00    -0.508 OA
ATOM     26  H   UNL     1      -9.226  39.687   5.337  1.00  0.00     0.293 HD
ENDBRANCH  11  25
ENDBRANCH   1   2
BRANCH   1  27
ATOM     27  C   UNL     1     -10.746  30.561   6.960  1.00  0.00     0.339 C 
ATOM     28  C   UNL     1     -11.992  30.394   7.854  1.00  0.00     0.214 C 
ATOM     29  O   UNL     1     -10.140  29.309   6.674  1.00  0.00    -0.332 OA
ATOM     30  C   UNL     1     -11.707  29.536   9.107  1.00  0.00     0.180 C 
ATOM     31  C   UNL     1      -9.660  28.680   7.850  1.00  0.00     0.179 C 
ATOM     32  C   UNL     1     -10.844  28.297   8.770  1.00  0.00     0.177 C 
BRANCH  28  33
ATOM     33  O   UNL     1     -13.007  29.787   7.092  1.00  0.00    -0.384 OA
ATOM     34  H   UNL     1     -12.657  29.689   6.169  1.00  0.00     0.211 HD
ENDBRANCH  28  33
BRANCH  30  35
ATOM     35  O   UNL     1     -11.144  30.312  10.136  1.00  0.00    -0.387 OA
ATOM     36  H   UNL     1     -10.328  29.855  10.451  1.00  0.00     0.211 HD
ENDBRANCH  30  35
BRANCH  31  37
ATOM     37  C   UNL     1      -8.862  27.437   7.420  1.00  0.00     0.191 C 
BRANCH  37  38
ATOM     38  O   UNL     1      -8.013  26.997   8.446  1.00  0.00    -0.394 OA
ATOM     39  H   UNL     1      -7.402  26.327   8.043  1.00  0.00     0.210 HD
ENDBRANCH  37  38
ENDBRANCH  31  37
BRANCH  32  40
ATOM     40  O   UNL     1     -10.369  27.710   9.955  1.00  0.00    -0.387 OA
ATOM     41  H   UNL     1     -10.907  26.889  10.102  1.00  0.00     0.211 HD
ENDBRANCH  32  40
ENDBRANCH   1  27
TORSDOF 12
ENDMDL
MODEL 4
REMARK VINA RESULT:    -5.559     15.192     18.225
REMARK INTER + INTRA:          -9.767
REMARK INTER:                  -8.660
REMARK INTRA:                  -1.107
REMARK UNBOUND:                -1.608
REMARK SMILES O=c1c(O[C@H]2O[C@H](CO)[C@@H](O)[C@@H](O)[C@@H]2O)c(-c2ccc(O)c(O)c2)oc2cc(O)cc(O)c12
REMARK SMILES IDX 4 1 3 2 16 3 25 4 2 5 26 6 1 7 33 8 27 9 31 10 28 11 30 12
REMARK SMILES IDX 17 13 20 14 19 15 22 16 18 17 24 18 21 19 23 21 32 23 29 25
REMARK SMILES IDX 5 27 14 28 6 29 12 30 7 31 10 32 15 33 13 35 8 37 9 38 11 40
REMARK H PARENT 21 20 23 22 32 24 29 26 15 34 13 36 9 39 11 41
REMARK Flexibility Score: inf
ROOT
ATOM      1  O   UNL     1       3.833  45.033   1.605  1.00  0.00    -0.454 OA
ENDROOT
BRANCH   1   2
ATOM      2  C   UNL     1       3.364  45.228   2.925  1.00  0.00     0.214 A 
ATOM      3  C   UNL     1       2.087  44.737   3.252  1.00  0.00     0.180 A 
ATOM      4  O   UNL     1       1.550  44.992   4.437  1.00  0.00    -0.452 OA
ATOM      5  C   UNL     1       4.085  45.923   3.928  1.00  0.00     0.239 A 
ATOM      6  C   UNL     1       2.182  45.651   5.397  1.00  0.00     0.146 A 
ATOM      7  O   UNL     1       5.215  46.407   3.665  1.00  0.00    -0.285 OA
ATOM      8  C   UNL     1       3.512  46.106   5.211  1.00  0.00     0.111 A 
ATOM      9  C   UNL     1       1.510  45.888   6.598  1.00  0.00     0.094 A 
ATOM     10  C   UNL     1       4.167  46.749   6.304  1.00  0.00     0.134 A 
ATOM     11  C   UNL     1       2.137  46.582   7.634  1.00  0.00     0.123 A 
ATOM     12  C   UNL     1       3.455  47.009   7.482  1.00  0.00     0.093 A 
BRANCH   3  13
ATOM     13  C   UNL     1       1.296  43.946   2.292  1.00  0.00     0.025 A 
ATOM     14  C   UNL     1      -0.275  42.444   0.512  1.00  0.00     0.157 A 
ATOM     15  C   UNL     1      -0.372  43.842   0.532  1.00  0.00     0.051 A 
ATOM     16  C   UNL     1       0.599  41.793   1.399  1.00  0.00     0.158 A 
ATOM     17  C   UNL     1       0.404  44.589   1.423  1.00  0.00     0.016 A 
ATOM     18  C   UNL     1       1.374  42.545   2.289  1.00  0.00     0.062 A 
BRANCH  14  19
ATOM     19  O   UNL     1      -1.049  41.701  -0.378  1.00  0.00    -0.504 OA
ATOM     20  H   UNL     1      -1.349  42.083  -1.267  1.00  0.00     0.293 HD
ENDBRANCH  14  19
BRANCH  16  21
ATOM     21  O   UNL     1       0.711  40.403   1.413  1.00  0.00    -0.504 OA
ATOM     22  H   UNL     1       1.257  39.900   0.724  1.00  0.00     0.293 HD
ENDBRANCH  16  21
ENDBRANCH   3  13
BRANCH  10  23
ATOM     23  O   UNL     1       5.515  47.122   6.295  1.00  0.00    -0.507 OA
ATOM     24  H   UNL     1       6.283  46.488   6.129  1.00  0.00     0.293 HD
ENDBRANCH  10  23
BRANCH  11  25
ATOM     25  O   UNL     1       1.462  46.843   8.825  1.00  0.00    -0.508 OA
ATOM     26  H   UNL     1       1.101  47.766   9.038  1.00  0.00     0.293 HD
ENDBRANCH  11  25
ENDBRANCH   1   2
BRANCH   1  27
ATOM     27  C   UNL     1       5.196  44.868   1.194  1.00  0.00     0.339 C 
ATOM     28  C   UNL     1       5.361  45.100  -0.322  1.00  0.00     0.214 C 
ATOM     29  O   UNL     1       5.711  43.604   1.585  1.00  0.00    -0.332 OA
ATOM     30  C   UNL     1       4.825  43.919  -1.161  1.00  0.00     0.180 C 
ATOM     31  C   UNL     1       5.002  42.539   0.976  1.00  0.00     0.179 C 
ATOM     32  C   UNL     1       5.228  42.555  -0.555  1.00  0.00     0.177 C 
BRANCH  28  33
ATOM     33  O   UNL     1       6.728  45.286  -0.597  1.00  0.00    -0.384 OA
ATOM     34  H   UNL     1       6.878  44.988  -1.532  1.00  0.00     0.211 HD
ENDBRANCH  28  33
BRANCH  30  35
ATOM     35  O   UNL     1       3.435  44.024  -1.355  1.00  0.00    -0.387 OA
ATOM     36  H   UNL     1       3.140  43.241  -1.880  1.00  0.00     0.211 HD
ENDBRANCH  30  35
BRANCH  31  37
ATOM     37  C   UNL     1       5.505  41.226   1.602  1.00  0.00     0.191 C 
BRANCH  37  38
ATOM     38  O   UNL     1       4.490  40.259   1.641  1.00  0.00    -0.394 OA
ATOM     39  H   UNL     1       4.181  40.132   0.706  1.00  0.00     0.210 HD
ENDBRANCH  37  38
ENDBRANCH  31  37
BRANCH  32  40
ATOM     40  O   UNL     1       4.494  41.524  -1.166  1.00  0.00    -0.387 OA
ATOM     41  H   UNL     1       5.152  40.925  -1.604  1.00  0.00     0.211 HD
ENDBRANCH  32  40
ENDBRANCH   1  27
TORSDOF 12
ENDMDL
MODEL 5
REMARK VINA RESULT:    -5.336      2.304      5.221
REMARK INTER + INTRA:          -9.439
REMARK INTER:                  -8.089
REMARK INTRA:                  -1.350
REMARK UNBOUND:                -1.608
REMARK SMILES O=c1c(O[C@H]2O[C@H](CO)[C@@H](O)[C@@H](O)[C@@H]2O)c(-c2ccc(O)c(O)c2)oc2cc(O)cc(O)c12
REMARK SMILES IDX 4 1 3 2 16 3 25 4 2 5 26 6 1 7 33 8 27 9 31 10 28 11 30 12
REMARK SMILES IDX 17 13 20 14 19 15 22 16 18 17 24 18 21 19 23 21 32 23 29 25
REMARK SMILES IDX 5 27 14 28 6 29 12 30 7 31 10 32 15 33 13 35 8 37 9 38 11 40
REMARK H PARENT 21 20 23 22 32 24 29 26 15 34 13 36 9 39 11 41
REMARK Flexibility Score: inf
ROOT
ATOM      1  O   UNL     1      -9.469  30.749   7.650  1.00  0.00    -0.454 OA
ENDROOT
BRANCH   1   2
ATOM      2  C   UNL     1      -9.324  32.060   7.143  1.00  0.00     0.214 A 
ATOM      3  C   UNL     1      -8.143  32.372   6.443  1.00  0.00     0.180 A 
ATOM      4  O   UNL     1      -7.903  33.614   6.047  1.00  0.00    -0.452 OA
ATOM      5  C   UNL     1     -10.277  33.092   7.328  1.00  0.00     0.239 A 
ATOM      6  C   UNL     1      -8.759  34.611   6.214  1.00  0.00     0.146 A 
ATOM      7  O   UNL     1     -11.330  32.863   7.975  1.00  0.00    -0.285 OA
ATOM      8  C   UNL     1     -10.023  34.389   6.817  1.00  0.00     0.111 A 
ATOM      9  C   UNL     1      -8.390  35.887   5.782  1.00  0.00     0.094 A 
ATOM     10  C   UNL     1     -10.932  35.487   6.908  1.00  0.00     0.134 A 
ATOM     11  C   UNL     1      -9.259  36.966   5.942  1.00  0.00     0.123 A 
ATOM     12  C   UNL     1     -10.519  36.762   6.504  1.00  0.00     0.093 A 
BRANCH   3  13
ATOM     13  C   UNL     1      -7.129  31.345   6.148  1.00  0.00     0.025 A 
ATOM     14  C   UNL     1      -5.164  29.435   5.528  1.00  0.00     0.157 A 
ATOM     15  C   UNL     1      -4.858  30.517   6.364  1.00  0.00     0.051 A 
ATOM     16  C   UNL     1      -6.455  29.316   4.985  1.00  0.00     0.158 A 
ATOM     17  C   UNL     1      -5.833  31.471   6.666  1.00  0.00     0.016 A 
ATOM     18  C   UNL     1      -7.427  30.275   5.291  1.00  0.00     0.062 A 
BRANCH  14  19
ATOM     19  O   UNL     1      -4.190  28.483   5.228  1.00  0.00    -0.504 OA
ATOM     20  H   UNL     1      -3.500  28.197   5.912  1.00  0.00     0.293 HD
ENDBRANCH  14  19
BRANCH  16  21
ATOM     21  O   UNL     1      -6.790  28.258   4.140  1.00  0.00    -0.504 OA
ATOM     22  H   UNL     1      -7.359  28.390   3.313  1.00  0.00     0.293 HD
ENDBRANCH  16  21
ENDBRANCH   3  13
BRANCH  10  23
ATOM     23  O   UNL     1     -12.251  35.370   7.356  1.00  0.00    -0.507 OA
ATOM     24  H   UNL     1     -13.000  34.948   6.827  1.00  0.00     0.293 HD
ENDBRANCH  10  23
BRANCH  11  25
ATOM     25  O   UNL     1      -8.887  38.246   5.536  1.00  0.00    -0.508 OA
ATOM     26  H   UNL     1      -8.290  38.832   6.109  1.00  0.00     0.293 HD
ENDBRANCH  11  25
ENDBRANCH   1   2
BRANCH   1  27
ATOM     27  C   UNL     1     -10.659  29.950   7.638  1.00  0.00     0.339 C 
ATOM     28  C   UNL     1     -10.457  28.622   8.395  1.00  0.00     0.214 C 
ATOM     29  O   UNL     1     -11.128  29.728   6.317  1.00  0.00    -0.332 OA
ATOM     30  C   UNL     1      -9.609  27.610   7.593  1.00  0.00     0.180 C 
ATOM     31  C   UNL     1     -10.184  29.010   5.540  1.00  0.00     0.179 C 
ATOM     32  C   UNL     1     -10.015  27.577   6.101  1.00  0.00     0.177 C 
BRANCH  28  33
ATOM     33  O   UNL     1     -11.720  28.065   8.663  1.00  0.00    -0.384 OA
ATOM     34  H   UNL     1     -12.360  28.482   8.029  1.00  0.00     0.211 HD
ENDBRANCH  28  33
BRANCH  30  35
ATOM     35  O   UNL     1      -8.234  27.851   7.764  1.00  0.00    -0.387 OA
ATOM     36  H   UNL     1      -8.112  28.816   7.933  1.00  0.00     0.211 HD
ENDBRANCH  30  35
BRANCH  31  37
ATOM     37  C   UNL     1     -10.695  28.986   4.090  1.00  0.00     0.191 C 
BRANCH  37  38
ATOM     38  O   UNL     1      -9.761  28.388   3.231  1.00  0.00    -0.394 OA
ATOM     39  H   UNL     1      -8.862  28.597   3.597  1.00  0.00     0.210 HD
ENDBRANCH  37  38
ENDBRANCH  31  37
BRANCH  32  40
ATOM     40  O   UNL     1      -9.049  26.876   5.358  1.00  0.00    -0.387 OA
ATOM     41  H   UNL     1      -9.337  25.926   5.342  1.00  0.00     0.211 HD
ENDBRANCH  32  40
ENDBRANCH   1  27
TORSDOF 12
ENDMDL
MODEL 6
REMARK VINA RESULT:    -5.264     16.138     19.065
REMARK INTER + INTRA:          -9.334
REMARK INTER:                  -7.845
REMARK INTRA:                  -1.489
REMARK UNBOUND:                -1.608
REMARK SMILES O=c1c(O[C@H]2O[C@H](CO)[C@@H](O)[C@@H](O)[C@@H]2O)c(-c2ccc(O)c(O)c2)oc2cc(O)cc(O)c12
REMARK SMILES IDX 4 1 3 2 16 3 25 4 2 5 26 6 1 7 33 8 27 9 31 10 28 11 30 12
REMARK SMILES IDX 17 13 20 14 19 15 22 16 18 17 24 18 21 19 23 21 32 23 29 25
REMARK SMILES IDX 5 27 14 28 6 29 12 30 7 31 10 32 15 33 13 35 8 37 9 38 11 40
REMARK H PARENT 21 20 23 22 32 24 29 26 15 34 13 36 9 39 11 41
REMARK Flexibility Score: inf
ROOT
ATOM      1  O   UNL     1       2.049  44.448   1.229  1.00  0.00    -0.454 OA
ENDROOT
BRANCH   1   2
ATOM      2  C   UNL     1       2.334  45.041   2.479  1.00  0.00     0.214 A 
ATOM      3  C   UNL     1       3.578  45.679   2.641  1.00  0.00     0.180 A 
ATOM      4  O   UNL     1       3.945  46.151   3.824  1.00  0.00    -0.452 OA
ATOM      5  C   UNL     1       1.459  45.001   3.594  1.00  0.00     0.239 A 
ATOM      6  C   UNL     1       3.165  46.120   4.895  1.00  0.00     0.146 A 
ATOM      7  O   UNL     1       0.353  44.412   3.500  1.00  0.00    -0.285 OA
ATOM      8  C   UNL     1       1.852  45.590   4.821  1.00  0.00     0.111 A 
ATOM      9  C   UNL     1       3.664  46.620   6.100  1.00  0.00     0.094 A 
ATOM     10  C   UNL     1       1.033  45.645   5.990  1.00  0.00     0.134 A 
ATOM     11  C   UNL     1       2.879  46.603   7.252  1.00  0.00     0.123 A 
ATOM     12  C   UNL     1       1.574  46.115   7.193  1.00  0.00     0.093 A 
BRANCH   3  13
ATOM     13  C   UNL     1       4.520  45.826   1.518  1.00  0.00     0.025 A 
ATOM     14  C   UNL     1       6.257  46.084  -0.676  1.00  0.00     0.157 A 
ATOM     15  C   UNL     1       5.375  47.123  -0.347  1.00  0.00     0.051 A 
ATOM     16  C   UNL     1       6.259  44.903   0.086  1.00  0.00     0.158 A 
ATOM     17  C   UNL     1       4.506  46.991   0.739  1.00  0.00     0.016 A 
ATOM     18  C   UNL     1       5.386  44.777   1.173  1.00  0.00     0.062 A 
BRANCH  14  19
ATOM     19  O   UNL     1       7.125  46.218  -1.758  1.00  0.00    -0.504 OA
ATOM     20  H   UNL     1       6.949  46.884  -2.501  1.00  0.00     0.293 HD
ENDBRANCH  14  19
BRANCH  16  21
ATOM     21  O   UNL     1       7.115  43.846  -0.220  1.00  0.00    -0.504 OA
ATOM     22  H   UNL     1       7.505  43.722  -1.147  1.00  0.00     0.293 HD
ENDBRANCH  16  21
ENDBRANCH   3  13
BRANCH  10  23
ATOM     23  O   UNL     1      -0.318  45.281   6.013  1.00  0.00    -0.507 OA
ATOM     24  H   UNL     1      -0.874  45.201   6.851  1.00  0.00     0.293 HD
ENDBRANCH  10  23
BRANCH  11  25
ATOM     25  O   UNL     1       3.380  47.078   8.462  1.00  0.00    -0.508 OA
ATOM     26  H   UNL     1       4.377  47.170   8.623  1.00  0.00     0.293 HD
ENDBRANCH  11  25
ENDBRANCH   1   2
BRANCH   1  27
ATOM     27  C   UNL     1       1.558  45.108   0.056  1.00  0.00     0.339 C 
ATOM     28  C   UNL     1       0.018  45.198   0.061  1.00  0.00     0.214 C 
ATOM     29  O   UNL     1       2.039  44.496  -1.131  1.00  0.00    -0.332 OA
ATOM     30  C   UNL     1      -0.652  43.843  -0.260  1.00  0.00     0.180 C 
ATOM     31  C   UNL     1       1.598  43.153  -1.242  1.00  0.00     0.179 C 
ATOM     32  C   UNL     1       0.061  43.111  -1.420  1.00  0.00     0.177 C 
BRANCH  28  33
ATOM     33  O   UNL     1      -0.375  46.151  -0.896  1.00  0.00    -0.384 OA
ATOM     34  H   UNL     1      -0.692  45.649  -1.691  1.00  0.00     0.211 HD
ENDBRANCH  28  33
BRANCH  30  35
ATOM     35  O   UNL     1      -0.752  43.042   0.892  1.00  0.00    -0.387 OA
ATOM     36  H   UNL     1      -0.012  42.389   0.876  1.00  0.00     0.211 HD
ENDBRANCH  30  35
BRANCH  31  37
ATOM     37  C   UNL     1       2.319  42.525  -2.448  1.00  0.00     0.191 C 
BRANCH  37  38
ATOM     38  O   UNL     1       2.002  41.165  -2.578  1.00  0.00    -0.394 OA
ATOM     39  H   UNL     1       2.245  40.903  -3.504  1.00  0.00     0.210 HD
ENDBRANCH  37  38
ENDBRANCH  31  37
BRANCH  32  40
ATOM     40  O   UNL     1      -0.383  41.779  -1.490  1.00  0.00    -0.387 OA
ATOM     41  H   UNL     1      -0.254  41.388  -0.588  1.00  0.00     0.211 HD
ENDBRANCH  32  40
ENDBRANCH   1  27
TORSDOF 12
ENDMDL
MODEL 7
REMARK VINA RESULT:    -5.010      1.699      5.109
REMARK INTER + INTRA:          -8.962
REMARK INTER:                  -8.855
REMARK INTRA:                  -0.107
REMARK UNBOUND:                -1.608
REMARK SMILES O=c1c(O[C@H]2O[C@H](CO)[C@@H](O)[C@@H](O)[C@@H]2O)c(-c2ccc(O)c(O)c2)oc2cc(O)cc(O)c12
REMARK SMILES IDX 4 1 3 2 16 3 25 4 2 5 26 6 1 7 33 8 27 9 31 10 28 11 30 12
REMARK SMILES IDX 17 13 20 14 19 15 22 16 18 17 24 18 21 19 23 21 32 23 29 25
REMARK SMILES IDX 5 27 14 28 6 29 12 30 7 31 10 32 15 33 13 35 8 37 9 38 11 40
REMARK H PARENT 21 20 23 22 32 24 29 26 15 34 13 36 9 39 11 41
REMARK Flexibility Score: inf
ROOT
ATOM      1  O   UNL     1     -10.617  32.663   7.133  1.00  0.00    -0.454 OA
ENDROOT
BRANCH   1   2
ATOM      2  C   UNL     1     -10.051  33.932   6.869  1.00  0.00     0.214 A 
ATOM      3  C   UNL     1      -8.739  33.978   6.363  1.00  0.00     0.180 A 
ATOM      4  O   UNL     1      -8.118  35.139   6.207  1.00  0.00    -0.452 OA
ATOM      5  C   UNL     1     -10.710  35.161   7.119  1.00  0.00     0.239 A 
ATOM      6  C   UNL     1      -8.691  36.310   6.444  1.00  0.00     0.146 A 
ATOM      7  O   UNL     1     -11.871  35.162   7.601  1.00  0.00    -0.285 OA
ATOM      8  C   UNL     1     -10.044  36.385   6.861  1.00  0.00     0.111 A 
ATOM      9  C   UNL     1      -7.933  37.471   6.272  1.00  0.00     0.094 A 
ATOM     10  C   UNL     1     -10.629  37.676   7.034  1.00  0.00     0.134 A 
ATOM     11  C   UNL     1      -8.496  38.724   6.514  1.00  0.00     0.123 A 
ATOM     12  C   UNL     1      -9.833  38.820   6.895  1.00  0.00     0.093 A 
BRANCH   3  13
ATOM     13  C   UNL     1      -8.004  32.750   6.013  1.00  0.00     0.025 A 
ATOM     14  C   UNL     1      -6.653  30.366   5.394  1.00  0.00     0.157 A 
ATOM     15  C   UNL     1      -7.861  30.679   4.756  1.00  0.00     0.051 A 
ATOM     16  C   UNL     1      -6.126  31.242   6.359  1.00  0.00     0.158 A 
ATOM     17  C   UNL     1      -8.537  31.861   5.070  1.00  0.00     0.016 A 
ATOM     18  C   UNL     1      -6.808  32.424   6.669  1.00  0.00     0.062 A 
BRANCH  14  19
ATOM     19  O   UNL     1      -5.979  29.187   5.079  1.00  0.00    -0.504 OA
ATOM     20  H   UNL     1      -6.078  28.744   4.174  1.00  0.00     0.293 HD
ENDBRANCH  14  19
BRANCH  16  21
ATOM     21  O   UNL     1      -4.933  30.955   7.021  1.00  0.00    -0.504 OA
ATOM     22  H   UNL     1      -4.696  30.017   7.321  1.00  0.00     0.293 HD
ENDBRANCH  16  21
ENDBRANCH   3  13
BRANCH  10  23
ATOM     23  O   UNL     1     -11.983  37.887   7.311  1.00  0.00    -0.507 OA
ATOM     24  H   UNL     1     -12.468  37.512   8.113  1.00  0.00     0.293 HD
ENDBRANCH  10  23
BRANCH  11  25
ATOM     25  O   UNL     1      -7.737  39.884   6.369  1.00  0.00    -0.508 OA
ATOM     26  H   UNL     1      -7.896  40.529   5.603  1.00  0.00     0.293 HD
ENDBRANCH  11  25
ENDBRANCH   1   2
BRANCH   1  27
ATOM     27  C   UNL     1      -9.994  31.571   7.820  1.00  0.00     0.339 C 
ATOM     28  C   UNL     1     -10.769  30.254   7.609  1.00  0.00     0.214 C 
ATOM     29  O   UNL     1      -9.817  31.853   9.200  1.00  0.00    -0.332 OA
ATOM     30  C   UNL     1     -12.076  30.201   8.431  1.00  0.00     0.180 C 
ATOM     31  C   UNL     1     -11.057  32.054   9.856  1.00  0.00     0.179 C 
ATOM     32  C   UNL     1     -11.873  30.739   9.867  1.00  0.00     0.177 C 
BRANCH  28  33
ATOM     33  O   UNL     1      -9.937  29.183   7.984  1.00  0.00    -0.384 OA
ATOM     34  H   UNL     1     -10.496  28.363   7.966  1.00  0.00     0.211 HD
ENDBRANCH  28  33
BRANCH  30  35
ATOM     35  O   UNL     1     -13.124  30.858   7.761  1.00  0.00    -0.387 OA
ATOM     36  H   UNL     1     -13.532  31.501   8.389  1.00  0.00     0.211 HD
ENDBRANCH  30  35
BRANCH  31  37
ATOM     37  C   UNL     1     -10.755  32.536  11.286  1.00  0.00     0.191 C 
BRANCH  37  38
ATOM     38  O   UNL     1     -10.518  33.918  11.317  1.00  0.00    -0.394 OA
ATOM     39  H   UNL     1      -9.779  34.095  10.677  1.00  0.00     0.210 HD
ENDBRANCH  37  38
ENDBRANCH  31  37
BRANCH  32  40
ATOM     40  O   UNL     1     -13.120  30.945  10.481  1.00  0.00    -0.387 OA
ATOM     41  H   UNL     1     -12.995  31.672  11.144  1.00  0.00     0.211 HD
ENDBRANCH  32  40
ENDBRANCH   1  27
TORSDOF 12
ENDMDL
MODEL 8
REMARK VINA RESULT:    -4.945     15.938     18.190
REMARK INTER + INTRA:          -8.866
REMARK INTER:                  -8.358
REMARK INTRA:                  -0.509
REMARK UNBOUND:                -1.608
REMARK SMILES O=c1c(O[C@H]2O[C@H](CO)[C@@H](O)[C@@H](O)[C@@H]2O)c(-c2ccc(O)c(O)c2)oc2cc(O)cc(O)c12
REMARK SMILES IDX 4 1 3 2 16 3 25 4 2 5 26 6 1 7 33 8 27 9 31 10 28 11 30 12
REMARK SMILES IDX 17 13 20 14 19 15 22 16 18 17 24 18 21 19 23 21 32 23 29 25
REMARK SMILES IDX 5 27 14 28 6 29 12 30 7 31 10 32 15 33 13 35 8 37 9 38 11 40
REMARK H PARENT 21 20 23 22 32 24 29 26 15 34 13 36 9 39 11 41
REMARK Flexibility Score: inf
ROOT
ATOM      1  O   UNL     1       3.526  44.874   1.587  1.00  0.00    -0.454 OA
ENDROOT
BRANCH   1   2
ATOM      2  C   UNL     1       2.478  45.146   2.496  1.00  0.00     0.214 A 
ATOM      3  C   UNL     1       1.181  44.716   2.158  1.00  0.00     0.180 A 
ATOM      4  O   UNL     1       0.144  45.044   2.917  1.00  0.00    -0.452 OA
ATOM      5  C   UNL     1       2.647  45.858   3.710  1.00  0.00     0.239 A 
ATOM      6  C   UNL     1       0.255  45.722   4.050  1.00  0.00     0.146 A 
ATOM      7  O   UNL     1       3.784  46.287   4.031  1.00  0.00    -0.285 OA
ATOM      8  C   UNL     1       1.526  46.119   4.537  1.00  0.00     0.111 A 
ATOM      9  C   UNL     1      -0.908  46.038   4.755  1.00  0.00     0.094 A 
ATOM     10  C   UNL     1       1.590  46.786   5.798  1.00  0.00     0.134 A 
ATOM     11  C   UNL     1      -0.838  46.754   5.950  1.00  0.00     0.123 A 
ATOM     12  C   UNL     1       0.405  47.125   6.462  1.00  0.00     0.093 A 
BRANCH   3  13
ATOM     13  C   UNL     1       0.926  43.913   0.950  1.00  0.00     0.025 A 
ATOM     14  C   UNL     1       0.429  42.316  -1.308  1.00  0.00     0.157 A 
ATOM     15  C   UNL     1      -0.636  42.799  -0.536  1.00  0.00     0.051 A 
ATOM     16  C   UNL     1       1.751  42.619  -0.938  1.00  0.00     0.158 A 
ATOM     17  C   UNL     1      -0.389  43.587   0.591  1.00  0.00     0.016 A 
ATOM     18  C   UNL     1       1.993  43.408   0.192  1.00  0.00     0.062 A 
BRANCH  14  19
ATOM     19  O   UNL     1       0.181  41.531  -2.433  1.00  0.00    -0.504 OA
ATOM     20  H   UNL     1      -0.246  41.917  -3.266  1.00  0.00     0.293 HD
ENDBRANCH  14  19
BRANCH  16  21
ATOM     21  O   UNL     1       2.835  42.144  -1.676  1.00  0.00    -0.504 OA
ATOM     22  H   UNL     1       2.881  41.189  -2.011  1.00  0.00     0.293 HD
ENDBRANCH  16  21
ENDBRANCH   3  13
BRANCH  10  23
ATOM     23  O   UNL     1       2.785  47.109   6.449  1.00  0.00    -0.507 OA
ATOM     24  H   UNL     1       3.687  47.155   5.999  1.00  0.00     0.293 HD
ENDBRANCH  10  23
BRANCH  11  25
ATOM     25  O   UNL     1      -1.997  47.093   6.645  1.00  0.00    -0.508 OA
ATOM     26  H   UNL     1      -2.624  47.816   6.310  1.00  0.00     0.293 HD
ENDBRANCH  11  25
ENDBRANCH   1   2
BRANCH   1  27
ATOM     27  C   UNL     1       4.913  44.702   1.901  1.00  0.00     0.339 C 
ATOM     28  C   UNL     1       5.819  45.231   0.771  1.00  0.00     0.214 C 
ATOM     29  O   UNL     1       5.215  43.352   2.219  1.00  0.00    -0.332 OA
ATOM     30  C   UNL     1       5.843  44.290  -0.455  1.00  0.00     0.180 C 
ATOM     31  C   UNL     1       4.967  42.488   1.123  1.00  0.00     0.179 C 
ATOM     32  C   UNL     1       5.944  42.805  -0.035  1.00  0.00     0.177 C 
BRANCH  28  33
ATOM     33  O   UNL     1       7.125  45.374   1.276  1.00  0.00    -0.384 OA
ATOM     34  H   UNL     1       7.662  44.627   0.904  1.00  0.00     0.211 HD
ENDBRANCH  28  33
BRANCH  30  35
ATOM     35  O   UNL     1       4.745  44.531  -1.300  1.00  0.00    -0.387 OA
ATOM     36  H   UNL     1       4.920  44.083  -2.163  1.00  0.00     0.211 HD
ENDBRANCH  30  35
BRANCH  31  37
ATOM     37  C   UNL     1       5.140  41.043   1.620  1.00  0.00     0.191 C 
BRANCH  37  38
ATOM     38  O   UNL     1       6.404  40.536   1.284  1.00  0.00    -0.394 OA
ATOM     39  H   UNL     1       6.990  40.687   2.071  1.00  0.00     0.210 HD
ENDBRANCH  37  38
ENDBRANCH  31  37
BRANCH  32  40
ATOM     40  O   UNL     1       5.674  41.978  -1.139  1.00  0.00    -0.387 OA
ATOM     41  H   UNL     1       6.004  42.458  -1.943  1.00  0.00     0.211 HD
ENDBRANCH  32  40
ENDBRANCH   1  27
TORSDOF 12
ENDMDL
MODEL 9
REMARK VINA RESULT:    -4.682      1.604      2.701
REMARK INTER + INTRA:          -8.479
REMARK INTER:                  -7.049
REMARK INTRA:                  -1.430
REMARK UNBOUND:                -1.608
REMARK SMILES O=c1c(O[C@H]2O[C@H](CO)[C@@H](O)[C@@H](O)[C@@H]2O)c(-c2ccc(O)c(O)c2)oc2cc(O)cc(O)c12
REMARK SMILES IDX 4 1 3 2 16 3 25 4 2 5 26 6 1 7 33 8 27 9 31 10 28 11 30 12
REMARK SMILES IDX 17 13 20 14 19 15 22 16 18 17 24 18 21 19 23 21 32 23 29 25
REMARK SMILES IDX 5 27 14 28 6 29 12 30 7 31 10 32 15 33 13 35 8 37 9 38 11 40
REMARK H PARENT 21 20 23 22 32 24 29 26 15 34 13 36 9 39 11 41
REMARK Flexibility Score: inf
ROOT
ATOM      1  O   UNL     1     -10.088  31.467   7.842  1.00  0.00    -0.454 OA
ENDROOT
BRANCH   1   2
ATOM      2  C   UNL     1     -10.257  32.853   8.063  1.00  0.00     0.214 A 
ATOM      3  C   UNL     1     -10.937  33.260   9.226  1.00  0.00     0.180 A 
ATOM      4  O   UNL     1     -11.224  34.538   9.426  1.00  0.00    -0.452 OA
ATOM      5  C   UNL     1      -9.816  33.859   7.167  1.00  0.00     0.239 A 
ATOM      6  C   UNL     1     -10.845  35.508   8.606  1.00  0.00     0.146 A 
ATOM      7  O   UNL     1      -9.234  33.535   6.101  1.00  0.00    -0.285 OA
ATOM      8  C   UNL     1     -10.068  35.223   7.455  1.00  0.00     0.111 A 
ATOM      9  C   UNL     1     -11.228  36.818   8.901  1.00  0.00     0.094 A 
ATOM     10  C   UNL     1      -9.631  36.315   6.646  1.00  0.00     0.134 A 
ATOM     11  C   UNL     1     -10.855  37.869   8.062  1.00  0.00     0.123 A 
ATOM     12  C   UNL     1     -10.064  37.613   6.943  1.00  0.00     0.093 A 
BRANCH   3  13
ATOM     13  C   UNL     1     -11.371  32.287  10.244  1.00  0.00     0.025 A 
ATOM     14  C   UNL     1     -12.235  30.493  12.226  1.00  0.00     0.157 A 
ATOM     15  C   UNL     1     -13.116  30.910  11.219  1.00  0.00     0.051 A 
ATOM     16  C   UNL     1     -10.920  30.989  12.252  1.00  0.00     0.158 A 
ATOM     17  C   UNL     1     -12.688  31.808  10.237  1.00  0.00     0.016 A 
ATOM     18  C   UNL     1     -10.498  31.888  11.267  1.00  0.00     0.062 A 
BRANCH  14  19
ATOM     19  O   UNL     1     -12.662  29.595  13.204  1.00  0.00    -0.504 OA
ATOM     20  H   UNL     1     -13.622  29.580  13.527  1.00  0.00     0.293 HD
ENDBRANCH  14  19
BRANCH  16  21
ATOM     21  O   UNL     1     -10.022  30.604  13.247  1.00  0.00    -0.504 OA
ATOM     22  H   UNL     1      -9.063  30.931  13.261  1.00  0.00     0.293 HD
ENDBRANCH  16  21
ENDBRANCH   3  13
BRANCH  10  23
ATOM     23  O   UNL     1      -8.753  36.181   5.565  1.00  0.00    -0.507 OA
ATOM     24  H   UNL     1      -7.764  36.380   5.604  1.00  0.00     0.293 HD
ENDBRANCH  10  23
BRANCH  11  25
ATOM     25  O   UNL     1     -11.254  39.175   8.338  1.00  0.00    -0.508 OA
ATOM     26  H   UNL     1     -11.476  39.474   9.281  1.00  0.00     0.293 HD
ENDBRANCH  11  25
ENDBRANCH   1   2
BRANCH   1  27
ATOM     27  C   UNL     1     -10.709  30.679   6.818  1.00  0.00     0.339 C 
ATOM     28  C   UNL     1     -11.760  29.716   7.405  1.00  0.00     0.214 C 
ATOM     29  O   UNL     1      -9.748  29.986   6.037  1.00  0.00    -0.332 OA
ATOM     30  C   UNL     1     -11.117  28.511   8.128  1.00  0.00     0.180 C 
ATOM     31  C   UNL     1      -9.001  29.069   6.818  1.00  0.00     0.179 C 
ATOM     32  C   UNL     1      -9.922  27.936   7.333  1.00  0.00     0.177 C 
BRANCH  28  33
ATOM     33  O   UNL     1     -12.573  29.250   6.355  1.00  0.00    -0.384 OA
ATOM     34  H   UNL     1     -13.310  29.905   6.248  1.00  0.00     0.211 HD
ENDBRANCH  28  33
BRANCH  30  35
ATOM     35  O   UNL     1     -10.766  28.842   9.450  1.00  0.00    -0.387 OA
ATOM     36  H   UNL     1     -11.594  28.874   9.986  1.00  0.00     0.211 HD
ENDBRANCH  30  35
BRANCH  31  37
ATOM     37  C   UNL     1      -7.873  28.513   5.933  1.00  0.00     0.191 C 
BRANCH  37  38
ATOM     38  O   UNL     1      -6.612  28.785   6.485  1.00  0.00    -0.394 OA
ATOM     39  H   UNL     1      -6.445  29.754   6.350  1.00  0.00     0.210 HD
ENDBRANCH  37  38
ENDBRANCH  31  37
BRANCH  32  40
ATOM     40  O   UNL     1      -9.193  27.047   8.142  1.00  0.00    -0.387 OA
ATOM     41  H   UNL     1      -9.822  26.706   8.829  1.00  0.00     0.211 HD
ENDBRANCH  32  40
ENDBRANCH   1  27
TORSDOF 12
ENDMDL
