MODEL 1
REMARK VINA RESULT:    -4.056      0.000      0.000
REMARK INTER + INTRA:          -5.985
REMARK INTER:                  -5.715
REMARK INTRA:                  -0.270
REMARK UNBOUND:                -0.270
REMARK SMILES C=CCCCCCCC(=O)[O-]
REMARK SMILES IDX 6 1 7 2 8 3 9 4 10 5 11 6 5 7 4 8 3 9 2 10 1 11
REMARK H PARENT
REMARK Flexibility Score: inf
ROOT
ATOM      1  C   UNL     1      21.331  18.047  26.834  1.00  0.00     0.000 C 
ENDROOT
BRANCH   1   2
ATOM      2  C   UNL     1      21.835  18.329  28.260  1.00  0.00     0.006 C 
BRANCH   2   3
ATOM      3  C   UNL     1      20.701  18.287  29.292  1.00  0.00     0.053 C 
BRANCH   3   4
ATOM      4  C   UNL     1      20.206  19.659  29.634  1.00  0.00     0.041 C 
ATOM      5  O   UNL     1      20.743  20.312  30.567  1.00  0.00    -0.550 OA
ATOM      6  O   UNL     1      19.174  20.229  28.900  1.00  0.00    -0.550 OA
ENDBRANCH   3   4
ENDBRANCH   2   3
ENDBRANCH   1   2
BRANCH   1   7
ATOM      7  C   UNL     1      21.296  16.547  26.495  1.00  0.00     0.000 C 
BRANCH   7   8
ATOM      8  C   UNL     1      22.132  16.128  25.268  1.00  0.00     0.004 C 
BRANCH   8   9
ATOM      9  C   UNL     1      23.196  17.162  24.852  1.00  0.00     0.027 C 
BRANCH   9  10
ATOM     10  C   UNL     1      23.635  17.006  23.419  1.00  0.00    -0.035 C 
ATOM     11  C   UNL     1      24.920  17.082  23.062  1.00  0.00     0.004 C 
ENDBRANCH   9  10
ENDBRANCH   8   9
ENDBRANCH   7   8
ENDBRANCH   1   7
TORSDOF 7
ENDMDL
MODEL 2
REMARK VINA RESULT:    -4.012      2.734      5.592
REMARK INTER + INTRA:          -5.924
REMARK INTER:                  -5.247
REMARK INTRA:                  -0.677
REMARK UNBOUND:                -0.270
REMARK SMILES C=CCCCCCCC(=O)[O-]
REMARK SMILES IDX 6 1 7 2 8 3 9 4 10 5 11 6 5 7 4 8 3 9 2 10 1 11
REMARK H PARENT
REMARK Flexibility Score: inf
ROOT
ATOM      1  C   UNL     1      18.460  17.238  28.113  1.00  0.00     0.000 C 
ENDROOT
BRANCH   1   2
ATOM      2  C   UNL     1      19.427  17.816  27.066  1.00  0.00     0.006 C 
BRANCH   2   3
ATOM      3  C   UNL     1      20.732  17.015  26.980  1.00  0.00     0.053 C 
BRANCH   3   4
ATOM      4  C   UNL     1      21.915  17.899  26.734  1.00  0.00     0.041 C 
ATOM      5  O   UNL     1      22.221  18.794  27.566  1.00  0.00    -0.550 OA
ATOM      6  O   UNL     1      22.700  17.714  25.603  1.00  0.00    -0.550 OA
ENDBRANCH   3   4
ENDBRANCH   2   3
ENDBRANCH   1   2
BRANCH   1   7
ATOM      7  C   UNL     1      18.186  18.207  29.277  1.00  0.00     0.000 C 
BRANCH   7   8
ATOM      8  C   UNL     1      19.083  19.460  29.316  1.00  0.00     0.004 C 
BRANCH   8   9
ATOM      9  C   UNL     1      20.010  19.531  30.546  1.00  0.00     0.027 C 
BRANCH   9  10
ATOM     10  C   UNL     1      20.846  18.290  30.721  1.00  0.00    -0.035 C 
ATOM     11  C   UNL     1      20.649  17.443  31.735  1.00  0.00     0.004 C 
ENDBRANCH   9  10
ENDBRANCH   8   9
ENDBRANCH   7   8
ENDBRANCH   1   7
TORSDOF 7
ENDMDL
MODEL 3
REMARK VINA RESULT:    -3.980      4.116      6.623
REMARK INTER + INTRA:          -5.879
REMARK INTER:                  -5.645
REMARK INTRA:                  -0.234
REMARK UNBOUND:                -0.270
REMARK SMILES C=CCCCCCCC(=O)[O-]
REMARK SMILES IDX 6 1 7 2 8 3 9 4 10 5 11 6 5 7 4 8 3 9 2 10 1 11
REMARK H PARENT
REMARK Flexibility Score: inf
ROOT
ATOM      1  C   UNL     1      22.235  16.330  25.642  1.00  0.00     0.000 C 
ENDROOT
BRANCH   1   2
ATOM      2  C   UNL     1      23.370  17.018  24.863  1.00  0.00     0.006 C 
BRANCH   2   3
ATOM      3  C   UNL     1      23.109  17.032  23.352  1.00  0.00     0.053 C 
BRANCH   3   4
ATOM      4  C   UNL     1      24.377  16.910  22.565  1.00  0.00     0.041 C 
ATOM      5  O   UNL     1      24.421  16.172  21.545  1.00  0.00    -0.550 OA
ATOM      6  O   UNL     1      25.500  17.637  22.938  1.00  0.00    -0.550 OA
ENDBRANCH   3   4
ENDBRANCH   2   3
ENDBRANCH   1   2
BRANCH   1   7
ATOM      7  C   UNL     1      21.391  17.315  26.468  1.00  0.00     0.000 C 
BRANCH   7   8
ATOM      8  C   UNL     1      22.162  18.102  27.547  1.00  0.00     0.004 C 
BRANCH   8   9
ATOM      9  C   UNL     1      21.313  18.475  28.778  1.00  0.00     0.027 C 
BRANCH   9  10
ATOM     10  C   UNL     1      19.883  18.792  28.429  1.00  0.00    -0.035 C 
ATOM     11  C   UNL     1      19.151  19.642  29.155  1.00  0.00     0.004 C 
ENDBRANCH   9  10
ENDBRANCH   8   9
ENDBRANCH   7   8
ENDBRANCH   1   7
TORSDOF 7
ENDMDL
MODEL 4
REMARK VINA RESULT:    -3.948     13.056     14.950
REMARK INTER + INTRA:          -5.834
REMARK INTER:                  -5.460
REMARK INTRA:                  -0.373
REMARK UNBOUND:                -0.270
REMARK SMILES C=CCCCCCCC(=O)[O-]
REMARK SMILES IDX 6 1 7 2 8 3 9 4 10 5 11 6 5 7 4 8 3 9 2 10 1 11
REMARK H PARENT
REMARK Flexibility Score: inf
ROOT
ATOM      1  C   UNL     1      21.910  33.482  26.351  1.00  0.00     0.000 C 
ENDROOT
BRANCH   1   2
ATOM      2  C   UNL     1      20.995  32.634  25.450  1.00  0.00     0.006 C 
BRANCH   2   3
ATOM      3  C   UNL     1      21.722  32.133  24.196  1.00  0.00     0.053 C 
BRANCH   3   4
ATOM      4  C   UNL     1      21.456  30.682  23.937  1.00  0.00     0.041 C 
ATOM      5  O   UNL     1      21.107  30.297  22.790  1.00  0.00    -0.550 OA
ATOM      6  O   UNL     1      21.623  29.752  24.955  1.00  0.00    -0.550 OA
ENDBRANCH   3   4
ENDBRANCH   2   3
ENDBRANCH   1   2
BRANCH   1   7
ATOM      7  C   UNL     1      21.787  33.119  27.841  1.00  0.00     0.000 C 
BRANCH   7   8
ATOM      8  C   UNL     1      21.368  31.665  28.134  1.00  0.00     0.004 C 
BRANCH   8   9
ATOM      9  C   UNL     1      21.409  31.289  29.628  1.00  0.00     0.027 C 
BRANCH   9  10
ATOM     10  C   UNL     1      21.657  32.474  30.524  1.00  0.00    -0.035 C 
ATOM     11  C   UNL     1      22.448  32.394  31.597  1.00  0.00     0.004 C 
ENDBRANCH   9  10
ENDBRANCH   8   9
ENDBRANCH   7   8
ENDBRANCH   1   7
TORSDOF 7
ENDMDL
MODEL 5
REMARK VINA RESULT:    -3.893     12.959     15.008
REMARK INTER + INTRA:          -5.755
REMARK INTER:                  -5.391
REMARK INTRA:                  -0.364
REMARK UNBOUND:                -0.270
REMARK SMILES C=CCCCCCCC(=O)[O-]
REMARK SMILES IDX 6 1 7 2 8 3 9 4 10 5 11 6 5 7 4 8 3 9 2 10 1 11
REMARK H PARENT
REMARK Flexibility Score: inf
ROOT
ATOM      1  C   UNL     1      21.985  33.494  25.874  1.00  0.00     0.000 C 
ENDROOT
BRANCH   1   2
ATOM      2  C   UNL     1      20.999  32.487  25.259  1.00  0.00     0.006 C 
BRANCH   2   3
ATOM      3  C   UNL     1      21.520  31.897  23.942  1.00  0.00     0.053 C 
BRANCH   3   4
ATOM      4  C   UNL     1      21.362  30.409  23.895  1.00  0.00     0.041 C 
ATOM      5  O   UNL     1      21.647  29.710  24.903  1.00  0.00    -0.550 OA
ATOM      6  O   UNL     1      20.870  29.796  22.750  1.00  0.00    -0.550 OA
ENDBRANCH   3   4
ENDBRANCH   2   3
ENDBRANCH   1   2
BRANCH   1   7
ATOM      7  C   UNL     1      21.924  33.534  27.410  1.00  0.00     0.000 C 
BRANCH   7   8
ATOM      8  C   UNL     1      21.553  32.200  28.090  1.00  0.00     0.004 C 
BRANCH   8   9
ATOM      9  C   UNL     1      21.521  32.268  29.629  1.00  0.00     0.027 C 
BRANCH   9  10
ATOM     10  C   UNL     1      20.124  32.383  30.181  1.00  0.00    -0.035 C 
ATOM     11  C   UNL     1      19.045  32.258  29.402  1.00  0.00     0.004 C 
ENDBRANCH   9  10
ENDBRANCH   8   9
ENDBRANCH   7   8
ENDBRANCH   1   7
TORSDOF 7
ENDMDL
MODEL 6
REMARK VINA RESULT:    -3.882      2.767      6.277
REMARK INTER + INTRA:          -5.740
REMARK INTER:                  -5.117
REMARK INTRA:                  -0.623
REMARK UNBOUND:                -0.270
REMARK SMILES C=CCCCCCCC(=O)[O-]
REMARK SMILES IDX 6 1 7 2 8 3 9 4 10 5 11 6 5 7 4 8 3 9 2 10 1 11
REMARK H PARENT
REMARK Flexibility Score: inf
ROOT
ATOM      1  C   UNL     1      19.748  17.218  29.455  1.00  0.00     0.000 C 
ENDROOT
BRANCH   1   2
ATOM      2  C   UNL     1      19.743  17.918  28.085  1.00  0.00     0.006 C 
BRANCH   2   3
ATOM      3  C   UNL     1      20.619  17.188  27.059  1.00  0.00     0.053 C 
BRANCH   3   4
ATOM      4  C   UNL     1      21.885  17.936  26.773  1.00  0.00     0.041 C 
ATOM      5  O   UNL     1      22.322  18.780  27.599  1.00  0.00    -0.550 OA
ATOM      6  O   UNL     1      22.599  17.678  25.610  1.00  0.00    -0.550 OA
ENDBRANCH   3   4
ENDBRANCH   2   3
ENDBRANCH   1   2
BRANCH   1   7
ATOM      7  C   UNL     1      20.564  17.978  30.515  1.00  0.00     0.000 C 
BRANCH   7   8
ATOM      8  C   UNL     1      20.331  19.502  30.558  1.00  0.00     0.004 C 
BRANCH   8   9
ATOM      9  C   UNL     1      19.558  19.984  31.801  1.00  0.00     0.027 C 
BRANCH   9  10
ATOM     10  C   UNL     1      18.064  19.966  31.605  1.00  0.00    -0.035 C 
ATOM     11  C   UNL     1      17.508  20.147  30.404  1.00  0.00     0.004 C 
ENDBRANCH   9  10
ENDBRANCH   8   9
ENDBRANCH   7   8
ENDBRANCH   1   7
TORSDOF 7
ENDMDL
MODEL 7
REMARK VINA RESULT:    -3.843     13.939     14.912
REMARK INTER + INTRA:          -5.686
REMARK INTER:                  -5.369
REMARK INTRA:                  -0.317
REMARK UNBOUND:                -0.270
REMARK SMILES C=CCCCCCCC(=O)[O-]
REMARK SMILES IDX 6 1 7 2 8 3 9 4 10 5 11 6 5 7 4 8 3 9 2 10 1 11
REMARK H PARENT
REMARK Flexibility Score: inf
ROOT
ATOM      1  C   UNL     1      22.997  32.031  32.185  1.00  0.00     0.000 C 
ENDROOT
BRANCH   1   2
ATOM      2  C   UNL     1      24.158  32.089  33.194  1.00  0.00     0.006 C 
BRANCH   2   3
ATOM      3  C   UNL     1      23.849  31.305  34.476  1.00  0.00     0.053 C 
BRANCH   3   4
ATOM      4  C   UNL     1      24.109  29.840  34.311  1.00  0.00     0.041 C 
ATOM      5  O   UNL     1      23.264  28.997  34.713  1.00  0.00    -0.550 OA
ATOM      6  O   UNL     1      25.269  29.405  33.684  1.00  0.00    -0.550 OA
ENDBRANCH   3   4
ENDBRANCH   2   3
ENDBRANCH   1   2
BRANCH   1   7
ATOM      7  C   UNL     1      22.664  33.403  31.574  1.00  0.00     0.000 C 
BRANCH   7   8
ATOM      8  C   UNL     1      21.789  33.365  30.305  1.00  0.00     0.004 C 
BRANCH   8   9
ATOM      9  C   UNL     1      21.480  31.943  29.799  1.00  0.00     0.027 C 
BRANCH   9  10
ATOM     10  C   UNL     1      21.419  31.857  28.296  1.00  0.00    -0.035 C 
ATOM     11  C   UNL     1      21.725  32.898  27.517  1.00  0.00     0.004 C 
ENDBRANCH   9  10
ENDBRANCH   8   9
ENDBRANCH   7   8
ENDBRANCH   1   7
TORSDOF 7
ENDMDL
MODEL 8
REMARK VINA RESULT:    -3.709     13.206     14.598
REMARK INTER + INTRA:          -5.497
REMARK INTER:                  -5.252
REMARK INTRA:                  -0.245
REMARK UNBOUND:                -0.270
REMARK SMILES C=CCCCCCCC(=O)[O-]
REMARK SMILES IDX 6 1 7 2 8 3 9 4 10 5 11 6 5 7 4 8 3 9 2 10 1 11
REMARK H PARENT
REMARK Flexibility Score: inf
ROOT
ATOM      1  C   UNL     1      23.879  31.621  32.904  1.00  0.00     0.000 C 
ENDROOT
BRANCH   1   2
ATOM      2  C   UNL     1      23.978  30.924  34.272  1.00  0.00     0.006 C 
BRANCH   2   3
ATOM      3  C   UNL     1      24.984  29.766  34.259  1.00  0.00     0.053 C 
BRANCH   3   4
ATOM      4  C   UNL     1      24.357  28.476  34.690  1.00  0.00     0.041 C 
ATOM      5  O   UNL     1      25.079  27.480  34.959  1.00  0.00    -0.550 OA
ATOM      6  O   UNL     1      22.978  28.383  34.826  1.00  0.00    -0.550 OA
ENDBRANCH   3   4
ENDBRANCH   2   3
ENDBRANCH   1   2
BRANCH   1   7
ATOM      7  C   UNL     1      22.658  32.550  32.791  1.00  0.00     0.000 C 
BRANCH   7   8
ATOM      8  C   UNL     1      22.471  33.230  31.419  1.00  0.00     0.004 C 
BRANCH   8   9
ATOM      9  C   UNL     1      21.239  32.735  30.637  1.00  0.00     0.027 C 
BRANCH   9  10
ATOM     10  C   UNL     1      21.589  32.181  29.281  1.00  0.00    -0.035 C 
ATOM     11  C   UNL     1      21.263  30.936  28.922  1.00  0.00     0.004 C 
ENDBRANCH   9  10
ENDBRANCH   8   9
ENDBRANCH   7   8
ENDBRANCH   1   7
TORSDOF 7
ENDMDL
MODEL 9
REMARK VINA RESULT:    -3.705      1.688      2.842
REMARK INTER + INTRA:          -5.491
REMARK INTER:                  -4.958
REMARK INTRA:                  -0.533
REMARK UNBOUND:                -0.270
REMARK SMILES C=CCCCCCCC(=O)[O-]
REMARK SMILES IDX 6 1 7 2 8 3 9 4 10 5 11 6 5 7 4 8 3 9 2 10 1 11
REMARK H PARENT
REMARK Flexibility Score: inf
ROOT
ATOM      1  C   UNL     1      18.715  16.813  29.294  1.00  0.00     0.000 C 
ENDROOT
BRANCH   1   2
ATOM      2  C   UNL     1      19.559  17.393  30.443  1.00  0.00     0.006 C 
BRANCH   2   3
ATOM      3  C   UNL     1      19.109  18.806  30.834  1.00  0.00     0.053 C 
BRANCH   3   4
ATOM      4  C   UNL     1      19.765  19.855  29.990  1.00  0.00     0.041 C 
ATOM      5  O   UNL     1      19.190  20.286  28.956  1.00  0.00    -0.550 OA
ATOM      6  O   UNL     1      20.995  20.380  30.363  1.00  0.00    -0.550 OA
ENDBRANCH   3   4
ENDBRANCH   2   3
ENDBRANCH   1   2
BRANCH   1   7
ATOM      7  C   UNL     1      19.566  16.349  28.099  1.00  0.00     0.000 C 
BRANCH   7   8
ATOM      8  C   UNL     1      19.958  17.456  27.100  1.00  0.00     0.004 C 
BRANCH   8   9
ATOM      9  C   UNL     1      21.433  17.891  27.193  1.00  0.00     0.027 C 
BRANCH   9  10
ATOM     10  C   UNL     1      22.249  17.457  26.003  1.00  0.00    -0.035 C 
ATOM     11  C   UNL     1      22.280  16.185  25.597  1.00  0.00     0.004 C 
ENDBRANCH   9  10
ENDBRANCH   8   9
ENDBRANCH   7   8
ENDBRANCH   1   7
TORSDOF 7
ENDMDL
