MODEL 1
REMARK VINA RESULT:    -3.949      0.000      0.000
REMARK INTER + INTRA:          -4.309
REMARK INTER:                  -4.295
REMARK INTRA:                  -0.014
REMARK UNBOUND:                -0.014
REMARK SMILES OCc1ccco1
REMARK SMILES IDX 2 1 3 2 5 3 6 4 4 5 7 6 1 7
REMARK H PARENT 1 8
REMARK Flexibility Score: inf
ROOT
ATOM      1  C   UNL     1      55.207   5.099  -5.492  1.00  0.00     0.231 C 
ENDROOT
BRANCH   1   2
ATOM      2  C   UNL     1      54.700   3.991  -6.360  1.00  0.00     0.129 A 
ATOM      3  C   UNL     1      53.964   2.046  -7.066  1.00  0.00     0.042 A 
ATOM      4  C   UNL     1      53.964   2.979  -8.085  1.00  0.00     0.195 A 
ATOM      5  C   UNL     1      54.437   2.701  -5.949  1.00  0.00     0.048 A 
ATOM      6  O   UNL     1      54.405   4.130  -7.632  1.00  0.00    -0.467 OA
ENDBRANCH   1   2
BRANCH   1   7
ATOM      7  O   UNL     1      54.190   5.542  -4.636  1.00  0.00    -0.388 OA
ATOM      8  H   UNL     1      53.602   4.761  -4.466  1.00  0.00     0.211 HD
ENDBRANCH   1   7
TORSDOF 2
ENDMDL
MODEL 2
REMARK VINA RESULT:    -3.938     11.821     12.483
REMARK INTER + INTRA:          -4.297
REMARK INTER:                  -4.281
REMARK INTRA:                  -0.017
REMARK UNBOUND:                -0.014
REMARK SMILES OCc1ccco1
REMARK SMILES IDX 2 1 3 2 5 3 6 4 4 5 7 6 1 7
REMARK H PARENT 1 8
REMARK Flexibility Score: inf
ROOT
ATOM      1  C   UNL     1      43.227   8.620 -11.783  1.00  0.00     0.231 C 
ENDROOT
BRANCH   1   2
ATOM      2  C   UNL     1      43.520   7.830 -10.547  1.00  0.00     0.129 A 
ATOM      3  C   UNL     1      43.552   7.114  -8.471  1.00  0.00     0.042 A 
ATOM      4  C   UNL     1      44.270   6.273  -9.300  1.00  0.00     0.195 A 
ATOM      5  C   UNL     1      43.063   8.120  -9.277  1.00  0.00     0.048 A 
ATOM      6  O   UNL     1      44.229   6.725 -10.532  1.00  0.00    -0.467 OA
ENDBRANCH   1   2
BRANCH   1   7
ATOM      7  O   UNL     1      42.485   7.846 -12.684  1.00  0.00    -0.388 OA
ATOM      8  H   UNL     1      43.064   7.084 -12.947  1.00  0.00     0.211 HD
ENDBRANCH   1   7
TORSDOF 2
ENDMDL
MODEL 3
REMARK VINA RESULT:    -3.937      3.149      3.810
REMARK INTER + INTRA:          -4.296
REMARK INTER:                  -4.282
REMARK INTRA:                  -0.015
REMARK UNBOUND:                -0.014
REMARK SMILES OCc1ccco1
REMARK SMILES IDX 2 1 3 2 5 3 6 4 4 5 7 6 1 7
REMARK H PARENT 1 8
REMARK Flexibility Score: inf
ROOT
ATOM      1  C   UNL     1      52.301   4.779  -9.984  1.00  0.00     0.231 C 
ENDROOT
BRANCH   1   2
ATOM      2  C   UNL     1      53.347   3.741  -9.726  1.00  0.00     0.129 A 
ATOM      3  C   UNL     1      55.158   2.506  -9.861  1.00  0.00     0.042 A 
ATOM      4  C   UNL     1      54.400   2.160  -8.760  1.00  0.00     0.195 A 
ATOM      5  C   UNL     1      54.480   3.532 -10.486  1.00  0.00     0.048 A 
ATOM      6  O   UNL     1      53.328   2.916  -8.705  1.00  0.00    -0.467 OA
ENDBRANCH   1   2
BRANCH   1   7
ATOM      7  O   UNL     1      52.565   5.926  -9.225  1.00  0.00    -0.388 OA
ATOM      8  H   UNL     1      52.066   6.670  -9.653  1.00  0.00     0.211 HD
ENDBRANCH   1   7
TORSDOF 2
ENDMDL
MODEL 4
REMARK VINA RESULT:    -3.896     13.934     14.647
REMARK INTER + INTRA:          -4.251
REMARK INTER:                  -4.233
REMARK INTRA:                  -0.018
REMARK UNBOUND:                -0.014
REMARK SMILES OCc1ccco1
REMARK SMILES IDX 2 1 3 2 5 3 6 4 4 5 7 6 1 7
REMARK H PARENT 1 8
REMARK Flexibility Score: inf
ROOT
ATOM      1  C   UNL     1      42.097   1.510  -9.501  1.00  0.00     0.231 C 
ENDROOT
BRANCH   1   2
ATOM      2  C   UNL     1      40.736   1.452  -8.885  1.00  0.00     0.129 A 
ATOM      3  C   UNL     1      38.611   1.800  -8.450  1.00  0.00     0.042 A 
ATOM      4  C   UNL     1      39.134   0.820  -7.630  1.00  0.00     0.195 A 
ATOM      5  C   UNL     1      39.646   2.208  -9.265  1.00  0.00     0.048 A 
ATOM      6  O   UNL     1      40.402   0.633  -7.915  1.00  0.00    -0.467 OA
ENDBRANCH   1   2
BRANCH   1   7
ATOM      7  O   UNL     1      42.508   0.226  -9.881  1.00  0.00    -0.388 OA
ATOM      8  H   UNL     1      42.827   0.296 -10.818  1.00  0.00     0.211 HD
ENDBRANCH   1   7
TORSDOF 2
ENDMDL
MODEL 5
REMARK VINA RESULT:    -3.881      3.822      5.006
REMARK INTER + INTRA:          -4.235
REMARK INTER:                  -4.219
REMARK INTRA:                  -0.016
REMARK UNBOUND:                -0.014
REMARK SMILES OCc1ccco1
REMARK SMILES IDX 2 1 3 2 5 3 6 4 4 5 7 6 1 7
REMARK H PARENT 1 8
REMARK Flexibility Score: inf
ROOT
ATOM      1  C   UNL     1      53.856   0.267 -10.838  1.00  0.00     0.231 C 
ENDROOT
BRANCH   1   2
ATOM      2  C   UNL     1      54.132   1.645 -10.327  1.00  0.00     0.129 A 
ATOM      3  C   UNL     1      54.476   3.364  -9.003  1.00  0.00     0.042 A 
ATOM      4  C   UNL     1      54.640   3.715 -10.329  1.00  0.00     0.195 A 
ATOM      5  C   UNL     1      54.151   2.024  -9.000  1.00  0.00     0.048 A 
ATOM      6  O   UNL     1      54.431   2.668 -11.093  1.00  0.00    -0.467 OA
ENDBRANCH   1   2
BRANCH   1   7
ATOM      7  O   UNL     1      53.432  -0.559  -9.790  1.00  0.00    -0.388 OA
ATOM      8  H   UNL     1      53.798  -1.463  -9.975  1.00  0.00     0.211 HD
ENDBRANCH   1   7
TORSDOF 2
ENDMDL
MODEL 6
REMARK VINA RESULT:    -3.846      3.402      5.195
REMARK INTER + INTRA:          -4.197
REMARK INTER:                  -4.175
REMARK INTRA:                  -0.022
REMARK UNBOUND:                -0.014
REMARK SMILES OCc1ccco1
REMARK SMILES IDX 2 1 3 2 5 3 6 4 4 5 7 6 1 7
REMARK H PARENT 1 8
REMARK Flexibility Score: inf
ROOT
ATOM      1  C   UNL     1      53.796   0.024 -10.662  1.00  0.00     0.231 C 
ENDROOT
BRANCH   1   2
ATOM      2  C   UNL     1      54.124   1.428 -10.264  1.00  0.00     0.129 A 
ATOM      3  C   UNL     1      54.657   3.558 -10.325  1.00  0.00     0.042 A 
ATOM      4  C   UNL     1      54.390   3.147  -9.033  1.00  0.00     0.195 A 
ATOM      5  C   UNL     1      54.481   2.447 -11.123  1.00  0.00     0.048 A 
ATOM      6  O   UNL     1      54.072   1.873  -9.030  1.00  0.00    -0.467 OA
ENDBRANCH   1   2
BRANCH   1   7
ATOM      7  O   UNL     1      53.404  -0.715  -9.538  1.00  0.00    -0.388 OA
ATOM      8  H   UNL     1      53.466  -0.102  -8.760  1.00  0.00     0.211 HD
ENDBRANCH   1   7
TORSDOF 2
ENDMDL
MODEL 7
REMARK VINA RESULT:    -3.791      1.437      2.721
REMARK INTER + INTRA:          -4.138
REMARK INTER:                  -4.123
REMARK INTRA:                  -0.014
REMARK UNBOUND:                -0.014
REMARK SMILES OCc1ccco1
REMARK SMILES IDX 2 1 3 2 5 3 6 4 4 5 7 6 1 7
REMARK H PARENT 1 8
REMARK Flexibility Score: inf
ROOT
ATOM      1  C   UNL     1      54.045   4.700  -9.376  1.00  0.00     0.231 C 
ENDROOT
BRANCH   1   2
ATOM      2  C   UNL     1      54.162   3.792  -8.193  1.00  0.00     0.129 A 
ATOM      3  C   UNL     1      54.130   2.021  -6.894  1.00  0.00     0.042 A 
ATOM      4  C   UNL     1      54.629   3.121  -6.225  1.00  0.00     0.195 A 
ATOM      5  C   UNL     1      53.831   2.452  -8.169  1.00  0.00     0.048 A 
ATOM      6  O   UNL     1      54.638   4.161  -7.027  1.00  0.00    -0.467 OA
ENDBRANCH   1   2
BRANCH   1   7
ATOM      7  O   UNL     1      53.034   5.645  -9.158  1.00  0.00    -0.388 OA
ATOM      8  H   UNL     1      52.348   5.202  -8.593  1.00  0.00     0.211 HD
ENDBRANCH   1   7
TORSDOF 2
ENDMDL
MODEL 8
REMARK VINA RESULT:    -3.739      1.821      2.623
REMARK INTER + INTRA:          -4.081
REMARK INTER:                  -4.064
REMARK INTRA:                  -0.016
REMARK UNBOUND:                -0.014
REMARK SMILES OCc1ccco1
REMARK SMILES IDX 2 1 3 2 5 3 6 4 4 5 7 6 1 7
REMARK H PARENT 1 8
REMARK Flexibility Score: inf
ROOT
ATOM      1  C   UNL     1      53.679   2.540  -6.414  1.00  0.00     0.231 C 
ENDROOT
BRANCH   1   2
ATOM      2  C   UNL     1      53.951   2.728  -7.872  1.00  0.00     0.129 A 
ATOM      3  C   UNL     1      54.453   3.615  -9.818  1.00  0.00     0.042 A 
ATOM      4  C   UNL     1      54.264   2.252  -9.926  1.00  0.00     0.195 A 
ATOM      5  C   UNL     1      54.254   3.925  -8.489  1.00  0.00     0.048 A 
ATOM      6  O   UNL     1      53.969   1.750  -8.749  1.00  0.00    -0.467 OA
ENDBRANCH   1   2
BRANCH   1   7
ATOM      7  O   UNL     1      54.074   3.679  -5.701  1.00  0.00    -0.388 OA
ATOM      8  H   UNL     1      53.448   3.766  -4.935  1.00  0.00     0.211 HD
ENDBRANCH   1   7
TORSDOF 2
ENDMDL
MODEL 9
REMARK VINA RESULT:    -3.704      3.229      4.012
REMARK INTER + INTRA:          -4.043
REMARK INTER:                  -4.029
REMARK INTRA:                  -0.014
REMARK UNBOUND:                -0.014
REMARK SMILES OCc1ccco1
REMARK SMILES IDX 2 1 3 2 5 3 6 4 4 5 7 6 1 7
REMARK H PARENT 1 8
REMARK Flexibility Score: inf
ROOT
ATOM      1  C   UNL     1      54.498   5.027  -8.698  1.00  0.00     0.231 C 
ENDROOT
BRANCH   1   2
ATOM      2  C   UNL     1      55.071   4.227  -9.825  1.00  0.00     0.129 A 
ATOM      3  C   UNL     1      55.378   2.696 -11.369  1.00  0.00     0.042 A 
ATOM      4  C   UNL     1      56.352   3.672 -11.435  1.00  0.00     0.195 A 
ATOM      5  C   UNL     1      54.546   3.055 -10.331  1.00  0.00     0.048 A 
ATOM      6  O   UNL     1      56.140   4.573 -10.503  1.00  0.00    -0.467 OA
ENDBRANCH   1   2
BRANCH   1   7
ATOM      7  O   UNL     1      53.257   5.559  -9.069  1.00  0.00    -0.388 OA
ATOM      8  H   UNL     1      53.322   5.787 -10.033  1.00  0.00     0.211 HD
ENDBRANCH   1   7
TORSDOF 2
ENDMDL
