MODEL 1
REMARK VINA RESULT:    -4.982      0.000      0.000
REMARK INTER + INTRA:          -5.874
REMARK INTER:                  -5.856
REMARK INTRA:                  -0.018
REMARK UNBOUND:                -0.018
REMARK SMILES CCCCC(=O)[O-]
REMARK SMILES IDX 4 1 5 2 6 3 7 4 3 5 2 6 1 7
REMARK H PARENT
REMARK Flexibility Score: inf
ROOT
ATOM      1  C   UNL     1      27.522  -3.378  19.499  1.00  0.00     0.053 C 
ENDROOT
BRANCH   1   2
ATOM      2  C   UNL     1      29.011  -3.427  19.344  1.00  0.00     0.041 C 
ATOM      3  O   UNL     1      29.756  -2.845  20.177  1.00  0.00    -0.550 OA
ATOM      4  O   UNL     1      29.577  -4.090  18.263  1.00  0.00    -0.550 OA
ENDBRANCH   1   2
BRANCH   1   5
ATOM      5  C   UNL     1      27.019  -2.003  19.972  1.00  0.00     0.006 C 
BRANCH   5   6
ATOM      6  C   UNL     1      25.489  -1.915  20.116  1.00  0.00    -0.003 C 
ATOM      7  C   UNL     1      24.931  -0.532  19.788  1.00  0.00     0.004 C 
ENDBRANCH   5   6
ENDBRANCH   1   5
TORSDOF 3
ENDMDL
MODEL 2
REMARK VINA RESULT:    -4.947      1.863      3.055
REMARK INTER + INTRA:          -5.832
REMARK INTER:                  -5.728
REMARK INTRA:                  -0.105
REMARK UNBOUND:                -0.018
REMARK SMILES CCCCC(=O)[O-]
REMARK SMILES IDX 4 1 5 2 6 3 7 4 3 5 2 6 1 7
REMARK H PARENT
REMARK Flexibility Score: inf
ROOT
ATOM      1  C   UNL     1      27.689  -3.243  19.564  1.00  0.00     0.053 C 
ENDROOT
BRANCH   1   2
ATOM      2  C   UNL     1      29.144  -3.520  19.342  1.00  0.00     0.041 C 
ATOM      3  O   UNL     1      30.008  -3.054  20.133  1.00  0.00    -0.550 OA
ATOM      4  O   UNL     1      29.551  -4.269  18.245  1.00  0.00    -0.550 OA
ENDBRANCH   1   2
BRANCH   1   5
ATOM      5  C   UNL     1      26.777  -4.297  18.912  1.00  0.00     0.006 C 
BRANCH   5   6
ATOM      6  C   UNL     1      26.555  -5.549  19.779  1.00  0.00    -0.003 C 
ATOM      7  C   UNL     1      26.859  -6.853  19.043  1.00  0.00     0.004 C 
ENDBRANCH   5   6
ENDBRANCH   1   5
TORSDOF 3
ENDMDL
MODEL 3
REMARK VINA RESULT:    -4.939      1.919      3.391
REMARK INTER + INTRA:          -5.823
REMARK INTER:                  -5.753
REMARK INTRA:                  -0.071
REMARK UNBOUND:                -0.018
REMARK SMILES CCCCC(=O)[O-]
REMARK SMILES IDX 4 1 5 2 6 3 7 4 3 5 2 6 1 7
REMARK H PARENT
REMARK Flexibility Score: inf
ROOT
ATOM      1  C   UNL     1      27.667  -3.355  19.380  1.00  0.00     0.053 C 
ENDROOT
BRANCH   1   2
ATOM      2  C   UNL     1      29.144  -3.523  19.192  1.00  0.00     0.041 C 
ATOM      3  O   UNL     1      29.589  -4.241  18.258  1.00  0.00    -0.550 OA
ATOM      4  O   UNL     1      30.031  -2.909  20.068  1.00  0.00    -0.550 OA
ENDBRANCH   1   2
BRANCH   1   5
ATOM      5  C   UNL     1      26.862  -4.557  18.857  1.00  0.00     0.006 C 
BRANCH   5   6
ATOM      6  C   UNL     1      26.686  -5.684  19.889  1.00  0.00    -0.003 C 
ATOM      7  C   UNL     1      26.733  -7.081  19.270  1.00  0.00     0.004 C 
ENDBRANCH   5   6
ENDBRANCH   1   5
TORSDOF 3
ENDMDL
MODEL 4
REMARK VINA RESULT:    -4.901      1.425      1.882
REMARK INTER + INTRA:          -5.779
REMARK INTER:                  -5.671
REMARK INTRA:                  -0.108
REMARK UNBOUND:                -0.018
REMARK SMILES CCCCC(=O)[O-]
REMARK SMILES IDX 4 1 5 2 6 3 7 4 3 5 2 6 1 7
REMARK H PARENT
REMARK Flexibility Score: inf
ROOT
ATOM      1  C   UNL     1      28.127  -4.505  18.580  1.00  0.00     0.053 C 
ENDROOT
BRANCH   1   2
ATOM      2  C   UNL     1      29.156  -3.523  19.051  1.00  0.00     0.041 C 
ATOM      3  O   UNL     1      29.001  -2.915  20.143  1.00  0.00    -0.550 OA
ATOM      4  O   UNL     1      30.272  -3.256  18.268  1.00  0.00    -0.550 OA
ENDBRANCH   1   2
BRANCH   1   5
ATOM      5  C   UNL     1      27.099  -4.857  19.670  1.00  0.00     0.006 C 
BRANCH   5   6
ATOM      6  C   UNL     1      25.682  -4.332  19.381  1.00  0.00    -0.003 C 
ATOM      7  C   UNL     1      25.485  -2.872  19.789  1.00  0.00     0.004 C 
ENDBRANCH   5   6
ENDBRANCH   1   5
TORSDOF 3
ENDMDL
MODEL 5
REMARK VINA RESULT:    -4.813      1.399      1.746
REMARK INTER + INTRA:          -5.676
REMARK INTER:                  -5.619
REMARK INTRA:                  -0.057
REMARK UNBOUND:                -0.018
REMARK SMILES CCCCC(=O)[O-]
REMARK SMILES IDX 4 1 5 2 6 3 7 4 3 5 2 6 1 7
REMARK H PARENT
REMARK Flexibility Score: inf
ROOT
ATOM      1  C   UNL     1      28.362  -2.941  19.695  1.00  0.00     0.053 C 
ENDROOT
BRANCH   1   2
ATOM      2  C   UNL     1      29.198  -3.675  18.693  1.00  0.00     0.041 C 
ATOM      3  O   UNL     1      30.304  -3.201  18.319  1.00  0.00    -0.550 OA
ATOM      4  O   UNL     1      28.743  -4.869  18.147  1.00  0.00    -0.550 OA
ENDBRANCH   1   2
BRANCH   1   5
ATOM      5  C   UNL     1      28.871  -1.514  19.964  1.00  0.00     0.006 C 
BRANCH   5   6
ATOM      6  C   UNL     1      27.929  -0.410  19.453  1.00  0.00    -0.003 C 
ATOM      7  C   UNL     1      26.458  -0.681  19.763  1.00  0.00     0.004 C 
ENDBRANCH   5   6
ENDBRANCH   1   5
TORSDOF 3
ENDMDL
MODEL 6
REMARK VINA RESULT:    -4.745      1.390      1.990
REMARK INTER + INTRA:          -5.596
REMARK INTER:                  -5.521
REMARK INTRA:                  -0.075
REMARK UNBOUND:                -0.018
REMARK SMILES CCCCC(=O)[O-]
REMARK SMILES IDX 4 1 5 2 6 3 7 4 3 5 2 6 1 7
REMARK H PARENT
REMARK Flexibility Score: inf
ROOT
ATOM      1  C   UNL     1      28.088  -3.766  19.803  1.00  0.00     0.053 C 
ENDROOT
BRANCH   1   2
ATOM      2  C   UNL     1      28.893  -4.172  18.607  1.00  0.00     0.041 C 
ATOM      3  O   UNL     1      28.530  -5.147  17.897  1.00  0.00    -0.550 OA
ATOM      4  O   UNL     1      30.063  -3.492  18.291  1.00  0.00    -0.550 OA
ENDBRANCH   1   2
BRANCH   1   5
ATOM      5  C   UNL     1      26.849  -2.933  19.430  1.00  0.00     0.006 C 
BRANCH   5   6
ATOM      6  C   UNL     1      26.882  -1.492  19.970  1.00  0.00    -0.003 C 
ATOM      7  C   UNL     1      28.094  -0.696  19.487  1.00  0.00     0.004 C 
ENDBRANCH   5   6
ENDBRANCH   1   5
TORSDOF 3
ENDMDL
MODEL 7
REMARK VINA RESULT:    -4.605      2.075      2.671
REMARK INTER + INTRA:          -5.431
REMARK INTER:                  -5.379
REMARK INTRA:                  -0.053
REMARK UNBOUND:                -0.018
REMARK SMILES CCCCC(=O)[O-]
REMARK SMILES IDX 4 1 5 2 6 3 7 4 3 5 2 6 1 7
REMARK H PARENT
REMARK Flexibility Score: inf
ROOT
ATOM      1  C   UNL     1      27.861  -3.509  18.902  1.00  0.00     0.053 C 
ENDROOT
BRANCH   1   2
ATOM      2  C   UNL     1      28.837  -2.865  19.838  1.00  0.00     0.041 C 
ATOM      3  O   UNL     1      29.981  -3.365  20.007  1.00  0.00    -0.550 OA
ATOM      4  O   UNL     1      28.473  -1.728  20.549  1.00  0.00    -0.550 OA
ENDBRANCH   1   2
BRANCH   1   5
ATOM      5  C   UNL     1      27.624  -4.995  19.221  1.00  0.00     0.006 C 
BRANCH   5   6
ATOM      6  C   UNL     1      26.202  -5.306  19.722  1.00  0.00    -0.003 C 
ATOM      7  C   UNL     1      25.163  -4.288  19.254  1.00  0.00     0.004 C 
ENDBRANCH   5   6
ENDBRANCH   1   5
TORSDOF 3
ENDMDL
MODEL 8
REMARK VINA RESULT:    -4.429      1.642      2.239
REMARK INTER + INTRA:          -5.224
REMARK INTER:                  -5.202
REMARK INTRA:                  -0.022
REMARK UNBOUND:                -0.018
REMARK SMILES CCCCC(=O)[O-]
REMARK SMILES IDX 4 1 5 2 6 3 7 4 3 5 2 6 1 7
REMARK H PARENT
REMARK Flexibility Score: inf
ROOT
ATOM      1  C   UNL     1      26.760  -1.506  19.729  1.00  0.00     0.053 C 
ENDROOT
BRANCH   1   2
ATOM      2  C   UNL     1      28.166  -1.519  20.245  1.00  0.00     0.041 C 
ATOM      3  O   UNL     1      28.694  -0.460  20.679  1.00  0.00    -0.550 OA
ATOM      4  O   UNL     1      28.906  -2.694  20.220  1.00  0.00    -0.550 OA
ENDBRANCH   1   2
BRANCH   1   5
ATOM      5  C   UNL     1      26.098  -0.122  19.844  1.00  0.00     0.006 C 
BRANCH   5   6
ATOM      6  C   UNL     1      24.562  -0.157  19.755  1.00  0.00    -0.003 C 
ATOM      7  C   UNL     1      23.972   1.047  19.022  1.00  0.00     0.004 C 
ENDBRANCH   5   6
ENDBRANCH   1   5
TORSDOF 3
ENDMDL
MODEL 9
REMARK VINA RESULT:    -4.296      4.482      5.303
REMARK INTER + INTRA:          -5.068
REMARK INTER:                  -5.045
REMARK INTRA:                  -0.023
REMARK UNBOUND:                -0.018
REMARK SMILES CCCCC(=O)[O-]
REMARK SMILES IDX 4 1 5 2 6 3 7 4 3 5 2 6 1 7
REMARK H PARENT
REMARK Flexibility Score: inf
ROOT
ATOM      1  C   UNL     1      25.103  -5.912  19.789  1.00  0.00     0.053 C 
ENDROOT
BRANCH   1   2
ATOM      2  C   UNL     1      24.630  -7.227  20.328  1.00  0.00     0.041 C 
ATOM      3  O   UNL     1      25.459  -8.125  20.633  1.00  0.00    -0.550 OA
ATOM      4  O   UNL     1      23.269  -7.474  20.466  1.00  0.00    -0.550 OA
ENDBRANCH   1   2
BRANCH   1   5
ATOM      5  C   UNL     1      26.634  -5.766  19.837  1.00  0.00     0.006 C 
BRANCH   5   6
ATOM      6  C   UNL     1      27.193  -4.736  18.840  1.00  0.00    -0.003 C 
ATOM      7  C   UNL     1      28.125  -3.714  19.488  1.00  0.00     0.004 C 
ENDBRANCH   5   6
ENDBRANCH   1   5
TORSDOF 3
ENDMDL
