MODEL 1
REMARK VINA RESULT:    -6.968      0.000      0.000
REMARK INTER + INTRA:          -8.480
REMARK INTER:                  -8.190
REMARK INTRA:                  -0.290
REMARK UNBOUND:                -0.290
REMARK SMILES O=c1c(O)c(-c2ccc(O)cc2)oc2cc(O)cc(O)c12
REMARK SMILES IDX 5 1 3 2 2 3 1 4 21 5 19 6 18 7 16 8 15 9 14 10 13 11 6 12
REMARK SMILES IDX 7 13 8 14 9 15 12 16 11 17 10 18 4 20 20 22 17 24
REMARK H PARENT 10 19 4 21 20 23 17 25
REMARK Flexibility Score: inf
ROOT
ATOM      1  C   UNL     1      14.627  17.902  30.300  1.00  0.00     0.180 A 
ATOM      2  C   UNL     1      13.704  17.802  31.360  1.00  0.00     0.208 A 
ATOM      3  C   UNL     1      13.666  16.622  32.118  1.00  0.00     0.238 A 
ATOM      4  O   UNL     1      12.836  16.516  33.061  1.00  0.00    -0.285 OA
ATOM      5  C   UNL     1      14.561  15.573  31.820  1.00  0.00     0.111 A 
ATOM      6  C   UNL     1      14.591  14.353  32.539  1.00  0.00     0.134 A 
ATOM      7  C   UNL     1      15.519  13.361  32.187  1.00  0.00     0.093 A 
ATOM      8  C   UNL     1      16.415  13.565  31.136  1.00  0.00     0.123 A 
ATOM      9  C   UNL     1      16.390  14.768  30.422  1.00  0.00     0.094 A 
ATOM     10  C   UNL     1      15.472  15.767  30.756  1.00  0.00     0.146 A 
ATOM     11  O   UNL     1      15.466  16.899  30.060  1.00  0.00    -0.452 OA
ENDROOT
BRANCH   1  12
ATOM     12  C   UNL     1      14.715  19.106  29.444  1.00  0.00     0.021 A 
ATOM     13  C   UNL     1      13.901  19.204  28.303  1.00  0.00     0.016 A 
ATOM     14  C   UNL     1      13.950  20.343  27.494  1.00  0.00     0.047 A 
ATOM     15  C   UNL     1      14.801  21.403  27.821  1.00  0.00     0.115 A 
ATOM     16  C   UNL     1      15.554  20.185  29.780  1.00  0.00     0.016 A 
ATOM     17  C   UNL     1      15.601  21.323  28.968  1.00  0.00     0.047 A 
BRANCH  15  18
ATOM     18  O   UNL     1      14.841  22.531  27.005  1.00  0.00    -0.508 OA
ATOM     19  H   UNL     1      15.688  23.076  26.895  1.00  0.00     0.293 HD
ENDBRANCH  15  18
ENDBRANCH   1  12
BRANCH   2  20
ATOM     20  O   UNL     1      12.862  18.874  31.666  1.00  0.00    -0.502 OA
ATOM     21  H   UNL     1      12.994  19.797  31.271  1.00  0.00     0.293 HD
ENDBRANCH   2  20
BRANCH   6  22
ATOM     22  O   UNL     1      13.709  14.120  33.595  1.00  0.00    -0.507 OA
ATOM     23  H   UNL     1      12.748  13.842  33.434  1.00  0.00     0.293 HD
ENDBRANCH   6  22
BRANCH   8  24
ATOM     24  O   UNL     1      17.327  12.564  30.807  1.00  0.00    -0.508 OA
ATOM     25  H   UNL     1      18.282  12.782  30.547  1.00  0.00     0.293 HD
ENDBRANCH   8  24
TORSDOF 5
ENDMDL
MODEL 2
REMARK VINA RESULT:    -6.843      2.576      4.076
REMARK INTER + INTRA:          -8.333
REMARK INTER:                  -8.040
REMARK INTRA:                  -0.293
REMARK UNBOUND:                -0.290
REMARK SMILES O=c1c(O)c(-c2ccc(O)cc2)oc2cc(O)cc(O)c12
REMARK SMILES IDX 5 1 3 2 2 3 1 4 21 5 19 6 18 7 16 8 15 9 14 10 13 11 6 12
REMARK SMILES IDX 7 13 8 14 9 15 12 16 11 17 10 18 4 20 20 22 17 24
REMARK H PARENT 10 19 4 21 20 23 17 25
REMARK Flexibility Score: inf
ROOT
ATOM      1  C   UNL     1      15.520  21.106  30.048  1.00  0.00     0.180 A 
ATOM      2  C   UNL     1      14.155  21.036  29.705  1.00  0.00     0.208 A 
ATOM      3  C   UNL     1      13.478  19.819  29.868  1.00  0.00     0.238 A 
ATOM      4  O   UNL     1      12.258  19.740  29.554  1.00  0.00    -0.285 OA
ATOM      5  C   UNL     1      14.164  18.702  30.389  1.00  0.00     0.111 A 
ATOM      6  C   UNL     1      13.551  17.440  30.588  1.00  0.00     0.134 A 
ATOM      7  C   UNL     1      14.301  16.380  31.120  1.00  0.00     0.093 A 
ATOM      8  C   UNL     1      15.645  16.556  31.456  1.00  0.00     0.123 A 
ATOM      9  C   UNL     1      16.255  17.800  31.261  1.00  0.00     0.094 A 
ATOM     10  C   UNL     1      15.526  18.868  30.730  1.00  0.00     0.146 A 
ATOM     11  O   UNL     1      16.130  20.037  30.551  1.00  0.00    -0.452 OA
ENDROOT
BRANCH   1  12
ATOM     12  C   UNL     1      16.309  22.349  29.888  1.00  0.00     0.021 A 
ATOM     13  C   UNL     1      16.523  23.180  31.000  1.00  0.00     0.016 A 
ATOM     14  C   UNL     1      17.284  24.347  30.876  1.00  0.00     0.047 A 
ATOM     15  C   UNL     1      17.853  24.689  29.646  1.00  0.00     0.115 A 
ATOM     16  C   UNL     1      16.902  22.687  28.657  1.00  0.00     0.016 A 
ATOM     17  C   UNL     1      17.663  23.854  28.536  1.00  0.00     0.047 A 
BRANCH  15  18
ATOM     18  O   UNL     1      18.609  25.854  29.536  1.00  0.00    -0.508 OA
ATOM     19  H   UNL     1      18.384  26.683  30.073  1.00  0.00     0.293 HD
ENDBRANCH  15  18
ENDBRANCH   1  12
BRANCH   2  20
ATOM     20  O   UNL     1      13.486  22.170  29.238  1.00  0.00    -0.502 OA
ATOM     21  H   UNL     1      13.622  23.086  29.646  1.00  0.00     0.293 HD
ENDBRANCH   2  20
BRANCH   6  22
ATOM     22  O   UNL     1      12.211  17.234  30.263  1.00  0.00    -0.507 OA
ATOM     23  H   UNL     1      11.596  16.692  30.859  1.00  0.00     0.293 HD
ENDBRANCH   6  22
BRANCH   8  24
ATOM     24  O   UNL     1      16.367  15.487  31.983  1.00  0.00    -0.508 OA
ATOM     25  H   UNL     1      17.370  15.538  32.116  1.00  0.00     0.293 HD
ENDBRANCH   8  24
TORSDOF 5
ENDMDL
MODEL 3
REMARK VINA RESULT:    -6.792      1.794      6.804
REMARK INTER + INTRA:          -8.274
REMARK INTER:                  -7.997
REMARK INTRA:                  -0.277
REMARK UNBOUND:                -0.290
REMARK SMILES O=c1c(O)c(-c2ccc(O)cc2)oc2cc(O)cc(O)c12
REMARK SMILES IDX 5 1 3 2 2 3 1 4 21 5 19 6 18 7 16 8 15 9 14 10 13 11 6 12
REMARK SMILES IDX 7 13 8 14 9 15 12 16 11 17 10 18 4 20 20 22 17 24
REMARK H PARENT 10 19 4 21 20 23 17 25
REMARK Flexibility Score: inf
ROOT
ATOM      1  C   UNL     1      14.790  18.509  30.420  1.00  0.00     0.180 A 
ATOM      2  C   UNL     1      13.840  19.011  29.508  1.00  0.00     0.208 A 
ATOM      3  C   UNL     1      14.162  20.149  28.752  1.00  0.00     0.238 A 
ATOM      4  O   UNL     1      13.316  20.615  27.941  1.00  0.00    -0.285 OA
ATOM      5  C   UNL     1      15.428  20.751  28.902  1.00  0.00     0.111 A 
ATOM      6  C   UNL     1      15.832  21.897  28.175  1.00  0.00     0.134 A 
ATOM      7  C   UNL     1      17.114  22.431  28.374  1.00  0.00     0.093 A 
ATOM      8  C   UNL     1      17.997  21.843  29.283  1.00  0.00     0.123 A 
ATOM      9  C   UNL     1      17.604  20.712  30.005  1.00  0.00     0.094 A 
ATOM     10  C   UNL     1      16.330  20.166  29.822  1.00  0.00     0.146 A 
ATOM     11  O   UNL     1      15.979  19.094  30.522  1.00  0.00    -0.452 OA
ENDROOT
BRANCH   1  12
ATOM     12  C   UNL     1      14.518  17.325  31.266  1.00  0.00     0.021 A 
ATOM     13  C   UNL     1      13.789  17.479  32.457  1.00  0.00     0.016 A 
ATOM     14  C   UNL     1      13.501  16.371  33.260  1.00  0.00     0.047 A 
ATOM     15  C   UNL     1      13.923  15.095  32.875  1.00  0.00     0.115 A 
ATOM     16  C   UNL     1      14.922  16.035  30.874  1.00  0.00     0.016 A 
ATOM     17  C   UNL     1      14.632  14.929  31.678  1.00  0.00     0.047 A 
BRANCH  15  18
ATOM     18  O   UNL     1      13.629  14.000  33.684  1.00  0.00    -0.508 OA
ATOM     19  H   UNL     1      14.282  13.233  33.795  1.00  0.00     0.293 HD
ENDBRANCH  15  18
ENDBRANCH   1  12
BRANCH   2  20
ATOM     20  O   UNL     1      12.611  18.368  29.342  1.00  0.00    -0.502 OA
ATOM     21  H   UNL     1      11.811  18.826  28.924  1.00  0.00     0.293 HD
ENDBRANCH   2  20
BRANCH   6  22
ATOM     22  O   UNL     1      14.974  22.505  27.259  1.00  0.00    -0.507 OA
ATOM     23  H   UNL     1      13.977  22.579  27.432  1.00  0.00     0.293 HD
ENDBRANCH   6  22
BRANCH   8  24
ATOM     24  O   UNL     1      19.265  22.394  29.462  1.00  0.00    -0.508 OA
ATOM     25  H   UNL     1      19.400  23.393  29.560  1.00  0.00     0.293 HD
ENDBRANCH   8  24
TORSDOF 5
ENDMDL
MODEL 4
REMARK VINA RESULT:    -6.724      6.603     11.268
REMARK INTER + INTRA:          -8.194
REMARK INTER:                  -7.903
REMARK INTRA:                  -0.290
REMARK UNBOUND:                -0.290
REMARK SMILES O=c1c(O)c(-c2ccc(O)cc2)oc2cc(O)cc(O)c12
REMARK SMILES IDX 5 1 3 2 2 3 1 4 21 5 19 6 18 7 16 8 15 9 14 10 13 11 6 12
REMARK SMILES IDX 7 13 8 14 9 15 12 16 11 17 10 18 4 20 20 22 17 24
REMARK H PARENT 10 19 4 21 20 23 17 25
REMARK Flexibility Score: inf
ROOT
ATOM      1  C   UNL     1      18.416  25.014  30.367  1.00  0.00     0.180 A 
ATOM      2  C   UNL     1      19.537  25.107  31.216  1.00  0.00     0.208 A 
ATOM      3  C   UNL     1      20.157  26.354  31.385  1.00  0.00     0.238 A 
ATOM      4  O   UNL     1      21.169  26.447  32.132  1.00  0.00    -0.285 OA
ATOM      5  C   UNL     1      19.639  27.486  30.724  1.00  0.00     0.111 A 
ATOM      6  C   UNL     1      20.203  28.780  30.845  1.00  0.00     0.134 A 
ATOM      7  C   UNL     1      19.621  29.859  30.162  1.00  0.00     0.093 A 
ATOM      8  C   UNL     1      18.491  29.671  29.364  1.00  0.00     0.123 A 
ATOM      9  C   UNL     1      17.929  28.395  29.241  1.00  0.00     0.094 A 
ATOM     10  C   UNL     1      18.495  27.307  29.911  1.00  0.00     0.146 A 
ATOM     11  O   UNL     1      17.945  26.106  29.773  1.00  0.00    -0.452 OA
ENDROOT
BRANCH   1  12
ATOM     12  C   UNL     1      17.718  23.731  30.123  1.00  0.00     0.021 A 
ATOM     13  C   UNL     1      16.681  23.334  30.983  1.00  0.00     0.016 A 
ATOM     14  C   UNL     1      15.992  22.137  30.758  1.00  0.00     0.047 A 
ATOM     15  C   UNL     1      16.322  21.332  29.664  1.00  0.00     0.115 A 
ATOM     16  C   UNL     1      18.031  22.926  29.012  1.00  0.00     0.016 A 
ATOM     17  C   UNL     1      17.341  21.730  28.789  1.00  0.00     0.047 A 
BRANCH  15  18
ATOM     18  O   UNL     1      15.629  20.142  29.451  1.00  0.00    -0.508 OA
ATOM     19  H   UNL     1      14.894  19.837  30.080  1.00  0.00     0.293 HD
ENDBRANCH  15  18
ENDBRANCH   1  12
BRANCH   2  20
ATOM     20  O   UNL     1      20.002  23.979  31.897  1.00  0.00    -0.502 OA
ATOM     21  H   UNL     1      19.847  23.038  31.558  1.00  0.00     0.293 HD
ENDBRANCH   2  20
BRANCH   6  22
ATOM     22  O   UNL     1      21.331  29.000  31.635  1.00  0.00    -0.507 OA
ATOM     23  H   UNL     1      21.680  28.293  32.274  1.00  0.00     0.293 HD
ENDBRANCH   6  22
BRANCH   8  24
ATOM     24  O   UNL     1      17.932  30.759  28.697  1.00  0.00    -0.508 OA
ATOM     25  H   UNL     1      17.535  30.666  27.770  1.00  0.00     0.293 HD
ENDBRANCH   8  24
TORSDOF 5
ENDMDL
MODEL 5
REMARK VINA RESULT:    -6.713     11.482     14.386
REMARK INTER + INTRA:          -8.181
REMARK INTER:                  -7.891
REMARK INTRA:                  -0.290
REMARK UNBOUND:                -0.290
REMARK SMILES O=c1c(O)c(-c2ccc(O)cc2)oc2cc(O)cc(O)c12
REMARK SMILES IDX 5 1 3 2 2 3 1 4 21 5 19 6 18 7 16 8 15 9 14 10 13 11 6 12
REMARK SMILES IDX 7 13 8 14 9 15 12 16 11 17 10 18 4 20 20 22 17 24
REMARK H PARENT 10 19 4 21 20 23 17 25
REMARK Flexibility Score: inf
ROOT
ATOM      1  C   UNL     1       6.330  19.498  21.372  1.00  0.00     0.180 A 
ATOM      2  C   UNL     1       6.161  19.475  19.973  1.00  0.00     0.208 A 
ATOM      3  C   UNL     1       6.581  20.582  19.222  1.00  0.00     0.238 A 
ATOM      4  O   UNL     1       6.425  20.579  17.970  1.00  0.00    -0.285 OA
ATOM      5  C   UNL     1       7.180  21.681  19.872  1.00  0.00     0.111 A 
ATOM      6  C   UNL     1       7.635  22.834  19.187  1.00  0.00     0.134 A 
ATOM      7  C   UNL     1       8.229  23.881  19.907  1.00  0.00     0.093 A 
ATOM      8  C   UNL     1       8.378  23.799  21.293  1.00  0.00     0.123 A 
ATOM      9  C   UNL     1       7.930  22.663  21.975  1.00  0.00     0.094 A 
ATOM     10  C   UNL     1       7.334  21.609  21.277  1.00  0.00     0.146 A 
ATOM     11  O   UNL     1       6.913  20.544  21.949  1.00  0.00    -0.452 OA
ENDROOT
BRANCH   1  12
ATOM     12  C   UNL     1       5.895  18.376  22.235  1.00  0.00     0.021 A 
ATOM     13  C   UNL     1       4.590  18.370  22.755  1.00  0.00     0.016 A 
ATOM     14  C   UNL     1       4.151  17.309  23.554  1.00  0.00     0.047 A 
ATOM     15  C   UNL     1       5.003  16.236  23.829  1.00  0.00     0.115 A 
ATOM     16  C   UNL     1       6.741  17.283  22.499  1.00  0.00     0.016 A 
ATOM     17  C   UNL     1       6.299  16.224  23.297  1.00  0.00     0.047 A 
BRANCH  15  18
ATOM     18  O   UNL     1       4.553  15.186  24.626  1.00  0.00    -0.508 OA
ATOM     19  H   UNL     1       4.566  14.228  24.297  1.00  0.00     0.293 HD
ENDBRANCH  15  18
ENDBRANCH   1  12
BRANCH   2  20
ATOM     20  O   UNL     1       5.610  18.354  19.347  1.00  0.00    -0.502 OA
ATOM     21  H   UNL     1       5.902  17.411  19.569  1.00  0.00     0.293 HD
ENDBRANCH   2  20
BRANCH   6  22
ATOM     22  O   UNL     1       7.502  22.945  17.803  1.00  0.00    -0.507 OA
ATOM     23  H   UNL     1       6.657  23.308  17.377  1.00  0.00     0.293 HD
ENDBRANCH   6  22
BRANCH   8  24
ATOM     24  O   UNL     1       8.972  24.853  21.983  1.00  0.00    -0.508 OA
ATOM     25  H   UNL     1       9.688  25.430  21.557  1.00  0.00     0.293 HD
ENDBRANCH   8  24
TORSDOF 5
ENDMDL
MODEL 6
REMARK VINA RESULT:    -6.693      2.560      3.338
REMARK INTER + INTRA:          -8.158
REMARK INTER:                  -7.861
REMARK INTRA:                  -0.297
REMARK UNBOUND:                -0.290
REMARK SMILES O=c1c(O)c(-c2ccc(O)cc2)oc2cc(O)cc(O)c12
REMARK SMILES IDX 5 1 3 2 2 3 1 4 21 5 19 6 18 7 16 8 15 9 14 10 13 11 6 12
REMARK SMILES IDX 7 13 8 14 9 15 12 16 11 17 10 18 4 20 20 22 17 24
REMARK H PARENT 10 19 4 21 20 23 17 25
REMARK Flexibility Score: inf
ROOT
ATOM      1  C   UNL     1      14.208  18.741  31.311  1.00  0.00     0.180 A 
ATOM      2  C   UNL     1      15.609  18.874  31.227  1.00  0.00     0.208 A 
ATOM      3  C   UNL     1      16.419  17.905  31.838  1.00  0.00     0.238 A 
ATOM      4  O   UNL     1      17.674  18.019  31.780  1.00  0.00    -0.285 OA
ATOM      5  C   UNL     1      15.822  16.813  32.501  1.00  0.00     0.111 A 
ATOM      6  C   UNL     1      16.568  15.792  33.139  1.00  0.00     0.134 A 
ATOM      7  C   UNL     1      15.899  14.732  33.770  1.00  0.00     0.093 A 
ATOM      8  C   UNL     1      14.503  14.674  33.775  1.00  0.00     0.123 A 
ATOM      9  C   UNL     1      13.761  15.680  33.148  1.00  0.00     0.094 A 
ATOM     10  C   UNL     1      14.410  16.745  32.516  1.00  0.00     0.146 A 
ATOM     11  O   UNL     1      13.681  17.689  31.931  1.00  0.00    -0.452 OA
ENDROOT
BRANCH   1  12
ATOM     12  C   UNL     1      13.287  19.731  30.709  1.00  0.00     0.021 A 
ATOM     13  C   UNL     1      12.822  19.534  29.397  1.00  0.00     0.016 A 
ATOM     14  C   UNL     1      11.933  20.444  28.817  1.00  0.00     0.047 A 
ATOM     15  C   UNL     1      11.486  21.551  29.543  1.00  0.00     0.115 A 
ATOM     16  C   UNL     1      12.816  20.835  31.442  1.00  0.00     0.016 A 
ATOM     17  C   UNL     1      11.927  21.744  30.859  1.00  0.00     0.047 A 
BRANCH  15  18
ATOM     18  O   UNL     1      10.600  22.450  28.953  1.00  0.00    -0.508 OA
ATOM     19  H   UNL     1      10.179  23.204  29.483  1.00  0.00     0.293 HD
ENDBRANCH  15  18
ENDBRANCH   1  12
BRANCH   2  20
ATOM     20  O   UNL     1      16.176  19.938  30.522  1.00  0.00    -0.502 OA
ATOM     21  H   UNL     1      15.624  20.712  30.173  1.00  0.00     0.293 HD
ENDBRANCH   2  20
BRANCH   6  22
ATOM     22  O   UNL     1      17.963  15.822  33.149  1.00  0.00    -0.507 OA
ATOM     23  H   UNL     1      18.488  15.851  34.015  1.00  0.00     0.293 HD
ENDBRANCH   6  22
BRANCH   8  24
ATOM     24  O   UNL     1      13.863  13.610  34.409  1.00  0.00    -0.508 OA
ATOM     25  H   UNL     1      12.942  13.713  34.817  1.00  0.00     0.293 HD
ENDBRANCH   8  24
TORSDOF 5
ENDMDL
MODEL 7
REMARK VINA RESULT:    -6.683      2.903      7.232
REMARK INTER + INTRA:          -8.145
REMARK INTER:                  -7.847
REMARK INTRA:                  -0.298
REMARK UNBOUND:                -0.290
REMARK SMILES O=c1c(O)c(-c2ccc(O)cc2)oc2cc(O)cc(O)c12
REMARK SMILES IDX 5 1 3 2 2 3 1 4 21 5 19 6 18 7 16 8 15 9 14 10 13 11 6 12
REMARK SMILES IDX 7 13 8 14 9 15 12 16 11 17 10 18 4 20 20 22 17 24
REMARK H PARENT 10 19 4 21 20 23 17 25
REMARK Flexibility Score: inf
ROOT
ATOM      1  C   UNL     1      16.619  18.890  31.326  1.00  0.00     0.180 A 
ATOM      2  C   UNL     1      15.443  19.162  30.597  1.00  0.00     0.208 A 
ATOM      3  C   UNL     1      15.443  20.227  29.685  1.00  0.00     0.238 A 
ATOM      4  O   UNL     1      14.394  20.488  29.035  1.00  0.00    -0.285 OA
ATOM      5  C   UNL     1      16.616  20.987  29.500  1.00  0.00     0.111 A 
ATOM      6  C   UNL     1      16.700  22.075  28.596  1.00  0.00     0.134 A 
ATOM      7  C   UNL     1      17.908  22.776  28.462  1.00  0.00     0.093 A 
ATOM      8  C   UNL     1      19.030  22.413  29.210  1.00  0.00     0.123 A 
ATOM      9  C   UNL     1      18.953  21.340  30.105  1.00  0.00     0.094 A 
ATOM     10  C   UNL     1      17.758  20.630  30.254  1.00  0.00     0.146 A 
ATOM     11  O   UNL     1      17.710  19.618  31.113  1.00  0.00    -0.452 OA
ENDROOT
BRANCH   1  12
ATOM     12  C   UNL     1      16.692  17.795  32.320  1.00  0.00     0.021 A 
ATOM     13  C   UNL     1      17.163  16.532  31.923  1.00  0.00     0.016 A 
ATOM     14  C   UNL     1      17.263  15.490  32.851  1.00  0.00     0.047 A 
ATOM     15  C   UNL     1      16.909  15.701  34.186  1.00  0.00     0.115 A 
ATOM     16  C   UNL     1      16.357  18.007  33.670  1.00  0.00     0.016 A 
ATOM     17  C   UNL     1      16.458  16.963  34.595  1.00  0.00     0.047 A 
BRANCH  15  18
ATOM     18  O   UNL     1      17.013  14.654  35.100  1.00  0.00    -0.508 OA
ATOM     19  H   UNL     1      16.209  14.323  35.620  1.00  0.00     0.293 HD
ENDBRANCH  15  18
ENDBRANCH   1  12
BRANCH   2  20
ATOM     20  O   UNL     1      14.309  18.363  30.763  1.00  0.00    -0.502 OA
ATOM     21  H   UNL     1      14.155  17.522  30.221  1.00  0.00     0.293 HD
ENDBRANCH   2  20
BRANCH   6  22
ATOM     22  O   UNL     1      15.598  22.462  27.834  1.00  0.00    -0.507 OA
ATOM     23  H   UNL     1      14.658  22.158  28.064  1.00  0.00     0.293 HD
ENDBRANCH   6  22
BRANCH   8  24
ATOM     24  O   UNL     1      20.217  23.125  29.058  1.00  0.00    -0.508 OA
ATOM     25  H   UNL     1      20.300  24.089  29.359  1.00  0.00     0.293 HD
ENDBRANCH   8  24
TORSDOF 5
ENDMDL
MODEL 8
REMARK VINA RESULT:    -6.646      3.351      6.940
REMARK INTER + INTRA:          -8.102
REMARK INTER:                  -7.858
REMARK INTRA:                  -0.244
REMARK UNBOUND:                -0.290
REMARK SMILES O=c1c(O)c(-c2ccc(O)cc2)oc2cc(O)cc(O)c12
REMARK SMILES IDX 5 1 3 2 2 3 1 4 21 5 19 6 18 7 16 8 15 9 14 10 13 11 6 12
REMARK SMILES IDX 7 13 8 14 9 15 12 16 11 17 10 18 4 20 20 22 17 24
REMARK H PARENT 10 19 4 21 20 23 17 25
REMARK Flexibility Score: inf
ROOT
ATOM      1  C   UNL     1      15.352  20.576  29.735  1.00  0.00     0.180 A 
ATOM      2  C   UNL     1      14.872  21.371  30.795  1.00  0.00     0.208 A 
ATOM      3  C   UNL     1      15.618  22.490  31.195  1.00  0.00     0.238 A 
ATOM      4  O   UNL     1      15.205  23.202  32.150  1.00  0.00    -0.285 OA
ATOM      5  C   UNL     1      16.814  22.808  30.519  1.00  0.00     0.111 A 
ATOM      6  C   UNL     1      17.623  23.922  30.858  1.00  0.00     0.134 A 
ATOM      7  C   UNL     1      18.795  24.176  30.130  1.00  0.00     0.093 A 
ATOM      8  C   UNL     1      19.173  23.344  29.075  1.00  0.00     0.123 A 
ATOM      9  C   UNL     1      18.380  22.243  28.736  1.00  0.00     0.094 A 
ATOM     10  C   UNL     1      17.209  21.971  29.450  1.00  0.00     0.146 A 
ATOM     11  O   UNL     1      16.476  20.917  29.111  1.00  0.00    -0.452 OA
ENDROOT
BRANCH   1  12
ATOM     12  C   UNL     1      14.632  19.370  29.268  1.00  0.00     0.021 A 
ATOM     13  C   UNL     1      13.966  19.399  28.031  1.00  0.00     0.016 A 
ATOM     14  C   UNL     1      13.299  18.263  27.560  1.00  0.00     0.047 A 
ATOM     15  C   UNL     1      13.302  17.083  28.309  1.00  0.00     0.115 A 
ATOM     16  C   UNL     1      14.650  18.173  30.007  1.00  0.00     0.016 A 
ATOM     17  C   UNL     1      13.982  17.040  29.533  1.00  0.00     0.047 A 
BRANCH  15  18
ATOM     18  O   UNL     1      12.634  15.960  27.827  1.00  0.00    -0.508 OA
ATOM     19  H   UNL     1      11.630  15.860  27.923  1.00  0.00     0.293 HD
ENDBRANCH  15  18
ENDBRANCH   1  12
BRANCH   2  20
ATOM     20  O   UNL     1      13.659  21.062  31.415  1.00  0.00    -0.502 OA
ATOM     21  H   UNL     1      13.213  20.159  31.315  1.00  0.00     0.293 HD
ENDBRANCH   2  20
BRANCH   6  22
ATOM     22  O   UNL     1      17.270  24.772  31.906  1.00  0.00    -0.507 OA
ATOM     23  H   UNL     1      17.483  25.763  31.882  1.00  0.00     0.293 HD
ENDBRANCH   6  22
BRANCH   8  24
ATOM     24  O   UNL     1      20.342  23.620  28.368  1.00  0.00    -0.508 OA
ATOM     25  H   UNL     1      20.349  24.264  27.586  1.00  0.00     0.293 HD
ENDBRANCH   8  24
TORSDOF 5
ENDMDL
MODEL 9
REMARK VINA RESULT:    -6.620      4.146      5.736
REMARK INTER + INTRA:          -8.072
REMARK INTER:                  -7.789
REMARK INTRA:                  -0.283
REMARK UNBOUND:                -0.290
REMARK SMILES O=c1c(O)c(-c2ccc(O)cc2)oc2cc(O)cc(O)c12
REMARK SMILES IDX 5 1 3 2 2 3 1 4 21 5 19 6 18 7 16 8 15 9 14 10 13 11 6 12
REMARK SMILES IDX 7 13 8 14 9 15 12 16 11 17 10 18 4 20 20 22 17 24
REMARK H PARENT 10 19 4 21 20 23 17 25
REMARK Flexibility Score: inf
ROOT
ATOM      1  C   UNL     1      13.347  19.155  29.047  1.00  0.00     0.180 A 
ATOM      2  C   UNL     1      12.356  20.134  29.259  1.00  0.00     0.208 A 
ATOM      3  C   UNL     1      12.529  21.058  30.301  1.00  0.00     0.238 A 
ATOM      4  O   UNL     1      11.643  21.932  30.508  1.00  0.00    -0.285 OA
ATOM      5  C   UNL     1      13.691  21.003  31.096  1.00  0.00     0.111 A 
ATOM      6  C   UNL     1      13.943  21.900  32.164  1.00  0.00     0.134 A 
ATOM      7  C   UNL     1      15.130  21.785  32.903  1.00  0.00     0.093 A 
ATOM      8  C   UNL     1      16.067  20.796  32.598  1.00  0.00     0.123 A 
ATOM      9  C   UNL     1      15.824  19.907  31.545  1.00  0.00     0.094 A 
ATOM     10  C   UNL     1      14.646  20.003  30.798  1.00  0.00     0.146 A 
ATOM     11  O   UNL     1      14.438  19.144  29.807  1.00  0.00    -0.452 OA
ENDROOT
BRANCH   1  12
ATOM     12  C   UNL     1      13.229  18.134  27.980  1.00  0.00     0.021 A 
ATOM     13  C   UNL     1      13.950  18.297  26.786  1.00  0.00     0.016 A 
ATOM     14  C   UNL     1      13.872  17.333  25.775  1.00  0.00     0.047 A 
ATOM     15  C   UNL     1      13.085  16.191  25.950  1.00  0.00     0.115 A 
ATOM     16  C   UNL     1      12.456  16.973  28.160  1.00  0.00     0.016 A 
ATOM     17  C   UNL     1      12.379  16.011  27.147  1.00  0.00     0.047 A 
BRANCH  15  18
ATOM     18  O   UNL     1      13.016  15.240  24.935  1.00  0.00    -0.508 OA
ATOM     19  H   UNL     1      12.283  14.541  24.914  1.00  0.00     0.293 HD
ENDBRANCH  15  18
ENDBRANCH   1  12
BRANCH   2  20
ATOM     20  O   UNL     1      11.237  20.198  28.425  1.00  0.00    -0.502 OA
ATOM     21  H   UNL     1      10.291  20.156  28.783  1.00  0.00     0.293 HD
ENDBRANCH   2  20
BRANCH   6  22
ATOM     22  O   UNL     1      13.027  22.899  32.492  1.00  0.00    -0.507 OA
ATOM     23  H   UNL     1      12.035  22.790  32.317  1.00  0.00     0.293 HD
ENDBRANCH   6  22
BRANCH   8  24
ATOM     24  O   UNL     1      17.238  20.704  33.348  1.00  0.00    -0.508 OA
ATOM     25  H   UNL     1      17.252  20.921  34.337  1.00  0.00     0.293 HD
ENDBRANCH   8  24
TORSDOF 5
ENDMDL
