MODEL 1
REMARK VINA RESULT:    -4.178      0.000      0.000
REMARK INTER + INTRA:          -4.423
REMARK INTER:                  -4.423
REMARK INTRA:                   0.000
REMARK UNBOUND:                 0.000
REMARK SMILES O=c1ccc2cc(O)c(O)cc2o1
REMARK SMILES IDX 4 1 3 2 2 3 1 4 13 5 12 6 11 7 9 8 7 9 6 10 5 11 8 12 10 14
REMARK H PARENT 8 13 10 15
REMARK Flexibility Score: inf
ROOT
ATOM      1  C   UNL     1      20.183  -1.787 -25.605  1.00  0.00     0.019 A 
ATOM      2  C   UNL     1      21.227  -1.629 -24.695  1.00  0.00     0.094 A 
ATOM      3  C   UNL     1      21.712  -0.342 -24.435  1.00  0.00     0.336 A 
ATOM      4  O   UNL     1      22.654  -0.178 -23.617  1.00  0.00    -0.246 OA
ATOM      5  O   UNL     1      21.182   0.713 -25.049  1.00  0.00    -0.423 OA
ATOM      6  C   UNL     1      20.184   0.606 -25.923  1.00  0.00     0.142 A 
ATOM      7  C   UNL     1      19.666   1.752 -26.536  1.00  0.00     0.098 A 
ATOM      8  C   UNL     1      18.614   1.646 -27.459  1.00  0.00     0.161 A 
ATOM      9  C   UNL     1      18.078   0.383 -27.768  1.00  0.00     0.158 A 
ATOM     10  C   UNL     1      18.594  -0.765 -27.156  1.00  0.00     0.062 A 
ATOM     11  C   UNL     1      19.644  -0.660 -26.234  1.00  0.00     0.022 A 
ENDROOT
BRANCH   9  12
ATOM     12  O   UNL     1      17.032   0.249 -28.681  1.00  0.00    -0.504 OA
ATOM     13  H   UNL     1      16.170   0.773 -28.591  1.00  0.00     0.293 HD
ENDBRANCH   9  12
BRANCH   8  14
ATOM     14  O   UNL     1      18.101   2.791 -28.067  1.00  0.00    -0.504 OA
ATOM     15  H   UNL     1      17.149   2.827 -28.412  1.00  0.00     0.293 HD
ENDBRANCH   8  14
TORSDOF 2
ENDMDL
MODEL 2
REMARK VINA RESULT:    -4.094      2.351      2.695
REMARK INTER + INTRA:          -4.334
REMARK INTER:                  -4.334
REMARK INTRA:                   0.000
REMARK UNBOUND:                 0.000
REMARK SMILES O=c1ccc2cc(O)c(O)cc2o1
REMARK SMILES IDX 4 1 3 2 2 3 1 4 13 5 12 6 11 7 9 8 7 9 6 10 5 11 8 12 10 14
REMARK H PARENT 8 13 10 15
REMARK Flexibility Score: inf
ROOT
ATOM      1  C   UNL     1      20.410   1.662 -25.275  1.00  0.00     0.019 A 
ATOM      2  C   UNL     1      21.722   2.088 -25.077  1.00  0.00     0.094 A 
ATOM      3  C   UNL     1      22.524   2.361 -26.192  1.00  0.00     0.336 A 
ATOM      4  O   UNL     1      23.711   2.745 -26.033  1.00  0.00    -0.246 OA
ATOM      5  O   UNL     1      22.037   2.215 -27.422  1.00  0.00    -0.423 OA
ATOM      6  C   UNL     1      20.791   1.812 -27.655  1.00  0.00     0.142 A 
ATOM      7  C   UNL     1      20.334   1.678 -28.970  1.00  0.00     0.098 A 
ATOM      8  C   UNL     1      19.021   1.254 -29.224  1.00  0.00     0.161 A 
ATOM      9  C   UNL     1      18.159   0.962 -28.151  1.00  0.00     0.158 A 
ATOM     10  C   UNL     1      18.613   1.095 -26.833  1.00  0.00     0.062 A 
ATOM     11  C   UNL     1      19.925   1.520 -26.580  1.00  0.00     0.022 A 
ENDROOT
BRANCH   9  12
ATOM     12  O   UNL     1      16.849   0.539 -28.374  1.00  0.00    -0.504 OA
ATOM     13  H   UNL     1      16.050   1.073 -28.054  1.00  0.00     0.293 HD
ENDBRANCH   9  12
BRANCH   8  14
ATOM     14  O   UNL     1      18.570   1.121 -30.536  1.00  0.00    -0.504 OA
ATOM     15  H   UNL     1      19.215   1.053 -31.315  1.00  0.00     0.293 HD
ENDBRANCH   8  14
TORSDOF 2
ENDMDL
MODEL 3
REMARK VINA RESULT:    -4.011      9.191     10.573
REMARK INTER + INTRA:          -4.246
REMARK INTER:                  -4.246
REMARK INTRA:                   0.000
REMARK UNBOUND:                 0.000
REMARK SMILES O=c1ccc2cc(O)c(O)cc2o1
REMARK SMILES IDX 4 1 3 2 2 3 1 4 13 5 12 6 11 7 9 8 7 9 6 10 5 11 8 12 10 14
REMARK H PARENT 8 13 10 15
REMARK Flexibility Score: inf
ROOT
ATOM      1  C   UNL     1      25.359  -3.743 -33.384  1.00  0.00     0.019 A 
ATOM      2  C   UNL     1      24.362  -2.992 -34.005  1.00  0.00     0.094 A 
ATOM      3  C   UNL     1      23.027  -3.394 -33.874  1.00  0.00     0.336 A 
ATOM      4  O   UNL     1      22.114  -2.729 -34.428  1.00  0.00    -0.246 OA
ATOM      5  O   UNL     1      22.718  -4.478 -33.167  1.00  0.00    -0.423 OA
ATOM      6  C   UNL     1      23.638  -5.222 -32.558  1.00  0.00     0.142 A 
ATOM      7  C   UNL     1      23.252  -6.350 -31.827  1.00  0.00     0.098 A 
ATOM      8  C   UNL     1      24.217  -7.140 -31.183  1.00  0.00     0.161 A 
ATOM      9  C   UNL     1      25.578  -6.795 -31.272  1.00  0.00     0.158 A 
ATOM     10  C   UNL     1      25.967  -5.666 -32.002  1.00  0.00     0.062 A 
ATOM     11  C   UNL     1      25.003  -4.877 -32.646  1.00  0.00     0.022 A 
ENDROOT
BRANCH   9  12
ATOM     12  O   UNL     1      26.557  -7.561 -30.642  1.00  0.00    -0.504 OA
ATOM     13  H   UNL     1      26.603  -8.568 -30.747  1.00  0.00     0.293 HD
ENDBRANCH   9  12
BRANCH   8  14
ATOM     14  O   UNL     1      23.828  -8.264 -30.456  1.00  0.00    -0.504 OA
ATOM     15  H   UNL     1      24.456  -8.717 -29.802  1.00  0.00     0.293 HD
ENDBRANCH   8  14
TORSDOF 2
ENDMDL
MODEL 4
REMARK VINA RESULT:    -4.004      1.164      2.391
REMARK INTER + INTRA:          -4.238
REMARK INTER:                  -4.238
REMARK INTRA:                   0.000
REMARK UNBOUND:                 0.000
REMARK SMILES O=c1ccc2cc(O)c(O)cc2o1
REMARK SMILES IDX 4 1 3 2 2 3 1 4 13 5 12 6 11 7 9 8 7 9 6 10 5 11 8 12 10 14
REMARK H PARENT 8 13 10 15
REMARK Flexibility Score: inf
ROOT
ATOM      1  C   UNL     1      20.496   1.903 -25.505  1.00  0.00     0.019 A 
ATOM      2  C   UNL     1      21.609   1.473 -24.784  1.00  0.00     0.094 A 
ATOM      3  C   UNL     1      21.963   0.119 -24.822  1.00  0.00     0.336 A 
ATOM      4  O   UNL     1      22.963  -0.288 -24.177  1.00  0.00    -0.246 OA
ATOM      5  O   UNL     1      21.245  -0.743 -25.539  1.00  0.00    -0.423 OA
ATOM      6  C   UNL     1      20.178  -0.374 -26.243  1.00  0.00     0.142 A 
ATOM      7  C   UNL     1      19.464  -1.325 -26.979  1.00  0.00     0.098 A 
ATOM      8  C   UNL     1      18.337  -0.944 -27.723  1.00  0.00     0.161 A 
ATOM      9  C   UNL     1      17.923   0.400 -27.729  1.00  0.00     0.158 A 
ATOM     10  C   UNL     1      18.637   1.355 -26.994  1.00  0.00     0.062 A 
ATOM     11  C   UNL     1      19.763   0.974 -26.251  1.00  0.00     0.022 A 
ENDROOT
BRANCH   9  12
ATOM     12  O   UNL     1      16.808   0.807 -28.460  1.00  0.00    -0.504 OA
ATOM     13  H   UNL     1      16.302   0.173 -29.067  1.00  0.00     0.293 HD
ENDBRANCH   9  12
BRANCH   8  14
ATOM     14  O   UNL     1      17.628  -1.896 -28.454  1.00  0.00    -0.504 OA
ATOM     15  H   UNL     1      16.654  -1.759 -28.701  1.00  0.00     0.293 HD
ENDBRANCH   8  14
TORSDOF 2
ENDMDL
MODEL 5
REMARK VINA RESULT:    -3.998      9.273     10.510
REMARK INTER + INTRA:          -4.232
REMARK INTER:                  -4.232
REMARK INTRA:                   0.000
REMARK UNBOUND:                 0.000
REMARK SMILES O=c1ccc2cc(O)c(O)cc2o1
REMARK SMILES IDX 4 1 3 2 2 3 1 4 13 5 12 6 11 7 9 8 7 9 6 10 5 11 8 12 10 14
REMARK H PARENT 8 13 10 15
REMARK Flexibility Score: inf
ROOT
ATOM      1  C   UNL     1      22.069  -5.926 -32.573  1.00  0.00     0.019 A 
ATOM      2  C   UNL     1      21.530  -5.006 -33.471  1.00  0.00     0.094 A 
ATOM      3  C   UNL     1      22.372  -4.049 -34.050  1.00  0.00     0.336 A 
ATOM      4  O   UNL     1      21.905  -3.209 -34.862  1.00  0.00    -0.246 OA
ATOM      5  O   UNL     1      23.668  -4.022 -33.747  1.00  0.00    -0.423 OA
ATOM      6  C   UNL     1      24.222  -4.882 -32.896  1.00  0.00     0.142 A 
ATOM      7  C   UNL     1      25.590  -4.806 -32.617  1.00  0.00     0.098 A 
ATOM      8  C   UNL     1      26.181  -5.709 -31.721  1.00  0.00     0.161 A 
ATOM      9  C   UNL     1      25.395  -6.697 -31.101  1.00  0.00     0.158 A 
ATOM     10  C   UNL     1      24.025  -6.777 -31.379  1.00  0.00     0.062 A 
ATOM     11  C   UNL     1      23.434  -5.874 -32.275  1.00  0.00     0.022 A 
ENDROOT
BRANCH   9  12
ATOM     12  O   UNL     1      25.956  -7.609 -30.207  1.00  0.00    -0.504 OA
ATOM     13  H   UNL     1      26.419  -7.312 -29.357  1.00  0.00     0.293 HD
ENDBRANCH   9  12
BRANCH   8  14
ATOM     14  O   UNL     1      27.545  -5.629 -31.445  1.00  0.00    -0.504 OA
ATOM     15  H   UNL     1      27.938  -6.008 -30.591  1.00  0.00     0.293 HD
ENDBRANCH   8  14
TORSDOF 2
ENDMDL
MODEL 6
REMARK VINA RESULT:    -3.978      8.741      9.826
REMARK INTER + INTRA:          -4.211
REMARK INTER:                  -4.211
REMARK INTRA:                   0.000
REMARK UNBOUND:                 0.000
REMARK SMILES O=c1ccc2cc(O)c(O)cc2o1
REMARK SMILES IDX 4 1 3 2 2 3 1 4 13 5 12 6 11 7 9 8 7 9 6 10 5 11 8 12 10 14
REMARK H PARENT 8 13 10 15
REMARK Flexibility Score: inf
ROOT
ATOM      1  C   UNL     1      25.054  -3.425 -33.793  1.00  0.00     0.019 A 
ATOM      2  C   UNL     1      24.725  -2.076 -33.916  1.00  0.00     0.094 A 
ATOM      3  C   UNL     1      24.745  -1.265 -32.775  1.00  0.00     0.336 A 
ATOM      4  O   UNL     1      24.451  -0.045 -32.866  1.00  0.00    -0.246 OA
ATOM      5  O   UNL     1      25.074  -1.777 -31.592  1.00  0.00    -0.423 OA
ATOM      6  C   UNL     1      25.396  -3.059 -31.431  1.00  0.00     0.142 A 
ATOM      7  C   UNL     1      25.735  -3.540 -30.162  1.00  0.00     0.098 A 
ATOM      8  C   UNL     1      26.074  -4.890 -29.985  1.00  0.00     0.161 A 
ATOM      9  C   UNL     1      26.075  -5.763 -31.088  1.00  0.00     0.158 A 
ATOM     10  C   UNL     1      25.737  -5.284 -32.359  1.00  0.00     0.062 A 
ATOM     11  C   UNL     1      25.398  -3.935 -32.537  1.00  0.00     0.022 A 
ENDROOT
BRANCH   9  12
ATOM     12  O   UNL     1      26.409  -7.109 -30.941  1.00  0.00    -0.504 OA
ATOM     13  H   UNL     1      26.940  -7.610 -31.643  1.00  0.00     0.293 HD
ENDBRANCH   9  12
BRANCH   8  14
ATOM     14  O   UNL     1      26.411  -5.365 -28.719  1.00  0.00    -0.504 OA
ATOM     15  H   UNL     1      25.793  -5.246 -27.925  1.00  0.00     0.293 HD
ENDBRANCH   8  14
TORSDOF 2
ENDMDL
MODEL 7
REMARK VINA RESULT:    -3.859      1.561      2.509
REMARK INTER + INTRA:          -4.084
REMARK INTER:                  -4.084
REMARK INTRA:                   0.000
REMARK UNBOUND:                 0.000
REMARK SMILES O=c1ccc2cc(O)c(O)cc2o1
REMARK SMILES IDX 4 1 3 2 2 3 1 4 13 5 12 6 11 7 9 8 7 9 6 10 5 11 8 12 10 14
REMARK H PARENT 8 13 10 15
REMARK Flexibility Score: inf
ROOT
ATOM      1  C   UNL     1      22.678   1.895 -26.646  1.00  0.00     0.019 A 
ATOM      2  C   UNL     1      23.128   1.277 -25.481  1.00  0.00     0.094 A 
ATOM      3  C   UNL     1      22.227   0.527 -24.717  1.00  0.00     0.336 A 
ATOM      4  O   UNL     1      22.614  -0.038 -23.662  1.00  0.00    -0.246 OA
ATOM      5  O   UNL     1      20.958   0.406 -25.101  1.00  0.00    -0.423 OA
ATOM      6  C   UNL     1      20.487   0.979 -26.207  1.00  0.00     0.142 A 
ATOM      7  C   UNL     1      19.144   0.817 -26.560  1.00  0.00     0.098 A 
ATOM      8  C   UNL     1      18.641   1.418 -27.724  1.00  0.00     0.161 A 
ATOM      9  C   UNL     1      19.491   2.187 -28.539  1.00  0.00     0.158 A 
ATOM     10  C   UNL     1      20.837   2.351 -28.188  1.00  0.00     0.062 A 
ATOM     11  C   UNL     1      21.339   1.750 -27.026  1.00  0.00     0.022 A 
ENDROOT
BRANCH   9  12
ATOM     12  O   UNL     1      19.018   2.795 -29.701  1.00  0.00    -0.504 OA
ATOM     13  H   UNL     1      19.301   3.729 -29.973  1.00  0.00     0.293 HD
ENDBRANCH   9  12
BRANCH   8  14
ATOM     14  O   UNL     1      17.301   1.253 -28.073  1.00  0.00    -0.504 OA
ATOM     15  H   UNL     1      16.619   1.986 -27.920  1.00  0.00     0.293 HD
ENDBRANCH   8  14
TORSDOF 2
ENDMDL
MODEL 8
REMARK VINA RESULT:    -3.819      9.430     10.478
REMARK INTER + INTRA:          -4.042
REMARK INTER:                  -4.042
REMARK INTRA:                   0.000
REMARK UNBOUND:                 0.000
REMARK SMILES O=c1ccc2cc(O)c(O)cc2o1
REMARK SMILES IDX 4 1 3 2 2 3 1 4 13 5 12 6 11 7 9 8 7 9 6 10 5 11 8 12 10 14
REMARK H PARENT 8 13 10 15
REMARK Flexibility Score: inf
ROOT
ATOM      1  C   UNL     1      23.037  -4.355 -33.041  1.00  0.00     0.019 A 
ATOM      2  C   UNL     1      23.566  -3.205 -33.625  1.00  0.00     0.094 A 
ATOM      3  C   UNL     1      24.946  -2.981 -33.556  1.00  0.00     0.336 A 
ATOM      4  O   UNL     1      25.443  -1.949 -34.077  1.00  0.00    -0.246 OA
ATOM      5  O   UNL     1      25.739  -3.855 -32.941  1.00  0.00    -0.423 OA
ATOM      6  C   UNL     1      25.276  -4.965 -32.372  1.00  0.00     0.142 A 
ATOM      7  C   UNL     1      26.158  -5.847 -31.741  1.00  0.00     0.098 A 
ATOM      8  C   UNL     1      25.676  -7.019 -31.138  1.00  0.00     0.161 A 
ATOM      9  C   UNL     1      24.300  -7.308 -31.168  1.00  0.00     0.158 A 
ATOM     10  C   UNL     1      23.414  -6.427 -31.800  1.00  0.00     0.062 A 
ATOM     11  C   UNL     1      23.895  -5.256 -32.403  1.00  0.00     0.022 A 
ENDROOT
BRANCH   9  12
ATOM     12  O   UNL     1      23.794  -8.465 -30.578  1.00  0.00    -0.504 OA
ATOM     13  H   UNL     1      23.296  -9.168 -31.112  1.00  0.00     0.293 HD
ENDBRANCH   9  12
BRANCH   8  14
ATOM     14  O   UNL     1      26.559  -7.896 -30.509  1.00  0.00    -0.504 OA
ATOM     15  H   UNL     1      26.313  -8.372 -29.649  1.00  0.00     0.293 HD
ENDBRANCH   8  14
TORSDOF 2
ENDMDL
MODEL 9
REMARK VINA RESULT:    -3.810     16.807     17.769
REMARK INTER + INTRA:          -4.033
REMARK INTER:                  -4.033
REMARK INTRA:                   0.000
REMARK UNBOUND:                 0.000
REMARK SMILES O=c1ccc2cc(O)c(O)cc2o1
REMARK SMILES IDX 4 1 3 2 2 3 1 4 13 5 12 6 11 7 9 8 7 9 6 10 5 11 8 12 10 14
REMARK H PARENT 8 13 10 15
REMARK Flexibility Score: inf
ROOT
ATOM      1  C   UNL     1      18.322 -15.015 -37.566  1.00  0.00     0.019 A 
ATOM      2  C   UNL     1      19.520 -14.805 -36.885  1.00  0.00     0.094 A 
ATOM      3  C   UNL     1      19.909 -13.495 -36.583  1.00  0.00     0.336 A 
ATOM      4  O   UNL     1      20.988 -13.285 -35.969  1.00  0.00    -0.246 OA
ATOM      5  O   UNL     1      19.145 -12.467 -36.942  1.00  0.00    -0.423 OA
ATOM      6  C   UNL     1      17.994 -12.623 -37.593  1.00  0.00     0.142 A 
ATOM      7  C   UNL     1      17.232 -11.504 -37.943  1.00  0.00     0.098 A 
ATOM      8  C   UNL     1      16.018 -11.662 -38.629  1.00  0.00     0.161 A 
ATOM      9  C   UNL     1      15.565 -12.950 -38.965  1.00  0.00     0.158 A 
ATOM     10  C   UNL     1      16.325 -14.072 -38.615  1.00  0.00     0.062 A 
ATOM     11  C   UNL     1      17.538 -13.915 -37.929  1.00  0.00     0.022 A 
ENDROOT
BRANCH   9  12
ATOM     12  O   UNL     1      14.363 -13.136 -39.646  1.00  0.00    -0.504 OA
ATOM     13  H   UNL     1      13.543 -13.524 -39.194  1.00  0.00     0.293 HD
ENDBRANCH   9  12
BRANCH   8  14
ATOM     14  O   UNL     1      15.262 -10.543 -38.977  1.00  0.00    -0.504 OA
ATOM     15  H   UNL     1      14.513 -10.203 -38.384  1.00  0.00     0.293 HD
ENDBRANCH   8  14
TORSDOF 2
ENDMDL
