MODEL 1
REMARK VINA RESULT:    -5.286      0.000      0.000
REMARK INTER + INTRA:         -11.039
REMARK INTER:                  -9.302
REMARK INTRA:                  -1.736
REMARK UNBOUND:                -1.736
REMARK SMILES CCCCCCCCCCCCCCC(=O)[O-]
REMARK SMILES IDX 9 1 10 2 11 3 12 4 13 5 14 6 15 7 16 8 17 9 8 10 7 11 6 12
REMARK SMILES IDX 5 13 4 14 3 15 2 16 1 17
REMARK H PARENT
REMARK Flexibility Score: inf
ROOT
ATOM      1  C   UNL     1     104.334 311.587 193.064  1.00  0.00     0.000 C 
ENDROOT
BRANCH   1   2
ATOM      2  C   UNL     1     104.041 312.842 192.225  1.00  0.00     0.000 C 
BRANCH   2   3
ATOM      3  C   UNL     1     105.313 313.626 191.863  1.00  0.00     0.000 C 
BRANCH   3   4
ATOM      4  C   UNL     1     105.120 314.406 190.555  1.00  0.00     0.000 C 
BRANCH   4   5
ATOM      5  C   UNL     1     103.742 314.163 189.911  1.00  0.00     0.006 C 
BRANCH   5   6
ATOM      6  C   UNL     1     103.499 314.958 188.619  1.00  0.00     0.053 C 
BRANCH   6   7
ATOM      7  C   UNL     1     102.164 315.639 188.625  1.00  0.00     0.041 C 
ATOM      8  O   UNL     1     101.264 315.277 187.823  1.00  0.00    -0.550 OA
ATOM      9  O   UNL     1     101.907 316.655 189.537  1.00  0.00    -0.550 OA
ENDBRANCH   6   7
ENDBRANCH   5   6
ENDBRANCH   4   5
ENDBRANCH   3   4
ENDBRANCH   2   3
ENDBRANCH   1   2
BRANCH   1  10
ATOM     10  C   UNL     1     105.762 311.579 193.636  1.00  0.00     0.000 C 
BRANCH  10  11
ATOM     11  C   UNL     1     105.792 311.517 195.174  1.00  0.00    -0.000 C 
BRANCH  11  12
ATOM     12  C   UNL     1     104.422 311.666 195.861  1.00  0.00    -0.000 C 
BRANCH  12  13
ATOM     13  C   UNL     1     104.266 313.002 196.604  1.00  0.00    -0.000 C 
BRANCH  13  14
ATOM     14  C   UNL     1     103.304 313.938 195.857  1.00  0.00    -0.000 C 
BRANCH  14  15
ATOM     15  C   UNL     1     104.049 315.045 195.082  1.00  0.00    -0.000 C 
BRANCH  15  16
ATOM     16  C   UNL     1     103.127 316.159 194.559  1.00  0.00    -0.003 C 
ATOM     17  C   UNL     1     103.326 316.452 193.073  1.00  0.00     0.004 C 
ENDBRANCH  15  16
ENDBRANCH  14  15
ENDBRANCH  13  14
ENDBRANCH  12  13
ENDBRANCH  11  12
ENDBRANCH  10  11
ENDBRANCH   1  10
TORSDOF 13
ENDMDL
MODEL 2
REMARK VINA RESULT:    -5.264     17.756     20.741
REMARK INTER + INTRA:         -11.001
REMARK INTER:                 -10.340
REMARK INTRA:                  -0.661
REMARK UNBOUND:                -1.736
REMARK SMILES CCCCCCCCCCCCCCC(=O)[O-]
REMARK SMILES IDX 9 1 10 2 11 3 12 4 13 5 14 6 15 7 16 8 17 9 8 10 7 11 6 12
REMARK SMILES IDX 5 13 4 14 3 15 2 16 1 17
REMARK H PARENT
REMARK Flexibility Score: inf
ROOT
ATOM      1  C   UNL     1      87.985 326.770 194.439  1.00  0.00     0.000 C 
ENDROOT
BRANCH   1   2
ATOM      2  C   UNL     1      88.853 326.497 195.678  1.00  0.00     0.000 C 
BRANCH   2   3
ATOM      3  C   UNL     1      88.026 326.354 196.965  1.00  0.00     0.000 C 
BRANCH   3   4
ATOM      4  C   UNL     1      88.808 325.577 198.034  1.00  0.00     0.000 C 
BRANCH   4   5
ATOM      5  C   UNL     1      89.228 326.457 199.226  1.00  0.00     0.006 C 
BRANCH   5   6
ATOM      6  C   UNL     1      88.979 325.822 200.602  1.00  0.00     0.053 C 
BRANCH   6   7
ATOM      7  C   UNL     1      89.736 326.523 201.688  1.00  0.00     0.041 C 
ATOM      8  O   UNL     1      89.200 326.721 202.809  1.00  0.00    -0.550 OA
ATOM      9  O   UNL     1      91.047 326.931 201.470  1.00  0.00    -0.550 OA
ENDBRANCH   6   7
ENDBRANCH   5   6
ENDBRANCH   4   5
ENDBRANCH   3   4
ENDBRANCH   2   3
ENDBRANCH   1   2
BRANCH   1  10
ATOM     10  C   UNL     1      86.634 326.035 194.492  1.00  0.00     0.000 C 
BRANCH  10  11
ATOM     11  C   UNL     1      86.472 324.998 193.365  1.00  0.00    -0.000 C 
BRANCH  11  12
ATOM     12  C   UNL     1      87.729 324.165 193.057  1.00  0.00    -0.000 C 
BRANCH  12  13
ATOM     13  C   UNL     1      88.128 324.207 191.574  1.00  0.00    -0.000 C 
BRANCH  13  14
ATOM     14  C   UNL     1      87.285 323.225 190.748  1.00  0.00    -0.000 C 
BRANCH  14  15
ATOM     15  C   UNL     1      87.973 322.832 189.424  1.00  0.00    -0.000 C 
BRANCH  15  16
ATOM     16  C   UNL     1      89.164 323.733 189.057  1.00  0.00    -0.003 C 
ATOM     17  C   UNL     1      90.410 322.945 188.660  1.00  0.00     0.004 C 
ENDBRANCH  15  16
ENDBRANCH  14  15
ENDBRANCH  13  14
ENDBRANCH  12  13
ENDBRANCH  11  12
ENDBRANCH  10  11
ENDBRANCH   1  10
TORSDOF 13
ENDMDL
MODEL 3
REMARK VINA RESULT:    -5.263      6.744      9.826
REMARK INTER + INTRA:         -10.998
REMARK INTER:                 -10.605
REMARK INTRA:                  -0.393
REMARK UNBOUND:                -1.736
REMARK SMILES CCCCCCCCCCCCCCC(=O)[O-]
REMARK SMILES IDX 9 1 10 2 11 3 12 4 13 5 14 6 15 7 16 8 17 9 8 10 7 11 6 12
REMARK SMILES IDX 5 13 4 14 3 15 2 16 1 17
REMARK H PARENT
REMARK Flexibility Score: inf
ROOT
ATOM      1  C   UNL     1     103.856 311.253 197.248  1.00  0.00     0.000 C 
ENDROOT
BRANCH   1   2
ATOM      2  C   UNL     1     103.846 312.168 198.483  1.00  0.00     0.000 C 
BRANCH   2   3
ATOM      3  C   UNL     1     103.202 311.505 199.710  1.00  0.00     0.000 C 
BRANCH   3   4
ATOM      4  C   UNL     1     104.150 311.550 200.917  1.00  0.00     0.000 C 
BRANCH   4   5
ATOM      5  C   UNL     1     103.432 311.274 202.252  1.00  0.00     0.006 C 
BRANCH   5   6
ATOM      6  C   UNL     1     104.267 310.479 203.267  1.00  0.00     0.053 C 
BRANCH   6   7
ATOM      7  C   UNL     1     103.932 310.850 204.680  1.00  0.00     0.041 C 
ATOM      8  O   UNL     1     102.884 310.406 205.219  1.00  0.00    -0.550 OA
ATOM      9  O   UNL     1     104.792 311.660 205.409  1.00  0.00    -0.550 OA
ENDBRANCH   6   7
ENDBRANCH   5   6
ENDBRANCH   4   5
ENDBRANCH   3   4
ENDBRANCH   2   3
ENDBRANCH   1   2
BRANCH   1  10
ATOM     10  C   UNL     1     104.545 311.904 196.036  1.00  0.00     0.000 C 
BRANCH  10  11
ATOM     11  C   UNL     1     103.834 311.597 194.705  1.00  0.00    -0.000 C 
BRANCH  11  12
ATOM     12  C   UNL     1     104.768 311.329 193.511  1.00  0.00    -0.000 C 
BRANCH  12  13
ATOM     13  C   UNL     1     105.940 312.320 193.432  1.00  0.00    -0.000 C 
BRANCH  13  14
ATOM     14  C   UNL     1     105.896 313.122 192.124  1.00  0.00    -0.000 C 
BRANCH  14  15
ATOM     15  C   UNL     1     104.452 313.399 191.655  1.00  0.00    -0.000 C 
BRANCH  15  16
ATOM     16  C   UNL     1     104.340 314.567 190.661  1.00  0.00    -0.003 C 
ATOM     17  C   UNL     1     103.363 314.291 189.520  1.00  0.00     0.004 C 
ENDBRANCH  15  16
ENDBRANCH  14  15
ENDBRANCH  13  14
ENDBRANCH  12  13
ENDBRANCH  11  12
ENDBRANCH  10  11
ENDBRANCH   1  10
TORSDOF 13
ENDMDL
MODEL 4
REMARK VINA RESULT:    -5.262     18.536     21.305
REMARK INTER + INTRA:         -10.997
REMARK INTER:                  -9.718
REMARK INTRA:                  -1.278
REMARK UNBOUND:                -1.736
REMARK SMILES CCCCCCCCCCCCCCC(=O)[O-]
REMARK SMILES IDX 9 1 10 2 11 3 12 4 13 5 14 6 15 7 16 8 17 9 8 10 7 11 6 12
REMARK SMILES IDX 5 13 4 14 3 15 2 16 1 17
REMARK H PARENT
REMARK Flexibility Score: inf
ROOT
ATOM      1  C   UNL     1      87.979 326.048 196.906  1.00  0.00     0.000 C 
ENDROOT
BRANCH   1   2
ATOM      2  C   UNL     1      88.778 325.524 198.111  1.00  0.00     0.000 C 
BRANCH   2   3
ATOM      3  C   UNL     1      89.247 326.648 199.048  1.00  0.00     0.000 C 
BRANCH   3   4
ATOM      4  C   UNL     1      89.707 326.078 200.398  1.00  0.00     0.000 C 
BRANCH   4   5
ATOM      5  C   UNL     1      88.632 326.197 201.495  1.00  0.00     0.006 C 
BRANCH   5   6
ATOM      6  C   UNL     1      89.134 325.874 202.910  1.00  0.00     0.053 C 
BRANCH   6   7
ATOM      7  C   UNL     1      89.673 327.088 203.603  1.00  0.00     0.041 C 
ATOM      8  O   UNL     1      88.981 327.683 204.470  1.00  0.00    -0.550 OA
ATOM      9  O   UNL     1      90.954 327.542 203.313  1.00  0.00    -0.550 OA
ENDBRANCH   6   7
ENDBRANCH   5   6
ENDBRANCH   4   5
ENDBRANCH   3   4
ENDBRANCH   2   3
ENDBRANCH   1   2
BRANCH   1  10
ATOM     10  C   UNL     1      88.886 326.525 195.759  1.00  0.00     0.000 C 
BRANCH  10  11
ATOM     11  C   UNL     1      88.110 326.807 194.459  1.00  0.00    -0.000 C 
BRANCH  11  12
ATOM     12  C   UNL     1      86.648 326.325 194.452  1.00  0.00    -0.000 C 
BRANCH  12  13
ATOM     13  C   UNL     1      86.433 325.072 193.590  1.00  0.00    -0.000 C 
BRANCH  13  14
ATOM     14  C   UNL     1      87.689 324.746 192.769  1.00  0.00    -0.000 C 
BRANCH  14  15
ATOM     15  C   UNL     1      88.222 323.326 193.055  1.00  0.00    -0.000 C 
BRANCH  15  16
ATOM     16  C   UNL     1      87.844 322.795 194.449  1.00  0.00    -0.003 C 
ATOM     17  C   UNL     1      89.005 322.836 195.440  1.00  0.00     0.004 C 
ENDBRANCH  15  16
ENDBRANCH  14  15
ENDBRANCH  13  14
ENDBRANCH  12  13
ENDBRANCH  11  12
ENDBRANCH  10  11
ENDBRANCH   1  10
TORSDOF 13
ENDMDL
MODEL 5
REMARK VINA RESULT:    -5.252     17.102     19.054
REMARK INTER + INTRA:         -10.980
REMARK INTER:                  -9.270
REMARK INTRA:                  -1.709
REMARK UNBOUND:                -1.736
REMARK SMILES CCCCCCCCCCCCCCC(=O)[O-]
REMARK SMILES IDX 9 1 10 2 11 3 12 4 13 5 14 6 15 7 16 8 17 9 8 10 7 11 6 12
REMARK SMILES IDX 5 13 4 14 3 15 2 16 1 17
REMARK H PARENT
REMARK Flexibility Score: inf
ROOT
ATOM      1  C   UNL     1      88.117 325.335 193.092  1.00  0.00     0.000 C 
ENDROOT
BRANCH   1   2
ATOM      2  C   UNL     1      86.776 324.602 192.925  1.00  0.00     0.000 C 
BRANCH   2   3
ATOM      3  C   UNL     1      86.790 323.593 191.767  1.00  0.00     0.000 C 
BRANCH   3   4
ATOM      4  C   UNL     1      88.229 323.264 191.345  1.00  0.00     0.000 C 
BRANCH   4   5
ATOM      5  C   UNL     1      88.480 323.496 189.843  1.00  0.00     0.006 C 
BRANCH   5   6
ATOM      6  C   UNL     1      87.765 322.498 188.921  1.00  0.00     0.053 C 
BRANCH   6   7
ATOM      7  C   UNL     1      88.612 321.296 188.634  1.00  0.00     0.041 C 
ATOM      8  O   UNL     1      88.194 320.143 188.920  1.00  0.00    -0.550 OA
ATOM      9  O   UNL     1      89.850 321.447 188.023  1.00  0.00    -0.550 OA
ENDBRANCH   6   7
ENDBRANCH   5   6
ENDBRANCH   4   5
ENDBRANCH   3   4
ENDBRANCH   2   3
ENDBRANCH   1   2
BRANCH   1  10
ATOM     10  C   UNL     1      88.004 326.578 193.992  1.00  0.00     0.000 C 
BRANCH  10  11
ATOM     11  C   UNL     1      86.664 326.651 194.747  1.00  0.00    -0.000 C 
BRANCH  11  12
ATOM     12  C   UNL     1      86.764 326.487 196.274  1.00  0.00    -0.000 C 
BRANCH  12  13
ATOM     13  C   UNL     1      88.214 326.413 196.776  1.00  0.00    -0.000 C 
BRANCH  13  14
ATOM     14  C   UNL     1      88.503 325.052 197.426  1.00  0.00    -0.000 C 
BRANCH  14  15
ATOM     15  C   UNL     1      89.170 324.065 196.446  1.00  0.00    -0.000 C 
BRANCH  15  16
ATOM     16  C   UNL     1      88.234 322.941 195.970  1.00  0.00    -0.003 C 
ATOM     17  C   UNL     1      88.818 322.121 194.822  1.00  0.00     0.004 C 
ENDBRANCH  15  16
ENDBRANCH  14  15
ENDBRANCH  13  14
ENDBRANCH  12  13
ENDBRANCH  11  12
ENDBRANCH  10  11
ENDBRANCH   1  10
TORSDOF 13
ENDMDL
MODEL 6
REMARK VINA RESULT:    -5.233      1.564      3.047
REMARK INTER + INTRA:         -10.947
REMARK INTER:                 -10.160
REMARK INTRA:                  -0.787
REMARK UNBOUND:                -1.736
REMARK SMILES CCCCCCCCCCCCCCC(=O)[O-]
REMARK SMILES IDX 9 1 10 2 11 3 12 4 13 5 14 6 15 7 16 8 17 9 8 10 7 11 6 12
REMARK SMILES IDX 5 13 4 14 3 15 2 16 1 17
REMARK H PARENT
REMARK Flexibility Score: inf
ROOT
ATOM      1  C   UNL     1     104.204 313.111 192.461  1.00  0.00     0.000 C 
ENDROOT
BRANCH   1   2
ATOM      2  C   UNL     1     105.457 313.748 191.840  1.00  0.00     0.000 C 
BRANCH   2   3
ATOM      3  C   UNL     1     105.159 314.491 190.529  1.00  0.00     0.000 C 
BRANCH   3   4
ATOM      4  C   UNL     1     103.760 314.136 190.005  1.00  0.00     0.000 C 
BRANCH   4   5
ATOM      5  C   UNL     1     103.421 314.839 188.677  1.00  0.00     0.006 C 
BRANCH   5   6
ATOM      6  C   UNL     1     102.111 314.369 188.028  1.00  0.00     0.053 C 
BRANCH   6   7
ATOM      7  C   UNL     1     101.105 315.476 187.935  1.00  0.00     0.041 C 
ATOM      8  O   UNL     1     101.474 316.648 187.662  1.00  0.00    -0.550 OA
ATOM      9  O   UNL     1      99.755 315.204 188.120  1.00  0.00    -0.550 OA
ENDBRANCH   6   7
ENDBRANCH   5   6
ENDBRANCH   4   5
ENDBRANCH   3   4
ENDBRANCH   2   3
ENDBRANCH   1   2
BRANCH   1  10
ATOM     10  C   UNL     1     104.483 311.721 193.059  1.00  0.00     0.000 C 
BRANCH  10  11
ATOM     11  C   UNL     1     105.774 311.677 193.898  1.00  0.00    -0.000 C 
BRANCH  11  12
ATOM     12  C   UNL     1     105.565 311.477 195.410  1.00  0.00    -0.000 C 
BRANCH  12  13
ATOM     13  C   UNL     1     104.099 311.641 195.840  1.00  0.00    -0.000 C 
BRANCH  13  14
ATOM     14  C   UNL     1     103.853 313.034 196.439  1.00  0.00    -0.000 C 
BRANCH  14  15
ATOM     15  C   UNL     1     103.789 313.005 197.980  1.00  0.00    -0.000 C 
BRANCH  15  16
ATOM     16  C   UNL     1     103.637 311.591 198.565  1.00  0.00    -0.003 C 
ATOM     17  C   UNL     1     103.058 311.586 199.978  1.00  0.00     0.004 C 
ENDBRANCH  15  16
ENDBRANCH  14  15
ENDBRANCH  13  14
ENDBRANCH  12  13
ENDBRANCH  11  12
ENDBRANCH  10  11
ENDBRANCH   1  10
TORSDOF 13
ENDMDL
MODEL 7
REMARK VINA RESULT:    -5.209     19.764     21.818
REMARK INTER + INTRA:         -10.904
REMARK INTER:                 -10.120
REMARK INTRA:                  -0.784
REMARK UNBOUND:                -1.736
REMARK SMILES CCCCCCCCCCCCCCC(=O)[O-]
REMARK SMILES IDX 9 1 10 2 11 3 12 4 13 5 14 6 15 7 16 8 17 9 8 10 7 11 6 12
REMARK SMILES IDX 5 13 4 14 3 15 2 16 1 17
REMARK H PARENT
REMARK Flexibility Score: inf
ROOT
ATOM      1  C   UNL     1      89.184 324.853 198.714  1.00  0.00     0.000 C 
ENDROOT
BRANCH   1   2
ATOM      2  C   UNL     1      89.179 326.315 199.191  1.00  0.00     0.000 C 
BRANCH   2   3
ATOM      3  C   UNL     1      90.007 326.526 200.468  1.00  0.00     0.000 C 
BRANCH   3   4
ATOM      4  C   UNL     1      89.113 326.472 201.715  1.00  0.00     0.000 C 
BRANCH   4   5
ATOM      5  C   UNL     1      89.915 326.534 203.029  1.00  0.00     0.006 C 
BRANCH   5   6
ATOM      6  C   UNL     1      89.230 327.329 204.150  1.00  0.00     0.053 C 
BRANCH   6   7
ATOM      7  C   UNL     1      88.907 326.466 205.332  1.00  0.00     0.041 C 
ATOM      8  O   UNL     1      88.396 325.327 205.164  1.00  0.00    -0.550 OA
ATOM      9  O   UNL     1      89.200 326.907 206.616  1.00  0.00    -0.550 OA
ENDBRANCH   6   7
ENDBRANCH   5   6
ENDBRANCH   4   5
ENDBRANCH   3   4
ENDBRANCH   2   3
ENDBRANCH   1   2
BRANCH   1  10
ATOM     10  C   UNL     1      88.573 324.687 197.312  1.00  0.00     0.000 C 
BRANCH  10  11
ATOM     11  C   UNL     1      88.022 326.005 196.738  1.00  0.00    -0.000 C 
BRANCH  11  12
ATOM     12  C   UNL     1      88.775 326.549 195.510  1.00  0.00    -0.000 C 
BRANCH  12  13
ATOM     13  C   UNL     1      87.863 326.762 194.292  1.00  0.00    -0.000 C 
BRANCH  13  14
ATOM     14  C   UNL     1      86.526 326.028 194.471  1.00  0.00    -0.000 C 
BRANCH  14  15
ATOM     15  C   UNL     1      86.301 324.950 193.390  1.00  0.00    -0.000 C 
BRANCH  15  16
ATOM     16  C   UNL     1      87.566 324.142 193.052  1.00  0.00    -0.003 C 
ATOM     17  C   UNL     1      87.993 324.282 191.592  1.00  0.00     0.004 C 
ENDBRANCH  15  16
ENDBRANCH  14  15
ENDBRANCH  13  14
ENDBRANCH  12  13
ENDBRANCH  11  12
ENDBRANCH  10  11
ENDBRANCH   1  10
TORSDOF 13
ENDMDL
MODEL 8
REMARK VINA RESULT:    -5.161      4.872      7.818
REMARK INTER + INTRA:         -10.819
REMARK INTER:                  -9.814
REMARK INTRA:                  -1.006
REMARK UNBOUND:                -1.736
REMARK SMILES CCCCCCCCCCCCCCC(=O)[O-]
REMARK SMILES IDX 9 1 10 2 11 3 12 4 13 5 14 6 15 7 16 8 17 9 8 10 7 11 6 12
REMARK SMILES IDX 5 13 4 14 3 15 2 16 1 17
REMARK H PARENT
REMARK Flexibility Score: inf
ROOT
ATOM      1  C   UNL     1     103.671 311.639 195.208  1.00  0.00     0.000 C 
ENDROOT
BRANCH   1   2
ATOM      2  C   UNL     1     103.709 313.121 195.612  1.00  0.00     0.000 C 
BRANCH   2   3
ATOM      3  C   UNL     1     103.946 313.322 197.117  1.00  0.00     0.000 C 
BRANCH   3   4
ATOM      4  C   UNL     1     103.850 311.987 197.869  1.00  0.00     0.000 C 
BRANCH   4   5
ATOM      5  C   UNL     1     103.107 312.108 199.212  1.00  0.00     0.006 C 
BRANCH   5   6
ATOM      6  C   UNL     1     103.883 311.554 200.417  1.00  0.00     0.053 C 
BRANCH   6   7
ATOM      7  C   UNL     1     104.191 312.621 201.423  1.00  0.00     0.041 C 
ATOM      8  O   UNL     1     104.195 312.351 202.653  1.00  0.00    -0.550 OA
ATOM      9  O   UNL     1     104.505 313.906 200.999  1.00  0.00    -0.550 OA
ENDBRANCH   6   7
ENDBRANCH   5   6
ENDBRANCH   4   5
ENDBRANCH   3   4
ENDBRANCH   2   3
ENDBRANCH   1   2
BRANCH   1  10
ATOM     10  C   UNL     1     104.256 311.393 193.807  1.00  0.00     0.000 C 
BRANCH  10  11
ATOM     11  C   UNL     1     105.688 311.937 193.651  1.00  0.00    -0.000 C 
BRANCH  11  12
ATOM     12  C   UNL     1     105.900 312.888 192.460  1.00  0.00    -0.000 C 
BRANCH  12  13
ATOM     13  C   UNL     1     105.329 314.293 192.703  1.00  0.00    -0.000 C 
BRANCH  13  14
ATOM     14  C   UNL     1     103.986 314.475 191.982  1.00  0.00    -0.000 C 
BRANCH  14  15
ATOM     15  C   UNL     1     103.929 313.704 190.647  1.00  0.00    -0.000 C 
BRANCH  15  16
ATOM     16  C   UNL     1     103.908 314.616 189.408  1.00  0.00    -0.003 C 
ATOM     17  C   UNL     1     102.666 314.421 188.542  1.00  0.00     0.004 C 
ENDBRANCH  15  16
ENDBRANCH  14  15
ENDBRANCH  13  14
ENDBRANCH  12  13
ENDBRANCH  11  12
ENDBRANCH  10  11
ENDBRANCH   1  10
TORSDOF 13
ENDMDL
MODEL 9
REMARK VINA RESULT:    -5.137      4.404      7.493
REMARK INTER + INTRA:         -10.777
REMARK INTER:                  -9.945
REMARK INTRA:                  -0.832
REMARK UNBOUND:                -1.736
REMARK SMILES CCCCCCCCCCCCCCC(=O)[O-]
REMARK SMILES IDX 9 1 10 2 11 3 12 4 13 5 14 6 15 7 16 8 17 9 8 10 7 11 6 12
REMARK SMILES IDX 5 13 4 14 3 15 2 16 1 17
REMARK H PARENT
REMARK Flexibility Score: inf
ROOT
ATOM      1  C   UNL     1     105.572 312.108 193.631  1.00  0.00     0.000 C 
ENDROOT
BRANCH   1   2
ATOM      2  C   UNL     1     104.242 311.340 193.700  1.00  0.00     0.000 C 
BRANCH   2   3
ATOM      3  C   UNL     1     103.547 311.475 195.063  1.00  0.00     0.000 C 
BRANCH   3   4
ATOM      4  C   UNL     1     104.528 311.987 196.129  1.00  0.00     0.000 C 
BRANCH   4   5
ATOM      5  C   UNL     1     103.818 312.624 197.338  1.00  0.00     0.006 C 
BRANCH   5   6
ATOM      6  C   UNL     1     103.560 311.657 198.503  1.00  0.00     0.053 C 
BRANCH   6   7
ATOM      7  C   UNL     1     104.056 312.205 199.806  1.00  0.00     0.041 C 
ATOM      8  O   UNL     1     104.333 311.427 200.756  1.00  0.00    -0.550 OA
ATOM      9  O   UNL     1     104.241 313.573 199.959  1.00  0.00    -0.550 OA
ENDBRANCH   6   7
ENDBRANCH   5   6
ENDBRANCH   4   5
ENDBRANCH   3   4
ENDBRANCH   2   3
ENDBRANCH   1   2
BRANCH   1  10
ATOM     10  C   UNL     1     105.608 313.123 192.475  1.00  0.00     0.000 C 
BRANCH  10  11
ATOM     11  C   UNL     1     104.209 313.633 192.080  1.00  0.00    -0.000 C 
BRANCH  11  12
ATOM     12  C   UNL     1     103.934 313.681 190.566  1.00  0.00    -0.000 C 
BRANCH  12  13
ATOM     13  C   UNL     1     104.693 314.812 189.854  1.00  0.00    -0.000 C 
BRANCH  13  14
ATOM     14  C   UNL     1     103.900 315.332 188.647  1.00  0.00    -0.000 C 
BRANCH  14  15
ATOM     15  C   UNL     1     102.703 314.424 188.297  1.00  0.00    -0.000 C 
BRANCH  15  16
ATOM     16  C   UNL     1     101.369 315.180 188.175  1.00  0.00    -0.003 C 
ATOM     17  C   UNL     1     101.413 316.574 188.797  1.00  0.00     0.004 C 
ENDBRANCH  15  16
ENDBRANCH  14  15
ENDBRANCH  13  14
ENDBRANCH  12  13
ENDBRANCH  11  12
ENDBRANCH  10  11
ENDBRANCH   1  10
TORSDOF 13
ENDMDL
