MODEL 1
REMARK VINA RESULT:    -0.823      0.000      0.000
REMARK INTER + INTRA:          -0.487
REMARK INTER:                  -1.256
REMARK INTRA:                   0.769
REMARK UNBOUND:                 0.769
REMARK SMILES CC(=O)CCC=C(C)CCC=C(C)CCC=C(C)C
REMARK SMILES IDX 10 1 11 2 12 3 13 4 14 5 15 6 16 7 18 8 17 9 19 10 9 11 7 12
REMARK SMILES IDX 6 13 8 14 5 15 4 16 2 17 3 18 1 19
REMARK H PARENT
REMARK Flexibility Score: inf
ROOT
ATOM      1  C   UNL     1     -10.297 -24.720  25.894  1.00  0.00     0.032 C 
ENDROOT
BRANCH   1   2
ATOM      2  C   UNL     1      -9.873 -24.805  24.449  1.00  0.00    -0.028 C 
ATOM      3  C   UNL     1      -8.598 -24.986  24.036  1.00  0.00    -0.077 C 
ATOM      4  C   UNL     1      -7.446 -25.054  25.013  1.00  0.00     0.039 C 
BRANCH   3   5
ATOM      5  C   UNL     1      -8.315 -25.108  22.555  1.00  0.00     0.034 C 
BRANCH   5   6
ATOM      6  C   UNL     1      -7.034 -24.352  22.184  1.00  0.00     0.032 C 
BRANCH   6   7
ATOM      7  C   UNL     1      -6.663 -24.603  20.744  1.00  0.00    -0.028 C 
ATOM      8  C   UNL     1      -4.237 -24.946  21.261  1.00  0.00     0.039 C 
ATOM      9  C   UNL     1      -5.406 -24.847  20.310  1.00  0.00    -0.080 C 
ATOM     10  C   UNL     1      -5.181 -25.039  18.833  1.00  0.00     0.039 C 
ENDBRANCH   6   7
ENDBRANCH   5   6
ENDBRANCH   3   5
ENDBRANCH   1   2
BRANCH   1  11
ATOM     11  C   UNL     1     -10.381 -23.258  26.347  1.00  0.00     0.034 C 
BRANCH  11  12
ATOM     12  C   UNL     1     -10.586 -22.339  25.162  1.00  0.00    -0.077 C 
ATOM     13  C   UNL     1     -10.927 -22.876  23.968  1.00  0.00    -0.028 C 
ATOM     14  C   UNL     1     -10.428 -20.849  25.351  1.00  0.00     0.039 C 
BRANCH  13  15
ATOM     15  C   UNL     1     -11.109 -22.086  22.694  1.00  0.00     0.035 C 
BRANCH  15  16
ATOM     16  C   UNL     1     -11.125 -22.997  21.458  1.00  0.00     0.079 C 
BRANCH  16  17
ATOM     17  C   UNL     1     -10.395 -22.376  20.296  1.00  0.00     0.130 C 
ATOM     18  O   UNL     1      -9.214 -22.082  20.406  1.00  0.00    -0.300 OA
ATOM     19  C   UNL     1     -11.102 -22.142  18.995  1.00  0.00     0.087 C 
ENDBRANCH  16  17
ENDBRANCH  15  16
ENDBRANCH  13  15
ENDBRANCH  11  12
ENDBRANCH   1  11
TORSDOF 9
ENDMDL
MODEL 2
REMARK VINA RESULT:     0.369     18.820     20.649
REMARK INTER + INTRA:           1.331
REMARK INTER:                  -0.636
REMARK INTRA:                   1.967
REMARK UNBOUND:                 0.769
REMARK SMILES CC(=O)CCC=C(C)CCC=C(C)CCC=C(C)C
REMARK SMILES IDX 10 1 11 2 12 3 13 4 14 5 15 6 16 7 18 8 17 9 19 10 9 11 7 12
REMARK SMILES IDX 6 13 8 14 5 15 4 16 2 17 3 18 1 19
REMARK H PARENT
REMARK Flexibility Score: inf
ROOT
ATOM      1  C   UNL     1       2.858 -24.564   8.549  1.00  0.00     0.032 C 
ENDROOT
BRANCH   1   2
ATOM      2  C   UNL     1       4.047 -25.110   9.300  1.00  0.00    -0.028 C 
ATOM      3  C   UNL     1       4.862 -24.369  10.084  1.00  0.00    -0.077 C 
ATOM      4  C   UNL     1       4.686 -22.874  10.227  1.00  0.00     0.039 C 
BRANCH   3   5
ATOM      5  C   UNL     1       5.989 -25.052  10.826  1.00  0.00     0.034 C 
BRANCH   5   6
ATOM      6  C   UNL     1       6.765 -24.044  11.680  1.00  0.00     0.032 C 
BRANCH   6   7
ATOM      7  C   UNL     1       7.525 -24.744  12.778  1.00  0.00    -0.028 C 
ATOM      8  C   UNL     1       8.686 -22.656  13.528  1.00  0.00     0.039 C 
ATOM      9  C   UNL     1       8.410 -24.139  13.601  1.00  0.00    -0.080 C 
ATOM     10  C   UNL     1       9.125 -24.978  14.629  1.00  0.00     0.039 C 
ENDBRANCH   6   7
ENDBRANCH   5   6
ENDBRANCH   3   5
ENDBRANCH   1   2
BRANCH   1  11
ATOM     11  C   UNL     1       3.307 -23.548   7.493  1.00  0.00     0.034 C 
BRANCH  11  12
ATOM     12  C   UNL     1       4.784 -23.696   7.199  1.00  0.00    -0.077 C 
ATOM     13  C   UNL     1       5.567 -22.592   7.204  1.00  0.00    -0.028 C 
ATOM     14  C   UNL     1       5.347 -25.072   6.934  1.00  0.00     0.039 C 
BRANCH  13  15
ATOM     15  C   UNL     1       7.041 -22.585   6.875  1.00  0.00     0.035 C 
BRANCH  15  16
ATOM     16  C   UNL     1       7.905 -22.694   8.139  1.00  0.00     0.079 C 
BRANCH  16  17
ATOM     17  C   UNL     1       8.398 -24.100   8.361  1.00  0.00     0.130 C 
ATOM     18  O   UNL     1       8.636 -24.489   9.494  1.00  0.00    -0.300 OA
ATOM     19  C   UNL     1       8.574 -25.033   7.201  1.00  0.00     0.087 C 
ENDBRANCH  16  17
ENDBRANCH  15  16
ENDBRANCH  13  15
ENDBRANCH  11  12
ENDBRANCH   1  11
TORSDOF 9
ENDMDL
