MODEL 1
REMARK VINA RESULT:    -3.546      0.000      0.000
REMARK INTER + INTRA:          -8.605
REMARK INTER:                  -6.655
REMARK INTRA:                  -1.950
REMARK UNBOUND:                -1.950
REMARK SMILES O=C([O-])CCCCCCCCCCCCCCC(=O)[O-]
REMARK SMILES IDX 10 1 9 2 8 3 7 4 6 5 5 6 4 7 2 8 1 9 3 10 11 11 12 12 13 13
REMARK SMILES IDX 14 14 15 15 16 16 17 17 18 18 19 19 20 20
REMARK H PARENT
REMARK Flexibility Score: inf
ROOT
ATOM      1  C   UNL     1      29.319  47.578   9.440  1.00  0.00     0.000 C 
ENDROOT
BRANCH   1   2
ATOM      2  C   UNL     1      28.127  48.523   9.206  1.00  0.00     0.000 C 
BRANCH   2   3
ATOM      3  C   UNL     1      27.028  47.887   8.339  1.00  0.00     0.000 C 
BRANCH   3   4
ATOM      4  C   UNL     1      25.816  47.427   9.169  1.00  0.00     0.000 C 
BRANCH   4   5
ATOM      5  C   UNL     1      25.991  46.013   9.752  1.00  0.00     0.000 C 
BRANCH   5   6
ATOM      6  C   UNL     1      25.625  44.861   8.799  1.00  0.00     0.006 C 
BRANCH   6   7
ATOM      7  C   UNL     1      26.771  43.860   8.602  1.00  0.00     0.053 C 
BRANCH   7   8
ATOM      8  C   UNL     1      27.337  43.978   7.222  1.00  0.00     0.041 C 
ATOM      9  O   UNL     1      26.876  44.830   6.419  1.00  0.00    -0.550 OA
ATOM     10  O   UNL     1      28.341  43.112   6.806  1.00  0.00    -0.550 OA
ENDBRANCH   7   8
ENDBRANCH   6   7
ENDBRANCH   5   6
ENDBRANCH   4   5
ENDBRANCH   3   4
ENDBRANCH   2   3
ENDBRANCH   1   2
BRANCH   1  11
ATOM     11  C   UNL     1      29.516  46.581   8.287  1.00  0.00     0.000 C 
BRANCH  11  12
ATOM     12  C   UNL     1      30.990  46.198   8.082  1.00  0.00     0.000 C 
BRANCH  12  13
ATOM     13  C   UNL     1      31.909  47.397   8.342  1.00  0.00     0.000 C 
BRANCH  13  14
ATOM     14  C   UNL     1      31.920  48.356   7.143  1.00  0.00     0.000 C 
BRANCH  14  15
ATOM     15  C   UNL     1      32.224  49.807   7.568  1.00  0.00     0.000 C 
BRANCH  15  16
ATOM     16  C   UNL     1      30.983  50.601   8.014  1.00  0.00     0.006 C 
BRANCH  16  17
ATOM     17  C   UNL     1      29.957  50.848   6.892  1.00  0.00     0.053 C 
BRANCH  17  18
ATOM     18  C   UNL     1      28.826  51.739   7.317  1.00  0.00     0.041 C 
ATOM     19  O   UNL     1      28.069  52.264   6.457  1.00  0.00    -0.550 OA
ATOM     20  O   UNL     1      28.561  51.933   8.667  1.00  0.00    -0.550 OA
ENDBRANCH  17  18
ENDBRANCH  16  17
ENDBRANCH  15  16
ENDBRANCH  14  15
ENDBRANCH  13  14
ENDBRANCH  12  13
ENDBRANCH  11  12
ENDBRANCH   1  11
TORSDOF 15
ENDMDL
MODEL 2
REMARK VINA RESULT:    -3.431      1.471      2.017
REMARK INTER + INTRA:          -8.390
REMARK INTER:                  -6.744
REMARK INTRA:                  -1.645
REMARK UNBOUND:                -1.950
REMARK SMILES O=C([O-])CCCCCCCCCCCCCCC(=O)[O-]
REMARK SMILES IDX 10 1 9 2 8 3 7 4 6 5 5 6 4 7 2 8 1 9 3 10 11 11 12 12 13 13
REMARK SMILES IDX 14 14 15 15 16 16 17 17 18 18 19 19 20 20
REMARK H PARENT
REMARK Flexibility Score: inf
ROOT
ATOM      1  C   UNL     1      27.993  47.506   7.654  1.00  0.00     0.000 C 
ENDROOT
BRANCH   1   2
ATOM      2  C   UNL     1      27.470  47.754   9.080  1.00  0.00     0.000 C 
BRANCH   2   3
ATOM      3  C   UNL     1      26.051  47.202   9.295  1.00  0.00     0.000 C 
BRANCH   3   4
ATOM      4  C   UNL     1      26.053  45.728   9.738  1.00  0.00     0.000 C 
BRANCH   4   5
ATOM      5  C   UNL     1      25.950  44.747   8.556  1.00  0.00     0.000 C 
BRANCH   5   6
ATOM      6  C   UNL     1      26.902  43.539   8.623  1.00  0.00     0.006 C 
BRANCH   6   7
ATOM      7  C   UNL     1      26.443  42.366   7.746  1.00  0.00     0.053 C 
BRANCH   7   8
ATOM      8  C   UNL     1      27.251  41.143   8.047  1.00  0.00     0.041 C 
ATOM      9  O   UNL     1      27.562  40.346   7.124  1.00  0.00    -0.550 OA
ATOM     10  O   UNL     1      27.620  40.858   9.356  1.00  0.00    -0.550 OA
ENDBRANCH   7   8
ENDBRANCH   6   7
ENDBRANCH   5   6
ENDBRANCH   4   5
ENDBRANCH   3   4
ENDBRANCH   2   3
ENDBRANCH   1   2
BRANCH   1  11
ATOM     11  C   UNL     1      29.314  46.720   7.639  1.00  0.00     0.000 C 
BRANCH  11  12
ATOM     12  C   UNL     1      30.177  46.994   8.879  1.00  0.00     0.000 C 
BRANCH  12  13
ATOM     13  C   UNL     1      31.642  47.221   8.489  1.00  0.00     0.000 C 
BRANCH  13  14
ATOM     14  C   UNL     1      31.757  48.197   7.310  1.00  0.00     0.000 C 
BRANCH  14  15
ATOM     15  C   UNL     1      32.340  49.558   7.742  1.00  0.00     0.000 C 
BRANCH  15  16
ATOM     16  C   UNL     1      31.578  50.771   7.177  1.00  0.00     0.006 C 
BRANCH  16  17
ATOM     17  C   UNL     1      30.063  50.544   7.016  1.00  0.00     0.053 C 
BRANCH  17  18
ATOM     18  C   UNL     1      29.260  51.116   8.148  1.00  0.00     0.041 C 
ATOM     19  O   UNL     1      29.409  50.679   9.321  1.00  0.00    -0.550 OA
ATOM     20  O   UNL     1      28.398  52.181   7.922  1.00  0.00    -0.550 OA
ENDBRANCH  17  18
ENDBRANCH  16  17
ENDBRANCH  15  16
ENDBRANCH  14  15
ENDBRANCH  13  14
ENDBRANCH  12  13
ENDBRANCH  11  12
ENDBRANCH   1  11
TORSDOF 15
ENDMDL
MODEL 3
REMARK VINA RESULT:    -3.422      1.371      6.488
REMARK INTER + INTRA:          -8.374
REMARK INTER:                  -6.348
REMARK INTRA:                  -2.026
REMARK UNBOUND:                -1.950
REMARK SMILES O=C([O-])CCCCCCCCCCCCCCC(=O)[O-]
REMARK SMILES IDX 10 1 9 2 8 3 7 4 6 5 5 6 4 7 2 8 1 9 3 10 11 11 12 12 13 13
REMARK SMILES IDX 14 14 15 15 16 16 17 17 18 18 19 19 20 20
REMARK H PARENT
REMARK Flexibility Score: inf
ROOT
ATOM      1  C   UNL     1      31.335  46.652   8.543  1.00  0.00     0.000 C 
ENDROOT
BRANCH   1   2
ATOM      2  C   UNL     1      32.014  47.965   8.116  1.00  0.00     0.000 C 
BRANCH   2   3
ATOM      3  C   UNL     1      31.627  48.398   6.692  1.00  0.00     0.000 C 
BRANCH   3   4
ATOM      4  C   UNL     1      30.706  49.630   6.681  1.00  0.00     0.000 C 
BRANCH   4   5
ATOM      5  C   UNL     1      30.830  50.483   7.958  1.00  0.00     0.000 C 
BRANCH   5   6
ATOM      6  C   UNL     1      29.498  50.996   8.534  1.00  0.00     0.006 C 
BRANCH   6   7
ATOM      7  C   UNL     1      28.433  51.239   7.456  1.00  0.00     0.053 C 
BRANCH   7   8
ATOM      8  C   UNL     1      27.137  51.645   8.084  1.00  0.00     0.041 C 
ATOM      9  O   UNL     1      27.026  52.770   8.635  1.00  0.00    -0.550 OA
ATOM     10  O   UNL     1      26.066  50.760   8.102  1.00  0.00    -0.550 OA
ENDBRANCH   7   8
ENDBRANCH   6   7
ENDBRANCH   5   6
ENDBRANCH   4   5
ENDBRANCH   3   4
ENDBRANCH   2   3
ENDBRANCH   1   2
BRANCH   1  11
ATOM     11  C   UNL     1      30.501  46.026   7.414  1.00  0.00     0.000 C 
BRANCH  11  12
ATOM     12  C   UNL     1      29.025  45.848   7.800  1.00  0.00     0.000 C 
BRANCH  12  13
ATOM     13  C   UNL     1      28.276  47.184   7.734  1.00  0.00     0.000 C 
BRANCH  13  14
ATOM     14  C   UNL     1      27.938  47.700   9.140  1.00  0.00     0.000 C 
BRANCH  14  15
ATOM     15  C   UNL     1      26.428  47.612   9.440  1.00  0.00     0.000 C 
BRANCH  15  16
ATOM     16  C   UNL     1      25.972  46.232   9.947  1.00  0.00     0.006 C 
BRANCH  16  17
ATOM     17  C   UNL     1      25.099  45.450   8.946  1.00  0.00     0.053 C 
BRANCH  17  18
ATOM     18  C   UNL     1      25.831  44.318   8.288  1.00  0.00     0.041 C 
ATOM     19  O   UNL     1      26.652  43.622   8.943  1.00  0.00    -0.550 OA
ATOM     20  O   UNL     1      25.556  43.984   6.968  1.00  0.00    -0.550 OA
ENDBRANCH  17  18
ENDBRANCH  16  17
ENDBRANCH  15  16
ENDBRANCH  14  15
ENDBRANCH  13  14
ENDBRANCH  12  13
ENDBRANCH  11  12
ENDBRANCH   1  11
TORSDOF 15
ENDMDL
MODEL 4
REMARK VINA RESULT:    -3.409      1.511      2.589
REMARK INTER + INTRA:          -8.348
REMARK INTER:                  -6.161
REMARK INTRA:                  -2.186
REMARK UNBOUND:                -1.950
REMARK SMILES O=C([O-])CCCCCCCCCCCCCCC(=O)[O-]
REMARK SMILES IDX 10 1 9 2 8 3 7 4 6 5 5 6 4 7 2 8 1 9 3 10 11 11 12 12 13 13
REMARK SMILES IDX 14 14 15 15 16 16 17 17 18 18 19 19 20 20
REMARK H PARENT
REMARK Flexibility Score: inf
ROOT
ATOM      1  C   UNL     1      31.353  47.245   8.606  1.00  0.00     0.000 C 
ENDROOT
BRANCH   1   2
ATOM      2  C   UNL     1      29.827  47.079   8.501  1.00  0.00     0.000 C 
BRANCH   2   3
ATOM      3  C   UNL     1      29.060  48.073   9.389  1.00  0.00     0.000 C 
BRANCH   3   4
ATOM      4  C   UNL     1      27.578  48.193   8.993  1.00  0.00     0.000 C 
BRANCH   4   5
ATOM      5  C   UNL     1      27.299  47.711   7.558  1.00  0.00     0.000 C 
BRANCH   5   6
ATOM      6  C   UNL     1      26.302  46.544   7.441  1.00  0.00     0.006 C 
BRANCH   6   7
ATOM      7  C   UNL     1      26.986  45.170   7.443  1.00  0.00     0.053 C 
BRANCH   7   8
ATOM      8  C   UNL     1      26.574  44.383   8.646  1.00  0.00     0.041 C 
ATOM      9  O   UNL     1      26.044  44.961   9.631  1.00  0.00    -0.550 OA
ATOM     10  O   UNL     1      26.819  43.016   8.701  1.00  0.00    -0.550 OA
ENDBRANCH   7   8
ENDBRANCH   6   7
ENDBRANCH   5   6
ENDBRANCH   4   5
ENDBRANCH   3   4
ENDBRANCH   2   3
ENDBRANCH   1   2
BRANCH   1  11
ATOM     11  C   UNL     1      31.937  48.070   7.447  1.00  0.00     0.000 C 
BRANCH  11  12
ATOM     12  C   UNL     1      32.328  49.493   7.874  1.00  0.00     0.000 C 
BRANCH  12  13
ATOM     13  C   UNL     1      31.871  50.523   6.834  1.00  0.00     0.000 C 
BRANCH  13  14
ATOM     14  C   UNL     1      30.741  49.963   5.959  1.00  0.00     0.000 C 
BRANCH  14  15
ATOM     15  C   UNL     1      29.355  50.463   6.418  1.00  0.00     0.000 C 
BRANCH  15  16
ATOM     16  C   UNL     1      29.410  51.703   7.330  1.00  0.00     0.006 C 
BRANCH  16  17
ATOM     17  C   UNL     1      28.364  51.699   8.461  1.00  0.00     0.053 C 
BRANCH  17  18
ATOM     18  C   UNL     1      26.989  52.075   7.990  1.00  0.00     0.041 C 
ATOM     19  O   UNL     1      26.026  51.273   8.124  1.00  0.00    -0.550 OA
ATOM     20  O   UNL     1      26.754  53.340   7.465  1.00  0.00    -0.550 OA
ENDBRANCH  17  18
ENDBRANCH  16  17
ENDBRANCH  15  16
ENDBRANCH  14  15
ENDBRANCH  13  14
ENDBRANCH  12  13
ENDBRANCH  11  12
ENDBRANCH   1  11
TORSDOF 15
ENDMDL
MODEL 5
REMARK VINA RESULT:    -3.394      2.078      3.723
REMARK INTER + INTRA:          -8.320
REMARK INTER:                  -6.119
REMARK INTRA:                  -2.201
REMARK UNBOUND:                -1.950
REMARK SMILES O=C([O-])CCCCCCCCCCCCCCC(=O)[O-]
REMARK SMILES IDX 10 1 9 2 8 3 7 4 6 5 5 6 4 7 2 8 1 9 3 10 11 11 12 12 13 13
REMARK SMILES IDX 14 14 15 15 16 16 17 17 18 18 19 19 20 20
REMARK H PARENT
REMARK Flexibility Score: inf
ROOT
ATOM      1  C   UNL     1      24.989  47.496   8.728  1.00  0.00     0.000 C 
ENDROOT
BRANCH   1   2
ATOM      2  C   UNL     1      25.621  46.869   9.983  1.00  0.00     0.000 C 
BRANCH   2   3
ATOM      3  C   UNL     1      25.713  45.337   9.898  1.00  0.00     0.000 C 
BRANCH   3   4
ATOM      4  C   UNL     1      25.989  44.842   8.467  1.00  0.00     0.000 C 
BRANCH   4   5
ATOM      5  C   UNL     1      27.488  44.835   8.114  1.00  0.00     0.000 C 
BRANCH   5   6
ATOM      6  C   UNL     1      27.811  44.547   6.636  1.00  0.00     0.006 C 
BRANCH   6   7
ATOM      7  C   UNL     1      29.074  43.697   6.454  1.00  0.00     0.053 C 
BRANCH   7   8
ATOM      8  C   UNL     1      28.721  42.244   6.386  1.00  0.00     0.041 C 
ATOM      9  O   UNL     1      27.515  41.886   6.375  1.00  0.00    -0.550 OA
ATOM     10  O   UNL     1      29.725  41.284   6.385  1.00  0.00    -0.550 OA
ENDBRANCH   7   8
ENDBRANCH   6   7
ENDBRANCH   5   6
ENDBRANCH   4   5
ENDBRANCH   3   4
ENDBRANCH   2   3
ENDBRANCH   1   2
BRANCH   1  11
ATOM     11  C   UNL     1      25.818  48.663   8.170  1.00  0.00     0.000 C 
BRANCH  11  12
ATOM     12  C   UNL     1      26.848  48.209   7.124  1.00  0.00     0.000 C 
BRANCH  12  13
ATOM     13  C   UNL     1      28.232  48.793   7.427  1.00  0.00     0.000 C 
BRANCH  13  14
ATOM     14  C   UNL     1      28.472  48.894   8.940  1.00  0.00     0.000 C 
BRANCH  14  15
ATOM     15  C   UNL     1      29.352  47.740   9.463  1.00  0.00     0.000 C 
BRANCH  15  16
ATOM     16  C   UNL     1      30.139  47.007   8.361  1.00  0.00     0.006 C 
BRANCH  16  17
ATOM     17  C   UNL     1      31.633  47.378   8.301  1.00  0.00     0.053 C 
BRANCH  17  18
ATOM     18  C   UNL     1      31.906  48.574   7.436  1.00  0.00     0.041 C 
ATOM     19  O   UNL     1      31.844  48.482   6.181  1.00  0.00    -0.550 OA
ATOM     20  O   UNL     1      32.161  49.810   8.018  1.00  0.00    -0.550 OA
ENDBRANCH  17  18
ENDBRANCH  16  17
ENDBRANCH  15  16
ENDBRANCH  14  15
ENDBRANCH  13  14
ENDBRANCH  12  13
ENDBRANCH  11  12
ENDBRANCH   1  11
TORSDOF 15
ENDMDL
MODEL 6
REMARK VINA RESULT:    -3.392     17.420     19.191
REMARK INTER + INTRA:          -8.317
REMARK INTER:                  -7.284
REMARK INTRA:                  -1.032
REMARK UNBOUND:                -1.950
REMARK SMILES O=C([O-])CCCCCCCCCCCCCCC(=O)[O-]
REMARK SMILES IDX 10 1 9 2 8 3 7 4 6 5 5 6 4 7 2 8 1 9 3 10 11 11 12 12 13 13
REMARK SMILES IDX 14 14 15 15 16 16 17 17 18 18 19 19 20 20
REMARK H PARENT
REMARK Flexibility Score: inf
ROOT
ATOM      1  C   UNL     1      33.103  49.158  25.055  1.00  0.00     0.000 C 
ENDROOT
BRANCH   1   2
ATOM      2  C   UNL     1      33.023  50.443  25.897  1.00  0.00     0.000 C 
BRANCH   2   3
ATOM      3  C   UNL     1      33.976  51.540  25.395  1.00  0.00     0.000 C 
BRANCH   3   4
ATOM      4  C   UNL     1      33.391  52.953  25.568  1.00  0.00     0.000 C 
BRANCH   4   5
ATOM      5  C   UNL     1      31.955  52.943  26.125  1.00  0.00     0.000 C 
BRANCH   5   6
ATOM      6  C   UNL     1      30.895  53.587  25.213  1.00  0.00     0.006 C 
BRANCH   6   7
ATOM      7  C   UNL     1      29.500  52.972  25.390  1.00  0.00     0.053 C 
BRANCH   7   8
ATOM      8  C   UNL     1      29.524  51.516  25.046  1.00  0.00     0.041 C 
ATOM      9  O   UNL     1      29.368  50.649  25.946  1.00  0.00    -0.550 OA
ATOM     10  O   UNL     1      29.769  51.114  23.738  1.00  0.00    -0.550 OA
ENDBRANCH   7   8
ENDBRANCH   6   7
ENDBRANCH   5   6
ENDBRANCH   4   5
ENDBRANCH   3   4
ENDBRANCH   2   3
ENDBRANCH   1   2
BRANCH   1  11
ATOM     11  C   UNL     1      34.523  48.571  25.007  1.00  0.00     0.000 C 
BRANCH  11  12
ATOM     12  C   UNL     1      34.771  47.537  26.115  1.00  0.00     0.000 C 
BRANCH  12  13
ATOM     13  C   UNL     1      34.092  46.203  25.785  1.00  0.00     0.000 C 
BRANCH  13  14
ATOM     14  C   UNL     1      35.011  45.018  26.110  1.00  0.00     0.000 C 
BRANCH  14  15
ATOM     15  C   UNL     1      36.498  45.425  26.114  1.00  0.00     0.000 C 
BRANCH  15  16
ATOM     16  C   UNL     1      37.418  44.440  25.370  1.00  0.00     0.006 C 
BRANCH  16  17
ATOM     17  C   UNL     1      36.776  43.067  25.093  1.00  0.00     0.053 C 
BRANCH  17  18
ATOM     18  C   UNL     1      37.285  42.425  23.835  1.00  0.00     0.041 C 
ATOM     19  O   UNL     1      38.229  41.592  23.880  1.00  0.00    -0.550 OA
ATOM     20  O   UNL     1      36.670  42.693  22.618  1.00  0.00    -0.550 OA
ENDBRANCH  17  18
ENDBRANCH  16  17
ENDBRANCH  15  16
ENDBRANCH  14  15
ENDBRANCH  13  14
ENDBRANCH  12  13
ENDBRANCH  11  12
ENDBRANCH   1  11
TORSDOF 15
ENDMDL
MODEL 7
REMARK VINA RESULT:    -3.390      1.446      7.472
REMARK INTER + INTRA:          -8.313
REMARK INTER:                  -6.590
REMARK INTRA:                  -1.723
REMARK UNBOUND:                -1.950
REMARK SMILES O=C([O-])CCCCCCCCCCCCCCC(=O)[O-]
REMARK SMILES IDX 10 1 9 2 8 3 7 4 6 5 5 6 4 7 2 8 1 9 3 10 11 11 12 12 13 13
REMARK SMILES IDX 14 14 15 15 16 16 17 17 18 18 19 19 20 20
REMARK H PARENT
REMARK Flexibility Score: inf
ROOT
ATOM      1  C   UNL     1      28.920  47.620   9.248  1.00  0.00     0.000 C 
ENDROOT
BRANCH   1   2
ATOM      2  C   UNL     1      29.549  46.624   8.259  1.00  0.00     0.000 C 
BRANCH   2   3
ATOM      3  C   UNL     1      31.060  46.441   8.482  1.00  0.00     0.000 C 
BRANCH   3   4
ATOM      4  C   UNL     1      31.859  47.720   8.176  1.00  0.00     0.000 C 
BRANCH   4   5
ATOM      5  C   UNL     1      31.702  48.192   6.719  1.00  0.00     0.000 C 
BRANCH   5   6
ATOM      6  C   UNL     1      31.344  49.680   6.547  1.00  0.00     0.006 C 
BRANCH   6   7
ATOM      7  C   UNL     1      31.304  50.443   7.877  1.00  0.00     0.053 C 
BRANCH   7   8
ATOM      8  C   UNL     1      29.937  50.999   8.120  1.00  0.00     0.041 C 
ATOM      9  O   UNL     1      29.223  51.372   7.153  1.00  0.00    -0.550 OA
ATOM     10  O   UNL     1      29.469  51.151   9.420  1.00  0.00    -0.550 OA
ENDBRANCH   7   8
ENDBRANCH   6   7
ENDBRANCH   5   6
ENDBRANCH   4   5
ENDBRANCH   3   4
ENDBRANCH   2   3
ENDBRANCH   1   2
BRANCH   1  11
ATOM     11  C   UNL     1      27.597  48.208   8.732  1.00  0.00     0.000 C 
BRANCH  11  12
ATOM     12  C   UNL     1      26.373  47.636   9.463  1.00  0.00     0.000 C 
BRANCH  12  13
ATOM     13  C   UNL     1      25.310  47.162   8.465  1.00  0.00     0.000 C 
BRANCH  13  14
ATOM     14  C   UNL     1      25.762  45.889   7.736  1.00  0.00     0.000 C 
BRANCH  14  15
ATOM     15  C   UNL     1      26.174  44.776   8.721  1.00  0.00     0.000 C 
BRANCH  15  16
ATOM     16  C   UNL     1      27.152  43.746   8.126  1.00  0.00     0.006 C 
BRANCH  16  17
ATOM     17  C   UNL     1      26.494  42.412   7.724  1.00  0.00     0.053 C 
BRANCH  17  18
ATOM     18  C   UNL     1      27.413  41.236   7.873  1.00  0.00     0.041 C 
ATOM     19  O   UNL     1      28.469  41.160   7.189  1.00  0.00    -0.550 OA
ATOM     20  O   UNL     1      27.142  40.256   8.819  1.00  0.00    -0.550 OA
ENDBRANCH  17  18
ENDBRANCH  16  17
ENDBRANCH  15  16
ENDBRANCH  14  15
ENDBRANCH  13  14
ENDBRANCH  12  13
ENDBRANCH  11  12
ENDBRANCH   1  11
TORSDOF 15
ENDMDL
MODEL 8
REMARK VINA RESULT:    -3.382      1.106      6.914
REMARK INTER + INTRA:          -8.298
REMARK INTER:                  -6.158
REMARK INTRA:                  -2.140
REMARK UNBOUND:                -1.950
REMARK SMILES O=C([O-])CCCCCCCCCCCCCCC(=O)[O-]
REMARK SMILES IDX 10 1 9 2 8 3 7 4 6 5 5 6 4 7 2 8 1 9 3 10 11 11 12 12 13 13
REMARK SMILES IDX 14 14 15 15 16 16 17 17 18 18 19 19 20 20
REMARK H PARENT
REMARK Flexibility Score: inf
ROOT
ATOM      1  C   UNL     1      29.823  46.795   8.412  1.00  0.00     0.000 C 
ENDROOT
BRANCH   1   2
ATOM      2  C   UNL     1      31.332  46.945   8.148  1.00  0.00     0.000 C 
BRANCH   2   3
ATOM      3  C   UNL     1      31.649  48.066   7.144  1.00  0.00     0.000 C 
BRANCH   3   4
ATOM      4  C   UNL     1      32.344  49.269   7.806  1.00  0.00     0.000 C 
BRANCH   4   5
ATOM      5  C   UNL     1      31.576  50.589   7.608  1.00  0.00     0.000 C 
BRANCH   5   6
ATOM      6  C   UNL     1      31.123  50.873   6.164  1.00  0.00     0.006 C 
BRANCH   6   7
ATOM      7  C   UNL     1      29.602  51.026   6.033  1.00  0.00     0.053 C 
BRANCH   7   8
ATOM      8  C   UNL     1      29.141  52.271   6.722  1.00  0.00     0.041 C 
ATOM      9  O   UNL     1      29.417  53.401   6.241  1.00  0.00    -0.550 OA
ATOM     10  O   UNL     1      28.448  52.185   7.924  1.00  0.00    -0.550 OA
ENDBRANCH   7   8
ENDBRANCH   6   7
ENDBRANCH   5   6
ENDBRANCH   4   5
ENDBRANCH   3   4
ENDBRANCH   2   3
ENDBRANCH   1   2
BRANCH   1  11
ATOM     11  C   UNL     1      29.350  47.625   9.616  1.00  0.00     0.000 C 
BRANCH  11  12
ATOM     12  C   UNL     1      28.623  48.912   9.197  1.00  0.00     0.000 C 
BRANCH  12  13
ATOM     13  C   UNL     1      27.643  48.639   8.050  1.00  0.00     0.000 C 
BRANCH  13  14
ATOM     14  C   UNL     1      26.188  48.769   8.523  1.00  0.00     0.000 C 
BRANCH  14  15
ATOM     15  C   UNL     1      25.369  47.498   8.223  1.00  0.00     0.000 C 
BRANCH  15  16
ATOM     16  C   UNL     1      26.215  46.315   7.717  1.00  0.00     0.006 C 
BRANCH  16  17
ATOM     17  C   UNL     1      26.355  45.162   8.730  1.00  0.00     0.053 C 
BRANCH  17  18
ATOM     18  C   UNL     1      27.080  43.974   8.170  1.00  0.00     0.041 C 
ATOM     19  O   UNL     1      26.892  42.825   8.653  1.00  0.00    -0.550 OA
ATOM     20  O   UNL     1      27.911  44.121   7.066  1.00  0.00    -0.550 OA
ENDBRANCH  17  18
ENDBRANCH  16  17
ENDBRANCH  15  16
ENDBRANCH  14  15
ENDBRANCH  13  14
ENDBRANCH  12  13
ENDBRANCH  11  12
ENDBRANCH   1  11
TORSDOF 15
ENDMDL
MODEL 9
REMARK VINA RESULT:    -3.372      2.056      5.553
REMARK INTER + INTRA:          -8.278
REMARK INTER:                  -6.445
REMARK INTRA:                  -1.833
REMARK UNBOUND:                -1.950
REMARK SMILES O=C([O-])CCCCCCCCCCCCCCC(=O)[O-]
REMARK SMILES IDX 10 1 9 2 8 3 7 4 6 5 5 6 4 7 2 8 1 9 3 10 11 11 12 12 13 13
REMARK SMILES IDX 14 14 15 15 16 16 17 17 18 18 19 19 20 20
REMARK H PARENT
REMARK Flexibility Score: inf
ROOT
ATOM      1  C   UNL     1      32.336  49.440   7.896  1.00  0.00     0.000 C 
ENDROOT
BRANCH   1   2
ATOM      2  C   UNL     1      31.893  50.614   7.005  1.00  0.00     0.000 C 
BRANCH   2   3
ATOM      3  C   UNL     1      30.378  50.619   6.743  1.00  0.00     0.000 C 
BRANCH   3   4
ATOM      4  C   UNL     1      29.578  51.201   7.923  1.00  0.00     0.000 C 
BRANCH   4   5
ATOM      5  C   UNL     1      28.336  50.363   8.277  1.00  0.00     0.000 C 
BRANCH   5   6
ATOM      6  C   UNL     1      28.600  49.159   9.198  1.00  0.00     0.006 C 
BRANCH   6   7
ATOM      7  C   UNL     1      28.088  47.835   8.615  1.00  0.00     0.053 C 
BRANCH   7   8
ATOM      8  C   UNL     1      26.592  47.795   8.646  1.00  0.00     0.041 C 
ATOM      9  O   UNL     1      25.980  47.835   9.745  1.00  0.00    -0.550 OA
ATOM     10  O   UNL     1      25.876  47.665   7.462  1.00  0.00    -0.550 OA
ENDBRANCH   7   8
ENDBRANCH   6   7
ENDBRANCH   5   6
ENDBRANCH   4   5
ENDBRANCH   3   4
ENDBRANCH   2   3
ENDBRANCH   1   2
BRANCH   1  11
ATOM     11  C   UNL     1      31.741  48.098   7.443  1.00  0.00     0.000 C 
BRANCH  11  12
ATOM     12  C   UNL     1      31.683  47.065   8.578  1.00  0.00     0.000 C 
BRANCH  12  13
ATOM     13  C   UNL     1      31.274  45.686   8.046  1.00  0.00     0.000 C 
BRANCH  13  14
ATOM     14  C   UNL     1      30.176  45.808   6.980  1.00  0.00     0.000 C 
BRANCH  14  15
ATOM     15  C   UNL     1      30.018  44.509   6.164  1.00  0.00     0.000 C 
BRANCH  15  16
ATOM     16  C   UNL     1      28.813  43.648   6.587  1.00  0.00     0.006 C 
BRANCH  16  17
ATOM     17  C   UNL     1      27.638  44.454   7.172  1.00  0.00     0.053 C 
BRANCH  17  18
ATOM     18  C   UNL     1      26.913  43.725   8.266  1.00  0.00     0.041 C 
ATOM     19  O   UNL     1      26.974  42.469   8.345  1.00  0.00    -0.550 OA
ATOM     20  O   UNL     1      26.228  44.438   9.242  1.00  0.00    -0.550 OA
ENDBRANCH  17  18
ENDBRANCH  16  17
ENDBRANCH  15  16
ENDBRANCH  14  15
ENDBRANCH  13  14
ENDBRANCH  12  13
ENDBRANCH  11  12
ENDBRANCH   1  11
TORSDOF 15
ENDMDL
