MODEL 1
REMARK VINA RESULT:    -6.568      0.000      0.000
REMARK INTER + INTRA:          -7.728
REMARK INTER:                  -7.911
REMARK INTRA:                   0.183
REMARK UNBOUND:                 0.183
REMARK SMILES O=c1c(O)c(-c2ccc(O)c(O)c2)oc2cc(O)cc(O)c12
REMARK SMILES IDX 5 1 3 2 2 3 1 4 22 5 20 6 19 7 17 8 16 9 15 10 14 11 6 12
REMARK SMILES IDX 7 13 8 14 9 15 13 16 11 17 10 18 12 20 4 22 21 24 18 26
REMARK H PARENT 10 19 12 21 4 23 21 25 18 27
REMARK Flexibility Score: inf
ROOT
ATOM      1  C   UNL     1      94.390  99.308  98.801  1.00  0.00     0.180 A 
ATOM      2  C   UNL     1      93.697  98.109  99.056  1.00  0.00     0.208 A 
ATOM      3  C   UNL     1      93.872  97.026  98.180  1.00  0.00     0.238 A 
ATOM      4  O   UNL     1      93.249  95.950  98.392  1.00  0.00    -0.285 OA
ATOM      5  C   UNL     1      94.748  97.151  97.082  1.00  0.00     0.111 A 
ATOM      6  C   UNL     1      94.983  96.106  96.155  1.00  0.00     0.134 A 
ATOM      7  C   UNL     1      95.876  96.308  95.093  1.00  0.00     0.093 A 
ATOM      8  C   UNL     1      96.538  97.528  94.939  1.00  0.00     0.123 A 
ATOM      9  C   UNL     1      96.309  98.563  95.851  1.00  0.00     0.094 A 
ATOM     10  C   UNL     1      95.422  98.384  96.915  1.00  0.00     0.146 A 
ATOM     11  O   UNL     1      95.219  99.385  97.764  1.00  0.00    -0.452 OA
ENDROOT
BRANCH   1  12
ATOM     12  C   UNL     1      94.244 100.500  99.667  1.00  0.00     0.025 A 
ATOM     13  C   UNL     1      94.220 101.799  99.127  1.00  0.00     0.016 A 
ATOM     14  C   UNL     1      94.105 102.910  99.965  1.00  0.00     0.051 A 
ATOM     15  C   UNL     1      94.027 102.746 101.351  1.00  0.00     0.157 A 
ATOM     16  C   UNL     1      94.186 100.340 101.061  1.00  0.00     0.062 A 
ATOM     17  C   UNL     1      94.070 101.455 101.904  1.00  0.00     0.158 A 
BRANCH  15  18
ATOM     18  O   UNL     1      93.911 103.875 102.163  1.00  0.00    -0.504 OA
ATOM     19  H   UNL     1      93.683 103.809 103.147  1.00  0.00     0.293 HD
ENDBRANCH  15  18
BRANCH  17  20
ATOM     20  O   UNL     1      94.000 101.284 103.286  1.00  0.00    -0.504 OA
ATOM     21  H   UNL     1      93.322 101.785 103.849  1.00  0.00     0.293 HD
ENDBRANCH  17  20
ENDBRANCH   1  12
BRANCH   2  22
ATOM     22  O   UNL     1      92.875  97.994 100.179  1.00  0.00    -0.502 OA
ATOM     23  H   UNL     1      93.204  98.196 101.115  1.00  0.00     0.293 HD
ENDBRANCH   2  22
BRANCH   6  24
ATOM     24  O   UNL     1      94.339  94.875  96.282  1.00  0.00    -0.507 OA
ATOM     25  H   UNL     1      93.779  94.649  97.095  1.00  0.00     0.293 HD
ENDBRANCH   6  24
BRANCH   8  26
ATOM     26  O   UNL     1      97.421  97.701  93.875  1.00  0.00    -0.508 OA
ATOM     27  H   UNL     1      98.400  97.453  93.954  1.00  0.00     0.293 HD
ENDBRANCH   8  26
TORSDOF 6
ENDMDL
MODEL 2
REMARK VINA RESULT:    -5.104      0.841      1.472
REMARK INTER + INTRA:          -5.966
REMARK INTER:                  -5.698
REMARK INTRA:                  -0.268
REMARK UNBOUND:                 0.183
REMARK SMILES O=c1c(O)c(-c2ccc(O)c(O)c2)oc2cc(O)cc(O)c12
REMARK SMILES IDX 5 1 3 2 2 3 1 4 22 5 20 6 19 7 17 8 16 9 15 10 14 11 6 12
REMARK SMILES IDX 7 13 8 14 9 15 13 16 11 17 10 18 12 20 4 22 21 24 18 26
REMARK H PARENT 10 19 12 21 4 23 21 25 18 27
REMARK Flexibility Score: inf
ROOT
ATOM      1  C   UNL     1      94.707  98.945  98.633  1.00  0.00     0.180 A 
ATOM      2  C   UNL     1      93.837  97.838  98.644  1.00  0.00     0.208 A 
ATOM      3  C   UNL     1      93.975  96.857  97.650  1.00  0.00     0.238 A 
ATOM      4  O   UNL     1      93.195  95.866  97.643  1.00  0.00    -0.285 OA
ATOM      5  C   UNL     1      94.988  96.988  96.677  1.00  0.00     0.111 A 
ATOM      6  C   UNL     1      95.196  96.042  95.644  1.00  0.00     0.134 A 
ATOM      7  C   UNL     1      96.232  96.240  94.719  1.00  0.00     0.093 A 
ATOM      8  C   UNL     1      97.062  97.359  94.807  1.00  0.00     0.123 A 
ATOM      9  C   UNL     1      96.861  98.297  95.825  1.00  0.00     0.094 A 
ATOM     10  C   UNL     1      95.833  98.119  96.755  1.00  0.00     0.146 A 
ATOM     11  O   UNL     1      95.661  99.027  97.709  1.00  0.00    -0.452 OA
ENDROOT
BRANCH   1  12
ATOM     12  C   UNL     1      94.614 100.030  99.636  1.00  0.00     0.025 A 
ATOM     13  C   UNL     1      95.077  99.852 100.952  1.00  0.00     0.016 A 
ATOM     14  C   UNL     1      94.956 100.882 101.888  1.00  0.00     0.051 A 
ATOM     15  C   UNL     1      94.362 102.096 101.532  1.00  0.00     0.157 A 
ATOM     16  C   UNL     1      93.999 101.244  99.287  1.00  0.00     0.062 A 
ATOM     17  C   UNL     1      93.877 102.279 100.226  1.00  0.00     0.158 A 
BRANCH  15  18
ATOM     18  O   UNL     1      94.258 103.107 102.488  1.00  0.00    -0.504 OA
ATOM     19  H   UNL     1      93.364 103.482 102.779  1.00  0.00     0.293 HD
ENDBRANCH  15  18
BRANCH  17  20
ATOM     20  O   UNL     1      93.277 103.484  99.866  1.00  0.00    -0.504 OA
ATOM     21  H   UNL     1      92.740 103.575  99.011  1.00  0.00     0.293 HD
ENDBRANCH  17  20
ENDBRANCH   1  12
BRANCH   2  22
ATOM     22  O   UNL     1      92.875  97.707  99.648  1.00  0.00    -0.502 OA
ATOM     23  H   UNL     1      91.922  98.030  99.531  1.00  0.00     0.293 HD
ENDBRANCH   2  22
BRANCH   6  24
ATOM     24  O   UNL     1      94.385  94.912  95.530  1.00  0.00    -0.507 OA
ATOM     25  H   UNL     1      93.945  94.489  96.338  1.00  0.00     0.293 HD
ENDBRANCH   6  24
BRANCH   8  26
ATOM     26  O   UNL     1      98.084  97.531  93.875  1.00  0.00    -0.508 OA
ATOM     27  H   UNL     1      98.515  98.436  93.723  1.00  0.00     0.293 HD
ENDBRANCH   8  26
TORSDOF 6
ENDMDL
