MODEL 1
REMARK VINA RESULT:    -3.954      0.000      0.000
REMARK INTER + INTRA:          -1.720
REMARK INTER:                  -4.879
REMARK INTRA:                   3.159
REMARK UNBOUND:                 3.159
REMARK SMILES C=C1CC[C@@H]2[C@@H]([C@H]3[C@H](C)CC[C@@H]13)C2(C)C
REMARK SMILES IDX 3 1 2 2 1 3 12 4 9 5 8 6 10 7 7 8 11 9 4 11 5 12 6 13 13 14
REMARK SMILES IDX 14 16 15 17
REMARK H PARENT
REMARK Flexibility Score: 80.00
ROOT
ATOM      1  C   UNL     1      30.572   6.648  31.900  1.00  0.00     0.031 C 
ENDROOT
BRANCH   1   2
ATOM      2  C   UNL     1      30.326   6.569  33.405  1.00  0.00    -0.074 C 
ATOM      3  C   UNL     1      29.061   6.466  33.849  1.00  0.00     0.008 C 
BRANCH   2   4
ATOM      4  C   UNL     1      31.491   6.921  34.354  1.00  0.00     0.018 C 
ATOM      5  C   UNL     1      31.416   9.883  36.726  1.00  0.00     0.008 C 
ATOM      6  C   UNL     1      30.915   8.639  35.982  1.00  0.00    -0.010 C 
ATOM      7  C   UNL     1      31.167   7.348  36.764  1.00  0.00     0.004 C 
ATOM      8  C   UNL     1      31.612   8.443  34.636  1.00  0.00     0.003 CG0
ATOM      9  C   UNL     1      31.418   6.245  35.734  1.00  0.00     0.008 C 
ATOM     10  G   UNL     1      30.954   9.291  33.522  1.00  0.00     0.000 G0
ENDBRANCH   2   4
ENDBRANCH   1   2
BRANCH   1  11
ATOM     11  C   UNL     1      30.580   8.106  31.376  1.00  0.00     0.009 C 
BRANCH  11  12
ATOM     12  C   UNL     1      31.604   8.928  32.176  1.00  0.00    -0.001 C 
ATOM     13  C   UNL     1      30.942   9.305  33.529  1.00  0.00     0.002 CG0
ATOM     14  C   UNL     1      31.524  10.384  32.617  1.00  0.00    -0.029 C 
ATOM     15  G   UNL     1      31.645   8.464  34.619  1.00  0.00     0.000 G0
ATOM     16  C   UNL     1      30.514  11.277  31.887  1.00  0.00     0.011 C 
ATOM     17  C   UNL     1      32.828  11.043  33.082  1.00  0.00     0.011 C 
ENDBRANCH  11  12
ENDBRANCH   1  11
TORSDOF 0
ENDMDL
MODEL 2
REMARK VINA RESULT:    -3.905      5.219      7.785
REMARK INTER + INTRA:          -1.659
REMARK INTER:                  -4.875
REMARK INTRA:                   3.216
REMARK UNBOUND:                 3.159
REMARK SMILES C=C1CC[C@@H]2[C@@H]([C@H]3[C@H](C)CC[C@@H]13)C2(C)C
REMARK SMILES IDX 3 1 2 2 1 3 12 4 9 5 8 6 10 7 7 8 11 9 4 11 5 12 6 13 13 14
REMARK SMILES IDX 14 16 15 17
REMARK H PARENT
REMARK Flexibility Score: 80.00
ROOT
ATOM      1  C   UNL     1      30.025   7.618  29.624  1.00  0.00     0.031 C 
ENDROOT
BRANCH   1   2
ATOM      2  C   UNL     1      30.410   7.025  28.271  1.00  0.00    -0.074 C 
ATOM      3  C   UNL     1      31.710   6.802  28.009  1.00  0.00     0.008 C 
BRANCH   2   4
ATOM      4  C   UNL     1      29.343   6.995  27.157  1.00  0.00     0.018 C 
ATOM      5  C   UNL     1      29.679   8.926  23.907  1.00  0.00     0.008 C 
ATOM      6  C   UNL     1      30.092   8.037  25.085  1.00  0.00    -0.010 C 
ATOM      7  C   UNL     1      29.894   6.548  24.792  1.00  0.00     0.004 C 
ATOM      8  C   UNL     1      29.270   8.316  26.345  1.00  0.00     0.003 CG0
ATOM      9  C   UNL     1      29.533   5.876  26.118  1.00  0.00     0.008 C 
ATOM     10  G   UNL     1      29.835   9.516  27.141  1.00  0.00     0.000 G0
ENDBRANCH   2   4
ENDBRANCH   1   2
BRANCH   1  11
ATOM     11  C   UNL     1      29.961   9.166  29.596  1.00  0.00     0.009 C 
BRANCH  11  12
ATOM     12  C   UNL     1      29.024   9.615  28.464  1.00  0.00    -0.001 C 
ATOM     13  C   UNL     1      29.823   9.529  27.136  1.00  0.00     0.002 CG0
ATOM     14  C   UNL     1      29.142  10.831  27.552  1.00  0.00    -0.029 C 
ATOM     15  G   UNL     1      29.246   8.332  26.344  1.00  0.00     0.000 G0
ATOM     16  C   UNL     1      30.063  11.964  28.021  1.00  0.00     0.011 C 
ATOM     17  C   UNL     1      27.891  11.232  26.761  1.00  0.00     0.011 C 
ENDBRANCH  11  12
ENDBRANCH   1  11
TORSDOF 0
ENDMDL
MODEL 3
REMARK VINA RESULT:    -3.707      4.636      6.538
REMARK INTER + INTRA:          -1.415
REMARK INTER:                  -4.602
REMARK INTRA:                   3.187
REMARK UNBOUND:                 3.159
REMARK SMILES C=C1CC[C@@H]2[C@@H]([C@H]3[C@H](C)CC[C@@H]13)C2(C)C
REMARK SMILES IDX 3 1 2 2 1 3 12 4 9 5 8 6 10 7 7 8 11 9 4 11 5 12 6 13 13 14
REMARK SMILES IDX 14 16 15 17
REMARK H PARENT
REMARK Flexibility Score: 80.00
ROOT
ATOM      1  C   UNL     1      29.622   7.814  25.005  1.00  0.00     0.031 C 
ENDROOT
BRANCH   1   2
ATOM      2  C   UNL     1      29.940   6.962  26.231  1.00  0.00    -0.074 C 
ATOM      3  C   UNL     1      29.076   5.995  26.587  1.00  0.00     0.008 C 
BRANCH   2   4
ATOM      4  C   UNL     1      31.059   7.438  27.180  1.00  0.00     0.018 C 
ATOM      5  C   UNL     1      30.443   8.409  30.797  1.00  0.00     0.008 C 
ATOM      6  C   UNL     1      30.344   7.591  29.504  1.00  0.00    -0.010 C 
ATOM      7  C   UNL     1      31.397   6.482  29.432  1.00  0.00     0.004 C 
ATOM      8  C   UNL     1      30.564   8.443  28.253  1.00  0.00     0.003 CG0
ATOM      9  C   UNL     1      31.762   6.310  27.956  1.00  0.00     0.008 C 
ATOM     10  G   UNL     1      29.267   9.163  27.817  1.00  0.00     0.000 G0
ENDBRANCH   2   4
ENDBRANCH   1   2
BRANCH   1  11
ATOM     11  C   UNL     1      28.818   9.090  25.361  1.00  0.00     0.009 C 
BRANCH  11  12
ATOM     12  C   UNL     1      29.564   9.871  26.454  1.00  0.00    -0.001 C 
ATOM     13  C   UNL     1      29.256   9.182  27.811  1.00  0.00     0.002 CG0
ATOM     14  C   UNL     1      28.989  10.673  27.616  1.00  0.00    -0.029 C 
ATOM     15  G   UNL     1      30.556   8.471  28.255  1.00  0.00     0.000 G0
ATOM     16  C   UNL     1      27.519  11.095  27.509  1.00  0.00     0.011 C 
ATOM     17  C   UNL     1      29.940  11.638  28.333  1.00  0.00     0.011 C 
ENDBRANCH  11  12
ENDBRANCH   1  11
TORSDOF 0
ENDMDL
MODEL 4
REMARK VINA RESULT:    -3.686      5.693      7.496
REMARK INTER + INTRA:          -1.389
REMARK INTER:                  -4.605
REMARK INTRA:                   3.216
REMARK UNBOUND:                 3.159
REMARK SMILES C=C1CC[C@@H]2[C@@H]([C@H]3[C@H](C)CC[C@@H]13)C2(C)C
REMARK SMILES IDX 3 1 2 2 1 3 12 4 9 5 8 6 10 7 7 8 11 9 4 11 5 12 6 13 13 14
REMARK SMILES IDX 14 16 15 17
REMARK H PARENT
REMARK Flexibility Score: 80.00
ROOT
ATOM      1  C   UNL     1      30.107   6.029  25.147  1.00  0.00     0.031 C 
ENDROOT
BRANCH   1   2
ATOM      2  C   UNL     1      29.811   6.323  26.615  1.00  0.00    -0.074 C 
ATOM      3  C   UNL     1      28.601   6.003  27.107  1.00  0.00     0.008 C 
BRANCH   2   4
ATOM      4  C   UNL     1      30.781   7.244  27.385  1.00  0.00     0.018 C 
ATOM      5  C   UNL     1      29.747  10.589  28.848  1.00  0.00     0.008 C 
ATOM      6  C   UNL     1      29.660   9.100  28.496  1.00  0.00    -0.010 C 
ATOM      7  C   UNL     1      30.239   8.204  29.594  1.00  0.00     0.004 C 
ATOM      8  C   UNL     1      30.445   8.751  27.231  1.00  0.00     0.003 CG0
ATOM      9  C   UNL     1      30.843   6.982  28.900  1.00  0.00     0.008 C 
ATOM     10  G   UNL     1      29.621   9.032  25.952  1.00  0.00     0.000 G0
ENDBRANCH   2   4
ENDBRANCH   1   2
BRANCH   1  11
ATOM     11  C   UNL     1      29.774   7.227  24.223  1.00  0.00     0.009 C 
BRANCH  11  12
ATOM     12  C   UNL     1      30.480   8.487  24.749  1.00  0.00    -0.001 C 
ATOM     13  C   UNL     1      29.627   9.044  25.920  1.00  0.00     0.002 CG0
ATOM     14  C   UNL     1      29.995   9.931  24.732  1.00  0.00    -0.029 C 
ATOM     15  G   UNL     1      30.419   8.771  27.219  1.00  0.00     0.000 G0
ATOM     16  C   UNL     1      28.862  10.273  23.758  1.00  0.00     0.011 C 
ATOM     17  C   UNL     1      31.044  11.020  24.991  1.00  0.00     0.011 C 
ENDBRANCH  11  12
ENDBRANCH   1  11
TORSDOF 0
ENDMDL
MODEL 5
REMARK VINA RESULT:    -3.556      5.640      8.579
REMARK INTER + INTRA:          -1.228
REMARK INTER:                  -4.388
REMARK INTRA:                   3.160
REMARK UNBOUND:                 3.159
REMARK SMILES C=C1CC[C@@H]2[C@@H]([C@H]3[C@H](C)CC[C@@H]13)C2(C)C
REMARK SMILES IDX 3 1 2 2 1 3 12 4 9 5 8 6 10 7 7 8 11 9 4 11 5 12 6 13 13 14
REMARK SMILES IDX 14 16 15 17
REMARK H PARENT
REMARK Flexibility Score: 80.00
ROOT
ATOM      1  C   UNL     1      29.477  10.801  28.377  1.00  0.00     0.031 C 
ENDROOT
BRANCH   1   2
ATOM      2  C   UNL     1      29.176  10.627  26.891  1.00  0.00    -0.074 C 
ATOM      3  C   UNL     1      27.897  10.684  26.480  1.00  0.00     0.008 C 
BRANCH   2   4
ATOM      4  C   UNL     1      30.297  10.089  25.977  1.00  0.00     0.018 C 
ATOM      5  C   UNL     1      30.056   6.791  24.115  1.00  0.00     0.008 C 
ATOM      6  C   UNL     1      29.616   8.153  24.664  1.00  0.00    -0.010 C 
ATOM      7  C   UNL     1      29.878   9.294  23.677  1.00  0.00     0.004 C 
ATOM      8  C   UNL     1      30.365   8.539  25.940  1.00  0.00     0.003 CG0
ATOM      9  C   UNL     1      30.195  10.538  24.509  1.00  0.00     0.008 C 
ATOM     10  G   UNL     1      29.722   7.902  27.194  1.00  0.00     0.000 G0
ENDBRANCH   2   4
ENDBRANCH   1   2
BRANCH   1  11
ATOM     11  C   UNL     1      29.487   9.454  29.142  1.00  0.00     0.009 C 
BRANCH  11  12
ATOM     12  C   UNL     1      30.456   8.483  28.449  1.00  0.00    -0.001 C 
ATOM     13  C   UNL     1      29.719   7.891  27.217  1.00  0.00     0.002 CG0
ATOM     14  C   UNL     1      30.333   6.974  28.273  1.00  0.00    -0.029 C 
ATOM     15  G   UNL     1      30.375   8.514  25.963  1.00  0.00     0.000 G0
ATOM     16  C   UNL     1      29.351   6.244  29.198  1.00  0.00     0.011 C 
ATOM     17  C   UNL     1      31.602   6.215  27.866  1.00  0.00     0.011 C 
ENDBRANCH  11  12
ENDBRANCH   1  11
TORSDOF 0
ENDMDL
MODEL 6
REMARK VINA RESULT:    -3.371      5.508      8.130
REMARK INTER + INTRA:          -1.001
REMARK INTER:                  -4.230
REMARK INTRA:                   3.229
REMARK UNBOUND:                 3.159
REMARK SMILES C=C1CC[C@@H]2[C@@H]([C@H]3[C@H](C)CC[C@@H]13)C2(C)C
REMARK SMILES IDX 3 1 2 2 1 3 12 4 9 5 8 6 10 7 7 8 11 9 4 11 5 12 6 13 13 14
REMARK SMILES IDX 14 16 15 17
REMARK H PARENT
REMARK Flexibility Score: 80.00
ROOT
ATOM      1  C   UNL     1      29.304  12.273  25.243  1.00  0.00     0.031 C 
ENDROOT
BRANCH   1   2
ATOM      2  C   UNL     1      29.316  10.779  24.929  1.00  0.00    -0.074 C 
ATOM      3  C   UNL     1      28.271  10.249  24.269  1.00  0.00     0.008 C 
BRANCH   2   4
ATOM      4  C   UNL     1      30.359   9.892  25.641  1.00  0.00     0.018 C 
ATOM      5  C   UNL     1      29.422   7.106  28.042  1.00  0.00     0.008 C 
ATOM      6  C   UNL     1      29.370   7.981  26.784  1.00  0.00    -0.010 C 
ATOM      7  C   UNL     1      30.231   7.426  25.648  1.00  0.00     0.004 C 
ATOM      8  C   UNL     1      29.890   9.397  27.035  1.00  0.00     0.003 CG0
ATOM      9  C   UNL     1      30.761   8.627  24.862  1.00  0.00     0.008 C 
ATOM     10  G   UNL     1      28.796  10.311  27.635  1.00  0.00     0.000 G0
ENDBRANCH   2   4
ENDBRANCH   1   2
BRANCH   1  11
ATOM     11  C   UNL     1      28.667  12.584  26.621  1.00  0.00     0.009 C 
BRANCH  11  12
ATOM     12  C   UNL     1      29.367  11.748  27.704  1.00  0.00    -0.001 C 
ATOM     13  C   UNL     1      28.779  10.313  27.637  1.00  0.00     0.002 CG0
ATOM     14  C   UNL     1      28.767  11.100  28.946  1.00  0.00    -0.029 C 
ATOM     15  G   UNL     1      29.885   9.405  27.053  1.00  0.00     0.000 G0
ATOM     16  C   UNL     1      27.404  11.625  29.415  1.00  0.00     0.011 C 
ATOM     17  C   UNL     1      29.746  10.637  30.032  1.00  0.00     0.011 C 
ENDBRANCH  11  12
ENDBRANCH   1  11
TORSDOF 0
ENDMDL
MODEL 7
REMARK VINA RESULT:    -3.314      5.977      8.895
REMARK INTER + INTRA:          -0.930
REMARK INTER:                  -4.134
REMARK INTRA:                   3.205
REMARK UNBOUND:                 3.159
REMARK SMILES C=C1CC[C@@H]2[C@@H]([C@H]3[C@H](C)CC[C@@H]13)C2(C)C
REMARK SMILES IDX 3 1 2 2 1 3 12 4 9 5 8 6 10 7 7 8 11 9 4 11 5 12 6 13 13 14
REMARK SMILES IDX 14 16 15 17
REMARK H PARENT
REMARK Flexibility Score: 80.00
ROOT
ATOM      1  C   UNL     1      29.532   9.898  29.176  1.00  0.00     0.031 C 
ENDROOT
BRANCH   1   2
ATOM      2  C   UNL     1      28.889  10.836  28.157  1.00  0.00    -0.074 C 
ATOM      3  C   UNL     1      27.603  11.191  28.327  1.00  0.00     0.008 C 
BRANCH   2   4
ATOM      4  C   UNL     1      29.629  11.085  26.827  1.00  0.00     0.018 C 
ATOM      5  C   UNL     1      28.218  10.090  23.447  1.00  0.00     0.008 C 
ATOM      6  C   UNL     1      28.243  10.668  24.867  1.00  0.00    -0.010 C 
ATOM      7  C   UNL     1      28.555  12.166  24.884  1.00  0.00     0.004 C 
ATOM      8  C   UNL     1      29.315  10.019  25.744  1.00  0.00     0.003 CG0
ATOM      9  C   UNL     1      29.329  12.446  26.173  1.00  0.00     0.008 C 
ATOM     10  G   UNL     1      28.820   8.692  26.364  1.00  0.00     0.000 G0
ENDBRANCH   2   4
ENDBRANCH   1   2
BRANCH   1  11
ATOM     11  C   UNL     1      29.395   8.407  28.779  1.00  0.00     0.009 C 
BRANCH  11  12
ATOM     12  C   UNL     1      29.936   8.210  27.354  1.00  0.00    -0.001 C 
ATOM     13  C   UNL     1      28.829   8.673  26.368  1.00  0.00     0.002 CG0
ATOM     14  C   UNL     1      29.431   7.273  26.262  1.00  0.00    -0.029 C 
ATOM     15  G   UNL     1      29.319   9.998  25.739  1.00  0.00     0.000 G0
ATOM     16  C   UNL     1      28.535   6.110  26.704  1.00  0.00     0.011 C 
ATOM     17  C   UNL     1      30.368   7.019  25.075  1.00  0.00     0.011 C 
ENDBRANCH  11  12
ENDBRANCH   1  11
TORSDOF 0
ENDMDL
MODEL 8
REMARK VINA RESULT:    -3.247      4.568      7.136
REMARK INTER + INTRA:          -0.848
REMARK INTER:                  -4.157
REMARK INTRA:                   3.309
REMARK UNBOUND:                 3.159
REMARK SMILES C=C1CC[C@@H]2[C@@H]([C@H]3[C@H](C)CC[C@@H]13)C2(C)C
REMARK SMILES IDX 3 1 2 2 1 3 12 4 9 5 8 6 10 7 7 8 11 9 4 11 5 12 6 13 13 14
REMARK SMILES IDX 14 16 15 17
REMARK H PARENT
REMARK Flexibility Score: 80.00
ROOT
ATOM      1  C   UNL     1      28.213  11.888  26.622  1.00  0.00     0.031 C 
ENDROOT
BRANCH   1   2
ATOM      2  C   UNL     1      29.023  11.841  27.915  1.00  0.00    -0.074 C 
ATOM      3  C   UNL     1      30.200  12.490  27.965  1.00  0.00     0.008 C 
BRANCH   2   4
ATOM      4  C   UNL     1      28.621  10.810  28.991  1.00  0.00     0.018 C 
ATOM      5  C   UNL     1      30.893   7.985  30.114  1.00  0.00     0.008 C 
ATOM      6  C   UNL     1      30.476   9.405  29.712  1.00  0.00    -0.010 C 
ATOM      7  C   UNL     1      30.066  10.257  30.916  1.00  0.00     0.004 C 
ATOM      8  C   UNL     1      29.268   9.416  28.774  1.00  0.00     0.003 CG0
ATOM      9  C   UNL     1      28.978  11.217  30.431  1.00  0.00     0.008 C 
ATOM     10  G   UNL     1      29.685   9.195  27.302  1.00  0.00     0.000 G0
ENDBRANCH   2   4
ENDBRANCH   1   2
BRANCH   1  11
ATOM     11  C   UNL     1      28.540  10.708  25.673  1.00  0.00     0.009 C 
BRANCH  11  12
ATOM     12  C   UNL     1      28.392   9.384  26.440  1.00  0.00    -0.001 C 
ATOM     13  C   UNL     1      29.673   9.197  27.298  1.00  0.00     0.002 CG0
ATOM     14  C   UNL     1      29.225   8.112  26.320  1.00  0.00    -0.029 C 
ATOM     15  G   UNL     1      29.258   9.417  28.772  1.00  0.00     0.000 G0
ATOM     16  C   UNL     1      30.067   7.950  25.049  1.00  0.00     0.011 C 
ATOM     17  C   UNL     1      28.638   6.836  26.935  1.00  0.00     0.011 C 
ENDBRANCH  11  12
ENDBRANCH   1  11
TORSDOF 0
ENDMDL
MODEL 9
REMARK VINA RESULT:    -3.085      7.703     10.118
REMARK INTER + INTRA:          -0.648
REMARK INTER:                  -3.975
REMARK INTRA:                   3.327
REMARK UNBOUND:                 3.159
REMARK SMILES C=C1CC[C@@H]2[C@@H]([C@H]3[C@H](C)CC[C@@H]13)C2(C)C
REMARK SMILES IDX 3 1 2 2 1 3 12 4 9 5 8 6 10 7 7 8 11 9 4 11 5 12 6 13 13 14
REMARK SMILES IDX 14 16 15 17
REMARK H PARENT
REMARK Flexibility Score: 80.00
ROOT
ATOM      1  C   UNL     1      29.944   9.030  27.088  1.00  0.00     0.031 C 
ENDROOT
BRANCH   1   2
ATOM      2  C   UNL     1      29.290  10.379  26.805  1.00  0.00    -0.074 C 
ATOM      3  C   UNL     1      27.963  10.505  26.985  1.00  0.00     0.008 C 
BRANCH   2   4
ATOM      4  C   UNL     1      30.107  11.440  26.037  1.00  0.00     0.018 C 
ATOM      5  C   UNL     1      29.097  12.774  22.630  1.00  0.00     0.008 C 
ATOM      6  C   UNL     1      28.941  12.319  24.086  1.00  0.00    -0.010 C 
ATOM      7  C   UNL     1      29.087  13.474  25.079  1.00  0.00     0.004 C 
ATOM      8  C   UNL     1      30.001  11.295  24.495  1.00  0.00     0.003 CG0
ATOM      9  C   UNL     1      29.716  12.895  26.347  1.00  0.00     0.008 C 
ATOM     10  G   UNL     1      29.602   9.861  24.076  1.00  0.00     0.000 G0
ENDBRANCH   2   4
ENDBRANCH   1   2
BRANCH   1  11
ATOM     11  C   UNL     1      30.017   8.130  25.828  1.00  0.00     0.009 C 
BRANCH  11  12
ATOM     12  C   UNL     1      30.681   8.912  24.683  1.00  0.00    -0.001 C 
ATOM     13  C   UNL     1      29.605   9.851  24.075  1.00  0.00     0.002 CG0
ATOM     14  C   UNL     1      30.371   8.869  23.192  1.00  0.00    -0.029 C 
ATOM     15  G   UNL     1      29.983  11.291  24.492  1.00  0.00     0.000 G0
ATOM     16  C   UNL     1      29.585   7.655  22.680  1.00  0.00     0.011 C 
ATOM     17  C   UNL     1      31.417   9.471  22.246  1.00  0.00     0.011 C 
ENDBRANCH  11  12
ENDBRANCH   1  11
TORSDOF 0
ENDMDL
