MODEL 1
REMARK VINA RESULT:    -2.576      0.000      0.000
REMARK INTER + INTRA:          -3.736
REMARK INTER:                  -3.328
REMARK INTRA:                  -0.408
REMARK UNBOUND:                -0.408
REMARK SMILES CCCCCCC(C)=O
REMARK SMILES IDX 4 1 3 2 2 3 1 4 5 5 6 6 7 7 9 8 8 9
REMARK H PARENT
REMARK Flexibility Score: inf
ROOT
ATOM      1  C   UNL     1     229.118 232.512 234.629  1.00  0.00     0.000 C 
ENDROOT
BRANCH   1   2
ATOM      2  C   UNL     1     229.856 231.499 233.738  1.00  0.00    -0.000 C 
BRANCH   2   3
ATOM      3  C   UNL     1     230.641 232.172 232.602  1.00  0.00    -0.003 C 
ATOM      4  C   UNL     1     229.780 233.201 231.875  1.00  0.00     0.004 C 
ENDBRANCH   2   3
ENDBRANCH   1   2
BRANCH   1   5
ATOM      5  C   UNL     1     227.675 232.081 234.943  1.00  0.00     0.008 C 
BRANCH   5   6
ATOM      6  C   UNL     1     226.922 231.595 233.696  1.00  0.00     0.075 C 
BRANCH   6   7
ATOM      7  C   UNL     1     226.377 230.201 233.868  1.00  0.00     0.129 C 
ATOM      8  O   UNL     1     225.386 229.852 233.244  1.00  0.00    -0.300 OA
ATOM      9  C   UNL     1     227.019 229.251 234.834  1.00  0.00     0.087 C 
ENDBRANCH   6   7
ENDBRANCH   5   6
ENDBRANCH   1   5
TORSDOF 5
ENDMDL
MODEL 2
REMARK VINA RESULT:    -2.519      2.233      4.567
REMARK INTER + INTRA:          -3.663
REMARK INTER:                  -3.503
REMARK INTRA:                  -0.160
REMARK UNBOUND:                -0.408
REMARK SMILES CCCCCCC(C)=O
REMARK SMILES IDX 4 1 3 2 2 3 1 4 5 5 6 6 7 7 9 8 8 9
REMARK H PARENT
REMARK Flexibility Score: inf
ROOT
ATOM      1  C   UNL     1     227.058 230.224 234.096  1.00  0.00     0.000 C 
ENDROOT
BRANCH   1   2
ATOM      2  C   UNL     1     225.687 229.571 233.851  1.00  0.00    -0.000 C 
BRANCH   2   3
ATOM      3  C   UNL     1     225.802 228.129 233.336  1.00  0.00    -0.003 C 
ATOM      4  C   UNL     1     225.208 227.998 231.936  1.00  0.00     0.004 C 
ENDBRANCH   2   3
ENDBRANCH   1   2
BRANCH   1   5
ATOM      5  C   UNL     1     227.065 231.725 233.761  1.00  0.00     0.008 C 
BRANCH   5   6
ATOM      6  C   UNL     1     228.383 232.410 234.154  1.00  0.00     0.075 C 
BRANCH   6   7
ATOM      7  C   UNL     1     229.333 232.525 232.991  1.00  0.00     0.129 C 
ATOM      8  O   UNL     1     229.009 233.163 232.000  1.00  0.00    -0.300 OA
ATOM      9  C   UNL     1     230.658 231.826 233.023  1.00  0.00     0.087 C 
ENDBRANCH   6   7
ENDBRANCH   5   6
ENDBRANCH   1   5
TORSDOF 5
ENDMDL
MODEL 3
REMARK VINA RESULT:    -2.492      1.491      2.420
REMARK INTER + INTRA:          -3.629
REMARK INTER:                  -3.282
REMARK INTRA:                  -0.347
REMARK UNBOUND:                -0.408
REMARK SMILES CCCCCCC(C)=O
REMARK SMILES IDX 4 1 3 2 2 3 1 4 5 5 6 6 7 7 9 8 8 9
REMARK H PARENT
REMARK Flexibility Score: inf
ROOT
ATOM      1  C   UNL     1     227.009 231.496 235.010  1.00  0.00     0.000 C 
ENDROOT
BRANCH   1   2
ATOM      2  C   UNL     1     227.243 232.100 233.616  1.00  0.00    -0.000 C 
BRANCH   2   3
ATOM      3  C   UNL     1     228.731 232.320 233.307  1.00  0.00    -0.003 C 
ATOM      4  C   UNL     1     229.585 231.201 233.899  1.00  0.00     0.004 C 
ENDBRANCH   2   3
ENDBRANCH   1   2
BRANCH   1   5
ATOM      5  C   UNL     1     225.992 230.342 234.991  1.00  0.00     0.008 C 
BRANCH   5   6
ATOM      6  C   UNL     1     226.493 229.130 234.192  1.00  0.00     0.075 C 
BRANCH   6   7
ATOM      7  C   UNL     1     225.570 228.779 233.054  1.00  0.00     0.129 C 
ATOM      8  O   UNL     1     224.794 229.615 232.617  1.00  0.00    -0.300 OA
ATOM      9  C   UNL     1     225.568 227.393 232.480  1.00  0.00     0.087 C 
ENDBRANCH   6   7
ENDBRANCH   5   6
ENDBRANCH   1   5
TORSDOF 5
ENDMDL
MODEL 4
REMARK VINA RESULT:    -2.449      8.712     10.128
REMARK INTER + INTRA:          -3.573
REMARK INTER:                  -3.178
REMARK INTRA:                  -0.395
REMARK UNBOUND:                -0.408
REMARK SMILES CCCCCCC(C)=O
REMARK SMILES IDX 4 1 3 2 2 3 1 4 5 5 6 6 7 7 9 8 8 9
REMARK H PARENT
REMARK Flexibility Score: inf
ROOT
ATOM      1  C   UNL     1     236.060 228.817 234.996  1.00  0.00     0.000 C 
ENDROOT
BRANCH   1   2
ATOM      2  C   UNL     1     236.782 229.599 233.887  1.00  0.00    -0.000 C 
BRANCH   2   3
ATOM      3  C   UNL     1     235.831 230.491 233.076  1.00  0.00    -0.003 C 
ATOM      4  C   UNL     1     235.252 229.733 231.883  1.00  0.00     0.004 C 
ENDBRANCH   2   3
ENDBRANCH   1   2
BRANCH   1   5
ATOM      5  C   UNL     1     236.300 227.300 234.901  1.00  0.00     0.008 C 
BRANCH   5   6
ATOM      6  C   UNL     1     237.049 226.902 233.620  1.00  0.00     0.075 C 
BRANCH   6   7
ATOM      7  C   UNL     1     238.397 226.299 233.913  1.00  0.00     0.129 C 
ATOM      8  O   UNL     1     238.696 225.213 233.441  1.00  0.00    -0.300 OA
ATOM      9  C   UNL     1     239.362 227.006 234.818  1.00  0.00     0.087 C 
ENDBRANCH   6   7
ENDBRANCH   5   6
ENDBRANCH   1   5
TORSDOF 5
ENDMDL
MODEL 5
REMARK VINA RESULT:    -2.439      9.485     10.907
REMARK INTER + INTRA:          -3.560
REMARK INTER:                  -3.311
REMARK INTRA:                  -0.249
REMARK UNBOUND:                -0.408
REMARK SMILES CCCCCCC(C)=O
REMARK SMILES IDX 4 1 3 2 2 3 1 4 5 5 6 6 7 7 9 8 8 9
REMARK H PARENT
REMARK Flexibility Score: inf
ROOT
ATOM      1  C   UNL     1     228.776 241.921 234.419  1.00  0.00     0.000 C 
ENDROOT
BRANCH   1   2
ATOM      2  C   UNL     1     229.061 242.985 233.347  1.00  0.00    -0.000 C 
BRANCH   2   3
ATOM      3  C   UNL     1     227.994 243.014 232.243  1.00  0.00    -0.003 C 
ATOM      4  C   UNL     1     226.625 242.624 232.793  1.00  0.00     0.004 C 
ENDBRANCH   2   3
ENDBRANCH   1   2
BRANCH   1   5
ATOM      5  C   UNL     1     230.057 241.415 235.104  1.00  0.00     0.008 C 
BRANCH   5   6
ATOM      6  C   UNL     1     230.577 240.108 234.486  1.00  0.00     0.075 C 
BRANCH   6   7
ATOM      7  C   UNL     1     231.829 240.321 233.676  1.00  0.00     0.129 C 
ATOM      8  O   UNL     1     232.253 241.452 233.494  1.00  0.00    -0.300 OA
ATOM      9  C   UNL     1     232.537 239.154 233.055  1.00  0.00     0.087 C 
ENDBRANCH   6   7
ENDBRANCH   5   6
ENDBRANCH   1   5
TORSDOF 5
ENDMDL
MODEL 6
REMARK VINA RESULT:    -2.437      8.666     10.224
REMARK INTER + INTRA:          -3.557
REMARK INTER:                  -3.289
REMARK INTRA:                  -0.268
REMARK UNBOUND:                -0.408
REMARK SMILES CCCCCCC(C)=O
REMARK SMILES IDX 4 1 3 2 2 3 1 4 5 5 6 6 7 7 9 8 8 9
REMARK H PARENT
REMARK Flexibility Score: inf
ROOT
ATOM      1  C   UNL     1     232.200 240.525 233.574  1.00  0.00     0.000 C 
ENDROOT
BRANCH   1   2
ATOM      2  C   UNL     1     231.640 239.107 233.779  1.00  0.00    -0.000 C 
BRANCH   2   3
ATOM      3  C   UNL     1     232.092 238.129 232.685  1.00  0.00    -0.003 C 
ATOM      4  C   UNL     1     233.249 238.708 231.875  1.00  0.00     0.004 C 
ENDBRANCH   2   3
ENDBRANCH   1   2
BRANCH   1   5
ATOM      5  C   UNL     1     231.362 241.599 234.289  1.00  0.00     0.008 C 
BRANCH   5   6
ATOM      6  C   UNL     1     229.885 241.199 234.426  1.00  0.00     0.075 C 
BRANCH   6   7
ATOM      7  C   UNL     1     228.958 242.250 233.874  1.00  0.00     0.129 C 
ATOM      8  O   UNL     1     227.754 242.159 234.060  1.00  0.00    -0.300 OA
ATOM      9  C   UNL     1     229.500 243.387 233.060  1.00  0.00     0.087 C 
ENDBRANCH   6   7
ENDBRANCH   5   6
ENDBRANCH   1   5
TORSDOF 5
ENDMDL
MODEL 7
REMARK VINA RESULT:    -2.435     11.661     13.830
REMARK INTER + INTRA:          -3.554
REMARK INTER:                  -3.279
REMARK INTRA:                  -0.275
REMARK UNBOUND:                -0.408
REMARK SMILES CCCCCCC(C)=O
REMARK SMILES IDX 4 1 3 2 2 3 1 4 5 5 6 6 7 7 9 8 8 9
REMARK H PARENT
REMARK Flexibility Score: inf
ROOT
ATOM      1  C   UNL     1     239.072 236.865 233.873  1.00  0.00     0.000 C 
ENDROOT
BRANCH   1   2
ATOM      2  C   UNL     1     237.908 236.587 232.907  1.00  0.00    -0.000 C 
BRANCH   2   3
ATOM      3  C   UNL     1     238.229 235.477 231.897  1.00  0.00    -0.003 C 
ATOM      4  C   UNL     1     237.185 234.365 231.953  1.00  0.00     0.004 C 
ENDBRANCH   2   3
ENDBRANCH   1   2
BRANCH   1   5
ATOM      5  C   UNL     1     240.395 236.239 233.398  1.00  0.00     0.008 C 
BRANCH   5   6
ATOM      6  C   UNL     1     241.494 236.302 234.469  1.00  0.00     0.075 C 
BRANCH   6   7
ATOM      7  C   UNL     1     241.906 237.717 234.780  1.00  0.00     0.129 C 
ATOM      8  O   UNL     1     241.797 238.148 235.917  1.00  0.00    -0.300 OA
ATOM      9  C   UNL     1     242.411 238.615 233.690  1.00  0.00     0.087 C 
ENDBRANCH   6   7
ENDBRANCH   5   6
ENDBRANCH   1   5
TORSDOF 5
ENDMDL
MODEL 8
REMARK VINA RESULT:    -2.432     13.472     15.288
REMARK INTER + INTRA:          -3.550
REMARK INTER:                  -3.276
REMARK INTRA:                  -0.274
REMARK UNBOUND:                -0.408
REMARK SMILES CCCCCCC(C)=O
REMARK SMILES IDX 4 1 3 2 2 3 1 4 5 5 6 6 7 7 9 8 8 9
REMARK H PARENT
REMARK Flexibility Score: inf
ROOT
ATOM      1  C   UNL     1     242.469 239.341 234.177  1.00  0.00     0.000 C 
ENDROOT
BRANCH   1   2
ATOM      2  C   UNL     1     243.308 239.128 232.906  1.00  0.00    -0.000 C 
BRANCH   2   3
ATOM      3  C   UNL     1     243.357 240.376 232.012  1.00  0.00    -0.003 C 
ATOM      4  C   UNL     1     242.723 241.576 232.711  1.00  0.00     0.004 C 
ENDBRANCH   2   3
ENDBRANCH   1   2
BRANCH   1   5
ATOM      5  C   UNL     1     241.978 238.018 234.788  1.00  0.00     0.008 C 
BRANCH   5   6
ATOM      6  C   UNL     1     241.560 236.995 233.721  1.00  0.00     0.075 C 
BRANCH   6   7
ATOM      7  C   UNL     1     240.071 236.771 233.699  1.00  0.00     0.129 C 
ATOM      8  O   UNL     1     239.603 235.849 233.048  1.00  0.00    -0.300 OA
ATOM      9  C   UNL     1     239.154 237.699 234.438  1.00  0.00     0.087 C 
ENDBRANCH   6   7
ENDBRANCH   5   6
ENDBRANCH   1   5
TORSDOF 5
ENDMDL
MODEL 9
REMARK VINA RESULT:    -2.410     10.749     12.358
REMARK INTER + INTRA:          -3.522
REMARK INTER:                  -3.307
REMARK INTRA:                  -0.215
REMARK UNBOUND:                -0.408
REMARK SMILES CCCCCCC(C)=O
REMARK SMILES IDX 4 1 3 2 2 3 1 4 5 5 6 6 7 7 9 8 8 9
REMARK H PARENT
REMARK Flexibility Score: inf
ROOT
ATOM      1  C   UNL     1     237.611 226.895 234.542  1.00  0.00     0.000 C 
ENDROOT
BRANCH   1   2
ATOM      2  C   UNL     1     236.355 227.249 233.730  1.00  0.00    -0.000 C 
BRANCH   2   3
ATOM      3  C   UNL     1     236.249 228.750 233.425  1.00  0.00    -0.003 C 
ATOM      4  C   UNL     1     237.390 229.524 234.080  1.00  0.00     0.004 C 
ENDBRANCH   2   3
ENDBRANCH   1   2
BRANCH   1   5
ATOM      5  C   UNL     1     238.565 225.961 233.778  1.00  0.00     0.008 C 
BRANCH   5   6
ATOM      6  C   UNL     1     240.039 226.358 233.948  1.00  0.00     0.075 C 
BRANCH   6   7
ATOM      7  C   UNL     1     240.918 225.750 232.885  1.00  0.00     0.129 C 
ATOM      8  O   UNL     1     240.417 225.281 231.875  1.00  0.00    -0.300 OA
ATOM      9  C   UNL     1     242.403 225.680 233.079  1.00  0.00     0.087 C 
ENDBRANCH   6   7
ENDBRANCH   5   6
ENDBRANCH   1   5
TORSDOF 5
ENDMDL
