MODEL 1
REMARK VINA RESULT:    -2.093      0.000      0.000
REMARK INTER + INTRA:          -2.695
REMARK INTER:                  -2.704
REMARK INTRA:                   0.009
REMARK UNBOUND:                 0.009
REMARK SMILES CCCCCCC(=O)[O-]
REMARK SMILES IDX 5 1 6 2 7 3 8 4 9 5 4 6 3 7 2 8 1 9
REMARK H PARENT
REMARK Flexibility Score: inf
ROOT
ATOM      1  C   UNL     1     -19.823   5.560  -2.908  1.00  0.00     0.006 C 
ENDROOT
BRANCH   1   2
ATOM      2  C   UNL     1     -19.051   6.883  -2.881  1.00  0.00     0.053 C 
BRANCH   2   3
ATOM      3  C   UNL     1     -17.607   6.654  -3.200  1.00  0.00     0.041 C 
ATOM      4  O   UNL     1     -16.797   7.617  -3.194  1.00  0.00    -0.550 OA
ATOM      5  O   UNL     1     -17.166   5.385  -3.552  1.00  0.00    -0.550 OA
ENDBRANCH   2   3
ENDBRANCH   1   2
BRANCH   1   6
ATOM      6  C   UNL     1     -21.328   5.804  -3.076  1.00  0.00     0.000 C 
BRANCH   6   7
ATOM      7  C   UNL     1     -22.121   4.504  -2.876  1.00  0.00    -0.000 C 
BRANCH   7   8
ATOM      8  C   UNL     1     -21.254   3.249  -3.061  1.00  0.00    -0.003 C 
ATOM      9  C   UNL     1     -21.027   2.899  -4.531  1.00  0.00     0.004 C 
ENDBRANCH   7   8
ENDBRANCH   6   7
ENDBRANCH   1   6
TORSDOF 5
ENDMDL
MODEL 2
REMARK VINA RESULT:    -1.432      2.397      4.442
REMARK INTER + INTRA:          -1.842
REMARK INTER:                  -1.834
REMARK INTRA:                  -0.008
REMARK UNBOUND:                 0.009
REMARK SMILES CCCCCCC(=O)[O-]
REMARK SMILES IDX 5 1 6 2 7 3 8 4 9 5 4 6 3 7 2 8 1 9
REMARK H PARENT
REMARK Flexibility Score: inf
ROOT
ATOM      1  C   UNL     1     -21.135   5.953  -3.422  1.00  0.00     0.006 C 
ENDROOT
BRANCH   1   2
ATOM      2  C   UNL     1     -21.823   4.694  -2.884  1.00  0.00     0.053 C 
BRANCH   2   3
ATOM      3  C   UNL     1     -21.330   3.480  -3.605  1.00  0.00     0.041 C 
ATOM      4  O   UNL     1     -20.219   2.972  -3.303  1.00  0.00    -0.550 OA
ATOM      5  O   UNL     1     -22.076   2.938  -4.643  1.00  0.00    -0.550 OA
ENDBRANCH   2   3
ENDBRANCH   1   2
BRANCH   1   6
ATOM      6  C   UNL     1     -19.707   6.077  -2.877  1.00  0.00     0.000 C 
BRANCH   6   7
ATOM      7  C   UNL     1     -18.999   7.306  -3.465  1.00  0.00    -0.000 C 
BRANCH   7   8
ATOM      8  C   UNL     1     -17.507   7.056  -3.733  1.00  0.00    -0.003 C 
ATOM      9  C   UNL     1     -17.066   5.644  -3.351  1.00  0.00     0.004 C 
ENDBRANCH   7   8
ENDBRANCH   6   7
ENDBRANCH   1   6
TORSDOF 5
ENDMDL
MODEL 3
REMARK VINA RESULT:    -0.977     16.110     17.404
REMARK INTER + INTRA:          -1.254
REMARK INTER:                  -1.095
REMARK INTRA:                  -0.159
REMARK UNBOUND:                 0.009
REMARK SMILES CCCCCCC(=O)[O-]
REMARK SMILES IDX 5 1 6 2 7 3 8 4 9 5 4 6 3 7 2 8 1 9
REMARK H PARENT
REMARK Flexibility Score: inf
ROOT
ATOM      1  C   UNL     1     -12.766  18.311  -9.206  1.00  0.00     0.006 C 
ENDROOT
BRANCH   1   2
ATOM      2  C   UNL     1     -13.462  19.638  -8.884  1.00  0.00     0.053 C 
BRANCH   2   3
ATOM      3  C   UNL     1     -12.717  20.375  -7.817  1.00  0.00     0.041 C 
ATOM      4  O   UNL     1     -12.963  20.151  -6.603  1.00  0.00    -0.550 OA
ATOM      5  O   UNL     1     -11.786  21.346  -8.163  1.00  0.00    -0.550 OA
ENDBRANCH   2   3
ENDBRANCH   1   2
BRANCH   1   6
ATOM      6  C   UNL     1     -12.888  17.973 -10.696  1.00  0.00     0.000 C 
BRANCH   6   7
ATOM      7  C   UNL     1     -12.966  19.250 -11.546  1.00  0.00    -0.000 C 
BRANCH   7   8
ATOM      8  C   UNL     1     -12.935  18.959 -13.054  1.00  0.00    -0.003 C 
ATOM      9  C   UNL     1     -11.802  19.689 -13.774  1.00  0.00     0.004 C 
ENDBRANCH   7   8
ENDBRANCH   6   7
ENDBRANCH   1   6
TORSDOF 5
ENDMDL
MODEL 4
REMARK VINA RESULT:    -0.924     16.731     17.786
REMARK INTER + INTRA:          -1.185
REMARK INTER:                  -0.990
REMARK INTRA:                  -0.195
REMARK UNBOUND:                 0.009
REMARK SMILES CCCCCCC(=O)[O-]
REMARK SMILES IDX 5 1 6 2 7 3 8 4 9 5 4 6 3 7 2 8 1 9
REMARK H PARENT
REMARK Flexibility Score: inf
ROOT
ATOM      1  C   UNL     1     -13.118  18.282 -11.134  1.00  0.00     0.006 C 
ENDROOT
BRANCH   1   2
ATOM      2  C   UNL     1     -12.746  19.601 -11.819  1.00  0.00     0.053 C 
BRANCH   2   3
ATOM      3  C   UNL     1     -12.524  19.386 -13.283  1.00  0.00     0.041 C 
ATOM      4  O   UNL     1     -11.376  19.534 -13.777  1.00  0.00    -0.550 OA
ATOM      5  O   UNL     1     -13.595  19.072 -14.110  1.00  0.00    -0.550 OA
ENDBRANCH   2   3
ENDBRANCH   1   2
BRANCH   1   6
ATOM      6  C   UNL     1     -12.757  18.316  -9.643  1.00  0.00     0.000 C 
BRANCH   6   7
ATOM      7  C   UNL     1     -13.556  19.403  -8.909  1.00  0.00    -0.000 C 
BRANCH   7   8
ATOM      8  C   UNL     1     -12.808  19.964  -7.690  1.00  0.00    -0.003 C 
ATOM      9  C   UNL     1     -12.071  21.267  -7.997  1.00  0.00     0.004 C 
ENDBRANCH   7   8
ENDBRANCH   6   7
ENDBRANCH   1   6
TORSDOF 5
ENDMDL
MODEL 5
REMARK VINA RESULT:    -0.311     21.258     22.379
REMARK INTER + INTRA:          -0.393
REMARK INTER:                  -0.690
REMARK INTRA:                   0.297
REMARK UNBOUND:                 0.009
REMARK SMILES CCCCCCC(=O)[O-]
REMARK SMILES IDX 5 1 6 2 7 3 8 4 9 5 4 6 3 7 2 8 1 9
REMARK H PARENT
REMARK Flexibility Score: inf
ROOT
ATOM      1  C   UNL     1      -8.297   4.751 -20.398  1.00  0.00     0.006 C 
ENDROOT
BRANCH   1   2
ATOM      2  C   UNL     1      -9.213   4.204 -21.498  1.00  0.00     0.053 C 
BRANCH   2   3
ATOM      3  C   UNL     1      -9.370   5.207 -22.596  1.00  0.00     0.041 C 
ATOM      4  O   UNL     1      -8.362   5.807 -23.054  1.00  0.00    -0.550 OA
ATOM      5  O   UNL     1     -10.634   5.516 -23.080  1.00  0.00    -0.550 OA
ENDBRANCH   2   3
ENDBRANCH   1   2
BRANCH   1   6
ATOM      6  C   UNL     1      -6.859   4.250 -20.579  1.00  0.00     0.000 C 
BRANCH   6   7
ATOM      7  C   UNL     1      -6.838   2.877 -21.265  1.00  0.00    -0.000 C 
BRANCH   7   8
ATOM      8  C   UNL     1      -6.434   2.962 -22.745  1.00  0.00    -0.003 C 
ATOM      9  C   UNL     1      -5.811   4.309 -23.111  1.00  0.00     0.004 C 
ENDBRANCH   7   8
ENDBRANCH   6   7
ENDBRANCH   1   6
TORSDOF 5
ENDMDL
MODEL 6
REMARK VINA RESULT:     0.016      1.276      2.023
REMARK INTER + INTRA:           0.029
REMARK INTER:                  -0.109
REMARK INTRA:                   0.138
REMARK UNBOUND:                 0.009
REMARK SMILES CCCCCCC(=O)[O-]
REMARK SMILES IDX 5 1 6 2 7 3 8 4 9 5 4 6 3 7 2 8 1 9
REMARK H PARENT
REMARK Flexibility Score: inf
ROOT
ATOM      1  C   UNL     1     -18.961   5.298  -3.195  1.00  0.00     0.006 C 
ENDROOT
BRANCH   1   2
ATOM      2  C   UNL     1     -17.636   5.997  -2.875  1.00  0.00     0.053 C 
BRANCH   2   3
ATOM      3  C   UNL     1     -17.384   7.110  -3.842  1.00  0.00     0.041 C 
ATOM      4  O   UNL     1     -16.209   7.506  -4.060  1.00  0.00    -0.550 OA
ATOM      5  O   UNL     1     -18.451   7.744  -4.465  1.00  0.00    -0.550 OA
ENDBRANCH   2   3
ENDBRANCH   1   2
BRANCH   1   6
ATOM      6  C   UNL     1     -18.789   3.775  -3.218  1.00  0.00     0.000 C 
BRANCH   6   7
ATOM      7  C   UNL     1     -20.128   3.066  -2.963  1.00  0.00    -0.000 C 
BRANCH   7   8
ATOM      8  C   UNL     1     -21.246   3.567  -3.889  1.00  0.00    -0.003 C 
ATOM      9  C   UNL     1     -22.110   4.648  -3.242  1.00  0.00     0.004 C 
ENDBRANCH   7   8
ENDBRANCH   6   7
ENDBRANCH   1   6
TORSDOF 5
ENDMDL
MODEL 7
REMARK VINA RESULT:     0.781     20.654     21.757
REMARK INTER + INTRA:           1.018
REMARK INTER:                   1.030
REMARK INTRA:                  -0.012
REMARK UNBOUND:                 0.009
REMARK SMILES CCCCCCC(=O)[O-]
REMARK SMILES IDX 5 1 6 2 7 3 8 4 9 5 4 6 3 7 2 8 1 9
REMARK H PARENT
REMARK Flexibility Score: inf
ROOT
ATOM      1  C   UNL     1      -7.082   2.888 -21.073  1.00  0.00     0.006 C 
ENDROOT
BRANCH   1   2
ATOM      2  C   UNL     1      -6.694   4.273 -20.544  1.00  0.00     0.053 C 
BRANCH   2   3
ATOM      3  C   UNL     1      -7.821   4.869 -19.761  1.00  0.00     0.041 C 
ATOM      4  O   UNL     1      -9.005   4.500 -19.975  1.00  0.00    -0.550 OA
ATOM      5  O   UNL     1      -7.568   5.869 -18.830  1.00  0.00    -0.550 OA
ENDBRANCH   2   3
ENDBRANCH   1   2
BRANCH   1   6
ATOM      6  C   UNL     1      -7.168   2.888 -22.604  1.00  0.00     0.000 C 
BRANCH   6   7
ATOM      7  C   UNL     1      -7.689   4.236 -23.125  1.00  0.00    -0.000 C 
BRANCH   7   8
ATOM      8  C   UNL     1      -9.223   4.316 -23.124  1.00  0.00    -0.003 C 
ATOM      9  C   UNL     1      -9.740   5.755 -23.120  1.00  0.00     0.004 C 
ENDBRANCH   7   8
ENDBRANCH   6   7
ENDBRANCH   1   6
TORSDOF 5
ENDMDL
MODEL 8
REMARK VINA RESULT:     0.815     20.759     21.969
REMARK INTER + INTRA:           1.062
REMARK INTER:                   0.664
REMARK INTRA:                   0.398
REMARK UNBOUND:                 0.009
REMARK SMILES CCCCCCC(=O)[O-]
REMARK SMILES IDX 5 1 6 2 7 3 8 4 9 5 4 6 3 7 2 8 1 9
REMARK H PARENT
REMARK Flexibility Score: inf
ROOT
ATOM      1  C   UNL     1      -9.008   4.834 -22.141  1.00  0.00     0.006 C 
ENDROOT
BRANCH   1   2
ATOM      2  C   UNL     1      -8.268   3.921 -23.124  1.00  0.00     0.053 C 
BRANCH   2   3
ATOM      3  C   UNL     1      -6.795   3.956 -22.863  1.00  0.00     0.041 C 
ATOM      4  O   UNL     1      -6.214   2.951 -22.375  1.00  0.00    -0.550 OA
ATOM      5  O   UNL     1      -6.072   5.115 -23.113  1.00  0.00    -0.550 OA
ENDBRANCH   2   3
ENDBRANCH   1   2
BRANCH   1   6
ATOM      6  C   UNL     1      -8.918   4.291 -20.710  1.00  0.00     0.000 C 
BRANCH   6   7
ATOM      7  C   UNL     1      -7.618   4.747 -20.031  1.00  0.00    -0.000 C 
BRANCH   7   8
ATOM      8  C   UNL     1      -7.859   5.804 -18.943  1.00  0.00    -0.003 C 
ATOM      9  C   UNL     1      -6.720   5.878 -17.927  1.00  0.00     0.004 C 
ENDBRANCH   7   8
ENDBRANCH   6   7
ENDBRANCH   1   6
TORSDOF 5
ENDMDL
