MODEL 1
REMARK VINA RESULT:    -4.751      0.000      0.000
REMARK INTER + INTRA:          -5.323
REMARK INTER:                  -5.168
REMARK INTRA:                  -0.155
REMARK UNBOUND:                -0.155
REMARK SMILES C=C1C[C@@]2(O)O[C@]3(C[C@@H]2C(C)C)[C@@H]1CC[C@@H]3C
REMARK SMILES IDX 17 1 16 2 15 3 14 4 13 5 7 6 8 7 9 8 4 9 6 10 3 11 2 12 1 13
REMARK SMILES IDX 10 14 11 15 12 16 5 17
REMARK H PARENT 5 18
REMARK Flexibility Score: inf
ROOT
ATOM      1  C   UNL     1      14.731  22.187  -0.552  1.00  0.00     0.011 C 
ATOM      2  C   UNL     1      13.219  22.462  -0.475  1.00  0.00     0.019 C 
ATOM      3  C   UNL     1      12.915  23.786   0.272  1.00  0.00     0.007 C 
ATOM      4  C   UNL     1      12.445  24.812  -0.778  1.00  0.00     0.011 C 
ATOM      5  C   UNL     1      12.781  24.159  -2.109  1.00  0.00     0.047 C 
ATOM      6  C   UNL     1      12.575  22.664  -1.861  1.00  0.00     0.081 C 
ATOM      7  C   UNL     1      11.086  22.230  -1.870  1.00  0.00     0.046 C 
ATOM      8  C   UNL     1      10.839  21.728  -3.300  1.00  0.00     0.054 C 
ATOM      9  C   UNL     1      12.205  22.075  -3.964  1.00  0.00     0.173 C 
ATOM     10  O   UNL     1      13.173  21.974  -2.931  1.00  0.00    -0.342 OA
ATOM     11  C   UNL     1      12.171  23.552  -4.512  1.00  0.00     0.096 C 
ATOM     12  C   UNL     1      12.070  24.556  -3.375  1.00  0.00    -0.066 C 
ATOM     13  C   UNL     1      11.581  25.787  -3.574  1.00  0.00     0.008 C 
ENDROOT
BRANCH   8  14
ATOM     14  C   UNL     1      10.382  20.223  -3.319  1.00  0.00    -0.009 C 
ATOM     15  C   UNL     1       9.589  19.878  -2.038  1.00  0.00     0.008 C 
ATOM     16  C   UNL     1       9.483  19.875  -4.525  1.00  0.00     0.008 C 
ENDBRANCH   8  14
BRANCH   9  17
ATOM     17  O   UNL     1      12.567  21.196  -4.996  1.00  0.00    -0.365 OA
ATOM     18  H   UNL     1      11.773  21.073  -5.581  1.00  0.00     0.214 HD
ENDBRANCH   9  17
TORSDOF 2
ENDMDL
MODEL 2
REMARK VINA RESULT:    -4.060      1.355      4.296
REMARK INTER + INTRA:          -4.571
REMARK INTER:                  -4.560
REMARK INTRA:                  -0.010
REMARK UNBOUND:                -0.155
REMARK SMILES C=C1C[C@@]2(O)O[C@]3(C[C@@H]2C(C)C)[C@@H]1CC[C@@H]3C
REMARK SMILES IDX 17 1 16 2 15 3 14 4 13 5 7 6 8 7 9 8 4 9 6 10 3 11 2 12 1 13
REMARK SMILES IDX 10 14 11 15 12 16 5 17
REMARK H PARENT 5 18
REMARK Flexibility Score: inf
ROOT
ATOM      1  C   UNL     1      12.491  19.992  -4.040  1.00  0.00     0.011 C 
ATOM      2  C   UNL     1      11.354  20.931  -3.604  1.00  0.00     0.019 C 
ATOM      3  C   UNL     1      10.288  20.187  -2.757  1.00  0.00     0.007 C 
ATOM      4  C   UNL     1      10.440  20.663  -1.300  1.00  0.00     0.011 C 
ATOM      5  C   UNL     1      11.761  21.417  -1.293  1.00  0.00     0.047 C 
ATOM      6  C   UNL     1      11.835  22.065  -2.676  1.00  0.00     0.081 C 
ATOM      7  C   UNL     1      10.955  23.334  -2.818  1.00  0.00     0.046 C 
ATOM      8  C   UNL     1      11.915  24.501  -2.543  1.00  0.00     0.054 C 
ATOM      9  C   UNL     1      13.203  23.722  -2.140  1.00  0.00     0.173 C 
ATOM     10  O   UNL     1      13.158  22.503  -2.864  1.00  0.00    -0.342 OA
ATOM     11  C   UNL     1      13.181  23.420  -0.594  1.00  0.00     0.096 C 
ATOM     12  C   UNL     1      12.064  22.451  -0.241  1.00  0.00    -0.066 C 
ATOM     13  C   UNL     1      11.556  22.393   0.997  1.00  0.00     0.008 C 
ENDROOT
BRANCH   8  14
ATOM     14  C   UNL     1      12.010  25.480  -3.770  1.00  0.00    -0.009 C 
ATOM     15  C   UNL     1      12.370  24.705  -5.059  1.00  0.00     0.008 C 
ATOM     16  C   UNL     1      10.695  26.243  -4.044  1.00  0.00     0.008 C 
ENDBRANCH   8  14
BRANCH   9  17
ATOM     17  O   UNL     1      14.390  24.391  -2.474  1.00  0.00    -0.365 OA
ATOM     18  H   UNL     1      14.413  25.243  -1.963  1.00  0.00     0.214 HD
ENDBRANCH   9  17
TORSDOF 2
ENDMDL
MODEL 3
REMARK VINA RESULT:    -3.031      1.456      4.823
REMARK INTER + INTRA:          -3.452
REMARK INTER:                  -3.262
REMARK INTRA:                  -0.190
REMARK UNBOUND:                -0.155
REMARK SMILES C=C1C[C@@]2(O)O[C@]3(C[C@@H]2C(C)C)[C@@H]1CC[C@@H]3C
REMARK SMILES IDX 17 1 16 2 15 3 14 4 13 5 7 6 8 7 9 8 4 9 6 10 3 11 2 12 1 13
REMARK SMILES IDX 10 14 11 15 12 16 5 17
REMARK H PARENT 5 18
REMARK Flexibility Score: inf
ROOT
ATOM      1  C   UNL     1      12.263  20.097  -5.125  1.00  0.00     0.011 C 
ATOM      2  C   UNL     1      11.288  21.014  -4.367  1.00  0.00     0.019 C 
ATOM      3  C   UNL     1       9.972  20.277  -4.005  1.00  0.00     0.007 C 
ATOM      4  C   UNL     1       9.985  20.028  -2.484  1.00  0.00     0.011 C 
ATOM      5  C   UNL     1      11.414  20.343  -2.070  1.00  0.00     0.047 C 
ATOM      6  C   UNL     1      11.838  21.478  -3.003  1.00  0.00     0.081 C 
ATOM      7  C   UNL     1      11.270  22.863  -2.598  1.00  0.00     0.046 C 
ATOM      8  C   UNL     1      12.392  23.514  -1.776  1.00  0.00     0.054 C 
ATOM      9  C   UNL     1      13.413  22.339  -1.707  1.00  0.00     0.173 C 
ATOM     10  O   UNL     1      13.235  21.603  -2.906  1.00  0.00    -0.342 OA
ATOM     11  C   UNL     1      13.085  21.421  -0.469  1.00  0.00     0.096 C 
ATOM     12  C   UNL     1      11.751  20.714  -0.650  1.00  0.00    -0.066 C 
ATOM     13  C   UNL     1      11.053  20.262   0.400  1.00  0.00     0.008 C 
ENDROOT
BRANCH   8  14
ATOM     14  C   UNL     1      12.878  24.864  -2.420  1.00  0.00    -0.009 C 
ATOM     15  C   UNL     1      11.753  25.500  -3.269  1.00  0.00     0.008 C 
ATOM     16  C   UNL     1      13.316  25.914  -1.375  1.00  0.00     0.008 C 
ENDBRANCH   8  14
BRANCH   9  17
ATOM     17  O   UNL     1      14.750  22.761  -1.641  1.00  0.00    -0.365 OA
ATOM     18  H   UNL     1      15.317  21.954  -1.521  1.00  0.00     0.214 HD
ENDBRANCH   9  17
TORSDOF 2
ENDMDL
MODEL 4
REMARK VINA RESULT:    -2.203      1.765      3.339
REMARK INTER + INTRA:          -2.551
REMARK INTER:                  -3.100
REMARK INTRA:                   0.549
REMARK UNBOUND:                -0.155
REMARK SMILES C=C1C[C@@]2(O)O[C@]3(C[C@@H]2C(C)C)[C@@H]1CC[C@@H]3C
REMARK SMILES IDX 17 1 16 2 15 3 14 4 13 5 7 6 8 7 9 8 4 9 6 10 3 11 2 12 1 13
REMARK SMILES IDX 10 14 11 15 12 16 5 17
REMARK H PARENT 5 18
REMARK Flexibility Score: inf
ROOT
ATOM      1  C   UNL     1      11.398  25.375  -3.423  1.00  0.00     0.011 C 
ATOM      2  C   UNL     1      12.532  24.369  -3.163  1.00  0.00     0.019 C 
ATOM      3  C   UNL     1      13.600  24.945  -2.198  1.00  0.00     0.007 C 
ATOM      4  C   UNL     1      13.448  24.214  -0.850  1.00  0.00     0.011 C 
ATOM      5  C   UNL     1      12.125  23.476  -0.978  1.00  0.00     0.047 C 
ATOM      6  C   UNL     1      12.047  23.087  -2.455  1.00  0.00     0.081 C 
ATOM      7  C   UNL     1      12.923  21.862  -2.824  1.00  0.00     0.046 C 
ATOM      8  C   UNL     1      11.960  20.668  -2.763  1.00  0.00     0.054 C 
ATOM      9  C   UNL     1      10.674  21.365  -2.225  1.00  0.00     0.173 C 
ATOM     10  O   UNL     1      10.723  22.695  -2.717  1.00  0.00    -0.342 OA
ATOM     11  C   UNL     1      10.697  21.384  -0.650  1.00  0.00     0.096 C 
ATOM     12  C   UNL     1      11.819  22.270  -0.129  1.00  0.00    -0.066 C 
ATOM     13  C   UNL     1      12.327  22.102   1.099  1.00  0.00     0.008 C 
ENDROOT
BRANCH   8  14
ATOM     14  C   UNL     1      11.861  19.926  -4.146  1.00  0.00    -0.009 C 
ATOM     15  C   UNL     1      10.835  20.626  -5.068  1.00  0.00     0.008 C 
ATOM     16  C   UNL     1      13.204  19.875  -4.907  1.00  0.00     0.008 C 
ENDBRANCH   8  14
BRANCH   9  17
ATOM     17  O   UNL     1       9.485  20.771  -2.673  1.00  0.00    -0.365 OA
ATOM     18  H   UNL     1       9.624  20.483  -3.613  1.00  0.00     0.214 HD
ENDBRANCH   9  17
TORSDOF 2
ENDMDL
MODEL 5
REMARK VINA RESULT:    -2.022      1.762      4.153
REMARK INTER + INTRA:          -2.355
REMARK INTER:                  -2.999
REMARK INTRA:                   0.644
REMARK UNBOUND:                -0.155
REMARK SMILES C=C1C[C@@]2(O)O[C@]3(C[C@@H]2C(C)C)[C@@H]1CC[C@@H]3C
REMARK SMILES IDX 17 1 16 2 15 3 14 4 13 5 7 6 8 7 9 8 4 9 6 10 3 11 2 12 1 13
REMARK SMILES IDX 10 14 11 15 12 16 5 17
REMARK H PARENT 5 18
REMARK Flexibility Score: inf
ROOT
ATOM      1  C   UNL     1       9.704  20.051  -3.636  1.00  0.00     0.011 C 
ATOM      2  C   UNL     1      11.195  20.385  -3.457  1.00  0.00     0.019 C 
ATOM      3  C   UNL     1      11.927  20.494  -4.820  1.00  0.00     0.007 C 
ATOM      4  C   UNL     1      12.234  21.984  -5.062  1.00  0.00     0.011 C 
ATOM      5  C   UNL     1      11.414  22.707  -4.005  1.00  0.00     0.047 C 
ATOM      6  C   UNL     1      11.427  21.762  -2.802  1.00  0.00     0.081 C 
ATOM      7  C   UNL     1      12.751  21.798  -1.996  1.00  0.00     0.046 C 
ATOM      8  C   UNL     1      12.476  22.780  -0.848  1.00  0.00     0.054 C 
ATOM      9  C   UNL     1      11.055  23.285  -1.238  1.00  0.00     0.173 C 
ATOM     10  O   UNL     1      10.432  22.202  -1.911  1.00  0.00    -0.342 OA
ATOM     11  C   UNL     1      11.176  24.514  -2.217  1.00  0.00     0.096 C 
ATOM     12  C   UNL     1      11.777  24.096  -3.550  1.00  0.00    -0.066 C 
ATOM     13  C   UNL     1      12.388  24.982  -4.348  1.00  0.00     0.008 C 
ENDROOT
BRANCH   8  14
ATOM     14  C   UNL     1      12.645  22.096   0.559  1.00  0.00    -0.009 C 
ATOM     15  C   UNL     1      11.952  22.934   1.659  1.00  0.00     0.008 C 
ATOM     16  C   UNL     1      12.048  20.674   0.620  1.00  0.00     0.008 C 
ENDBRANCH   8  14
BRANCH   9  17
ATOM     17  O   UNL     1      10.261  23.636  -0.136  1.00  0.00    -0.365 OA
ATOM     18  H   UNL     1      10.043  22.802   0.359  1.00  0.00     0.214 HD
ENDBRANCH   9  17
TORSDOF 2
ENDMDL
MODEL 6
REMARK VINA RESULT:    -1.918      1.636      4.408
REMARK INTER + INTRA:          -2.241
REMARK INTER:                  -2.952
REMARK INTRA:                   0.711
REMARK UNBOUND:                -0.155
REMARK SMILES C=C1C[C@@]2(O)O[C@]3(C[C@@H]2C(C)C)[C@@H]1CC[C@@H]3C
REMARK SMILES IDX 17 1 16 2 15 3 14 4 13 5 7 6 8 7 9 8 4 9 6 10 3 11 2 12 1 13
REMARK SMILES IDX 10 14 11 15 12 16 5 17
REMARK H PARENT 5 18
REMARK Flexibility Score: inf
ROOT
ATOM      1  C   UNL     1       9.045  22.923  -0.996  1.00  0.00     0.011 C 
ATOM      2  C   UNL     1      10.313  22.059  -0.893  1.00  0.00     0.019 C 
ATOM      3  C   UNL     1      10.001  20.555  -1.105  1.00  0.00     0.007 C 
ATOM      4  C   UNL     1      10.560  20.155  -2.484  1.00  0.00     0.011 C 
ATOM      5  C   UNL     1      10.895  21.483  -3.145  1.00  0.00     0.047 C 
ATOM      6  C   UNL     1      11.349  22.378  -1.991  1.00  0.00     0.081 C 
ATOM      7  C   UNL     1      12.797  22.094  -1.514  1.00  0.00     0.046 C 
ATOM      8  C   UNL     1      13.657  23.123  -2.261  1.00  0.00     0.054 C 
ATOM      9  C   UNL     1      12.584  23.777  -3.183  1.00  0.00     0.173 C 
ATOM     10  O   UNL     1      11.363  23.702  -2.466  1.00  0.00    -0.342 OA
ATOM     11  C   UNL     1      12.461  22.956  -4.522  1.00  0.00     0.096 C 
ATOM     12  C   UNL     1      11.900  21.567  -4.264  1.00  0.00    -0.066 C 
ATOM     13  C   UNL     1      12.119  20.556  -5.116  1.00  0.00     0.008 C 
ENDROOT
BRANCH   8  14
ATOM     14  C   UNL     1      14.435  24.064  -1.270  1.00  0.00    -0.009 C 
ATOM     15  C   UNL     1      13.613  25.338  -0.969  1.00  0.00     0.008 C 
ATOM     16  C   UNL     1      14.754  23.392   0.083  1.00  0.00     0.008 C 
ENDBRANCH   8  14
BRANCH   9  17
ATOM     17  O   UNL     1      12.843  25.124  -3.477  1.00  0.00    -0.365 OA
ATOM     18  H   UNL     1      13.143  25.565  -2.639  1.00  0.00     0.214 HD
ENDBRANCH   9  17
TORSDOF 2
ENDMDL
