MODEL 1
REMARK VINA RESULT:    -7.129      0.000      0.000
REMARK INTER + INTRA:         -10.329
REMARK INTER:                  -9.421
REMARK INTRA:                  -0.907
REMARK UNBOUND:                -0.907
REMARK SMILES CC[C@H](C=C[C@H](C)[C@@H]1CC[C@H]2[C@H]3CC=C4C[C@@H](O)CC[C@@]4(C)[C@@H]3CC[C@]21C)C(C)C
REMARK SMILES IDX 6 1 7 2 5 3 4 4 3 5 2 6 1 7 28 8 29 9 30 10 8 11 9 12 26 13
REMARK SMILES IDX 10 14 11 15 25 16 27 17 12 18 24 19 23 20 13 21 21 22 14 23
REMARK SMILES IDX 15 24 20 25 22 26 16 27 19 28 17 29 18 30
REMARK H PARENT 18 31
REMARK Flexibility Score: inf
ROOT
ATOM      1  C   UNL     1     134.612 140.641 136.969  1.00  0.00     0.012 C 
ATOM      2  C   UNL     1     134.765 140.251 135.481  1.00  0.00     0.012 C 
ENDROOT
BRANCH   1   3
ATOM      3  C   UNL     1     133.441 139.855 137.538  1.00  0.00    -0.028 C 
ATOM      4  C   UNL     1     132.165 140.103 137.195  1.00  0.00    -0.027 C 
BRANCH   4   5
ATOM      5  C   UNL     1     131.018 139.312 137.792  1.00  0.00     0.014 C 
BRANCH   5   6
ATOM      6  C   UNL     1     130.105 140.235 138.637  1.00  0.00     0.004 C 
ATOM      7  C   UNL     1     130.908 141.242 139.464  1.00  0.00     0.004 C 
ENDBRANCH   5   6
BRANCH   5   8
ATOM      8  C   UNL     1     130.252 138.543 136.671  1.00  0.00    -0.011 C 
ATOM      9  C   UNL     1     128.974 139.263 136.210  1.00  0.00     0.008 C 
ATOM     10  C   UNL     1     129.934 137.095 137.077  1.00  0.00     0.008 C 
ENDBRANCH   5   8
ENDBRANCH   4   5
ENDBRANCH   1   3
BRANCH   1  11
ATOM     11  C   UNL     1     135.922 140.424 137.818  1.00  0.00     0.002 C 
ATOM     12  C   UNL     1     135.622 139.622 139.112  1.00  0.00     0.005 C 
ATOM     13  C   UNL     1     136.732 141.694 138.304  1.00  0.00    -0.026 C 
ATOM     14  C   UNL     1     136.289 140.342 140.270  1.00  0.00     0.005 C 
ATOM     15  C   UNL     1     136.414 141.790 139.814  1.00  0.00    -0.001 C 
ATOM     16  C   UNL     1     138.251 141.407 138.098  1.00  0.00     0.007 C 
ATOM     17  C   UNL     1     136.362 143.025 137.602  1.00  0.00     0.012 C 
ATOM     18  C   UNL     1     137.403 142.673 140.647  1.00  0.00     0.000 C 
ATOM     19  C   UNL     1     139.163 142.389 138.834  1.00  0.00     0.005 C 
ATOM     20  C   UNL     1     138.897 142.383 140.359  1.00  0.00     0.003 C 
ATOM     21  C   UNL     1     137.124 142.544 142.154  1.00  0.00     0.031 C 
ATOM     22  C   UNL     1     139.854 143.357 141.163  1.00  0.00    -0.008 C 
ATOM     23  C   UNL     1     138.112 143.290 142.997  1.00  0.00    -0.027 C 
ATOM     24  C   UNL     1     139.389 143.513 142.620  1.00  0.00    -0.065 C 
ATOM     25  C   UNL     1     141.296 142.756 141.163  1.00  0.00     0.014 C 
ATOM     26  C   UNL     1     139.889 144.774 140.524  1.00  0.00     0.016 C 
ATOM     27  C   UNL     1     140.343 144.120 143.633  1.00  0.00     0.063 C 
ATOM     28  C   UNL     1     142.261 143.454 142.137  1.00  0.00     0.033 C 
ATOM     29  C   UNL     1     141.717 143.447 143.573  1.00  0.00     0.118 C 
BRANCH  29  30
ATOM     30  O   UNL     1     141.614 142.132 144.054  1.00  0.00    -0.393 OA
ATOM     31  H   UNL     1     142.509 141.887 144.411  1.00  0.00     0.210 HD
ENDBRANCH  29  30
ENDBRANCH   1  11
TORSDOF 6
ENDMDL
MODEL 2
REMARK VINA RESULT:    -7.080      1.131      1.713
REMARK INTER + INTRA:         -10.264
REMARK INTER:                  -8.793
REMARK INTRA:                  -1.470
REMARK UNBOUND:                -0.907
REMARK SMILES CC[C@H](C=C[C@H](C)[C@@H]1CC[C@H]2[C@H]3CC=C4C[C@@H](O)CC[C@@]4(C)[C@@H]3CC[C@]21C)C(C)C
REMARK SMILES IDX 6 1 7 2 5 3 4 4 3 5 2 6 1 7 28 8 29 9 30 10 8 11 9 12 26 13
REMARK SMILES IDX 10 14 11 15 25 16 27 17 12 18 24 19 23 20 13 21 21 22 14 23
REMARK SMILES IDX 15 24 20 25 22 26 16 27 19 28 17 29 18 30
REMARK H PARENT 18 31
REMARK Flexibility Score: inf
ROOT
ATOM      1  C   UNL     1     133.977 139.534 135.500  1.00  0.00     0.012 C 
ATOM      2  C   UNL     1     134.116 138.752 134.173  1.00  0.00     0.012 C 
ENDROOT
BRANCH   1   3
ATOM      3  C   UNL     1     132.844 138.904 136.295  1.00  0.00    -0.028 C 
ATOM      4  C   UNL     1     131.945 139.632 136.978  1.00  0.00    -0.027 C 
BRANCH   4   5
ATOM      5  C   UNL     1     130.836 138.973 137.774  1.00  0.00     0.014 C 
BRANCH   5   6
ATOM      6  C   UNL     1     130.148 140.005 138.703  1.00  0.00     0.004 C 
ATOM      7  C   UNL     1     131.103 141.121 139.136  1.00  0.00     0.004 C 
ENDBRANCH   5   6
BRANCH   5   8
ATOM      8  C   UNL     1     129.843 138.245 136.817  1.00  0.00    -0.011 C 
ATOM      9  C   UNL     1     128.876 139.206 136.105  1.00  0.00     0.008 C 
ATOM     10  C   UNL     1     129.061 137.131 137.531  1.00  0.00     0.008 C 
ENDBRANCH   5   8
ENDBRANCH   4   5
ENDBRANCH   1   3
BRANCH   1  11
ATOM     11  C   UNL     1     135.310 139.594 136.340  1.00  0.00     0.002 C 
ATOM     12  C   UNL     1     135.306 138.531 137.470  1.00  0.00     0.005 C 
ATOM     13  C   UNL     1     135.694 140.951 137.059  1.00  0.00    -0.026 C 
ATOM     14  C   UNL     1     135.742 139.215 138.754  1.00  0.00     0.005 C 
ATOM     15  C   UNL     1     135.398 140.685 138.553  1.00  0.00    -0.001 C 
ATOM     16  C   UNL     1     137.222 141.191 136.854  1.00  0.00     0.007 C 
ATOM     17  C   UNL     1     134.911 142.200 136.581  1.00  0.00     0.012 C 
ATOM     18  C   UNL     1     136.082 141.676 139.554  1.00  0.00     0.000 C 
ATOM     19  C   UNL     1     137.799 142.267 137.774  1.00  0.00     0.005 C 
ATOM     20  C   UNL     1     137.585 141.920 139.267  1.00  0.00     0.003 C 
ATOM     21  C   UNL     1     135.893 141.213 141.008  1.00  0.00     0.031 C 
ATOM     22  C   UNL     1     138.209 142.991 140.253  1.00  0.00    -0.008 C 
ATOM     23  C   UNL     1     136.619 142.074 141.995  1.00  0.00    -0.027 C 
ATOM     24  C   UNL     1     137.752 142.744 141.701  1.00  0.00    -0.065 C 
ATOM     25  C   UNL     1     139.766 142.878 140.196  1.00  0.00     0.014 C 
ATOM     26  C   UNL     1     137.785 144.436 139.865  1.00  0.00     0.016 C 
ATOM     27  C   UNL     1     138.493 143.437 142.830  1.00  0.00     0.063 C 
ATOM     28  C   UNL     1     140.488 143.665 141.303  1.00  0.00     0.033 C 
ATOM     29  C   UNL     1     140.007 143.245 142.700  1.00  0.00     0.118 C 
BRANCH  29  30
ATOM     30  O   UNL     1     140.331 141.902 142.949  1.00  0.00    -0.393 OA
ATOM     31  H   UNL     1     141.232 141.898 143.369  1.00  0.00     0.210 HD
ENDBRANCH  29  30
ENDBRANCH   1  11
TORSDOF 6
ENDMDL
MODEL 3
REMARK VINA RESULT:    -6.961      9.119     11.165
REMARK INTER + INTRA:         -10.106
REMARK INTER:                  -8.267
REMARK INTRA:                  -1.839
REMARK UNBOUND:                -0.907
REMARK SMILES CC[C@H](C=C[C@H](C)[C@@H]1CC[C@H]2[C@H]3CC=C4C[C@@H](O)CC[C@@]4(C)[C@@H]3CC[C@]21C)C(C)C
REMARK SMILES IDX 6 1 7 2 5 3 4 4 3 5 2 6 1 7 28 8 29 9 30 10 8 11 9 12 26 13
REMARK SMILES IDX 10 14 11 15 25 16 27 17 12 18 24 19 23 20 13 21 21 22 14 23
REMARK SMILES IDX 15 24 20 25 22 26 16 27 19 28 17 29 18 30
REMARK H PARENT 18 31
REMARK Flexibility Score: inf
ROOT
ATOM      1  C   UNL     1     139.998 134.083 144.832  1.00  0.00     0.012 C 
ATOM      2  C   UNL     1     139.430 132.744 144.307  1.00  0.00     0.012 C 
ENDROOT
BRANCH   1   3
ATOM      3  C   UNL     1     139.832 134.099 146.343  1.00  0.00    -0.028 C 
ATOM      4  C   UNL     1     139.438 135.192 147.018  1.00  0.00    -0.027 C 
BRANCH   4   5
ATOM      5  C   UNL     1     139.297 135.181 148.527  1.00  0.00     0.014 C 
BRANCH   5   6
ATOM      6  C   UNL     1     138.369 134.025 148.977  1.00  0.00     0.004 C 
ATOM      7  C   UNL     1     136.888 134.370 148.799  1.00  0.00     0.004 C 
ENDBRANCH   5   6
BRANCH   5   8
ATOM      8  C   UNL     1     140.704 135.142 149.200  1.00  0.00    -0.011 C 
ATOM      9  C   UNL     1     140.638 135.137 150.737  1.00  0.00     0.008 C 
ATOM     10  C   UNL     1     141.613 136.279 148.707  1.00  0.00     0.008 C 
ENDBRANCH   5   8
ENDBRANCH   4   5
ENDBRANCH   1   3
BRANCH   1  11
ATOM     11  C   UNL     1     141.494 134.342 144.410  1.00  0.00     0.002 C 
ATOM     12  C   UNL     1     142.478 133.743 145.450  1.00  0.00     0.005 C 
ATOM     13  C   UNL     1     141.978 135.835 144.205  1.00  0.00    -0.026 C 
ATOM     14  C   UNL     1     143.521 134.801 145.767  1.00  0.00     0.005 C 
ATOM     15  C   UNL     1     142.843 136.128 145.453  1.00  0.00    -0.001 C 
ATOM     16  C   UNL     1     142.864 135.885 142.921  1.00  0.00     0.007 C 
ATOM     17  C   UNL     1     140.848 136.889 144.088  1.00  0.00     0.012 C 
ATOM     18  C   UNL     1     143.804 137.357 145.324  1.00  0.00     0.000 C 
ATOM     19  C   UNL     1     143.677 137.173 142.791  1.00  0.00     0.005 C 
ATOM     20  C   UNL     1     144.615 137.383 144.004  1.00  0.00     0.003 C 
ATOM     21  C   UNL     1     144.756 137.445 146.528  1.00  0.00     0.031 C 
ATOM     22  C   UNL     1     145.507 138.687 143.884  1.00  0.00    -0.008 C 
ATOM     23  C   UNL     1     145.764 138.545 146.398  1.00  0.00    -0.027 C 
ATOM     24  C   UNL     1     146.224 138.992 145.210  1.00  0.00    -0.065 C 
ATOM     25  C   UNL     1     146.586 138.456 142.778  1.00  0.00     0.014 C 
ATOM     26  C   UNL     1     144.650 139.930 143.513  1.00  0.00     0.016 C 
ATOM     27  C   UNL     1     147.373 139.983 145.210  1.00  0.00     0.063 C 
ATOM     28  C   UNL     1     147.688 139.529 142.749  1.00  0.00     0.033 C 
ATOM     29  C   UNL     1     148.387 139.656 144.110  1.00  0.00     0.118 C 
BRANCH  29  30
ATOM     30  O   UNL     1     149.058 138.465 144.432  1.00  0.00    -0.393 OA
ATOM     31  H   UNL     1     149.780 138.707 145.070  1.00  0.00     0.210 HD
ENDBRANCH  29  30
ENDBRANCH   1  11
TORSDOF 6
ENDMDL
MODEL 4
REMARK VINA RESULT:    -6.943      8.898     10.873
REMARK INTER + INTRA:         -10.083
REMARK INTER:                  -8.377
REMARK INTRA:                  -1.705
REMARK UNBOUND:                -0.907
REMARK SMILES CC[C@H](C=C[C@H](C)[C@@H]1CC[C@H]2[C@H]3CC=C4C[C@@H](O)CC[C@@]4(C)[C@@H]3CC[C@]21C)C(C)C
REMARK SMILES IDX 6 1 7 2 5 3 4 4 3 5 2 6 1 7 28 8 29 9 30 10 8 11 9 12 26 13
REMARK SMILES IDX 10 14 11 15 25 16 27 17 12 18 24 19 23 20 13 21 21 22 14 23
REMARK SMILES IDX 15 24 20 25 22 26 16 27 19 28 17 29 18 30
REMARK H PARENT 18 31
REMARK Flexibility Score: inf
ROOT
ATOM      1  C   UNL     1     140.001 134.273 144.371  1.00  0.00     0.012 C 
ATOM      2  C   UNL     1     139.272 133.095 143.685  1.00  0.00     0.012 C 
ENDROOT
BRANCH   1   3
ATOM      3  C   UNL     1     140.063 133.978 145.861  1.00  0.00    -0.028 C 
ATOM      4  C   UNL     1     139.948 134.936 146.797  1.00  0.00    -0.027 C 
BRANCH   4   5
ATOM      5  C   UNL     1     140.030 134.612 148.275  1.00  0.00     0.014 C 
BRANCH   5   6
ATOM      6  C   UNL     1     140.854 135.691 149.022  1.00  0.00     0.004 C 
ATOM      7  C   UNL     1     142.276 135.818 148.470  1.00  0.00     0.004 C 
ENDBRANCH   5   6
BRANCH   5   8
ATOM      8  C   UNL     1     138.600 134.408 148.864  1.00  0.00    -0.011 C 
ATOM      9  C   UNL     1     137.509 135.146 148.069  1.00  0.00     0.008 C 
ATOM     10  C   UNL     1     138.527 134.786 150.351  1.00  0.00     0.008 C 
ENDBRANCH   5   8
ENDBRANCH   4   5
ENDBRANCH   1   3
BRANCH   1  11
ATOM     11  C   UNL     1     141.432 134.563 143.778  1.00  0.00     0.002 C 
ATOM     12  C   UNL     1     142.528 133.796 144.565  1.00  0.00     0.005 C 
ATOM     13  C   UNL     1     141.943 136.059 143.721  1.00  0.00    -0.026 C 
ATOM     14  C   UNL     1     143.647 134.774 144.875  1.00  0.00     0.005 C 
ATOM     15  C   UNL     1     142.987 136.146 144.859  1.00  0.00    -0.001 C 
ATOM     16  C   UNL     1     142.639 136.282 142.343  1.00  0.00     0.007 C 
ATOM     17  C   UNL     1     140.852 137.142 143.924  1.00  0.00     0.012 C 
ATOM     18  C   UNL     1     143.970 137.362 144.769  1.00  0.00     0.000 C 
ATOM     19  C   UNL     1     143.478 137.559 142.282  1.00  0.00     0.005 C 
ATOM     20  C   UNL     1     144.586 137.567 143.363  1.00  0.00     0.003 C 
ATOM     21  C   UNL     1     145.086 137.250 145.821  1.00  0.00     0.031 C 
ATOM     22  C   UNL     1     145.506 138.856 143.303  1.00  0.00    -0.008 C 
ATOM     23  C   UNL     1     146.110 138.337 145.705  1.00  0.00    -0.027 C 
ATOM     24  C   UNL     1     146.415 138.946 144.540  1.00  0.00    -0.065 C 
ATOM     25  C   UNL     1     146.406 138.771 142.030  1.00  0.00     0.014 C 
ATOM     26  C   UNL     1     144.657 140.158 143.245  1.00  0.00     0.016 C 
ATOM     27  C   UNL     1     147.593 139.904 144.515  1.00  0.00     0.063 C 
ATOM     28  C   UNL     1     147.536 139.814 141.996  1.00  0.00     0.033 C 
ATOM     29  C   UNL     1     148.426 139.724 143.244  1.00  0.00     0.118 C 
BRANCH  29  30
ATOM     30  O   UNL     1     149.086 138.485 143.288  1.00  0.00    -0.393 OA
ATOM     31  H   UNL     1     149.928 138.627 143.798  1.00  0.00     0.210 HD
ENDBRANCH  29  30
ENDBRANCH   1  11
TORSDOF 6
ENDMDL
MODEL 5
REMARK VINA RESULT:    -6.599      1.451      2.382
REMARK INTER + INTRA:          -9.629
REMARK INTER:                  -8.443
REMARK INTRA:                  -1.185
REMARK UNBOUND:                -0.907
REMARK SMILES CC[C@H](C=C[C@H](C)[C@@H]1CC[C@H]2[C@H]3CC=C4C[C@@H](O)CC[C@@]4(C)[C@@H]3CC[C@]21C)C(C)C
REMARK SMILES IDX 6 1 7 2 5 3 4 4 3 5 2 6 1 7 28 8 29 9 30 10 8 11 9 12 26 13
REMARK SMILES IDX 10 14 11 15 25 16 27 17 12 18 24 19 23 20 13 21 21 22 14 23
REMARK SMILES IDX 15 24 20 25 22 26 16 27 19 28 17 29 18 30
REMARK H PARENT 18 31
REMARK Flexibility Score: inf
ROOT
ATOM      1  C   UNL     1     135.344 139.238 137.739  1.00  0.00     0.012 C 
ATOM      2  C   UNL     1     135.212 137.710 137.543  1.00  0.00     0.012 C 
ENDROOT
BRANCH   1   3
ATOM      3  C   UNL     1     133.966 139.852 137.550  1.00  0.00    -0.028 C 
ATOM      4  C   UNL     1     132.867 139.112 137.323  1.00  0.00    -0.027 C 
BRANCH   4   5
ATOM      5  C   UNL     1     131.509 139.754 137.122  1.00  0.00     0.014 C 
BRANCH   5   6
ATOM      6  C   UNL     1     130.724 139.026 136.003  1.00  0.00     0.004 C 
ATOM      7  C   UNL     1     131.575 137.969 135.293  1.00  0.00     0.004 C 
ENDBRANCH   5   6
BRANCH   5   8
ATOM      8  C   UNL     1     130.737 139.820 138.476  1.00  0.00    -0.011 C 
ATOM      9  C   UNL     1     129.221 139.617 138.317  1.00  0.00     0.008 C 
ATOM     10  C   UNL     1     131.026 141.119 139.245  1.00  0.00     0.008 C 
ENDBRANCH   5   8
ENDBRANCH   4   5
ENDBRANCH   1   3
BRANCH   1  11
ATOM     11  C   UNL     1     135.974 139.645 139.124  1.00  0.00     0.002 C 
ATOM     12  C   UNL     1     135.090 140.691 139.854  1.00  0.00     0.005 C 
ATOM     13  C   UNL     1     137.433 140.260 139.145  1.00  0.00    -0.026 C 
ATOM     14  C   UNL     1     135.996 141.807 140.341  1.00  0.00     0.005 C 
ATOM     15  C   UNL     1     137.205 141.765 139.416  1.00  0.00    -0.001 C 
ATOM     16  C   UNL     1     138.212 139.618 140.335  1.00  0.00     0.007 C 
ATOM     17  C   UNL     1     138.249 140.077 137.840  1.00  0.00     0.012 C 
ATOM     18  C   UNL     1     138.463 142.549 139.920  1.00  0.00     0.000 C 
ATOM     19  C   UNL     1     139.502 140.359 140.689  1.00  0.00     0.005 C 
ATOM     20  C   UNL     1     139.229 141.836 141.063  1.00  0.00     0.003 C 
ATOM     21  C   UNL     1     138.091 143.978 140.349  1.00  0.00     0.031 C 
ATOM     22  C   UNL     1     140.538 142.626 141.479  1.00  0.00    -0.008 C 
ATOM     23  C   UNL     1     139.244 144.731 140.937  1.00  0.00    -0.027 C 
ATOM     24  C   UNL     1     140.263 144.135 141.589  1.00  0.00    -0.065 C 
ATOM     25  C   UNL     1     141.016 142.105 142.873  1.00  0.00     0.014 C 
ATOM     26  C   UNL     1     141.677 142.427 140.440  1.00  0.00     0.016 C 
ATOM     27  C   UNL     1     141.279 145.015 142.295  1.00  0.00     0.063 C 
ATOM     28  C   UNL     1     142.109 142.972 143.520  1.00  0.00     0.033 C 
ATOM     29  C   UNL     1     141.661 144.434 143.660  1.00  0.00     0.118 C 
BRANCH  29  30
ATOM     30  O   UNL     1     140.566 144.532 144.533  1.00  0.00    -0.393 OA
ATOM     31  H   UNL     1     139.750 144.570 143.967  1.00  0.00     0.210 HD
ENDBRANCH  29  30
ENDBRANCH   1  11
TORSDOF 6
ENDMDL
MODEL 6
REMARK VINA RESULT:    -6.570      8.565     11.294
REMARK INTER + INTRA:          -9.590
REMARK INTER:                  -7.863
REMARK INTRA:                  -1.726
REMARK UNBOUND:                -0.907
REMARK SMILES CC[C@H](C=C[C@H](C)[C@@H]1CC[C@H]2[C@H]3CC=C4C[C@@H](O)CC[C@@]4(C)[C@@H]3CC[C@]21C)C(C)C
REMARK SMILES IDX 6 1 7 2 5 3 4 4 3 5 2 6 1 7 28 8 29 9 30 10 8 11 9 12 26 13
REMARK SMILES IDX 10 14 11 15 25 16 27 17 12 18 24 19 23 20 13 21 21 22 14 23
REMARK SMILES IDX 15 24 20 25 22 26 16 27 19 28 17 29 18 30
REMARK H PARENT 18 31
REMARK Flexibility Score: inf
ROOT
ATOM      1  C   UNL     1     142.298 133.863 148.769  1.00  0.00     0.012 C 
ATOM      2  C   UNL     1     142.790 133.271 150.110  1.00  0.00     0.012 C 
ENDROOT
BRANCH   1   3
ATOM      3  C   UNL     1     140.784 133.989 148.844  1.00  0.00    -0.028 C 
ATOM      4  C   UNL     1     139.971 133.558 147.865  1.00  0.00    -0.027 C 
BRANCH   4   5
ATOM      5  C   UNL     1     138.466 133.713 147.962  1.00  0.00     0.014 C 
BRANCH   5   6
ATOM      6  C   UNL     1     138.086 134.541 149.214  1.00  0.00     0.004 C 
ATOM      7  C   UNL     1     137.137 133.781 150.145  1.00  0.00     0.004 C 
ENDBRANCH   5   6
BRANCH   5   8
ATOM      8  C   UNL     1     137.897 134.302 146.634  1.00  0.00    -0.011 C 
ATOM      9  C   UNL     1     137.427 133.220 145.647  1.00  0.00     0.008 C 
ATOM     10  C   UNL     1     138.891 135.254 145.951  1.00  0.00     0.008 C 
ENDBRANCH   5   8
ENDBRANCH   4   5
ENDBRANCH   1   3
BRANCH   1  11
ATOM     11  C   UNL     1     142.976 135.236 148.398  1.00  0.00     0.002 C 
ATOM     12  C   UNL     1     142.035 136.428 148.720  1.00  0.00     0.005 C 
ATOM     13  C   UNL     1     143.440 135.475 146.904  1.00  0.00    -0.026 C 
ATOM     14  C   UNL     1     142.020 137.347 147.512  1.00  0.00     0.005 C 
ATOM     15  C   UNL     1     142.388 136.455 146.333  1.00  0.00    -0.001 C 
ATOM     16  C   UNL     1     144.841 136.160 146.936  1.00  0.00     0.007 C 
ATOM     17  C   UNL     1     143.510 134.205 146.019  1.00  0.00     0.012 C 
ATOM     18  C   UNL     1     142.818 137.209 145.030  1.00  0.00     0.000 C 
ATOM     19  C   UNL     1     145.257 136.760 145.592  1.00  0.00     0.005 C 
ATOM     20  C   UNL     1     144.241 137.819 145.099  1.00  0.00     0.003 C 
ATOM     21  C   UNL     1     141.798 138.297 144.658  1.00  0.00     0.031 C 
ATOM     22  C   UNL     1     144.660 138.497 143.730  1.00  0.00    -0.008 C 
ATOM     23  C   UNL     1     142.220 139.115 143.476  1.00  0.00    -0.027 C 
ATOM     24  C   UNL     1     143.511 139.340 143.154  1.00  0.00    -0.065 C 
ATOM     25  C   UNL     1     145.883 139.433 143.989  1.00  0.00     0.014 C 
ATOM     26  C   UNL     1     145.046 137.433 142.664  1.00  0.00     0.016 C 
ATOM     27  C   UNL     1     143.814 140.330 142.044  1.00  0.00     0.063 C 
ATOM     28  C   UNL     1     146.217 140.361 142.808  1.00  0.00     0.033 C 
ATOM     29  C   UNL     1     145.008 141.218 142.404  1.00  0.00     0.118 C 
BRANCH  29  30
ATOM     30  O   UNL     1     144.649 142.085 143.448  1.00  0.00    -0.393 OA
ATOM     31  H   UNL     1     143.660 142.035 143.534  1.00  0.00     0.210 HD
ENDBRANCH  29  30
ENDBRANCH   1  11
TORSDOF 6
ENDMDL
MODEL 7
REMARK VINA RESULT:    -6.558      9.318     12.683
REMARK INTER + INTRA:          -9.574
REMARK INTER:                  -7.726
REMARK INTRA:                  -1.848
REMARK UNBOUND:                -0.907
REMARK SMILES CC[C@H](C=C[C@H](C)[C@@H]1CC[C@H]2[C@H]3CC=C4C[C@@H](O)CC[C@@]4(C)[C@@H]3CC[C@]21C)C(C)C
REMARK SMILES IDX 6 1 7 2 5 3 4 4 3 5 2 6 1 7 28 8 29 9 30 10 8 11 9 12 26 13
REMARK SMILES IDX 10 14 11 15 25 16 27 17 12 18 24 19 23 20 13 21 21 22 14 23
REMARK SMILES IDX 15 24 20 25 22 26 16 27 19 28 17 29 18 30
REMARK H PARENT 18 31
REMARK Flexibility Score: inf
ROOT
ATOM      1  C   UNL     1     144.189 137.084 141.881  1.00  0.00     0.012 C 
ATOM      2  C   UNL     1     144.011 137.448 140.388  1.00  0.00     0.012 C 
ENDROOT
BRANCH   1   3
ATOM      3  C   UNL     1     145.115 138.116 142.504  1.00  0.00    -0.028 C 
ATOM      4  C   UNL     1     145.948 137.826 143.518  1.00  0.00    -0.027 C 
BRANCH   4   5
ATOM      5  C   UNL     1     146.847 138.882 144.130  1.00  0.00     0.014 C 
BRANCH   5   6
ATOM      6  C   UNL     1     147.069 140.048 143.135  1.00  0.00     0.004 C 
ATOM      7  C   UNL     1     148.458 140.006 142.494  1.00  0.00     0.004 C 
ENDBRANCH   5   6
BRANCH   5   8
ATOM      8  C   UNL     1     146.279 139.343 145.507  1.00  0.00    -0.011 C 
ATOM      9  C   UNL     1     147.227 140.287 146.265  1.00  0.00     0.008 C 
ATOM     10  C   UNL     1     145.882 138.155 146.397  1.00  0.00     0.008 C 
ENDBRANCH   5   8
ENDBRANCH   4   5
ENDBRANCH   1   3
BRANCH   1  11
ATOM     11  C   UNL     1     142.829 136.973 142.670  1.00  0.00     0.002 C 
ATOM     12  C   UNL     1     142.478 138.315 143.366  1.00  0.00     0.005 C 
ATOM     13  C   UNL     1     142.696 135.879 143.805  1.00  0.00    -0.026 C 
ATOM     14  C   UNL     1     142.084 138.006 144.800  1.00  0.00     0.005 C 
ATOM     15  C   UNL     1     142.774 136.686 145.122  1.00  0.00    -0.001 C 
ATOM     16  C   UNL     1     141.292 135.212 143.673  1.00  0.00     0.007 C 
ATOM     17  C   UNL     1     143.788 134.778 143.797  1.00  0.00     0.012 C 
ATOM     18  C   UNL     1     142.240 135.943 146.391  1.00  0.00     0.000 C 
ATOM     19  C   UNL     1     140.889 134.391 144.898  1.00  0.00     0.005 C 
ATOM     20  C   UNL     1     140.868 135.252 146.183  1.00  0.00     0.003 C 
ATOM     21  C   UNL     1     142.173 136.890 147.601  1.00  0.00     0.031 C 
ATOM     22  C   UNL     1     140.412 134.445 147.468  1.00  0.00    -0.008 C 
ATOM     23  C   UNL     1     141.569 136.250 148.813  1.00  0.00    -0.027 C 
ATOM     24  C   UNL     1     140.654 135.261 148.749  1.00  0.00    -0.065 C 
ATOM     25  C   UNL     1     138.884 134.142 147.353  1.00  0.00     0.014 C 
ATOM     26  C   UNL     1     141.192 133.107 147.606  1.00  0.00     0.016 C 
ATOM     27  C   UNL     1     139.983 134.817 150.037  1.00  0.00     0.063 C 
ATOM     28  C   UNL     1     138.255 133.610 148.652  1.00  0.00     0.033 C 
ATOM     29  C   UNL     1     138.486 134.572 149.826  1.00  0.00     0.118 C 
BRANCH  29  30
ATOM     30  O   UNL     1     137.840 135.797 149.594  1.00  0.00    -0.393 OA
ATOM     31  H   UNL     1     136.963 135.583 149.178  1.00  0.00     0.210 HD
ENDBRANCH  29  30
ENDBRANCH   1  11
TORSDOF 6
ENDMDL
MODEL 8
REMARK VINA RESULT:    -6.421      4.590     10.782
REMARK INTER + INTRA:          -9.393
REMARK INTER:                  -7.639
REMARK INTRA:                  -1.755
REMARK UNBOUND:                -0.907
REMARK SMILES CC[C@H](C=C[C@H](C)[C@@H]1CC[C@H]2[C@H]3CC=C4C[C@@H](O)CC[C@@]4(C)[C@@H]3CC[C@]21C)C(C)C
REMARK SMILES IDX 6 1 7 2 5 3 4 4 3 5 2 6 1 7 28 8 29 9 30 10 8 11 9 12 26 13
REMARK SMILES IDX 10 14 11 15 25 16 27 17 12 18 24 19 23 20 13 21 21 22 14 23
REMARK SMILES IDX 15 24 20 25 22 26 16 27 19 28 17 29 18 30
REMARK H PARENT 18 31
REMARK Flexibility Score: inf
ROOT
ATOM      1  C   UNL     1     146.418 140.246 141.502  1.00  0.00     0.012 C 
ATOM      2  C   UNL     1     147.628 140.979 140.878  1.00  0.00     0.012 C 
ENDROOT
BRANCH   1   3
ATOM      3  C   UNL     1     146.814 139.800 142.900  1.00  0.00    -0.028 C 
ATOM      4  C   UNL     1     146.400 138.640 143.436  1.00  0.00    -0.027 C 
BRANCH   4   5
ATOM      5  C   UNL     1     146.799 138.230 144.840  1.00  0.00     0.014 C 
BRANCH   5   6
ATOM      6  C   UNL     1     147.816 139.238 145.431  1.00  0.00     0.004 C 
ATOM      7  C   UNL     1     147.165 140.203 146.425  1.00  0.00     0.004 C 
ENDBRANCH   5   6
BRANCH   5   8
ATOM      8  C   UNL     1     145.531 138.039 145.728  1.00  0.00    -0.011 C 
ATOM      9  C   UNL     1     145.625 136.820 146.660  1.00  0.00     0.008 C 
ATOM     10  C   UNL     1     144.243 137.975 144.892  1.00  0.00     0.008 C 
ENDBRANCH   5   8
ENDBRANCH   4   5
ENDBRANCH   1   3
BRANCH   1  11
ATOM     11  C   UNL     1     145.099 141.108 141.520  1.00  0.00     0.002 C 
ATOM     12  C   UNL     1     144.743 141.552 142.964  1.00  0.00     0.005 C 
ATOM     13  C   UNL     1     143.766 140.471 140.951  1.00  0.00    -0.026 C 
ATOM     14  C   UNL     1     143.269 141.265 143.190  1.00  0.00     0.005 C 
ATOM     15  C   UNL     1     142.932 140.146 142.212  1.00  0.00    -0.001 C 
ATOM     16  C   UNL     1     143.038 141.555 140.097  1.00  0.00     0.007 C 
ATOM     17  C   UNL     1     143.954 139.190 140.099  1.00  0.00     0.012 C 
ATOM     18  C   UNL     1     141.405 139.915 141.959  1.00  0.00     0.000 C 
ATOM     19  C   UNL     1     141.586 141.202 139.773  1.00  0.00     0.005 C 
ATOM     20  C   UNL     1     140.749 140.991 141.058  1.00  0.00     0.003 C 
ATOM     21  C   UNL     1     140.635 139.799 143.285  1.00  0.00     0.031 C 
ATOM     22  C   UNL     1     139.226 140.667 140.763  1.00  0.00    -0.008 C 
ATOM     23  C   UNL     1     139.154 139.681 143.093  1.00  0.00    -0.027 C 
ATOM     24  C   UNL     1     138.499 140.214 142.041  1.00  0.00    -0.065 C 
ATOM     25  C   UNL     1     138.532 141.960 140.229  1.00  0.00     0.014 C 
ATOM     26  C   UNL     1     139.079 139.533 139.709  1.00  0.00     0.016 C 
ATOM     27  C   UNL     1     136.981 140.184 142.048  1.00  0.00     0.063 C 
ATOM     28  C   UNL     1     136.998 141.863 140.166  1.00  0.00     0.033 C 
ATOM     29  C   UNL     1     136.399 141.504 141.534  1.00  0.00     0.118 C 
BRANCH  29  30
ATOM     30  O   UNL     1     136.654 142.523 142.466  1.00  0.00    -0.393 OA
ATOM     31  H   UNL     1     136.688 143.375 141.956  1.00  0.00     0.210 HD
ENDBRANCH  29  30
ENDBRANCH   1  11
TORSDOF 6
ENDMDL
MODEL 9
REMARK VINA RESULT:    -6.320      8.953     13.309
REMARK INTER + INTRA:          -9.259
REMARK INTER:                  -7.919
REMARK INTRA:                  -1.340
REMARK UNBOUND:                -0.907
REMARK SMILES CC[C@H](C=C[C@H](C)[C@@H]1CC[C@H]2[C@H]3CC=C4C[C@@H](O)CC[C@@]4(C)[C@@H]3CC[C@]21C)C(C)C
REMARK SMILES IDX 6 1 7 2 5 3 4 4 3 5 2 6 1 7 28 8 29 9 30 10 8 11 9 12 26 13
REMARK SMILES IDX 10 14 11 15 25 16 27 17 12 18 24 19 23 20 13 21 21 22 14 23
REMARK SMILES IDX 15 24 20 25 22 26 16 27 19 28 17 29 18 30
REMARK H PARENT 18 31
REMARK Flexibility Score: inf
ROOT
ATOM      1  C   UNL     1     144.951 137.481 146.564  1.00  0.00     0.012 C 
ATOM      2  C   UNL     1     146.439 137.377 146.971  1.00  0.00     0.012 C 
ENDROOT
BRANCH   1   3
ATOM      3  C   UNL     1     144.893 138.050 145.155  1.00  0.00    -0.028 C 
ATOM      4  C   UNL     1     145.934 138.678 144.582  1.00  0.00    -0.027 C 
BRANCH   4   5
ATOM      5  C   UNL     1     145.840 139.250 143.182  1.00  0.00     0.014 C 
BRANCH   5   6
ATOM      6  C   UNL     1     147.200 139.124 142.451  1.00  0.00     0.004 C 
ATOM      7  C   UNL     1     148.358 138.878 143.422  1.00  0.00     0.004 C 
ENDBRANCH   5   6
BRANCH   5   8
ATOM      8  C   UNL     1     144.658 138.588 142.408  1.00  0.00    -0.011 C 
ATOM      9  C   UNL     1     145.122 137.720 141.226  1.00  0.00     0.008 C 
ATOM     10  C   UNL     1     143.623 139.623 141.938  1.00  0.00     0.008 C 
ENDBRANCH   5   8
ENDBRANCH   4   5
ENDBRANCH   1   3
BRANCH   1  11
ATOM     11  C   UNL     1     144.171 136.115 146.669  1.00  0.00     0.002 C 
ATOM     12  C   UNL     1     143.956 135.486 145.267  1.00  0.00     0.005 C 
ATOM     13  C   UNL     1     142.739 136.108 147.343  1.00  0.00    -0.026 C 
ATOM     14  C   UNL     1     142.501 135.064 145.165  1.00  0.00     0.005 C 
ATOM     15  C   UNL     1     141.762 135.957 146.154  1.00  0.00    -0.001 C 
ATOM     16  C   UNL     1     142.646 134.857 148.270  1.00  0.00     0.007 C 
ATOM     17  C   UNL     1     142.382 137.378 148.158  1.00  0.00     0.012 C 
ATOM     18  C   UNL     1     140.318 135.484 146.534  1.00  0.00     0.000 C 
ATOM     19  C   UNL     1     141.219 134.531 148.712  1.00  0.00     0.005 C 
ATOM     20  C   UNL     1     140.289 134.275 147.502  1.00  0.00     0.003 C 
ATOM     21  C   UNL     1     139.489 135.172 145.277  1.00  0.00     0.031 C 
ATOM     22  C   UNL     1     138.811 133.889 147.921  1.00  0.00    -0.008 C 
ATOM     23  C   UNL     1     138.134 134.617 145.594  1.00  0.00    -0.027 C 
ATOM     24  C   UNL     1     137.869 133.899 146.705  1.00  0.00    -0.065 C 
ATOM     25  C   UNL     1     138.821 132.451 148.530  1.00  0.00     0.014 C 
ATOM     26  C   UNL     1     138.239 134.886 148.969  1.00  0.00     0.016 C 
ATOM     27  C   UNL     1     136.508 133.238 146.828  1.00  0.00     0.063 C 
ATOM     28  C   UNL     1     137.420 131.846 148.723  1.00  0.00     0.033 C 
ATOM     29  C   UNL     1     136.628 131.826 147.408  1.00  0.00     0.118 C 
BRANCH  29  30
ATOM     30  O   UNL     1     137.252 130.987 146.470  1.00  0.00    -0.393 OA
ATOM     31  H   UNL     1     137.408 130.117 146.924  1.00  0.00     0.210 HD
ENDBRANCH  29  30
ENDBRANCH   1  11
TORSDOF 6
ENDMDL
