MODEL 1
REMARK VINA RESULT:    -3.431      0.000      0.000
REMARK INTER + INTRA:          -3.431
REMARK INTER:                  -3.431
REMARK INTRA:                   0.000
REMARK UNBOUND:                 0.000
REMARK SMILES CC1=CC(=O)[C@H]2C[C@@H]1C2(C)C
REMARK SMILES IDX 1 1 2 2 3 3 4 4 5 5 6 6 7 7 8 8 9 9 10 10 11 11
REMARK H PARENT
REMARK Flexibility Score: inf
ROOT
ATOM      1  C   UNL     1      -1.398  -5.758 -13.261  1.00  0.00     0.040 C 
ATOM      2  C   UNL     1      -2.181  -5.563 -14.521  1.00  0.00    -0.066 C 
ATOM      3  C   UNL     1      -2.794  -6.607 -15.144  1.00  0.00     0.047 C 
ATOM      4  C   UNL     1      -3.521  -6.287 -16.415  1.00  0.00     0.159 C 
ATOM      5  O   UNL     1      -4.093  -7.172 -17.103  1.00  0.00    -0.295 OA
ATOM      6  C   UNL     1      -3.517  -4.812 -16.817  1.00  0.00     0.067 C 
ATOM      7  C   UNL     1      -3.851  -4.063 -15.509  1.00  0.00     0.021 C 
ATOM      8  C   UNL     1      -2.348  -4.170 -15.165  1.00  0.00     0.022 C 
ATOM      9  C   UNL     1      -2.064  -4.269 -16.693  1.00  0.00    -0.019 C 
ATOM     10  C   UNL     1      -1.897  -2.877 -17.352  1.00  0.00     0.012 C 
ATOM     11  C   UNL     1      -0.893  -5.177 -17.166  1.00  0.00     0.012 C 
ENDROOT
TORSDOF 0
ENDMDL
MODEL 2
REMARK VINA RESULT:    -3.395      1.764      3.000
REMARK INTER + INTRA:          -3.395
REMARK INTER:                  -3.395
REMARK INTRA:                   0.000
REMARK UNBOUND:                 0.000
REMARK SMILES CC1=CC(=O)[C@H]2C[C@@H]1C2(C)C
REMARK SMILES IDX 1 1 2 2 3 3 4 4 5 5 6 6 7 7 8 8 9 9 10 10 11 11
REMARK H PARENT
REMARK Flexibility Score: inf
ROOT
ATOM      1  C   UNL     1      -3.947  -7.815 -16.625  1.00  0.00     0.040 C 
ATOM      2  C   UNL     1      -3.033  -6.788 -16.036  1.00  0.00    -0.066 C 
ATOM      3  C   UNL     1      -2.749  -6.771 -14.704  1.00  0.00     0.047 C 
ATOM      4  C   UNL     1      -1.844  -5.674 -14.231  1.00  0.00     0.159 C 
ATOM      5  O   UNL     1      -1.540  -5.528 -13.019  1.00  0.00    -0.295 OA
ATOM      6  C   UNL     1      -1.319  -4.742 -15.325  1.00  0.00     0.067 C 
ATOM      7  C   UNL     1      -0.875  -5.698 -16.453  1.00  0.00     0.021 C 
ATOM      8  C   UNL     1      -2.352  -5.710 -16.907  1.00  0.00     0.022 C 
ATOM      9  C   UNL     1      -2.512  -4.318 -16.229  1.00  0.00    -0.019 C 
ATOM     10  C   UNL     1      -2.145  -3.152 -17.181  1.00  0.00     0.012 C 
ATOM     11  C   UNL     1      -3.871  -3.983 -15.550  1.00  0.00     0.012 C 
ENDROOT
TORSDOF 0
ENDMDL
MODEL 3
REMARK VINA RESULT:    -3.374      1.600      2.736
REMARK INTER + INTRA:          -3.374
REMARK INTER:                  -3.374
REMARK INTRA:                   0.000
REMARK UNBOUND:                 0.000
REMARK SMILES CC1=CC(=O)[C@H]2C[C@@H]1C2(C)C
REMARK SMILES IDX 1 1 2 2 3 3 4 4 5 5 6 6 7 7 8 8 9 9 10 10 11 11
REMARK H PARENT
REMARK Flexibility Score: inf
ROOT
ATOM      1  C   UNL     1      -1.522  -5.714 -13.333  1.00  0.00     0.040 C 
ATOM      2  C   UNL     1      -2.000  -5.605 -14.747  1.00  0.00    -0.066 C 
ATOM      3  C   UNL     1      -3.100  -4.868 -15.069  1.00  0.00     0.047 C 
ATOM      4  C   UNL     1      -3.495  -4.864 -16.515  1.00  0.00     0.159 C 
ATOM      5  O   UNL     1      -4.513  -4.254 -16.931  1.00  0.00    -0.295 OA
ATOM      6  C   UNL     1      -2.575  -5.654 -17.447  1.00  0.00     0.067 C 
ATOM      7  C   UNL     1      -1.152  -5.233 -17.019  1.00  0.00     0.021 C 
ATOM      8  C   UNL     1      -1.263  -6.304 -15.909  1.00  0.00     0.022 C 
ATOM      9  C   UNL     1      -2.297  -7.044 -16.807  1.00  0.00    -0.019 C 
ATOM     10  C   UNL     1      -1.622  -8.025 -17.799  1.00  0.00     0.012 C 
ATOM     11  C   UNL     1      -3.475  -7.787 -16.113  1.00  0.00     0.012 C 
ENDROOT
TORSDOF 0
ENDMDL
MODEL 4
REMARK VINA RESULT:    -3.334      1.942      3.658
REMARK INTER + INTRA:          -3.334
REMARK INTER:                  -3.334
REMARK INTRA:                   0.000
REMARK UNBOUND:                 0.000
REMARK SMILES CC1=CC(=O)[C@H]2C[C@@H]1C2(C)C
REMARK SMILES IDX 1 1 2 2 3 3 4 4 5 5 6 6 7 7 8 8 9 9 10 10 11 11
REMARK H PARENT
REMARK Flexibility Score: inf
ROOT
ATOM      1  C   UNL     1      -5.784  -3.251 -17.280  1.00  0.00     0.040 C 
ATOM      2  C   UNL     1      -4.353  -3.487 -16.912  1.00  0.00    -0.066 C 
ATOM      3  C   UNL     1      -3.350  -3.310 -17.816  1.00  0.00     0.047 C 
ATOM      4  C   UNL     1      -1.963  -3.609 -17.334  1.00  0.00     0.159 C 
ATOM      5  O   UNL     1      -0.957  -3.522 -18.085  1.00  0.00    -0.295 OA
ATOM      6  C   UNL     1      -1.855  -4.028 -15.867  1.00  0.00     0.067 C 
ATOM      7  C   UNL     1      -2.748  -3.015 -15.118  1.00  0.00     0.021 C 
ATOM      8  C   UNL     1      -3.942  -3.923 -15.489  1.00  0.00     0.022 C 
ATOM      9  C   UNL     1      -2.938  -5.109 -15.581  1.00  0.00    -0.019 C 
ATOM     10  C   UNL     1      -2.725  -5.808 -14.214  1.00  0.00     0.012 C 
ATOM     11  C   UNL     1      -3.190  -6.205 -16.656  1.00  0.00     0.012 C 
ENDROOT
TORSDOF 0
ENDMDL
MODEL 5
REMARK VINA RESULT:    -3.274      1.294      3.131
REMARK INTER + INTRA:          -3.274
REMARK INTER:                  -3.274
REMARK INTRA:                   0.000
REMARK UNBOUND:                 0.000
REMARK SMILES CC1=CC(=O)[C@H]2C[C@@H]1C2(C)C
REMARK SMILES IDX 1 1 2 2 3 3 4 4 5 5 6 6 7 7 8 8 9 9 10 10 11 11
REMARK H PARENT
REMARK Flexibility Score: inf
ROOT
ATOM      1  C   UNL     1      -4.744  -3.588 -16.354  1.00  0.00     0.040 C 
ATOM      2  C   UNL     1      -3.501  -4.422 -16.341  1.00  0.00    -0.066 C 
ATOM      3  C   UNL     1      -3.242  -5.325 -17.326  1.00  0.00     0.047 C 
ATOM      4  C   UNL     1      -1.980  -6.121 -17.182  1.00  0.00     0.159 C 
ATOM      5  O   UNL     1      -1.650  -7.013 -18.006  1.00  0.00    -0.295 OA
ATOM      6  C   UNL     1      -1.123  -5.773 -15.964  1.00  0.00     0.067 C 
ATOM      7  C   UNL     1      -1.086  -4.230 -15.956  1.00  0.00     0.021 C 
ATOM      8  C   UNL     1      -2.446  -4.287 -15.222  1.00  0.00     0.022 C 
ATOM      9  C   UNL     1      -2.046  -5.703 -14.713  1.00  0.00    -0.019 C 
ATOM     10  C   UNL     1      -1.242  -5.649 -13.390  1.00  0.00     0.012 C 
ATOM     11  C   UNL     1      -3.166  -6.772 -14.561  1.00  0.00     0.012 C 
ENDROOT
TORSDOF 0
ENDMDL
MODEL 6
REMARK VINA RESULT:    -3.166      1.948      3.607
REMARK INTER + INTRA:          -3.166
REMARK INTER:                  -3.166
REMARK INTRA:                   0.000
REMARK UNBOUND:                 0.000
REMARK SMILES CC1=CC(=O)[C@H]2C[C@@H]1C2(C)C
REMARK SMILES IDX 1 1 2 2 3 3 4 4 5 5 6 6 7 7 8 8 9 9 10 10 11 11
REMARK H PARENT
REMARK Flexibility Score: inf
ROOT
ATOM      1  C   UNL     1      -4.009  -4.231 -17.634  1.00  0.00     0.040 C 
ATOM      2  C   UNL     1      -3.586  -5.448 -16.874  1.00  0.00    -0.066 C 
ATOM      3  C   UNL     1      -3.269  -5.383 -15.550  1.00  0.00     0.047 C 
ATOM      4  C   UNL     1      -2.830  -6.664 -14.910  1.00  0.00     0.159 C 
ATOM      5  O   UNL     1      -2.473  -6.726 -13.705  1.00  0.00    -0.295 OA
ATOM      6  C   UNL     1      -2.842  -7.891 -15.824  1.00  0.00     0.067 C 
ATOM      7  C   UNL     1      -4.198  -7.802 -16.556  1.00  0.00     0.021 C 
ATOM      8  C   UNL     1      -3.504  -6.836 -17.543  1.00  0.00     0.022 C 
ATOM      9  C   UNL     1      -2.154  -7.514 -17.167  1.00  0.00    -0.019 C 
ATOM     10  C   UNL     1      -1.854  -8.757 -18.044  1.00  0.00     0.012 C 
ATOM     11  C   UNL     1      -0.875  -6.630 -17.120  1.00  0.00     0.012 C 
ENDROOT
TORSDOF 0
ENDMDL
MODEL 7
REMARK VINA RESULT:    -3.097      1.681      3.219
REMARK INTER + INTRA:          -3.097
REMARK INTER:                  -3.097
REMARK INTRA:                   0.000
REMARK UNBOUND:                 0.000
REMARK SMILES CC1=CC(=O)[C@H]2C[C@@H]1C2(C)C
REMARK SMILES IDX 1 1 2 2 3 3 4 4 5 5 6 6 7 7 8 8 9 9 10 10 11 11
REMARK H PARENT
REMARK Flexibility Score: inf
ROOT
ATOM      1  C   UNL     1      -4.421  -7.772 -17.003  1.00  0.00     0.040 C 
ATOM      2  C   UNL     1      -3.449  -6.689 -16.656  1.00  0.00    -0.066 C 
ATOM      3  C   UNL     1      -2.647  -6.125 -17.602  1.00  0.00     0.047 C 
ATOM      4  C   UNL     1      -1.694  -5.072 -17.122  1.00  0.00     0.159 C 
ATOM      5  O   UNL     1      -0.876  -4.506 -17.892  1.00  0.00    -0.295 OA
ATOM      6  C   UNL     1      -1.785  -4.737 -15.633  1.00  0.00     0.067 C 
ATOM      7  C   UNL     1      -3.300  -4.608 -15.367  1.00  0.00     0.021 C 
ATOM      8  C   UNL     1      -3.318  -6.146 -15.217  1.00  0.00     0.022 C 
ATOM      9  C   UNL     1      -1.813  -6.068 -14.827  1.00  0.00    -0.019 C 
ATOM     10  C   UNL     1      -1.609  -5.841 -13.308  1.00  0.00     0.012 C 
ATOM     11  C   UNL     1      -0.876  -7.225 -15.278  1.00  0.00     0.012 C 
ENDROOT
TORSDOF 0
ENDMDL
MODEL 8
REMARK VINA RESULT:    -2.956      1.350      3.377
REMARK INTER + INTRA:          -2.956
REMARK INTER:                  -2.956
REMARK INTRA:                   0.000
REMARK UNBOUND:                 0.000
REMARK SMILES CC1=CC(=O)[C@H]2C[C@@H]1C2(C)C
REMARK SMILES IDX 1 1 2 2 3 3 4 4 5 5 6 6 7 7 8 8 9 9 10 10 11 11
REMARK H PARENT
REMARK Flexibility Score: inf
ROOT
ATOM      1  C   UNL     1      -2.246  -3.832 -17.711  1.00  0.00     0.040 C 
ATOM      2  C   UNL     1      -2.382  -5.220 -17.170  1.00  0.00    -0.066 C 
ATOM      3  C   UNL     1      -3.480  -5.981 -17.434  1.00  0.00     0.047 C 
ATOM      4  C   UNL     1      -3.511  -7.342 -16.809  1.00  0.00     0.159 C 
ATOM      5  O   UNL     1      -4.488  -8.123 -16.946  1.00  0.00    -0.295 OA
ATOM      6  C   UNL     1      -2.274  -7.715 -15.990  1.00  0.00     0.067 C 
ATOM      7  C   UNL     1      -1.089  -7.285 -16.882  1.00  0.00     0.021 C 
ATOM      8  C   UNL     1      -1.279  -5.865 -16.302  1.00  0.00     0.022 C 
ATOM      9  C   UNL     1      -1.926  -6.526 -15.050  1.00  0.00    -0.019 C 
ATOM     10  C   UNL     1      -0.876  -6.911 -13.977  1.00  0.00     0.012 C 
ATOM     11  C   UNL     1      -3.093  -5.777 -14.343  1.00  0.00     0.012 C 
ENDROOT
TORSDOF 0
ENDMDL
