MODEL 1
REMARK VINA RESULT:    -4.284      0.000      0.000
REMARK INTER + INTRA:          -6.881
REMARK INTER:                  -6.537
REMARK INTRA:                  -0.344
REMARK UNBOUND:                -0.344
REMARK SMILES O=C([O-])CCCCCCCCC(=O)[O-]
REMARK SMILES IDX 7 1 6 2 5 3 4 4 2 5 1 6 3 7 8 8 9 9 10 10 11 11 12 12 13 13
REMARK SMILES IDX 14 14
REMARK H PARENT
REMARK Flexibility Score: inf
ROOT
ATOM      1  C   UNL     1       0.977   2.405   8.141  1.00  0.00     0.000 C 
ENDROOT
BRANCH   1   2
ATOM      2  C   UNL     1       0.668   3.909   8.072  1.00  0.00     0.000 C 
BRANCH   2   3
ATOM      3  C   UNL     1       0.683   4.451   6.631  1.00  0.00     0.006 C 
BRANCH   3   4
ATOM      4  C   UNL     1      -0.393   5.521   6.404  1.00  0.00     0.053 C 
BRANCH   4   5
ATOM      5  C   UNL     1      -0.494   5.912   4.962  1.00  0.00     0.041 C 
ATOM      6  O   UNL     1       0.027   5.191   4.071  1.00  0.00    -0.550 OA
ATOM      7  O   UNL     1      -1.190   7.059   4.599  1.00  0.00    -0.550 OA
ENDBRANCH   4   5
ENDBRANCH   3   4
ENDBRANCH   2   3
ENDBRANCH   1   2
BRANCH   1   8
ATOM      8  C   UNL     1       1.563   1.858   6.831  1.00  0.00     0.000 C 
BRANCH   8   9
ATOM      9  C   UNL     1       1.702   0.329   6.890  1.00  0.00     0.000 C 
BRANCH   9  10
ATOM     10  C   UNL     1       1.222  -0.360   5.603  1.00  0.00     0.006 C 
BRANCH  10  11
ATOM     11  C   UNL     1       1.258  -1.890   5.701  1.00  0.00     0.053 C 
BRANCH  11  12
ATOM     12  C   UNL     1       2.664  -2.388   5.581  1.00  0.00     0.041 C 
ATOM     13  O   UNL     1       3.215  -2.973   6.551  1.00  0.00    -0.550 OA
ATOM     14  O   UNL     1       3.349  -2.251   4.380  1.00  0.00    -0.550 OA
ENDBRANCH  11  12
ENDBRANCH  10  11
ENDBRANCH   9  10
ENDBRANCH   8   9
ENDBRANCH   1   8
TORSDOF 9
ENDMDL
MODEL 2
REMARK VINA RESULT:    -4.217      0.556      7.265
REMARK INTER + INTRA:          -6.780
REMARK INTER:                  -6.449
REMARK INTRA:                  -0.332
REMARK UNBOUND:                -0.344
REMARK SMILES O=C([O-])CCCCCCCCC(=O)[O-]
REMARK SMILES IDX 7 1 6 2 5 3 4 4 2 5 1 6 3 7 8 8 9 9 10 10 11 11 12 12 13 13
REMARK SMILES IDX 14 14
REMARK H PARENT
REMARK Flexibility Score: inf
ROOT
ATOM      1  C   UNL     1       1.484   1.052   7.966  1.00  0.00     0.000 C 
ENDROOT
BRANCH   1   2
ATOM      2  C   UNL     1       1.858  -0.280   7.297  1.00  0.00     0.000 C 
BRANCH   2   3
ATOM      3  C   UNL     1       1.368  -0.370   5.841  1.00  0.00     0.006 C 
BRANCH   3   4
ATOM      4  C   UNL     1       1.297  -1.819   5.343  1.00  0.00     0.053 C 
BRANCH   4   5
ATOM      5  C   UNL     1       2.642  -2.478   5.353  1.00  0.00     0.041 C 
ATOM      6  O   UNL     1       2.893  -3.398   6.175  1.00  0.00    -0.550 OA
ATOM      7  O   UNL     1       3.611  -2.095   4.433  1.00  0.00    -0.550 OA
ENDBRANCH   4   5
ENDBRANCH   3   4
ENDBRANCH   2   3
ENDBRANCH   1   2
BRANCH   1   8
ATOM      8  C   UNL     1       1.763   2.266   7.068  1.00  0.00     0.000 C 
BRANCH   8   9
ATOM      9  C   UNL     1       0.821   3.430   7.413  1.00  0.00     0.000 C 
BRANCH   9  10
ATOM     10  C   UNL     1       1.065   4.669   6.538  1.00  0.00     0.006 C 
BRANCH  10  11
ATOM     11  C   UNL     1      -0.179   5.555   6.406  1.00  0.00     0.053 C 
BRANCH  11  12
ATOM     12  C   UNL     1      -0.445   5.872   4.968  1.00  0.00     0.041 C 
ATOM     13  O   UNL     1       0.081   5.178   4.058  1.00  0.00    -0.550 OA
ATOM     14  O   UNL     1      -1.315   6.902   4.632  1.00  0.00    -0.550 OA
ENDBRANCH  11  12
ENDBRANCH  10  11
ENDBRANCH   9  10
ENDBRANCH   8   9
ENDBRANCH   1   8
TORSDOF 9
ENDMDL
MODEL 3
REMARK VINA RESULT:    -4.184      1.116      1.353
REMARK INTER + INTRA:          -6.730
REMARK INTER:                  -6.342
REMARK INTRA:                  -0.389
REMARK UNBOUND:                -0.344
REMARK SMILES O=C([O-])CCCCCCCCC(=O)[O-]
REMARK SMILES IDX 7 1 6 2 5 3 4 4 2 5 1 6 3 7 8 8 9 9 10 10 11 11 12 12 13 13
REMARK SMILES IDX 14 14
REMARK H PARENT
REMARK Flexibility Score: inf
ROOT
ATOM      1  C   UNL     1       1.586   2.065   7.306  1.00  0.00     0.000 C 
ENDROOT
BRANCH   1   2
ATOM      2  C   UNL     1       0.914   3.322   7.882  1.00  0.00     0.000 C 
BRANCH   2   3
ATOM      3  C   UNL     1       0.534   4.342   6.795  1.00  0.00     0.006 C 
BRANCH   3   4
ATOM      4  C   UNL     1       1.405   4.201   5.540  1.00  0.00     0.053 C 
BRANCH   4   5
ATOM      5  C   UNL     1       0.884   5.027   4.404  1.00  0.00     0.041 C 
ATOM      6  O   UNL     1       1.611   5.261   3.403  1.00  0.00    -0.550 OA
ATOM      7  O   UNL     1      -0.417   5.515   4.438  1.00  0.00    -0.550 OA
ENDBRANCH   4   5
ENDBRANCH   3   4
ENDBRANCH   2   3
ENDBRANCH   1   2
BRANCH   1   8
ATOM      8  C   UNL     1       1.602   0.893   8.298  1.00  0.00     0.000 C 
BRANCH   8   9
ATOM      9  C   UNL     1       1.260  -0.428   7.590  1.00  0.00     0.000 C 
BRANCH   9  10
ATOM     10  C   UNL     1       1.431  -0.344   6.065  1.00  0.00     0.006 C 
BRANCH  10  11
ATOM     11  C   UNL     1       1.757  -1.701   5.431  1.00  0.00     0.053 C 
BRANCH  11  12
ATOM     12  C   UNL     1       3.233  -1.850   5.243  1.00  0.00     0.041 C 
ATOM     13  O   UNL     1       4.030  -1.411   6.114  1.00  0.00    -0.550 OA
ATOM     14  O   UNL     1       3.729  -2.518   4.130  1.00  0.00    -0.550 OA
ENDBRANCH  11  12
ENDBRANCH  10  11
ENDBRANCH   9  10
ENDBRANCH   8   9
ENDBRANCH   1   8
TORSDOF 9
ENDMDL
MODEL 4
REMARK VINA RESULT:    -4.005      1.191      1.413
REMARK INTER + INTRA:          -6.457
REMARK INTER:                  -6.158
REMARK INTRA:                  -0.299
REMARK UNBOUND:                -0.344
REMARK SMILES O=C([O-])CCCCCCCCC(=O)[O-]
REMARK SMILES IDX 7 1 6 2 5 3 4 4 2 5 1 6 3 7 8 8 9 9 10 10 11 11 12 12 13 13
REMARK SMILES IDX 14 14
REMARK H PARENT
REMARK Flexibility Score: inf
ROOT
ATOM      1  C   UNL     1       2.048   3.212   7.218  1.00  0.00     0.000 C 
ENDROOT
BRANCH   1   2
ATOM      2  C   UNL     1       1.364   3.715   5.937  1.00  0.00     0.000 C 
BRANCH   2   3
ATOM      3  C   UNL     1       0.380   4.868   6.204  1.00  0.00     0.006 C 
BRANCH   3   4
ATOM      4  C   UNL     1      -0.248   5.403   4.911  1.00  0.00     0.053 C 
BRANCH   4   5
ATOM      5  C   UNL     1      -0.970   6.696   5.136  1.00  0.00     0.041 C 
ATOM      6  O   UNL     1      -1.645   6.872   6.185  1.00  0.00    -0.550 OA
ATOM      7  O   UNL     1      -0.875   7.718   4.200  1.00  0.00    -0.550 OA
ENDBRANCH   4   5
ENDBRANCH   3   4
ENDBRANCH   2   3
ENDBRANCH   1   2
BRANCH   1   8
ATOM      8  C   UNL     1       1.631   1.782   7.592  1.00  0.00     0.000 C 
BRANCH   8   9
ATOM      9  C   UNL     1       1.536   0.894   6.341  1.00  0.00     0.000 C 
BRANCH   9  10
ATOM     10  C   UNL     1       1.445  -0.601   6.681  1.00  0.00     0.006 C 
BRANCH  10  11
ATOM     11  C   UNL     1       1.717  -1.501   5.469  1.00  0.00     0.053 C 
BRANCH  11  12
ATOM     12  C   UNL     1       3.175  -1.822   5.372  1.00  0.00     0.041 C 
ATOM     13  O   UNL     1       3.920  -1.698   6.380  1.00  0.00    -0.550 OA
ATOM     14  O   UNL     1       3.702  -2.304   4.181  1.00  0.00    -0.550 OA
ENDBRANCH  11  12
ENDBRANCH  10  11
ENDBRANCH   9  10
ENDBRANCH   8   9
ENDBRANCH   1   8
TORSDOF 9
ENDMDL
MODEL 5
REMARK VINA RESULT:    -3.955      5.220      7.618
REMARK INTER + INTRA:          -6.379
REMARK INTER:                  -5.611
REMARK INTRA:                  -0.768
REMARK UNBOUND:                -0.344
REMARK SMILES O=C([O-])CCCCCCCCC(=O)[O-]
REMARK SMILES IDX 7 1 6 2 5 3 4 4 2 5 1 6 3 7 8 8 9 9 10 10 11 11 12 12 13 13
REMARK SMILES IDX 14 14
REMARK H PARENT
REMARK Flexibility Score: inf
ROOT
ATOM      1  C   UNL     1      -1.951  -3.650   5.009  1.00  0.00     0.000 C 
ENDROOT
BRANCH   1   2
ATOM      2  C   UNL     1      -1.457  -2.629   6.046  1.00  0.00     0.000 C 
BRANCH   2   3
ATOM      3  C   UNL     1       0.075  -2.624   6.189  1.00  0.00     0.006 C 
BRANCH   3   4
ATOM      4  C   UNL     1       0.746  -1.671   5.191  1.00  0.00     0.053 C 
BRANCH   4   5
ATOM      5  C   UNL     1       2.233  -1.636   5.368  1.00  0.00     0.041 C 
ATOM      6  O   UNL     1       2.742  -1.009   6.334  1.00  0.00    -0.550 OA
ATOM      7  O   UNL     1       3.055  -2.319   4.480  1.00  0.00    -0.550 OA
ENDBRANCH   4   5
ENDBRANCH   3   4
ENDBRANCH   2   3
ENDBRANCH   1   2
BRANCH   1   8
ATOM      8  C   UNL     1      -2.425  -2.990   3.705  1.00  0.00     0.000 C 
BRANCH   8   9
ATOM      9  C   UNL     1      -2.782  -1.514   3.938  1.00  0.00     0.000 C 
BRANCH   9  10
ATOM     10  C   UNL     1      -4.296  -1.284   4.066  1.00  0.00     0.006 C 
BRANCH  10  11
ATOM     11  C   UNL     1      -4.690  -0.675   5.417  1.00  0.00     0.053 C 
BRANCH  11  12
ATOM     12  C   UNL     1      -5.227  -1.732   6.330  1.00  0.00     0.041 C 
ATOM     13  O   UNL     1      -5.370  -2.913   5.917  1.00  0.00    -0.550 OA
ATOM     14  O   UNL     1      -5.521  -1.424   7.652  1.00  0.00    -0.550 OA
ENDBRANCH  11  12
ENDBRANCH  10  11
ENDBRANCH   9  10
ENDBRANCH   8   9
ENDBRANCH   1   8
TORSDOF 9
ENDMDL
MODEL 6
REMARK VINA RESULT:    -3.863      1.681      6.982
REMARK INTER + INTRA:          -6.240
REMARK INTER:                  -5.920
REMARK INTRA:                  -0.320
REMARK UNBOUND:                -0.344
REMARK SMILES O=C([O-])CCCCCCCCC(=O)[O-]
REMARK SMILES IDX 7 1 6 2 5 3 4 4 2 5 1 6 3 7 8 8 9 9 10 10 11 11 12 12 13 13
REMARK SMILES IDX 14 14
REMARK H PARENT
REMARK Flexibility Score: inf
ROOT
ATOM      1  C   UNL     1       1.504   1.801   6.999  1.00  0.00     0.000 C 
ENDROOT
BRANCH   1   2
ATOM      2  C   UNL     1       2.315   0.510   7.193  1.00  0.00     0.000 C 
BRANCH   2   3
ATOM      3  C   UNL     1       1.437  -0.754   7.153  1.00  0.00     0.006 C 
BRANCH   3   4
ATOM      4  C   UNL     1       0.956  -1.078   5.733  1.00  0.00     0.053 C 
BRANCH   4   5
ATOM      5  C   UNL     1      -0.211  -2.016   5.740  1.00  0.00     0.041 C 
ATOM      6  O   UNL     1      -0.762  -2.354   4.659  1.00  0.00    -0.550 OA
ATOM      7  O   UNL     1      -0.675  -2.541   6.941  1.00  0.00    -0.550 OA
ENDBRANCH   4   5
ENDBRANCH   3   4
ENDBRANCH   2   3
ENDBRANCH   1   2
BRANCH   1   8
ATOM      8  C   UNL     1       1.329   2.595   8.302  1.00  0.00     0.000 C 
BRANCH   8   9
ATOM      9  C   UNL     1       0.393   3.795   8.091  1.00  0.00     0.000 C 
BRANCH   9  10
ATOM     10  C   UNL     1       0.533   4.416   6.692  1.00  0.00     0.006 C 
BRANCH  10  11
ATOM     11  C   UNL     1      -0.253   5.724   6.544  1.00  0.00     0.053 C 
BRANCH  11  12
ATOM     12  C   UNL     1      -0.615   5.957   5.111  1.00  0.00     0.041 C 
ATOM     13  O   UNL     1      -1.457   6.843   4.806  1.00  0.00    -0.550 OA
ATOM     14  O   UNL     1       0.014   5.231   4.109  1.00  0.00    -0.550 OA
ENDBRANCH  11  12
ENDBRANCH  10  11
ENDBRANCH   9  10
ENDBRANCH   8   9
ENDBRANCH   1   8
TORSDOF 9
ENDMDL
MODEL 7
REMARK VINA RESULT:    -3.857      4.915      6.403
REMARK INTER + INTRA:          -6.231
REMARK INTER:                  -5.604
REMARK INTRA:                  -0.627
REMARK UNBOUND:                -0.344
REMARK SMILES O=C([O-])CCCCCCCCC(=O)[O-]
REMARK SMILES IDX 7 1 6 2 5 3 4 4 2 5 1 6 3 7 8 8 9 9 10 10 11 11 12 12 13 13
REMARK SMILES IDX 14 14
REMARK H PARENT
REMARK Flexibility Score: inf
ROOT
ATOM      1  C   UNL     1      -2.068  -3.718   4.703  1.00  0.00     0.000 C 
ENDROOT
BRANCH   1   2
ATOM      2  C   UNL     1      -2.827  -2.984   3.586  1.00  0.00     0.000 C 
BRANCH   2   3
ATOM      3  C   UNL     1      -3.047  -1.493   3.900  1.00  0.00     0.006 C 
BRANCH   3   4
ATOM      4  C   UNL     1      -4.536  -1.136   3.995  1.00  0.00     0.053 C 
BRANCH   4   5
ATOM      5  C   UNL     1      -5.100  -1.459   5.344  1.00  0.00     0.041 C 
ATOM      6  O   UNL     1      -5.043  -0.613   6.275  1.00  0.00    -0.550 OA
ATOM      7  O   UNL     1      -5.717  -2.685   5.565  1.00  0.00    -0.550 OA
ENDBRANCH   4   5
ENDBRANCH   3   4
ENDBRANCH   2   3
ENDBRANCH   1   2
BRANCH   1   8
ATOM      8  C   UNL     1      -1.729  -2.804   5.890  1.00  0.00     0.000 C 
BRANCH   8   9
ATOM      9  C   UNL     1      -0.216  -2.799   6.162  1.00  0.00     0.000 C 
BRANCH   9  10
ATOM     10  C   UNL     1       0.550  -1.847   5.232  1.00  0.00     0.006 C 
BRANCH  10  11
ATOM     11  C   UNL     1       1.641  -1.056   5.963  1.00  0.00     0.053 C 
BRANCH  11  12
ATOM     12  C   UNL     1       2.996  -1.579   5.604  1.00  0.00     0.041 C 
ATOM     13  O   UNL     1       3.985  -1.340   6.345  1.00  0.00    -0.550 OA
ATOM     14  O   UNL     1       3.157  -2.375   4.476  1.00  0.00    -0.550 OA
ENDBRANCH  11  12
ENDBRANCH  10  11
ENDBRANCH   9  10
ENDBRANCH   8   9
ENDBRANCH   1   8
TORSDOF 9
ENDMDL
MODEL 8
REMARK VINA RESULT:    -3.845      1.963      2.202
REMARK INTER + INTRA:          -6.212
REMARK INTER:                  -5.843
REMARK INTRA:                  -0.369
REMARK UNBOUND:                -0.344
REMARK SMILES O=C([O-])CCCCCCCCC(=O)[O-]
REMARK SMILES IDX 7 1 6 2 5 3 4 4 2 5 1 6 3 7 8 8 9 9 10 10 11 11 12 12 13 13
REMARK SMILES IDX 14 14
REMARK H PARENT
REMARK Flexibility Score: inf
ROOT
ATOM      1  C   UNL     1       1.503   2.173   6.894  1.00  0.00     0.000 C 
ENDROOT
BRANCH   1   2
ATOM      2  C   UNL     1       0.847   3.282   7.731  1.00  0.00     0.000 C 
BRANCH   2   3
ATOM      3  C   UNL     1       0.531   4.541   6.904  1.00  0.00     0.006 C 
BRANCH   3   4
ATOM      4  C   UNL     1       1.397   4.636   5.642  1.00  0.00     0.053 C 
BRANCH   4   5
ATOM      5  C   UNL     1       0.758   5.489   4.590  1.00  0.00     0.041 C 
ATOM      6  O   UNL     1       1.469   6.091   3.743  1.00  0.00    -0.550 OA
ATOM      7  O   UNL     1      -0.626   5.598   4.529  1.00  0.00    -0.550 OA
ENDBRANCH   4   5
ENDBRANCH   3   4
ENDBRANCH   2   3
ENDBRANCH   1   2
BRANCH   1   8
ATOM      8  C   UNL     1       1.785   0.902   7.708  1.00  0.00     0.000 C 
BRANCH   8   9
ATOM      9  C   UNL     1       2.133  -0.275   6.783  1.00  0.00     0.000 C 
BRANCH   9  10
ATOM     10  C   UNL     1       1.124  -0.445   5.637  1.00  0.00     0.006 C 
BRANCH  10  11
ATOM     11  C   UNL     1       0.931  -1.912   5.232  1.00  0.00     0.053 C 
BRANCH  11  12
ATOM     12  C   UNL     1      -0.517  -2.284   5.294  1.00  0.00     0.041 C 
ATOM     13  O   UNL     1      -0.911  -3.167   6.101  1.00  0.00    -0.550 OA
ATOM     14  O   UNL     1      -1.440  -1.621   4.495  1.00  0.00    -0.550 OA
ENDBRANCH  11  12
ENDBRANCH  10  11
ENDBRANCH   9  10
ENDBRANCH   8   9
ENDBRANCH   1   8
TORSDOF 9
ENDMDL
MODEL 9
REMARK VINA RESULT:    -3.800      5.526      6.444
REMARK INTER + INTRA:          -6.144
REMARK INTER:                  -5.700
REMARK INTRA:                  -0.444
REMARK UNBOUND:                -0.344
REMARK SMILES O=C([O-])CCCCCCCCC(=O)[O-]
REMARK SMILES IDX 7 1 6 2 5 3 4 4 2 5 1 6 3 7 8 8 9 9 10 10 11 11 12 12 13 13
REMARK SMILES IDX 14 14
REMARK H PARENT
REMARK Flexibility Score: inf
ROOT
ATOM      1  C   UNL     1      -2.811  -1.558   4.345  1.00  0.00     0.000 C 
ENDROOT
BRANCH   1   2
ATOM      2  C   UNL     1      -4.238  -1.003   4.479  1.00  0.00     0.000 C 
BRANCH   2   3
ATOM      3  C   UNL     1      -4.854  -1.279   5.862  1.00  0.00     0.006 C 
BRANCH   3   4
ATOM      4  C   UNL     1      -5.550  -0.042   6.443  1.00  0.00     0.053 C 
BRANCH   4   5
ATOM      5  C   UNL     1      -6.990  -0.309   6.756  1.00  0.00     0.041 C 
ATOM      6  O   UNL     1      -7.628   0.464   7.519  1.00  0.00    -0.550 OA
ATOM      7  O   UNL     1      -7.638  -1.397   6.183  1.00  0.00    -0.550 OA
ENDBRANCH   4   5
ENDBRANCH   3   4
ENDBRANCH   2   3
ENDBRANCH   1   2
BRANCH   1   8
ATOM      8  C   UNL     1      -2.505  -2.661   5.368  1.00  0.00     0.000 C 
BRANCH   8   9
ATOM      9  C   UNL     1      -1.077  -2.516   5.918  1.00  0.00     0.000 C 
BRANCH   9  10
ATOM     10  C   UNL     1      -0.139  -1.785   4.945  1.00  0.00     0.006 C 
BRANCH  10  11
ATOM     11  C   UNL     1       1.100  -1.207   5.640  1.00  0.00     0.053 C 
BRANCH  11  12
ATOM     12  C   UNL     1       2.220  -2.198   5.620  1.00  0.00     0.041 C 
ATOM     13  O   UNL     1       2.389  -2.984   6.590  1.00  0.00    -0.550 OA
ATOM     14  O   UNL     1       3.048  -2.290   4.508  1.00  0.00    -0.550 OA
ENDBRANCH  11  12
ENDBRANCH  10  11
ENDBRANCH   9  10
ENDBRANCH   8   9
ENDBRANCH   1   8
TORSDOF 9
ENDMDL
