MODEL 1
REMARK VINA RESULT:    -4.354      0.000      0.000
REMARK INTER + INTRA:         -10.980
REMARK INTER:                  -8.172
REMARK INTRA:                  -2.808
REMARK UNBOUND:                -2.808
REMARK SMILES CCCCCCCCC=CCCCCCCCC(=O)[O-]
REMARK SMILES IDX 10 1 9 2 11 3 12 4 13 5 14 6 15 7 16 8 17 9 18 10 19 11
REMARK SMILES IDX 20 12 8 13 7 14 6 15 5 16 4 17 3 18 2 19 1 20
REMARK H PARENT
REMARK Flexibility Score: inf
ROOT
ATOM      1  C   UNL     1     111.997 116.706 126.860  1.00  0.00    -0.031 C 
ATOM      2  C   UNL     1     113.066 116.093 126.332  1.00  0.00    -0.031 C 
ENDROOT
BRANCH   1   3
ATOM      3  C   UNL     1     111.747 116.724 128.344  1.00  0.00     0.027 C 
BRANCH   3   4
ATOM      4  C   UNL     1     112.768 115.877 129.118  1.00  0.00     0.004 C 
BRANCH   4   5
ATOM      5  C   UNL     1     113.169 116.533 130.451  1.00  0.00     0.000 C 
BRANCH   5   6
ATOM      6  C   UNL     1     113.908 117.866 130.256  1.00  0.00     0.000 C 
BRANCH   6   7
ATOM      7  C   UNL     1     115.267 117.693 129.559  1.00  0.00     0.000 C 
BRANCH   7   8
ATOM      8  C   UNL     1     115.290 118.431 128.214  1.00  0.00     0.006 C 
BRANCH   8   9
ATOM      9  C   UNL     1     114.185 119.489 128.149  1.00  0.00     0.053 C 
BRANCH   9  10
ATOM     10  C   UNL     1     114.757 120.819 127.772  1.00  0.00     0.041 C 
ATOM     11  O   UNL     1     115.937 120.903 127.340  1.00  0.00    -0.550 OA
ATOM     12  O   UNL     1     113.969 121.961 127.845  1.00  0.00    -0.550 OA
ENDBRANCH   9  10
ENDBRANCH   8   9
ENDBRANCH   7   8
ENDBRANCH   6   7
ENDBRANCH   5   6
ENDBRANCH   4   5
ENDBRANCH   3   4
ENDBRANCH   1   3
BRANCH   2  13
ATOM     13  C   UNL     1     113.290 116.083 124.845  1.00  0.00     0.027 C 
BRANCH  13  14
ATOM     14  C   UNL     1     111.977 116.311 124.086  1.00  0.00     0.004 C 
BRANCH  14  15
ATOM     15  C   UNL     1     112.167 117.129 122.796  1.00  0.00     0.000 C 
BRANCH  15  16
ATOM     16  C   UNL     1     111.639 118.578 122.855  1.00  0.00     0.000 C 
BRANCH  16  17
ATOM     17  C   UNL     1     111.350 119.114 124.269  1.00  0.00    -0.000 C 
BRANCH  17  18
ATOM     18  C   UNL     1     112.373 120.166 124.729  1.00  0.00    -0.000 C 
BRANCH  18  19
ATOM     19  C   UNL     1     113.823 119.732 124.460  1.00  0.00    -0.003 C 
ATOM     20  C   UNL     1     114.701 120.879 123.959  1.00  0.00     0.004 C 
ENDBRANCH  18  19
ENDBRANCH  17  18
ENDBRANCH  16  17
ENDBRANCH  15  16
ENDBRANCH  14  15
ENDBRANCH  13  14
ENDBRANCH   2  13
TORSDOF 15
ENDMDL
MODEL 2
REMARK VINA RESULT:    -4.340      1.224      5.370
REMARK INTER + INTRA:         -10.954
REMARK INTER:                  -8.382
REMARK INTRA:                  -2.572
REMARK UNBOUND:                -2.808
REMARK SMILES CCCCCCCCC=CCCCCCCCC(=O)[O-]
REMARK SMILES IDX 10 1 9 2 11 3 12 4 13 5 14 6 15 7 16 8 17 9 18 10 19 11
REMARK SMILES IDX 20 12 8 13 7 14 6 15 5 16 4 17 3 18 2 19 1 20
REMARK H PARENT
REMARK Flexibility Score: inf
ROOT
ATOM      1  C   UNL     1     112.262 115.964 125.582  1.00  0.00    -0.031 C 
ATOM      2  C   UNL     1     112.716 116.796 126.531  1.00  0.00    -0.031 C 
ENDROOT
BRANCH   1   3
ATOM      3  C   UNL     1     113.166 115.420 124.509  1.00  0.00     0.027 C 
BRANCH   3   4
ATOM      4  C   UNL     1     113.115 116.258 123.222  1.00  0.00     0.004 C 
BRANCH   4   5
ATOM      5  C   UNL     1     111.723 116.870 122.987  1.00  0.00     0.000 C 
BRANCH   5   6
ATOM      6  C   UNL     1     111.768 118.398 122.826  1.00  0.00     0.000 C 
BRANCH   6   7
ATOM      7  C   UNL     1     111.032 119.135 123.956  1.00  0.00     0.000 C 
BRANCH   7   8
ATOM      8  C   UNL     1     112.017 119.927 124.826  1.00  0.00     0.006 C 
BRANCH   8   9
ATOM      9  C   UNL     1     113.450 119.779 124.308  1.00  0.00     0.053 C 
BRANCH   9  10
ATOM     10  C   UNL     1     114.200 121.062 124.470  1.00  0.00     0.041 C 
ATOM     11  O   UNL     1     113.916 121.849 125.413  1.00  0.00    -0.550 OA
ATOM     12  O   UNL     1     115.252 121.367 123.616  1.00  0.00    -0.550 OA
ENDBRANCH   9  10
ENDBRANCH   8   9
ENDBRANCH   7   8
ENDBRANCH   6   7
ENDBRANCH   5   6
ENDBRANCH   4   5
ENDBRANCH   3   4
ENDBRANCH   1   3
BRANCH   2  13
ATOM     13  C   UNL     1     111.790 117.331 127.589  1.00  0.00     0.027 C 
BRANCH  13  14
ATOM     14  C   UNL     1     111.642 116.338 128.750  1.00  0.00     0.004 C 
BRANCH  14  15
ATOM     15  C   UNL     1     112.995 115.838 129.284  1.00  0.00     0.000 C 
BRANCH  15  16
ATOM     16  C   UNL     1     113.418 116.425 130.648  1.00  0.00     0.000 C 
BRANCH  16  17
ATOM     17  C   UNL     1     114.409 117.601 130.577  1.00  0.00    -0.000 C 
BRANCH  17  18
ATOM     18  C   UNL     1     115.371 117.500 129.382  1.00  0.00    -0.000 C 
BRANCH  18  19
ATOM     19  C   UNL     1     115.267 118.710 128.440  1.00  0.00    -0.003 C 
ATOM     20  C   UNL     1     115.880 118.446 127.065  1.00  0.00     0.004 C 
ENDBRANCH  18  19
ENDBRANCH  17  18
ENDBRANCH  16  17
ENDBRANCH  15  16
ENDBRANCH  14  15
ENDBRANCH  13  14
ENDBRANCH   2  13
TORSDOF 15
ENDMDL
MODEL 3
REMARK VINA RESULT:    -4.211      1.351      5.224
REMARK INTER + INTRA:         -10.711
REMARK INTER:                  -8.314
REMARK INTRA:                  -2.397
REMARK UNBOUND:                -2.808
REMARK SMILES CCCCCCCCC=CCCCCCCCC(=O)[O-]
REMARK SMILES IDX 10 1 9 2 11 3 12 4 13 5 14 6 15 7 16 8 17 9 18 10 19 11
REMARK SMILES IDX 20 12 8 13 7 14 6 15 5 16 4 17 3 18 2 19 1 20
REMARK H PARENT
REMARK Flexibility Score: inf
ROOT
ATOM      1  C   UNL     1     111.987 116.766 124.295  1.00  0.00    -0.031 C 
ATOM      2  C   UNL     1     113.130 116.495 124.942  1.00  0.00    -0.031 C 
ENDROOT
BRANCH   1   3
ATOM      3  C   UNL     1     111.971 117.131 122.835  1.00  0.00     0.027 C 
BRANCH   3   4
ATOM      4  C   UNL     1     111.638 118.614 122.608  1.00  0.00     0.004 C 
BRANCH   4   5
ATOM      5  C   UNL     1     110.939 119.242 123.826  1.00  0.00     0.000 C 
BRANCH   5   6
ATOM      6  C   UNL     1     111.702 120.451 124.388  1.00  0.00     0.000 C 
BRANCH   6   7
ATOM      7  C   UNL     1     112.440 120.131 125.697  1.00  0.00     0.000 C 
BRANCH   7   8
ATOM      8  C   UNL     1     113.910 120.564 125.617  1.00  0.00     0.006 C 
BRANCH   8   9
ATOM      9  C   UNL     1     114.397 120.588 124.166  1.00  0.00     0.053 C 
BRANCH   9  10
ATOM     10  C   UNL     1     115.403 121.678 123.970  1.00  0.00     0.041 C 
ATOM     11  O   UNL     1     115.960 121.833 122.851  1.00  0.00    -0.550 OA
ATOM     12  O   UNL     1     115.684 122.561 125.005  1.00  0.00    -0.550 OA
ENDBRANCH   9  10
ENDBRANCH   8   9
ENDBRANCH   7   8
ENDBRANCH   6   7
ENDBRANCH   5   6
ENDBRANCH   4   5
ENDBRANCH   3   4
ENDBRANCH   1   3
BRANCH   2  13
ATOM     13  C   UNL     1     113.119 116.138 126.403  1.00  0.00     0.027 C 
BRANCH  13  14
ATOM     14  C   UNL     1     112.044 116.930 127.158  1.00  0.00     0.004 C 
BRANCH  14  15
ATOM     15  C   UNL     1     111.627 116.261 128.480  1.00  0.00     0.000 C 
BRANCH  15  16
ATOM     16  C   UNL     1     112.781 115.984 129.467  1.00  0.00     0.000 C 
BRANCH  16  17
ATOM     17  C   UNL     1     112.908 116.990 130.626  1.00  0.00    -0.000 C 
BRANCH  17  18
ATOM     18  C   UNL     1     114.243 117.754 130.609  1.00  0.00    -0.000 C 
BRANCH  18  19
ATOM     19  C   UNL     1     115.116 117.384 129.399  1.00  0.00    -0.003 C 
ATOM     20  C   UNL     1     115.336 118.560 128.447  1.00  0.00     0.004 C 
ENDBRANCH  18  19
ENDBRANCH  17  18
ENDBRANCH  16  17
ENDBRANCH  15  16
ENDBRANCH  14  15
ENDBRANCH  13  14
ENDBRANCH   2  13
TORSDOF 15
ENDMDL
MODEL 4
REMARK VINA RESULT:    -4.191      2.496      5.334
REMARK INTER + INTRA:         -10.673
REMARK INTER:                  -8.387
REMARK INTRA:                  -2.286
REMARK UNBOUND:                -2.808
REMARK SMILES CCCCCCCCC=CCCCCCCCC(=O)[O-]
REMARK SMILES IDX 10 1 9 2 11 3 12 4 13 5 14 6 15 7 16 8 17 9 18 10 19 11
REMARK SMILES IDX 20 12 8 13 7 14 6 15 5 16 4 17 3 18 2 19 1 20
REMARK H PARENT
REMARK Flexibility Score: inf
ROOT
ATOM      1  C   UNL     1     113.514 120.023 125.316  1.00  0.00    -0.031 C 
ATOM      2  C   UNL     1     112.870 120.195 126.480  1.00  0.00    -0.031 C 
ENDROOT
BRANCH   1   3
ATOM      3  C   UNL     1     112.771 119.829 124.022  1.00  0.00     0.027 C 
BRANCH   3   4
ATOM      4  C   UNL     1     112.005 118.498 123.982  1.00  0.00     0.004 C 
BRANCH   4   5
ATOM      5  C   UNL     1     112.928 117.292 124.226  1.00  0.00     0.000 C 
BRANCH   5   6
ATOM      6  C   UNL     1     112.306 116.252 125.171  1.00  0.00     0.000 C 
BRANCH   6   7
ATOM      7  C   UNL     1     112.818 116.380 126.614  1.00  0.00     0.000 C 
BRANCH   7   8
ATOM      8  C   UNL     1     111.762 117.037 127.513  1.00  0.00     0.006 C 
BRANCH   8   9
ATOM      9  C   UNL     1     111.644 116.301 128.850  1.00  0.00     0.053 C 
BRANCH   9  10
ATOM     10  C   UNL     1     112.899 116.461 129.648  1.00  0.00     0.041 C 
ATOM     11  O   UNL     1     113.592 115.454 129.951  1.00  0.00    -0.550 OA
ATOM     12  O   UNL     1     113.336 117.729 130.012  1.00  0.00    -0.550 OA
ENDBRANCH   9  10
ENDBRANCH   8   9
ENDBRANCH   7   8
ENDBRANCH   6   7
ENDBRANCH   5   6
ENDBRANCH   4   5
ENDBRANCH   3   4
ENDBRANCH   1   3
BRANCH   2  13
ATOM     13  C   UNL     1     113.636 120.380 127.761  1.00  0.00     0.027 C 
BRANCH  13  14
ATOM     14  C   UNL     1     114.788 121.377 127.579  1.00  0.00     0.004 C 
BRANCH  14  15
ATOM     15  C   UNL     1     114.393 122.819 127.943  1.00  0.00     0.000 C 
BRANCH  15  16
ATOM     16  C   UNL     1     114.832 123.895 126.927  1.00  0.00     0.000 C 
BRANCH  16  17
ATOM     17  C   UNL     1     113.940 124.021 125.678  1.00  0.00    -0.000 C 
BRANCH  17  18
ATOM     18  C   UNL     1     114.741 123.987 124.366  1.00  0.00    -0.000 C 
BRANCH  18  19
ATOM     19  C   UNL     1     115.966 123.061 124.450  1.00  0.00    -0.003 C 
ATOM     20  C   UNL     1     115.949 121.959 123.390  1.00  0.00     0.004 C 
ENDBRANCH  18  19
ENDBRANCH  17  18
ENDBRANCH  16  17
ENDBRANCH  15  16
ENDBRANCH  14  15
ENDBRANCH  13  14
ENDBRANCH   2  13
TORSDOF 15
ENDMDL
MODEL 5
REMARK VINA RESULT:    -4.187      1.443      3.117
REMARK INTER + INTRA:         -10.666
REMARK INTER:                  -8.097
REMARK INTRA:                  -2.570
REMARK UNBOUND:                -2.808
REMARK SMILES CCCCCCCCC=CCCCCCCCC(=O)[O-]
REMARK SMILES IDX 10 1 9 2 11 3 12 4 13 5 14 6 15 7 16 8 17 9 18 10 19 11
REMARK SMILES IDX 20 12 8 13 7 14 6 15 5 16 4 17 3 18 2 19 1 20
REMARK H PARENT
REMARK Flexibility Score: inf
ROOT
ATOM      1  C   UNL     1     112.343 116.096 124.536  1.00  0.00    -0.031 C 
ATOM      2  C   UNL     1     112.656 116.802 123.440  1.00  0.00    -0.031 C 
ENDROOT
BRANCH   1   3
ATOM      3  C   UNL     1     113.401 115.571 125.469  1.00  0.00     0.027 C 
BRANCH   3   4
ATOM      4  C   UNL     1     113.328 116.222 126.858  1.00  0.00     0.004 C 
BRANCH   4   5
ATOM      5  C   UNL     1     111.991 116.946 127.088  1.00  0.00     0.000 C 
BRANCH   5   6
ATOM      6  C   UNL     1     111.442 116.739 128.508  1.00  0.00     0.000 C 
BRANCH   6   7
ATOM      7  C   UNL     1     112.509 116.223 129.487  1.00  0.00     0.000 C 
BRANCH   7   8
ATOM      8  C   UNL     1     112.753 117.234 130.614  1.00  0.00     0.006 C 
BRANCH   8   9
ATOM      9  C   UNL     1     114.250 117.496 130.804  1.00  0.00     0.053 C 
BRANCH   9  10
ATOM     10  C   UNL     1     114.863 117.975 129.527  1.00  0.00     0.041 C 
ATOM     11  O   UNL     1     114.375 118.967 128.922  1.00  0.00    -0.550 OA
ATOM     12  O   UNL     1     116.008 117.364 129.032  1.00  0.00    -0.550 OA
ENDBRANCH   9  10
ENDBRANCH   8   9
ENDBRANCH   7   8
ENDBRANCH   6   7
ENDBRANCH   5   6
ENDBRANCH   4   5
ENDBRANCH   3   4
ENDBRANCH   1   3
BRANCH   2  13
ATOM     13  C   UNL     1     111.580 117.310 122.520  1.00  0.00     0.027 C 
BRANCH  13  14
ATOM     14  C   UNL     1     111.526 118.843 122.523  1.00  0.00     0.004 C 
BRANCH  14  15
ATOM     15  C   UNL     1     111.006 119.419 123.851  1.00  0.00     0.000 C 
BRANCH  15  16
ATOM     16  C   UNL     1     111.901 120.501 124.492  1.00  0.00     0.000 C 
BRANCH  16  17
ATOM     17  C   UNL     1     113.412 120.330 124.249  1.00  0.00    -0.000 C 
BRANCH  17  18
ATOM     18  C   UNL     1     114.120 119.583 125.392  1.00  0.00    -0.000 C 
BRANCH  18  19
ATOM     19  C   UNL     1     115.333 118.775 124.903  1.00  0.00    -0.003 C 
ATOM     20  C   UNL     1     116.499 118.802 125.891  1.00  0.00     0.004 C 
ENDBRANCH  18  19
ENDBRANCH  17  18
ENDBRANCH  16  17
ENDBRANCH  15  16
ENDBRANCH  14  15
ENDBRANCH  13  14
ENDBRANCH   2  13
TORSDOF 15
ENDMDL
MODEL 6
REMARK VINA RESULT:    -4.164      1.267      5.294
REMARK INTER + INTRA:         -10.624
REMARK INTER:                  -7.978
REMARK INTRA:                  -2.646
REMARK UNBOUND:                -2.808
REMARK SMILES CCCCCCCCC=CCCCCCCCC(=O)[O-]
REMARK SMILES IDX 10 1 9 2 11 3 12 4 13 5 14 6 15 7 16 8 17 9 18 10 19 11
REMARK SMILES IDX 20 12 8 13 7 14 6 15 5 16 4 17 3 18 2 19 1 20
REMARK H PARENT
REMARK Flexibility Score: inf
ROOT
ATOM      1  C   UNL     1     112.327 116.375 126.563  1.00  0.00    -0.031 C 
ATOM      2  C   UNL     1     112.286 115.913 127.821  1.00  0.00    -0.031 C 
ENDROOT
BRANCH   1   3
ATOM      3  C   UNL     1     113.092 115.660 125.481  1.00  0.00     0.027 C 
BRANCH   3   4
ATOM      4  C   UNL     1     113.267 116.522 124.222  1.00  0.00     0.004 C 
BRANCH   4   5
ATOM      5  C   UNL     1     111.932 116.760 123.496  1.00  0.00     0.000 C 
BRANCH   5   6
ATOM      6  C   UNL     1     111.686 118.244 123.182  1.00  0.00     0.000 C 
BRANCH   6   7
ATOM      7  C   UNL     1     111.571 119.107 124.449  1.00  0.00     0.000 C 
BRANCH   7   8
ATOM      8  C   UNL     1     112.383 120.401 124.304  1.00  0.00     0.006 C 
BRANCH   8   9
ATOM      9  C   UNL     1     113.885 120.108 124.279  1.00  0.00     0.053 C 
BRANCH   9  10
ATOM     10  C   UNL     1     114.668 121.371 124.454  1.00  0.00     0.041 C 
ATOM     11  O   UNL     1     115.451 121.763 123.548  1.00  0.00    -0.550 OA
ATOM     12  O   UNL     1     114.491 122.148 125.592  1.00  0.00    -0.550 OA
ENDBRANCH   9  10
ENDBRANCH   8   9
ENDBRANCH   7   8
ENDBRANCH   6   7
ENDBRANCH   5   6
ENDBRANCH   4   5
ENDBRANCH   3   4
ENDBRANCH   1   3
BRANCH   2  13
ATOM     13  C   UNL     1     111.520 116.650 128.885  1.00  0.00     0.027 C 
BRANCH  13  14
ATOM     14  C   UNL     1     112.388 116.890 130.127  1.00  0.00     0.004 C 
BRANCH  14  15
ATOM     15  C   UNL     1     113.510 115.849 130.281  1.00  0.00     0.000 C 
BRANCH  15  16
ATOM     16  C   UNL     1     114.933 116.434 130.407  1.00  0.00     0.000 C 
BRANCH  16  17
ATOM     17  C   UNL     1     115.629 116.759 129.072  1.00  0.00    -0.000 C 
BRANCH  17  18
ATOM     18  C   UNL     1     115.770 118.271 128.825  1.00  0.00    -0.000 C 
BRANCH  18  19
ATOM     19  C   UNL     1     114.891 118.761 127.663  1.00  0.00    -0.003 C 
ATOM     20  C   UNL     1     113.757 119.677 128.123  1.00  0.00     0.004 C 
ENDBRANCH  18  19
ENDBRANCH  17  18
ENDBRANCH  16  17
ENDBRANCH  15  16
ENDBRANCH  14  15
ENDBRANCH  13  14
ENDBRANCH   2  13
TORSDOF 15
ENDMDL
MODEL 7
REMARK VINA RESULT:    -4.140      2.238      5.484
REMARK INTER + INTRA:         -10.578
REMARK INTER:                  -8.068
REMARK INTRA:                  -2.510
REMARK UNBOUND:                -2.808
REMARK SMILES CCCCCCCCC=CCCCCCCCC(=O)[O-]
REMARK SMILES IDX 10 1 9 2 11 3 12 4 13 5 14 6 15 7 16 8 17 9 18 10 19 11
REMARK SMILES IDX 20 12 8 13 7 14 6 15 5 16 4 17 3 18 2 19 1 20
REMARK H PARENT
REMARK Flexibility Score: inf
ROOT
ATOM      1  C   UNL     1     111.342 118.381 127.544  1.00  0.00    -0.031 C 
ATOM      2  C   UNL     1     111.655 117.078 127.605  1.00  0.00    -0.031 C 
ENDROOT
BRANCH   1   3
ATOM      3  C   UNL     1     111.366 119.140 126.244  1.00  0.00     0.027 C 
BRANCH   3   4
ATOM      4  C   UNL     1     112.089 118.368 125.130  1.00  0.00     0.004 C 
BRANCH   4   5
ATOM      5  C   UNL     1     113.314 119.133 124.599  1.00  0.00     0.000 C 
BRANCH   5   6
ATOM      6  C   UNL     1     113.128 120.658 124.652  1.00  0.00     0.000 C 
BRANCH   6   7
ATOM      7  C   UNL     1     114.410 121.398 125.064  1.00  0.00     0.000 C 
BRANCH   7   8
ATOM      8  C   UNL     1     115.611 120.909 124.244  1.00  0.00     0.006 C 
BRANCH   8   9
ATOM      9  C   UNL     1     115.959 121.903 123.132  1.00  0.00     0.053 C 
BRANCH   9  10
ATOM     10  C   UNL     1     117.303 122.512 123.377  1.00  0.00     0.041 C 
ATOM     11  O   UNL     1     118.350 121.844 123.166  1.00  0.00    -0.550 OA
ATOM     12  O   UNL     1     117.404 123.837 123.783  1.00  0.00    -0.550 OA
ENDBRANCH   9  10
ENDBRANCH   8   9
ENDBRANCH   7   8
ENDBRANCH   6   7
ENDBRANCH   5   6
ENDBRANCH   4   5
ENDBRANCH   3   4
ENDBRANCH   1   3
BRANCH   2  13
ATOM     13  C   UNL     1     111.630 116.344 128.917  1.00  0.00     0.027 C 
BRANCH  13  14
ATOM     14  C   UNL     1     112.164 117.224 130.055  1.00  0.00     0.004 C 
BRANCH  14  15
ATOM     15  C   UNL     1     113.309 116.559 130.838  1.00  0.00     0.000 C 
BRANCH  15  16
ATOM     16  C   UNL     1     114.214 115.624 130.008  1.00  0.00     0.000 C 
BRANCH  16  17
ATOM     17  C   UNL     1     115.415 116.307 129.328  1.00  0.00    -0.000 C 
BRANCH  17  18
ATOM     18  C   UNL     1     115.167 116.606 127.840  1.00  0.00    -0.000 C 
BRANCH  18  19
ATOM     19  C   UNL     1     115.643 118.011 127.436  1.00  0.00    -0.003 C 
ATOM     20  C   UNL     1     114.807 119.125 128.067  1.00  0.00     0.004 C 
ENDBRANCH  18  19
ENDBRANCH  17  18
ENDBRANCH  16  17
ENDBRANCH  15  16
ENDBRANCH  14  15
ENDBRANCH  13  14
ENDBRANCH   2  13
TORSDOF 15
ENDMDL
MODEL 8
REMARK VINA RESULT:    -4.124      1.321      2.463
REMARK INTER + INTRA:         -10.549
REMARK INTER:                  -7.688
REMARK INTRA:                  -2.861
REMARK UNBOUND:                -2.808
REMARK SMILES CCCCCCCCC=CCCCCCCCC(=O)[O-]
REMARK SMILES IDX 10 1 9 2 11 3 12 4 13 5 14 6 15 7 16 8 17 9 18 10 19 11
REMARK SMILES IDX 20 12 8 13 7 14 6 15 5 16 4 17 3 18 2 19 1 20
REMARK H PARENT
REMARK Flexibility Score: inf
ROOT
ATOM      1  C   UNL     1     111.840 116.968 127.229  1.00  0.00    -0.031 C 
ATOM      2  C   UNL     1     111.265 118.173 127.355  1.00  0.00    -0.031 C 
ENDROOT
BRANCH   1   3
ATOM      3  C   UNL     1     112.023 116.051 128.408  1.00  0.00     0.027 C 
BRANCH   3   4
ATOM      4  C   UNL     1     112.174 116.820 129.728  1.00  0.00     0.004 C 
BRANCH   4   5
ATOM      5  C   UNL     1     113.645 116.939 130.162  1.00  0.00     0.000 C 
BRANCH   5   6
ATOM      6  C   UNL     1     114.282 118.272 129.736  1.00  0.00     0.000 C 
BRANCH   6   7
ATOM      7  C   UNL     1     115.219 118.122 128.528  1.00  0.00     0.000 C 
BRANCH   7   8
ATOM      8  C   UNL     1     114.930 119.199 127.474  1.00  0.00     0.006 C 
BRANCH   8   9
ATOM      9  C   UNL     1     114.045 120.308 128.050  1.00  0.00     0.053 C 
BRANCH   9  10
ATOM     10  C   UNL     1     114.317 121.607 127.359  1.00  0.00     0.041 C 
ATOM     11  O   UNL     1     115.023 122.487 127.920  1.00  0.00    -0.550 OA
ATOM     12  O   UNL     1     113.840 121.825 126.073  1.00  0.00    -0.550 OA
ENDBRANCH   9  10
ENDBRANCH   8   9
ENDBRANCH   7   8
ENDBRANCH   6   7
ENDBRANCH   5   6
ENDBRANCH   4   5
ENDBRANCH   3   4
ENDBRANCH   1   3
BRANCH   2  13
ATOM     13  C   UNL     1     111.101 119.074 126.162  1.00  0.00     0.027 C 
BRANCH  13  14
ATOM     14  C   UNL     1     112.194 118.815 125.117  1.00  0.00     0.004 C 
BRANCH  14  15
ATOM     15  C   UNL     1     111.707 119.038 123.675  1.00  0.00     0.000 C 
BRANCH  15  16
ATOM     16  C   UNL     1     111.739 117.787 122.772  1.00  0.00     0.000 C 
BRANCH  16  17
ATOM     17  C   UNL     1     111.994 116.456 123.503  1.00  0.00    -0.000 C 
BRANCH  17  18
ATOM     18  C   UNL     1     113.451 115.980 123.384  1.00  0.00    -0.000 C 
BRANCH  18  19
ATOM     19  C   UNL     1     114.014 115.470 124.721  1.00  0.00    -0.003 C 
ATOM     20  C   UNL     1     115.256 116.238 125.173  1.00  0.00     0.004 C 
ENDBRANCH  18  19
ENDBRANCH  17  18
ENDBRANCH  16  17
ENDBRANCH  15  16
ENDBRANCH  14  15
ENDBRANCH  13  14
ENDBRANCH   2  13
TORSDOF 15
ENDMDL
MODEL 9
REMARK VINA RESULT:    -4.101      1.901      5.825
REMARK INTER + INTRA:         -10.506
REMARK INTER:                  -7.536
REMARK INTRA:                  -2.970
REMARK UNBOUND:                -2.808
REMARK SMILES CCCCCCCCC=CCCCCCCCC(=O)[O-]
REMARK SMILES IDX 10 1 9 2 11 3 12 4 13 5 14 6 15 7 16 8 17 9 18 10 19 11
REMARK SMILES IDX 20 12 8 13 7 14 6 15 5 16 4 17 3 18 2 19 1 20
REMARK H PARENT
REMARK Flexibility Score: inf
ROOT
ATOM      1  C   UNL     1     112.979 120.002 124.942  1.00  0.00    -0.031 C 
ATOM      2  C   UNL     1     112.429 119.635 126.109  1.00  0.00    -0.031 C 
ENDROOT
BRANCH   1   3
ATOM      3  C   UNL     1     112.196 119.983 123.657  1.00  0.00     0.027 C 
BRANCH   3   4
ATOM      4  C   UNL     1     111.288 118.749 123.545  1.00  0.00     0.004 C 
BRANCH   4   5
ATOM      5  C   UNL     1     111.836 117.718 122.543  1.00  0.00     0.000 C 
BRANCH   5   6
ATOM      6  C   UNL     1     111.964 116.312 123.151  1.00  0.00     0.000 C 
BRANCH   6   7
ATOM      7  C   UNL     1     112.029 116.334 124.686  1.00  0.00     0.000 C 
BRANCH   7   8
ATOM      8  C   UNL     1     113.191 115.473 125.197  1.00  0.00     0.006 C 
BRANCH   8   9
ATOM      9  C   UNL     1     114.244 116.333 125.902  1.00  0.00     0.053 C 
BRANCH   9  10
ATOM     10  C   UNL     1     115.212 116.893 124.908  1.00  0.00     0.041 C 
ATOM     11  O   UNL     1     115.862 117.939 125.174  1.00  0.00    -0.550 OA
ATOM     12  O   UNL     1     115.441 116.229 123.709  1.00  0.00    -0.550 OA
ENDBRANCH   9  10
ENDBRANCH   8   9
ENDBRANCH   7   8
ENDBRANCH   6   7
ENDBRANCH   5   6
ENDBRANCH   4   5
ENDBRANCH   3   4
ENDBRANCH   1   3
BRANCH   2  13
ATOM     13  C   UNL     1     113.235 119.657 127.378  1.00  0.00     0.027 C 
BRANCH  13  14
ATOM     14  C   UNL     1     112.499 118.936 128.515  1.00  0.00     0.004 C 
BRANCH  14  15
ATOM     15  C   UNL     1     111.553 117.833 128.010  1.00  0.00     0.000 C 
BRANCH  15  16
ATOM     16  C   UNL     1     111.745 116.451 128.670  1.00  0.00     0.000 C 
BRANCH  16  17
ATOM     17  C   UNL     1     112.470 116.469 130.029  1.00  0.00    -0.000 C 
BRANCH  17  18
ATOM     18  C   UNL     1     113.813 115.720 129.998  1.00  0.00    -0.000 C 
BRANCH  18  19
ATOM     19  C   UNL     1     114.999 116.628 130.363  1.00  0.00    -0.003 C 
ATOM     20  C   UNL     1     115.714 117.190 129.134  1.00  0.00     0.004 C 
ENDBRANCH  18  19
ENDBRANCH  17  18
ENDBRANCH  16  17
ENDBRANCH  15  16
ENDBRANCH  14  15
ENDBRANCH  13  14
ENDBRANCH   2  13
TORSDOF 15
ENDMDL
