MODEL 1
REMARK VINA RESULT:    -4.108      0.000      0.000
REMARK INTER + INTRA:          -4.245
REMARK INTER:                  -4.829
REMARK INTRA:                   0.583
REMARK UNBOUND:                 0.583
REMARK SMILES O=c1c(O)c(-c2ccc(O)cc2)oc2cc(O)cc(O)c12
REMARK SMILES IDX 5 1 3 2 2 3 1 4 21 5 19 6 18 7 16 8 15 9 14 10 13 11 6 12
REMARK SMILES IDX 7 13 8 14 9 15 12 16 11 17 10 18 4 20 20 22 17 24
REMARK H PARENT 10 19 4 21 20 23 17 25
REMARK Flexibility Score: inf
ROOT
ATOM      1  C   UNL     1      72.008  40.886  20.272  1.00  0.00     0.180 A 
ATOM      2  C   UNL     1      72.886  40.953  19.177  1.00  0.00     0.208 A 
ATOM      3  C   UNL     1      74.270  40.892  19.407  1.00  0.00     0.238 A 
ATOM      4  O   UNL     1      75.048  40.898  18.418  1.00  0.00    -0.285 OA
ATOM      5  C   UNL     1      74.758  40.783  20.731  1.00  0.00     0.111 A 
ATOM      6  C   UNL     1      76.142  40.754  21.084  1.00  0.00     0.134 A 
ATOM      7  C   UNL     1      76.510  40.512  22.413  1.00  0.00     0.093 A 
ATOM      8  C   UNL     1      75.545  40.362  23.412  1.00  0.00     0.123 A 
ATOM      9  C   UNL     1      74.194  40.448  23.086  1.00  0.00     0.094 A 
ATOM     10  C   UNL     1      73.794  40.653  21.764  1.00  0.00     0.146 A 
ATOM     11  O   UNL     1      72.496  40.718  21.495  1.00  0.00    -0.452 OA
ENDROOT
BRANCH   1  12
ATOM     12  C   UNL     1      70.539  40.969  20.111  1.00  0.00     0.021 A 
ATOM     13  C   UNL     1      69.674  40.891  21.219  1.00  0.00     0.016 A 
ATOM     14  C   UNL     1      68.289  40.946  21.039  1.00  0.00     0.047 A 
ATOM     15  C   UNL     1      67.749  41.067  19.751  1.00  0.00     0.115 A 
ATOM     16  C   UNL     1      69.989  41.068  18.822  1.00  0.00     0.016 A 
ATOM     17  C   UNL     1      68.603  41.125  18.646  1.00  0.00     0.047 A 
BRANCH  15  18
ATOM     18  O   UNL     1      66.371  41.125  19.560  1.00  0.00    -0.508 OA
ATOM     19  H   UNL     1      65.814  40.284  19.467  1.00  0.00     0.293 HD
ENDBRANCH  15  18
ENDBRANCH   1  12
BRANCH   2  20
ATOM     20  O   UNL     1      72.380  41.039  17.875  1.00  0.00    -0.502 OA
ATOM     21  H   UNL     1      72.931  40.793  17.062  1.00  0.00     0.293 HD
ENDBRANCH   2  20
BRANCH   6  22
ATOM     22  O   UNL     1      77.182  40.984  20.179  1.00  0.00    -0.507 OA
ATOM     23  H   UNL     1      77.573  40.286  19.564  1.00  0.00     0.293 HD
ENDBRANCH   6  22
BRANCH   8  24
ATOM     24  O   UNL     1      75.921  40.137  24.735  1.00  0.00    -0.508 OA
ATOM     25  H   UNL     1      76.166  40.902  25.353  1.00  0.00     0.293 HD
ENDBRANCH   8  24
TORSDOF 5
ENDMDL
MODEL 2
REMARK VINA RESULT:    -4.034      1.262      2.947
REMARK INTER + INTRA:          -4.158
REMARK INTER:                  -4.644
REMARK INTRA:                   0.486
REMARK UNBOUND:                 0.583
REMARK SMILES O=c1c(O)c(-c2ccc(O)cc2)oc2cc(O)cc(O)c12
REMARK SMILES IDX 5 1 3 2 2 3 1 4 21 5 19 6 18 7 16 8 15 9 14 10 13 11 6 12
REMARK SMILES IDX 7 13 8 14 9 15 12 16 11 17 10 18 4 20 20 22 17 24
REMARK H PARENT 10 19 4 21 20 23 17 25
REMARK Flexibility Score: inf
ROOT
ATOM      1  C   UNL     1      71.777  40.675  20.728  1.00  0.00     0.180 A 
ATOM      2  C   UNL     1      72.222  40.390  22.030  1.00  0.00     0.208 A 
ATOM      3  C   UNL     1      73.599  40.248  22.264  1.00  0.00     0.238 A 
ATOM      4  O   UNL     1      73.995  40.047  23.441  1.00  0.00    -0.285 OA
ATOM      5  C   UNL     1      74.512  40.375  21.189  1.00  0.00     0.111 A 
ATOM      6  C   UNL     1      75.926  40.210  21.304  1.00  0.00     0.134 A 
ATOM      7  C   UNL     1      76.744  40.488  20.202  1.00  0.00     0.093 A 
ATOM      8  C   UNL     1      76.195  40.861  18.972  1.00  0.00     0.123 A 
ATOM      9  C   UNL     1      74.813  40.967  18.836  1.00  0.00     0.094 A 
ATOM     10  C   UNL     1      73.973  40.732  19.926  1.00  0.00     0.146 A 
ATOM     11  O   UNL     1      72.662  40.853  19.755  1.00  0.00    -0.452 OA
ENDROOT
BRANCH   1  12
ATOM     12  C   UNL     1      70.340  40.814  20.399  1.00  0.00     0.021 A 
ATOM     13  C   UNL     1      69.357  40.855  21.406  1.00  0.00     0.016 A 
ATOM     14  C   UNL     1      68.005  40.962  21.070  1.00  0.00     0.047 A 
ATOM     15  C   UNL     1      67.614  41.017  19.726  1.00  0.00     0.115 A 
ATOM     16  C   UNL     1      69.938  40.848  19.053  1.00  0.00     0.016 A 
ATOM     17  C   UNL     1      68.584  40.956  18.721  1.00  0.00     0.047 A 
BRANCH  15  18
ATOM     18  O   UNL     1      66.270  41.125  19.379  1.00  0.00    -0.508 OA
ATOM     19  H   UNL     1      65.952  40.952  18.433  1.00  0.00     0.293 HD
ENDBRANCH  15  18
ENDBRANCH   1  12
BRANCH   2  20
ATOM     20  O   UNL     1      71.304  40.290  23.081  1.00  0.00    -0.502 OA
ATOM     21  H   UNL     1      71.371  39.574  23.793  1.00  0.00     0.293 HD
ENDBRANCH   2  20
BRANCH   6  22
ATOM     22  O   UNL     1      76.567  39.754  22.458  1.00  0.00    -0.507 OA
ATOM     23  H   UNL     1      76.094  39.437  23.291  1.00  0.00     0.293 HD
ENDBRANCH   6  22
BRANCH   8  24
ATOM     24  O   UNL     1      77.017  41.120  17.876  1.00  0.00    -0.508 OA
ATOM     25  H   UNL     1      78.025  41.154  17.967  1.00  0.00     0.293 HD
ENDBRANCH   8  24
TORSDOF 5
ENDMDL
