MODEL 1
REMARK VINA RESULT:    -4.067      0.000      0.000
REMARK INTER + INTRA:          -5.934
REMARK INTER:                  -5.494
REMARK INTRA:                  -0.440
REMARK UNBOUND:                -0.440
REMARK SMILES CCCCCCCC(=O)[O-]
REMARK SMILES IDX 5 1 6 2 7 3 8 4 9 5 10 6 4 7 3 8 2 9 1 10
REMARK H PARENT
REMARK Flexibility Score: inf
ROOT
ATOM      1  C   UNL     1      -6.218   9.362  -8.014  1.00  0.00     0.000 C 
ENDROOT
BRANCH   1   2
ATOM      2  C   UNL     1      -6.350   9.942  -6.598  1.00  0.00     0.006 C 
BRANCH   2   3
ATOM      3  C   UNL     1      -7.430  11.028  -6.500  1.00  0.00     0.053 C 
BRANCH   3   4
ATOM      4  C   UNL     1      -8.697  10.453  -5.949  1.00  0.00     0.041 C 
ATOM      5  O   UNL     1      -9.786  11.070  -6.090  1.00  0.00    -0.550 OA
ATOM      6  O   UNL     1      -8.684   9.214  -5.322  1.00  0.00    -0.550 OA
ENDBRANCH   3   4
ENDBRANCH   2   3
ENDBRANCH   1   2
BRANCH   1   7
ATOM      7  C   UNL     1      -5.632  10.373  -9.015  1.00  0.00     0.000 C 
BRANCH   7   8
ATOM      8  C   UNL     1      -4.101  10.472  -8.926  1.00  0.00    -0.000 C 
BRANCH   8   9
ATOM      9  C   UNL     1      -3.618  11.879  -8.543  1.00  0.00    -0.003 C 
ATOM     10  C   UNL     1      -3.327  11.969  -7.047  1.00  0.00     0.004 C 
ENDBRANCH   8   9
ENDBRANCH   7   8
ENDBRANCH   1   7
TORSDOF 6
ENDMDL
MODEL 2
REMARK VINA RESULT:    -3.976      2.817      4.882
REMARK INTER + INTRA:          -5.811
REMARK INTER:                  -5.536
REMARK INTRA:                  -0.275
REMARK UNBOUND:                -0.440
REMARK SMILES CCCCCCCC(=O)[O-]
REMARK SMILES IDX 5 1 6 2 7 3 8 4 9 5 10 6 4 7 3 8 2 9 1 10
REMARK H PARENT
REMARK Flexibility Score: inf
ROOT
ATOM      1  C   UNL     1      -5.631  10.320  -8.913  1.00  0.00     0.000 C 
ENDROOT
BRANCH   1   2
ATOM      2  C   UNL     1      -4.105  10.485  -8.958  1.00  0.00     0.006 C 
BRANCH   2   3
ATOM      3  C   UNL     1      -3.644  11.874  -8.497  1.00  0.00     0.053 C 
BRANCH   3   4
ATOM      4  C   UNL     1      -3.448  11.893  -7.014  1.00  0.00     0.041 C 
ATOM      5  O   UNL     1      -2.329  11.592  -6.520  1.00  0.00    -0.550 OA
ATOM      6  O   UNL     1      -4.485  12.288  -6.179  1.00  0.00    -0.550 OA
ENDBRANCH   3   4
ENDBRANCH   2   3
ENDBRANCH   1   2
BRANCH   1   7
ATOM      7  C   UNL     1      -6.094   9.427  -7.748  1.00  0.00     0.000 C 
BRANCH   7   8
ATOM      8  C   UNL     1      -7.160  10.105  -6.872  1.00  0.00    -0.000 C 
BRANCH   8   9
ATOM      9  C   UNL     1      -8.115   9.098  -6.214  1.00  0.00    -0.003 C 
ATOM     10  C   UNL     1      -9.204   9.815  -5.419  1.00  0.00     0.004 C 
ENDBRANCH   8   9
ENDBRANCH   7   8
ENDBRANCH   1   7
TORSDOF 6
ENDMDL
MODEL 3
REMARK VINA RESULT:    -3.854     17.388     18.241
REMARK INTER + INTRA:          -5.646
REMARK INTER:                  -5.351
REMARK INTRA:                  -0.295
REMARK UNBOUND:                -0.440
REMARK SMILES CCCCCCCC(=O)[O-]
REMARK SMILES IDX 5 1 6 2 7 3 8 4 9 5 10 6 4 7 3 8 2 9 1 10
REMARK H PARENT
REMARK Flexibility Score: inf
ROOT
ATOM      1  C   UNL     1       5.661  10.637   6.782  1.00  0.00     0.000 C 
ENDROOT
BRANCH   1   2
ATOM      2  C   UNL     1       4.845   9.741   7.726  1.00  0.00     0.006 C 
BRANCH   2   3
ATOM      3  C   UNL     1       3.386  10.196   7.862  1.00  0.00     0.053 C 
BRANCH   3   4
ATOM      4  C   UNL     1       3.183  10.917   9.157  1.00  0.00     0.041 C 
ATOM      5  O   UNL     1       2.675  10.319  10.142  1.00  0.00    -0.550 OA
ATOM      6  O   UNL     1       3.599  12.235   9.292  1.00  0.00    -0.550 OA
ENDBRANCH   3   4
ENDBRANCH   2   3
ENDBRANCH   1   2
BRANCH   1   7
ATOM      7  C   UNL     1       4.893  10.998   5.499  1.00  0.00     0.000 C 
BRANCH   7   8
ATOM      8  C   UNL     1       5.827  11.392   4.343  1.00  0.00    -0.000 C 
BRANCH   8   9
ATOM      9  C   UNL     1       7.295  11.036   4.619  1.00  0.00    -0.003 C 
ATOM     10  C   UNL     1       8.228  12.137   4.122  1.00  0.00     0.004 C 
ENDBRANCH   8   9
ENDBRANCH   7   8
ENDBRANCH   1   7
TORSDOF 6
ENDMDL
MODEL 4
REMARK VINA RESULT:    -3.852      2.924      4.909
REMARK INTER + INTRA:          -5.643
REMARK INTER:                  -5.307
REMARK INTRA:                  -0.336
REMARK UNBOUND:                -0.440
REMARK SMILES CCCCCCCC(=O)[O-]
REMARK SMILES IDX 5 1 6 2 7 3 8 4 9 5 10 6 4 7 3 8 2 9 1 10
REMARK H PARENT
REMARK Flexibility Score: inf
ROOT
ATOM      1  C   UNL     1      -6.288   9.347  -7.991  1.00  0.00     0.000 C 
ENDROOT
BRANCH   1   2
ATOM      2  C   UNL     1      -5.642  10.483  -8.798  1.00  0.00     0.006 C 
BRANCH   2   3
ATOM      3  C   UNL     1      -4.111  10.496  -8.685  1.00  0.00     0.053 C 
BRANCH   3   4
ATOM      4  C   UNL     1      -3.659  11.663  -7.865  1.00  0.00     0.041 C 
ATOM      5  O   UNL     1      -3.376  12.756  -8.421  1.00  0.00    -0.550 OA
ATOM      6  O   UNL     1      -3.598  11.558  -6.481  1.00  0.00    -0.550 OA
ENDBRANCH   3   4
ENDBRANCH   2   3
ENDBRANCH   1   2
BRANCH   1   7
ATOM      7  C   UNL     1      -6.590   9.753  -6.538  1.00  0.00     0.000 C 
BRANCH   7   8
ATOM      8  C   UNL     1      -7.627  10.884  -6.445  1.00  0.00    -0.000 C 
BRANCH   8   9
ATOM      9  C   UNL     1      -8.972  10.409  -5.875  1.00  0.00    -0.003 C 
ATOM     10  C   UNL     1      -8.862   8.991  -5.320  1.00  0.00     0.004 C 
ENDBRANCH   8   9
ENDBRANCH   7   8
ENDBRANCH   1   7
TORSDOF 6
ENDMDL
MODEL 5
REMARK VINA RESULT:    -3.843     17.491     18.787
REMARK INTER + INTRA:          -5.630
REMARK INTER:                  -5.159
REMARK INTRA:                  -0.471
REMARK UNBOUND:                -0.440
REMARK SMILES CCCCCCCC(=O)[O-]
REMARK SMILES IDX 5 1 6 2 7 3 8 4 9 5 10 6 4 7 3 8 2 9 1 10
REMARK H PARENT
REMARK Flexibility Score: inf
ROOT
ATOM      1  C   UNL     1       4.892  10.871   5.958  1.00  0.00     0.000 C 
ENDROOT
BRANCH   1   2
ATOM      2  C   UNL     1       5.315  11.403   7.335  1.00  0.00     0.006 C 
BRANCH   2   3
ATOM      3  C   UNL     1       5.703  10.283   8.310  1.00  0.00     0.053 C 
BRANCH   3   4
ATOM      4  C   UNL     1       4.508   9.835   9.092  1.00  0.00     0.041 C 
ATOM      5  O   UNL     1       4.150  10.467  10.120  1.00  0.00    -0.550 OA
ATOM      6  O   UNL     1       3.760   8.748   8.657  1.00  0.00    -0.550 OA
ENDBRANCH   3   4
ENDBRANCH   2   3
ENDBRANCH   1   2
BRANCH   1   7
ATOM      7  C   UNL     1       5.675  11.525   4.806  1.00  0.00     0.000 C 
BRANCH   7   8
ATOM      8  C   UNL     1       7.033  10.850   4.557  1.00  0.00    -0.000 C 
BRANCH   8   9
ATOM      9  C   UNL     1       8.219  11.732   4.972  1.00  0.00    -0.003 C 
ATOM     10  C   UNL     1       8.904  11.178   6.219  1.00  0.00     0.004 C 
ENDBRANCH   8   9
ENDBRANCH   7   8
ENDBRANCH   1   7
TORSDOF 6
ENDMDL
MODEL 6
REMARK VINA RESULT:    -3.819      3.115      5.429
REMARK INTER + INTRA:          -5.599
REMARK INTER:                  -5.350
REMARK INTRA:                  -0.249
REMARK UNBOUND:                -0.440
REMARK SMILES CCCCCCCC(=O)[O-]
REMARK SMILES IDX 5 1 6 2 7 3 8 4 9 5 10 6 4 7 3 8 2 9 1 10
REMARK H PARENT
REMARK Flexibility Score: inf
ROOT
ATOM      1  C   UNL     1      -7.596  10.711  -6.508  1.00  0.00     0.000 C 
ENDROOT
BRANCH   1   2
ATOM      2  C   UNL     1      -6.603   9.693  -7.089  1.00  0.00     0.006 C 
BRANCH   2   3
ATOM      3  C   UNL     1      -5.956  10.174  -8.395  1.00  0.00     0.053 C 
BRANCH   3   4
ATOM      4  C   UNL     1      -4.582  10.703  -8.131  1.00  0.00     0.041 C 
ATOM      5  O   UNL     1      -3.700  10.651  -9.028  1.00  0.00    -0.550 OA
ATOM      6  O   UNL     1      -4.288  11.297  -6.910  1.00  0.00    -0.550 OA
ENDBRANCH   3   4
ENDBRANCH   2   3
ENDBRANCH   1   2
BRANCH   1   7
ATOM      7  C   UNL     1      -8.821  10.039  -5.862  1.00  0.00     0.000 C 
BRANCH   7   8
ATOM      8  C   UNL     1      -8.536   8.595  -5.418  1.00  0.00    -0.000 C 
BRANCH   8   9
ATOM      9  C   UNL     1      -9.775   7.692  -5.507  1.00  0.00    -0.003 C 
ATOM     10  C   UNL     1      -9.675   6.742  -6.698  1.00  0.00     0.004 C 
ENDBRANCH   8   9
ENDBRANCH   7   8
ENDBRANCH   1   7
TORSDOF 6
ENDMDL
MODEL 7
REMARK VINA RESULT:    -3.818     17.453     19.066
REMARK INTER + INTRA:          -5.597
REMARK INTER:                  -5.011
REMARK INTRA:                  -0.585
REMARK UNBOUND:                -0.440
REMARK SMILES CCCCCCCC(=O)[O-]
REMARK SMILES IDX 5 1 6 2 7 3 8 4 9 5 10 6 4 7 3 8 2 9 1 10
REMARK H PARENT
REMARK Flexibility Score: inf
ROOT
ATOM      1  C   UNL     1       7.394  12.045   7.982  1.00  0.00     0.000 C 
ENDROOT
BRANCH   1   2
ATOM      2  C   UNL     1       6.014  11.633   8.517  1.00  0.00     0.006 C 
BRANCH   2   3
ATOM      3  C   UNL     1       5.796  10.114   8.487  1.00  0.00     0.053 C 
BRANCH   3   4
ATOM      4  C   UNL     1       4.443   9.793   7.936  1.00  0.00     0.041 C 
ATOM      5  O   UNL     1       3.967  10.472   6.989  1.00  0.00    -0.550 OA
ATOM      6  O   UNL     1       3.726   8.713   8.437  1.00  0.00    -0.550 OA
ENDBRANCH   3   4
ENDBRANCH   2   3
ENDBRANCH   1   2
BRANCH   1   7
ATOM      7  C   UNL     1       8.089  10.914   7.204  1.00  0.00     0.000 C 
BRANCH   7   8
ATOM      8  C   UNL     1       8.175  11.201   5.696  1.00  0.00    -0.000 C 
BRANCH   8   9
ATOM      9  C   UNL     1       7.044  10.534   4.900  1.00  0.00    -0.003 C 
ATOM     10  C   UNL     1       6.019  11.565   4.436  1.00  0.00     0.004 C 
ENDBRANCH   8   9
ENDBRANCH   7   8
ENDBRANCH   1   7
TORSDOF 6
ENDMDL
MODEL 8
REMARK VINA RESULT:    -3.758      1.552      2.254
REMARK INTER + INTRA:          -5.515
REMARK INTER:                  -5.276
REMARK INTRA:                  -0.239
REMARK UNBOUND:                -0.440
REMARK SMILES CCCCCCCC(=O)[O-]
REMARK SMILES IDX 5 1 6 2 7 3 8 4 9 5 10 6 4 7 3 8 2 9 1 10
REMARK H PARENT
REMARK Flexibility Score: inf
ROOT
ATOM      1  C   UNL     1      -6.877  10.474  -6.613  1.00  0.00     0.000 C 
ENDROOT
BRANCH   1   2
ATOM      2  C   UNL     1      -8.346  10.108  -6.356  1.00  0.00     0.006 C 
BRANCH   2   3
ATOM      3  C   UNL     1      -8.507   9.005  -5.301  1.00  0.00     0.053 C 
BRANCH   3   4
ATOM      4  C   UNL     1      -9.254   7.841  -5.873  1.00  0.00     0.041 C 
ATOM      5  O   UNL     1      -9.063   7.492  -7.068  1.00  0.00    -0.550 OA
ATOM      6  O   UNL     1     -10.125   7.113  -5.074  1.00  0.00    -0.550 OA
ENDBRANCH   3   4
ENDBRANCH   2   3
ENDBRANCH   1   2
BRANCH   1   7
ATOM      7  C   UNL     1      -6.224   9.580  -7.681  1.00  0.00     0.000 C 
BRANCH   7   8
ATOM      8  C   UNL     1      -5.663  10.387  -8.864  1.00  0.00    -0.000 C 
BRANCH   8   9
ATOM      9  C   UNL     1      -4.130  10.489  -8.839  1.00  0.00    -0.003 C 
ATOM     10  C   UNL     1      -3.670  11.585  -7.882  1.00  0.00     0.004 C 
ENDBRANCH   8   9
ENDBRANCH   7   8
ENDBRANCH   1   7
TORSDOF 6
ENDMDL
MODEL 9
REMARK VINA RESULT:    -3.705     17.540     19.133
REMARK INTER + INTRA:          -5.444
REMARK INTER:                  -5.008
REMARK INTRA:                  -0.437
REMARK UNBOUND:                -0.440
REMARK SMILES CCCCCCCC(=O)[O-]
REMARK SMILES IDX 5 1 6 2 7 3 8 4 9 5 10 6 4 7 3 8 2 9 1 10
REMARK H PARENT
REMARK Flexibility Score: inf
ROOT
ATOM      1  C   UNL     1       4.994  10.933   5.896  1.00  0.00     0.000 C 
ENDROOT
BRANCH   1   2
ATOM      2  C   UNL     1       5.732  11.244   4.585  1.00  0.00     0.006 C 
BRANCH   2   3
ATOM      3  C   UNL     1       6.599  12.507   4.676  1.00  0.00     0.053 C 
BRANCH   3   4
ATOM      4  C   UNL     1       8.039  12.167   4.456  1.00  0.00     0.041 C 
ATOM      5  O   UNL     1       8.573  12.366   3.333  1.00  0.00    -0.550 OA
ATOM      6  O   UNL     1       8.806  11.675   5.505  1.00  0.00    -0.550 OA
ENDBRANCH   3   4
ENDBRANCH   2   3
ENDBRANCH   1   2
BRANCH   1   7
ATOM      7  C   UNL     1       5.890  10.217   6.922  1.00  0.00     0.000 C 
BRANCH   7   8
ATOM      8  C   UNL     1       6.311  11.135   8.081  1.00  0.00    -0.000 C 
BRANCH   8   9
ATOM      9  C   UNL     1       5.157  12.008   8.595  1.00  0.00    -0.003 C 
ATOM     10  C   UNL     1       4.353  11.278   9.668  1.00  0.00     0.004 C 
ENDBRANCH   8   9
ENDBRANCH   7   8
ENDBRANCH   1   7
TORSDOF 6
ENDMDL
