MODEL 1
REMARK VINA RESULT:    -4.089      0.000      0.000
REMARK INTER + INTRA:          -5.685
REMARK INTER:                  -5.284
REMARK INTRA:                  -0.401
REMARK UNBOUND:                -0.401
REMARK SMILES CCCCCCC(=O)[O-]
REMARK SMILES IDX 5 1 6 2 7 3 8 4 9 5 4 6 3 7 2 8 1 9
REMARK H PARENT
REMARK Flexibility Score: inf
ROOT
ATOM      1  C   UNL     1     -29.599  65.993  83.510  1.00  0.00     0.006 C 
ENDROOT
BRANCH   1   2
ATOM      2  C   UNL     1     -28.121  66.403  83.537  1.00  0.00     0.053 C 
BRANCH   2   3
ATOM      3  C   UNL     1     -27.545  66.313  84.916  1.00  0.00     0.041 C 
ATOM      4  O   UNL     1     -26.743  67.191  85.329  1.00  0.00    -0.550 OA
ATOM      5  O   UNL     1     -27.920  65.273  85.759  1.00  0.00    -0.550 OA
ENDBRANCH   2   3
ENDBRANCH   1   2
BRANCH   1   6
ATOM      6  C   UNL     1     -30.506  67.041  84.171  1.00  0.00     0.000 C 
BRANCH   6   7
ATOM      7  C   UNL     1     -31.281  66.435  85.347  1.00  0.00    -0.000 C 
BRANCH   7   8
ATOM      8  C   UNL     1     -31.348  67.414  86.525  1.00  0.00    -0.003 C 
ATOM      9  C   UNL     1     -30.149  68.358  86.527  1.00  0.00     0.004 C 
ENDBRANCH   7   8
ENDBRANCH   6   7
ENDBRANCH   1   6
TORSDOF 5
ENDMDL
MODEL 2
REMARK VINA RESULT:    -4.081      2.361      4.140
REMARK INTER + INTRA:          -5.675
REMARK INTER:                  -5.328
REMARK INTRA:                  -0.347
REMARK UNBOUND:                -0.401
REMARK SMILES CCCCCCC(=O)[O-]
REMARK SMILES IDX 5 1 6 2 7 3 8 4 9 5 4 6 3 7 2 8 1 9
REMARK H PARENT
REMARK Flexibility Score: inf
ROOT
ATOM      1  C   UNL     1     -29.261  65.609  86.500  1.00  0.00     0.006 C 
ENDROOT
BRANCH   1   2
ATOM      2  C   UNL     1     -30.648  65.981  85.959  1.00  0.00     0.053 C 
BRANCH   2   3
ATOM      3  C   UNL     1     -31.075  67.341  86.417  1.00  0.00     0.041 C 
ATOM      4  O   UNL     1     -32.235  67.524  86.871  1.00  0.00    -0.550 OA
ATOM      5  O   UNL     1     -30.179  68.403  86.371  1.00  0.00    -0.550 OA
ENDBRANCH   2   3
ENDBRANCH   1   2
BRANCH   1   6
ATOM      6  C   UNL     1     -28.280  65.237  85.378  1.00  0.00     0.000 C 
BRANCH   6   7
ATOM      7  C   UNL     1     -27.618  66.488  84.789  1.00  0.00    -0.000 C 
BRANCH   7   8
ATOM      8  C   UNL     1     -28.193  66.815  83.406  1.00  0.00    -0.003 C 
ATOM      9  C   UNL     1     -28.561  65.543  82.647  1.00  0.00     0.004 C 
ENDBRANCH   7   8
ENDBRANCH   6   7
ENDBRANCH   1   6
TORSDOF 5
ENDMDL
MODEL 3
REMARK VINA RESULT:    -4.080      2.451      3.381
REMARK INTER + INTRA:          -5.673
REMARK INTER:                  -5.242
REMARK INTRA:                  -0.431
REMARK UNBOUND:                -0.401
REMARK SMILES CCCCCCC(=O)[O-]
REMARK SMILES IDX 5 1 6 2 7 3 8 4 9 5 4 6 3 7 2 8 1 9
REMARK H PARENT
REMARK Flexibility Score: inf
ROOT
ATOM      1  C   UNL     1     -28.425  66.888  86.195  1.00  0.00     0.006 C 
ENDROOT
BRANCH   1   2
ATOM      2  C   UNL     1     -27.954  67.532  84.885  1.00  0.00     0.053 C 
BRANCH   2   3
ATOM      3  C   UNL     1     -28.833  67.154  83.733  1.00  0.00     0.041 C 
ATOM      4  O   UNL     1     -28.326  66.763  82.648  1.00  0.00    -0.550 OA
ATOM      5  O   UNL     1     -30.215  67.204  83.867  1.00  0.00    -0.550 OA
ENDBRANCH   2   3
ENDBRANCH   1   2
BRANCH   1   6
ATOM      6  C   UNL     1     -28.355  65.355  86.147  1.00  0.00     0.000 C 
BRANCH   6   7
ATOM      7  C   UNL     1     -29.713  64.731  86.486  1.00  0.00    -0.000 C 
BRANCH   7   8
ATOM      8  C   UNL     1     -30.100  63.662  85.457  1.00  0.00    -0.003 C 
ATOM      9  C   UNL     1     -29.022  63.510  84.388  1.00  0.00     0.004 C 
ENDBRANCH   7   8
ENDBRANCH   6   7
ENDBRANCH   1   6
TORSDOF 5
ENDMDL
MODEL 4
REMARK VINA RESULT:    -4.070      1.463      1.947
REMARK INTER + INTRA:          -5.660
REMARK INTER:                  -5.338
REMARK INTRA:                  -0.322
REMARK UNBOUND:                -0.401
REMARK SMILES CCCCCCC(=O)[O-]
REMARK SMILES IDX 5 1 6 2 7 3 8 4 9 5 4 6 3 7 2 8 1 9
REMARK H PARENT
REMARK Flexibility Score: inf
ROOT
ATOM      1  C   UNL     1     -28.220  66.830  83.653  1.00  0.00     0.006 C 
ENDROOT
BRANCH   1   2
ATOM      2  C   UNL     1     -27.502  66.730  85.005  1.00  0.00     0.053 C 
BRANCH   2   3
ATOM      3  C   UNL     1     -27.466  68.049  85.713  1.00  0.00     0.041 C 
ATOM      4  O   UNL     1     -26.420  68.749  85.699  1.00  0.00    -0.550 OA
ATOM      5  O   UNL     1     -28.600  68.520  86.363  1.00  0.00    -0.550 OA
ENDBRANCH   2   3
ENDBRANCH   1   2
BRANCH   1   6
ATOM      6  C   UNL     1     -29.506  65.992  83.613  1.00  0.00     0.000 C 
BRANCH   6   7
ATOM      7  C   UNL     1     -30.691  66.774  84.188  1.00  0.00    -0.000 C 
BRANCH   7   8
ATOM      8  C   UNL     1     -31.178  66.149  85.501  1.00  0.00    -0.003 C 
ATOM      9  C   UNL     1     -31.851  67.190  86.391  1.00  0.00     0.004 C 
ENDBRANCH   7   8
ENDBRANCH   6   7
ENDBRANCH   1   6
TORSDOF 5
ENDMDL
MODEL 5
REMARK VINA RESULT:    -4.065      2.250      3.611
REMARK INTER + INTRA:          -5.655
REMARK INTER:                  -5.308
REMARK INTRA:                  -0.346
REMARK UNBOUND:                -0.401
REMARK SMILES CCCCCCC(=O)[O-]
REMARK SMILES IDX 5 1 6 2 7 3 8 4 9 5 4 6 3 7 2 8 1 9
REMARK H PARENT
REMARK Flexibility Score: inf
ROOT
ATOM      1  C   UNL     1     -30.544  66.288  84.128  1.00  0.00     0.006 C 
ENDROOT
BRANCH   1   2
ATOM      2  C   UNL     1     -30.861  66.028  85.607  1.00  0.00     0.053 C 
BRANCH   2   3
ATOM      3  C   UNL     1     -31.070  67.304  86.362  1.00  0.00     0.041 C 
ATOM      4  O   UNL     1     -30.133  68.137  86.474  1.00  0.00    -0.550 OA
ATOM      5  O   UNL     1     -32.313  67.589  86.916  1.00  0.00    -0.550 OA
ENDBRANCH   2   3
ENDBRANCH   1   2
BRANCH   1   6
ATOM      6  C   UNL     1     -29.173  65.730  83.720  1.00  0.00     0.000 C 
BRANCH   6   7
ATOM      7  C   UNL     1     -28.101  66.825  83.756  1.00  0.00    -0.000 C 
BRANCH   7   8
ATOM      8  C   UNL     1     -27.235  66.707  85.015  1.00  0.00    -0.003 C 
ATOM      9  C   UNL     1     -26.759  68.078  85.489  1.00  0.00     0.004 C 
ENDBRANCH   7   8
ENDBRANCH   6   7
ENDBRANCH   1   6
TORSDOF 5
ENDMDL
MODEL 6
REMARK VINA RESULT:    -4.048      2.310      3.508
REMARK INTER + INTRA:          -5.632
REMARK INTER:                  -5.182
REMARK INTRA:                  -0.449
REMARK UNBOUND:                -0.401
REMARK SMILES CCCCCCC(=O)[O-]
REMARK SMILES IDX 5 1 6 2 7 3 8 4 9 5 4 6 3 7 2 8 1 9
REMARK H PARENT
REMARK Flexibility Score: inf
ROOT
ATOM      1  C   UNL     1     -28.675  64.806  85.036  1.00  0.00     0.006 C 
ENDROOT
BRANCH   1   2
ATOM      2  C   UNL     1     -30.189  64.746  85.281  1.00  0.00     0.053 C 
BRANCH   2   3
ATOM      3  C   UNL     1     -30.837  66.081  85.080  1.00  0.00     0.041 C 
ATOM      4  O   UNL     1     -31.572  66.572  85.976  1.00  0.00    -0.550 OA
ATOM      5  O   UNL     1     -30.601  66.800  83.914  1.00  0.00    -0.550 OA
ENDBRANCH   2   3
ENDBRANCH   1   2
BRANCH   1   6
ATOM      6  C   UNL     1     -27.970  65.786  85.985  1.00  0.00     0.000 C 
BRANCH   6   7
ATOM      7  C   UNL     1     -27.138  66.808  85.202  1.00  0.00    -0.000 C 
BRANCH   7   8
ATOM      8  C   UNL     1     -27.509  68.241  85.601  1.00  0.00    -0.003 C 
ATOM      9  C   UNL     1     -28.375  68.257  86.857  1.00  0.00     0.004 C 
ENDBRANCH   7   8
ENDBRANCH   6   7
ENDBRANCH   1   6
TORSDOF 5
ENDMDL
MODEL 7
REMARK VINA RESULT:    -4.043      2.145      2.739
REMARK INTER + INTRA:          -5.625
REMARK INTER:                  -5.247
REMARK INTRA:                  -0.378
REMARK UNBOUND:                -0.401
REMARK SMILES CCCCCCC(=O)[O-]
REMARK SMILES IDX 5 1 6 2 7 3 8 4 9 5 4 6 3 7 2 8 1 9
REMARK H PARENT
REMARK Flexibility Score: inf
ROOT
ATOM      1  C   UNL     1     -27.616  66.630  84.651  1.00  0.00     0.006 C 
ENDROOT
BRANCH   1   2
ATOM      2  C   UNL     1     -28.382  66.868  83.344  1.00  0.00     0.053 C 
BRANCH   2   3
ATOM      3  C   UNL     1     -28.441  65.631  82.502  1.00  0.00     0.041 C 
ATOM      4  O   UNL     1     -27.957  65.629  81.340  1.00  0.00    -0.550 OA
ATOM      5  O   UNL     1     -29.005  64.468  83.014  1.00  0.00    -0.550 OA
ENDBRANCH   2   3
ENDBRANCH   1   2
BRANCH   1   6
ATOM      6  C   UNL     1     -28.494  66.862  85.890  1.00  0.00     0.000 C 
BRANCH   6   7
ATOM      7  C   UNL     1     -28.983  65.532  86.475  1.00  0.00    -0.000 C 
BRANCH   7   8
ATOM      8  C   UNL     1     -30.422  65.234  86.036  1.00  0.00    -0.003 C 
ATOM      9  C   UNL     1     -31.207  66.523  85.808  1.00  0.00     0.004 C 
ENDBRANCH   7   8
ENDBRANCH   6   7
ENDBRANCH   1   6
TORSDOF 5
ENDMDL
MODEL 8
REMARK VINA RESULT:    -4.037      2.164      3.323
REMARK INTER + INTRA:          -5.618
REMARK INTER:                  -5.268
REMARK INTRA:                  -0.350
REMARK UNBOUND:                -0.401
REMARK SMILES CCCCCCC(=O)[O-]
REMARK SMILES IDX 5 1 6 2 7 3 8 4 9 5 4 6 3 7 2 8 1 9
REMARK H PARENT
REMARK Flexibility Score: inf
ROOT
ATOM      1  C   UNL     1     -30.866  66.247  84.516  1.00  0.00     0.006 C 
ENDROOT
BRANCH   1   2
ATOM      2  C   UNL     1     -30.485  65.412  85.746  1.00  0.00     0.053 C 
BRANCH   2   3
ATOM      3  C   UNL     1     -30.081  64.020  85.367  1.00  0.00     0.041 C 
ATOM      4  O   UNL     1     -30.440  63.041  86.072  1.00  0.00    -0.550 OA
ATOM      5  O   UNL     1     -29.333  63.803  84.216  1.00  0.00    -0.550 OA
ENDBRANCH   2   3
ENDBRANCH   1   2
BRANCH   1   6
ATOM      6  C   UNL     1     -29.988  67.498  84.368  1.00  0.00     0.000 C 
BRANCH   6   7
ATOM      7  C   UNL     1     -28.675  67.167  83.649  1.00  0.00    -0.000 C 
BRANCH   7   8
ATOM      8  C   UNL     1     -27.495  67.178  84.627  1.00  0.00    -0.003 C 
ATOM      9  C   UNL     1     -27.788  68.061  85.836  1.00  0.00     0.004 C 
ENDBRANCH   7   8
ENDBRANCH   6   7
ENDBRANCH   1   6
TORSDOF 5
ENDMDL
MODEL 9
REMARK VINA RESULT:    -4.035      1.714      2.351
REMARK INTER + INTRA:          -5.616
REMARK INTER:                  -5.283
REMARK INTRA:                  -0.333
REMARK UNBOUND:                -0.401
REMARK SMILES CCCCCCC(=O)[O-]
REMARK SMILES IDX 5 1 6 2 7 3 8 4 9 5 4 6 3 7 2 8 1 9
REMARK H PARENT
REMARK Flexibility Score: inf
ROOT
ATOM      1  C   UNL     1     -27.939  65.448  85.606  1.00  0.00     0.006 C 
ENDROOT
BRANCH   1   2
ATOM      2  C   UNL     1     -27.548  66.694  84.802  1.00  0.00     0.053 C 
BRANCH   2   3
ATOM      3  C   UNL     1     -27.531  67.924  85.657  1.00  0.00     0.041 C 
ATOM      4  O   UNL     1     -28.550  68.248  86.322  1.00  0.00    -0.550 OA
ATOM      5  O   UNL     1     -26.379  68.695  85.743  1.00  0.00    -0.550 OA
ENDBRANCH   2   3
ENDBRANCH   1   2
BRANCH   1   6
ATOM      6  C   UNL     1     -29.246  64.817  85.103  1.00  0.00     0.000 C 
BRANCH   6   7
ATOM      7  C   UNL     1     -30.425  65.202  86.004  1.00  0.00    -0.000 C 
BRANCH   7   8
ATOM      8  C   UNL     1     -31.272  66.306  85.361  1.00  0.00    -0.003 C 
ATOM      9  C   UNL     1     -32.010  67.122  86.419  1.00  0.00     0.004 C 
ENDBRANCH   7   8
ENDBRANCH   6   7
ENDBRANCH   1   6
TORSDOF 5
ENDMDL
