MODEL 1
REMARK VINA RESULT:    -2.401      0.000      0.000
REMARK INTER + INTRA:          -6.360
REMARK INTER:                  -4.155
REMARK INTRA:                  -2.205
REMARK UNBOUND:                -2.205
REMARK SMILES CCCCCCCCCCCCCCO
REMARK SMILES IDX 8 1 7 2 6 3 5 4 4 5 3 6 2 7 1 8 9 9 10 10 11 11 12 12 13 13
REMARK SMILES IDX 14 14 15 15
REMARK H PARENT 15 16
REMARK Flexibility Score: inf
ROOT
ATOM      1  C   UNL     1     230.805 231.909 234.686  1.00  0.00     0.000 C 
ENDROOT
BRANCH   1   2
ATOM      2  C   UNL     1     230.326 233.139 235.476  1.00  0.00    -0.000 C 
BRANCH   2   3
ATOM      3  C   UNL     1     229.827 232.785 236.886  1.00  0.00    -0.000 C 
BRANCH   3   4
ATOM      4  C   UNL     1     228.300 232.897 237.018  1.00  0.00    -0.000 C 
BRANCH   4   5
ATOM      5  C   UNL     1     227.642 231.579 237.466  1.00  0.00    -0.000 C 
BRANCH   5   6
ATOM      6  C   UNL     1     228.685 230.495 237.807  1.00  0.00    -0.000 C 
BRANCH   6   7
ATOM      7  C   UNL     1     228.378 229.125 237.178  1.00  0.00    -0.003 C 
ATOM      8  C   UNL     1     229.493 228.622 236.264  1.00  0.00     0.004 C 
ENDBRANCH   6   7
ENDBRANCH   5   6
ENDBRANCH   4   5
ENDBRANCH   3   4
ENDBRANCH   2   3
ENDBRANCH   1   2
BRANCH   1   9
ATOM      9  C   UNL     1     229.740 231.334 233.729  1.00  0.00     0.000 C 
BRANCH   9  10
ATOM     10  C   UNL     1     228.736 232.402 233.270  1.00  0.00     0.000 C 
BRANCH  10  11
ATOM     11  C   UNL     1     227.298 231.989 233.606  1.00  0.00     0.000 C 
BRANCH  11  12
ATOM     12  C   UNL     1     227.223 230.496 233.961  1.00  0.00     0.002 C 
BRANCH  12  13
ATOM     13  C   UNL     1     225.838 230.081 234.487  1.00  0.00     0.028 C 
BRANCH  13  14
ATOM     14  C   UNL     1     225.173 228.972 233.660  1.00  0.00     0.156 C 
BRANCH  14  15
ATOM     15  O   UNL     1     226.124 228.254 232.920  1.00  0.00    -0.396 OA
ATOM     16  H   UNL     1     226.986 228.734 233.023  1.00  0.00     0.210 HD
ENDBRANCH  14  15
ENDBRANCH  13  14
ENDBRANCH  12  13
ENDBRANCH  11  12
ENDBRANCH  10  11
ENDBRANCH   9  10
ENDBRANCH   1   9
TORSDOF 13
ENDMDL
MODEL 2
REMARK VINA RESULT:    -2.335      8.957     11.376
REMARK INTER + INTRA:          -6.246
REMARK INTER:                  -4.565
REMARK INTRA:                  -1.682
REMARK UNBOUND:                -2.205
REMARK SMILES CCCCCCCCCCCCCCO
REMARK SMILES IDX 8 1 7 2 6 3 5 4 4 5 3 6 2 7 1 8 9 9 10 10 11 11 12 12 13 13
REMARK SMILES IDX 14 14 15 15
REMARK H PARENT 15 16
REMARK Flexibility Score: inf
ROOT
ATOM      1  C   UNL     1     237.493 226.325 235.336  1.00  0.00     0.000 C 
ENDROOT
BRANCH   1   2
ATOM      2  C   UNL     1     236.199 226.997 234.847  1.00  0.00    -0.000 C 
BRANCH   2   3
ATOM      3  C   UNL     1     236.246 227.366 233.355  1.00  0.00    -0.000 C 
BRANCH   3   4
ATOM      4  C   UNL     1     235.999 228.863 233.108  1.00  0.00    -0.000 C 
BRANCH   4   5
ATOM      5  C   UNL     1     237.096 229.756 233.715  1.00  0.00    -0.000 C 
BRANCH   5   6
ATOM      6  C   UNL     1     236.509 230.893 234.578  1.00  0.00    -0.000 C 
BRANCH   6   7
ATOM      7  C   UNL     1     236.335 230.514 236.059  1.00  0.00    -0.003 C 
ATOM      8  C   UNL     1     234.887 230.208 236.432  1.00  0.00     0.004 C 
ENDBRANCH   6   7
ENDBRANCH   5   6
ENDBRANCH   4   5
ENDBRANCH   3   4
ENDBRANCH   2   3
ENDBRANCH   1   2
BRANCH   1   9
ATOM      9  C   UNL     1     238.662 226.427 234.333  1.00  0.00     0.000 C 
BRANCH   9  10
ATOM     10  C   UNL     1     239.881 227.142 234.935  1.00  0.00     0.000 C 
BRANCH  10  11
ATOM     11  C   UNL     1     239.500 227.901 236.212  1.00  0.00     0.000 C 
BRANCH  11  12
ATOM     12  C   UNL     1     239.807 229.400 236.073  1.00  0.00     0.002 C 
BRANCH  12  13
ATOM     13  C   UNL     1     240.537 229.972 237.300  1.00  0.00     0.028 C 
BRANCH  13  14
ATOM     14  C   UNL     1     240.250 231.459 237.549  1.00  0.00     0.156 C 
BRANCH  14  15
ATOM     15  O   UNL     1     241.389 232.120 238.031  1.00  0.00    -0.396 OA
ATOM     16  H   UNL     1     241.266 232.221 239.011  1.00  0.00     0.210 HD
ENDBRANCH  14  15
ENDBRANCH  13  14
ENDBRANCH  12  13
ENDBRANCH  11  12
ENDBRANCH  10  11
ENDBRANCH   9  10
ENDBRANCH   1   9
TORSDOF 13
ENDMDL
MODEL 3
REMARK VINA RESULT:    -2.298     12.741     15.025
REMARK INTER + INTRA:          -6.182
REMARK INTER:                  -4.288
REMARK INTRA:                  -1.894
REMARK UNBOUND:                -2.205
REMARK SMILES CCCCCCCCCCCCCCO
REMARK SMILES IDX 8 1 7 2 6 3 5 4 4 5 3 6 2 7 1 8 9 9 10 10 11 11 12 12 13 13
REMARK SMILES IDX 14 14 15 15
REMARK H PARENT 15 16
REMARK Flexibility Score: inf
ROOT
ATOM      1  C   UNL     1     239.089 238.611 237.586  1.00  0.00     0.000 C 
ENDROOT
BRANCH   1   2
ATOM      2  C   UNL     1     238.817 237.098 237.543  1.00  0.00    -0.000 C 
BRANCH   2   3
ATOM      3  C   UNL     1     240.091 236.269 237.315  1.00  0.00    -0.000 C 
BRANCH   3   4
ATOM      4  C   UNL     1     240.103 235.566 235.948  1.00  0.00    -0.000 C 
BRANCH   4   5
ATOM      5  C   UNL     1     241.233 236.069 235.030  1.00  0.00    -0.000 C 
BRANCH   5   6
ATOM      6  C   UNL     1     240.726 236.390 233.608  1.00  0.00    -0.000 C 
BRANCH   6   7
ATOM      7  C   UNL     1     239.277 235.941 233.355  1.00  0.00    -0.003 C 
ATOM      8  C   UNL     1     238.290 237.105 233.297  1.00  0.00     0.004 C 
ENDBRANCH   6   7
ENDBRANCH   5   6
ENDBRANCH   4   5
ENDBRANCH   3   4
ENDBRANCH   2   3
ENDBRANCH   1   2
BRANCH   1   9
ATOM      9  C   UNL     1     238.739 239.341 236.271  1.00  0.00     0.000 C 
BRANCH   9  10
ATOM     10  C   UNL     1     239.985 239.634 235.422  1.00  0.00     0.000 C 
BRANCH  10  11
ATOM     11  C   UNL     1     241.255 239.620 236.281  1.00  0.00     0.000 C 
BRANCH  11  12
ATOM     12  C   UNL     1     242.476 240.068 235.464  1.00  0.00     0.002 C 
BRANCH  12  13
ATOM     13  C   UNL     1     242.504 239.453 234.054  1.00  0.00     0.028 C 
BRANCH  13  14
ATOM     14  C   UNL     1     242.858 240.459 232.951  1.00  0.00     0.156 C 
BRANCH  14  15
ATOM     15  O   UNL     1     241.974 241.548 232.958  1.00  0.00    -0.396 OA
ATOM     16  H   UNL     1     242.529 242.365 232.862  1.00  0.00     0.210 HD
ENDBRANCH  14  15
ENDBRANCH  13  14
ENDBRANCH  12  13
ENDBRANCH  11  12
ENDBRANCH  10  11
ENDBRANCH   9  10
ENDBRANCH   1   9
TORSDOF 13
ENDMDL
MODEL 4
REMARK VINA RESULT:    -2.297     10.061     12.477
REMARK INTER + INTRA:          -6.181
REMARK INTER:                  -4.266
REMARK INTRA:                  -1.915
REMARK UNBOUND:                -2.205
REMARK SMILES CCCCCCCCCCCCCCO
REMARK SMILES IDX 8 1 7 2 6 3 5 4 4 5 3 6 2 7 1 8 9 9 10 10 11 11 12 12 13 13
REMARK SMILES IDX 14 14 15 15
REMARK H PARENT 15 16
REMARK Flexibility Score: inf
ROOT
ATOM      1  C   UNL     1     241.442 236.174 235.090  1.00  0.00     0.000 C 
ENDROOT
BRANCH   1   2
ATOM      2  C   UNL     1     240.401 235.409 235.924  1.00  0.00    -0.000 C 
BRANCH   2   3
ATOM      3  C   UNL     1     239.831 236.246 237.081  1.00  0.00    -0.000 C 
BRANCH   3   4
ATOM      4  C   UNL     1     238.327 236.521 236.928  1.00  0.00    -0.000 C 
BRANCH   4   5
ATOM      5  C   UNL     1     238.028 237.951 236.442  1.00  0.00    -0.000 C 
BRANCH   5   6
ATOM      6  C   UNL     1     239.223 238.902 236.665  1.00  0.00    -0.000 C 
BRANCH   6   7
ATOM      7  C   UNL     1     239.703 239.600 235.381  1.00  0.00    -0.003 C 
ATOM      8  C   UNL     1     241.199 239.904 235.388  1.00  0.00     0.004 C 
ENDBRANCH   6   7
ENDBRANCH   5   6
ENDBRANCH   4   5
ENDBRANCH   3   4
ENDBRANCH   2   3
ENDBRANCH   1   2
BRANCH   1   9
ATOM      9  C   UNL     1     241.075 236.290 233.595  1.00  0.00     0.000 C 
BRANCH   9  10
ATOM     10  C   UNL     1     239.561 236.425 233.379  1.00  0.00     0.000 C 
BRANCH  10  11
ATOM     11  C   UNL     1     239.079 235.501 232.253  1.00  0.00     0.000 C 
BRANCH  11  12
ATOM     12  C   UNL     1     237.549 235.360 232.274  1.00  0.00     0.002 C 
BRANCH  12  13
ATOM     13  C   UNL     1     236.984 235.247 233.701  1.00  0.00     0.028 C 
BRANCH  13  14
ATOM     14  C   UNL     1     235.794 236.179 233.966  1.00  0.00     0.156 C 
BRANCH  14  15
ATOM     15  O   UNL     1     234.983 236.300 232.828  1.00  0.00    -0.396 OA
ATOM     16  H   UNL     1     235.511 236.804 232.156  1.00  0.00     0.210 HD
ENDBRANCH  14  15
ENDBRANCH  13  14
ENDBRANCH  12  13
ENDBRANCH  11  12
ENDBRANCH  10  11
ENDBRANCH   9  10
ENDBRANCH   1   9
TORSDOF 13
ENDMDL
MODEL 5
REMARK VINA RESULT:    -2.297      8.736     10.972
REMARK INTER + INTRA:          -6.181
REMARK INTER:                  -4.079
REMARK INTRA:                  -2.102
REMARK UNBOUND:                -2.205
REMARK SMILES CCCCCCCCCCCCCCO
REMARK SMILES IDX 8 1 7 2 6 3 5 4 4 5 3 6 2 7 1 8 9 9 10 10 11 11 12 12 13 13
REMARK SMILES IDX 14 14 15 15
REMARK H PARENT 15 16
REMARK Flexibility Score: inf
ROOT
ATOM      1  C   UNL     1     236.295 225.617 236.971  1.00  0.00     0.000 C 
ENDROOT
BRANCH   1   2
ATOM      2  C   UNL     1     237.593 224.994 237.511  1.00  0.00    -0.000 C 
BRANCH   2   3
ATOM      3  C   UNL     1     238.232 224.000 236.528  1.00  0.00    -0.000 C 
BRANCH   3   4
ATOM      4  C   UNL     1     238.866 224.696 235.313  1.00  0.00    -0.000 C 
BRANCH   4   5
ATOM      5  C   UNL     1     239.992 225.670 235.704  1.00  0.00    -0.000 C 
BRANCH   5   6
ATOM      6  C   UNL     1     239.983 226.947 234.838  1.00  0.00    -0.000 C 
BRANCH   6   7
ATOM      7  C   UNL     1     239.602 228.217 235.618  1.00  0.00    -0.003 C 
ATOM      8  C   UNL     1     239.824 228.084 237.123  1.00  0.00     0.004 C 
ENDBRANCH   6   7
ENDBRANCH   5   6
ENDBRANCH   4   5
ENDBRANCH   3   4
ENDBRANCH   2   3
ENDBRANCH   1   2
BRANCH   1   9
ATOM      9  C   UNL     1     236.201 227.142 237.190  1.00  0.00     0.000 C 
BRANCH   9  10
ATOM     10  C   UNL     1     235.931 227.900 235.881  1.00  0.00     0.000 C 
BRANCH  10  11
ATOM     11  C   UNL     1     236.096 226.979 234.666  1.00  0.00     0.000 C 
BRANCH  11  12
ATOM     12  C   UNL     1     236.458 227.786 233.410  1.00  0.00     0.002 C 
BRANCH  12  13
ATOM     13  C   UNL     1     236.562 229.296 233.685  1.00  0.00     0.028 C 
BRANCH  13  14
ATOM     14  C   UNL     1     235.878 230.164 232.621  1.00  0.00     0.156 C 
BRANCH  14  15
ATOM     15  O   UNL     1     236.691 231.244 232.250  1.00  0.00    -0.396 OA
ATOM     16  H   UNL     1     236.093 231.924 231.843  1.00  0.00     0.210 HD
ENDBRANCH  14  15
ENDBRANCH  13  14
ENDBRANCH  12  13
ENDBRANCH  11  12
ENDBRANCH  10  11
ENDBRANCH   9  10
ENDBRANCH   1   9
TORSDOF 13
ENDMDL
MODEL 6
REMARK VINA RESULT:    -2.257      1.213      3.634
REMARK INTER + INTRA:          -6.111
REMARK INTER:                  -4.262
REMARK INTRA:                  -1.849
REMARK UNBOUND:                -2.205
REMARK SMILES CCCCCCCCCCCCCCO
REMARK SMILES IDX 8 1 7 2 6 3 5 4 4 5 3 6 2 7 1 8 9 9 10 10 11 11 12 12 13 13
REMARK SMILES IDX 14 14 15 15
REMARK H PARENT 15 16
REMARK Flexibility Score: inf
ROOT
ATOM      1  C   UNL     1     228.229 231.649 237.214  1.00  0.00     0.000 C 
ENDROOT
BRANCH   1   2
ATOM      2  C   UNL     1     227.946 232.705 236.133  1.00  0.00    -0.000 C 
BRANCH   2   3
ATOM      3  C   UNL     1     226.853 232.269 235.144  1.00  0.00    -0.000 C 
BRANCH   3   4
ATOM      4  C   UNL     1     227.384 232.105 233.711  1.00  0.00    -0.000 C 
BRANCH   4   5
ATOM      5  C   UNL     1     228.811 232.658 233.536  1.00  0.00    -0.000 C 
BRANCH   5   6
ATOM      6  C   UNL     1     229.849 231.535 233.334  1.00  0.00    -0.000 C 
BRANCH   6   7
ATOM      7  C   UNL     1     231.297 231.979 233.608  1.00  0.00    -0.003 C 
ATOM      8  C   UNL     1     231.407 232.992 234.746  1.00  0.00     0.004 C 
ENDBRANCH   6   7
ENDBRANCH   5   6
ENDBRANCH   4   5
ENDBRANCH   3   4
ENDBRANCH   2   3
ENDBRANCH   1   2
BRANCH   1   9
ATOM      9  C   UNL     1     229.178 230.524 236.749  1.00  0.00     0.000 C 
BRANCH   9  10
ATOM     10  C   UNL     1     228.469 229.164 236.667  1.00  0.00     0.000 C 
BRANCH  10  11
ATOM     11  C   UNL     1     228.148 228.795 235.214  1.00  0.00     0.000 C 
BRANCH  11  12
ATOM     12  C   UNL     1     226.701 228.297 235.081  1.00  0.00     0.002 C 
BRANCH  12  13
ATOM     13  C   UNL     1     225.999 228.844 233.826  1.00  0.00     0.028 C 
BRANCH  13  14
ATOM     14  C   UNL     1     225.679 227.766 232.781  1.00  0.00     0.156 C 
BRANCH  14  15
ATOM     15  O   UNL     1     226.543 226.669 232.905  1.00  0.00    -0.396 OA
ATOM     16  H   UNL     1     227.215 226.913 233.594  1.00  0.00     0.210 HD
ENDBRANCH  14  15
ENDBRANCH  13  14
ENDBRANCH  12  13
ENDBRANCH  11  12
ENDBRANCH  10  11
ENDBRANCH   9  10
ENDBRANCH   1   9
TORSDOF 13
ENDMDL
MODEL 7
REMARK VINA RESULT:    -2.244      8.398     10.314
REMARK INTER + INTRA:          -6.089
REMARK INTER:                  -4.507
REMARK INTRA:                  -1.582
REMARK UNBOUND:                -2.205
REMARK SMILES CCCCCCCCCCCCCCO
REMARK SMILES IDX 8 1 7 2 6 3 5 4 4 5 3 6 2 7 1 8 9 9 10 10 11 11 12 12 13 13
REMARK SMILES IDX 14 14 15 15
REMARK H PARENT 15 16
REMARK Flexibility Score: inf
ROOT
ATOM      1  C   UNL     1     237.599 226.117 235.253  1.00  0.00     0.000 C 
ENDROOT
BRANCH   1   2
ATOM      2  C   UNL     1     238.688 226.312 234.185  1.00  0.00    -0.000 C 
BRANCH   2   3
ATOM      3  C   UNL     1     240.001 226.865 234.764  1.00  0.00    -0.000 C 
BRANCH   3   4
ATOM      4  C   UNL     1     239.780 227.698 236.037  1.00  0.00    -0.000 C 
BRANCH   4   5
ATOM      5  C   UNL     1     239.356 229.148 235.734  1.00  0.00    -0.000 C 
BRANCH   5   6
ATOM      6  C   UNL     1     238.275 229.654 236.712  1.00  0.00    -0.000 C 
BRANCH   6   7
ATOM      7  C   UNL     1     238.150 231.187 236.751  1.00  0.00    -0.003 C 
ATOM      8  C   UNL     1     236.704 231.671 236.666  1.00  0.00     0.004 C 
ENDBRANCH   6   7
ENDBRANCH   5   6
ENDBRANCH   4   5
ENDBRANCH   3   4
ENDBRANCH   2   3
ENDBRANCH   1   2
BRANCH   1   9
ATOM      9  C   UNL     1     236.317 226.935 234.987  1.00  0.00     0.000 C 
BRANCH   9  10
ATOM     10  C   UNL     1     236.423 227.778 233.707  1.00  0.00     0.000 C 
BRANCH  10  11
ATOM     11  C   UNL     1     235.914 229.206 233.943  1.00  0.00     0.000 C 
BRANCH  11  12
ATOM     12  C   UNL     1     236.695 230.215 233.088  1.00  0.00     0.002 C 
BRANCH  12  13
ATOM     13  C   UNL     1     235.787 231.018 232.141  1.00  0.00     0.028 C 
BRANCH  13  14
ATOM     14  C   UNL     1     235.819 232.531 232.393  1.00  0.00     0.156 C 
BRANCH  14  15
ATOM     15  O   UNL     1     236.992 233.104 231.879  1.00  0.00    -0.396 OA
ATOM     16  H   UNL     1     237.749 232.572 232.237  1.00  0.00     0.210 HD
ENDBRANCH  14  15
ENDBRANCH  13  14
ENDBRANCH  12  13
ENDBRANCH  11  12
ENDBRANCH  10  11
ENDBRANCH   9  10
ENDBRANCH   1   9
TORSDOF 13
ENDMDL
MODEL 8
REMARK VINA RESULT:    -2.240      2.247      4.029
REMARK INTER + INTRA:          -6.083
REMARK INTER:                  -4.252
REMARK INTRA:                  -1.831
REMARK UNBOUND:                -2.205
REMARK SMILES CCCCCCCCCCCCCCO
REMARK SMILES IDX 8 1 7 2 6 3 5 4 4 5 3 6 2 7 1 8 9 9 10 10 11 11 12 12 13 13
REMARK SMILES IDX 14 14 15 15
REMARK H PARENT 15 16
REMARK Flexibility Score: inf
ROOT
ATOM      1  C   UNL     1     229.606 232.140 234.696  1.00  0.00     0.000 C 
ENDROOT
BRANCH   1   2
ATOM      2  C   UNL     1     228.736 232.162 233.428  1.00  0.00    -0.000 C 
BRANCH   2   3
ATOM      3  C   UNL     1     227.231 232.115 233.736  1.00  0.00    -0.000 C 
BRANCH   3   4
ATOM      4  C   UNL     1     226.710 230.682 233.923  1.00  0.00    -0.000 C 
BRANCH   4   5
ATOM      5  C   UNL     1     226.104 230.444 235.319  1.00  0.00    -0.000 C 
BRANCH   5   6
ATOM      6  C   UNL     1     226.994 229.533 236.191  1.00  0.00    -0.000 C 
BRANCH   6   7
ATOM      7  C   UNL     1     228.093 228.805 235.398  1.00  0.00    -0.003 C 
ATOM      8  C   UNL     1     229.414 228.706 236.158  1.00  0.00     0.004 C 
ENDBRANCH   6   7
ENDBRANCH   5   6
ENDBRANCH   4   5
ENDBRANCH   3   4
ENDBRANCH   2   3
ENDBRANCH   1   2
BRANCH   1   9
ATOM      9  C   UNL     1     228.966 232.867 235.899  1.00  0.00     0.000 C 
BRANCH   9  10
ATOM     10  C   UNL     1     229.731 232.607 237.206  1.00  0.00     0.000 C 
BRANCH  10  11
ATOM     11  C   UNL     1     228.882 232.987 238.426  1.00  0.00     0.000 C 
BRANCH  11  12
ATOM     12  C   UNL     1     227.482 232.361 238.338  1.00  0.00     0.002 C 
BRANCH  12  13
ATOM     13  C   UNL     1     226.358 233.395 238.521  1.00  0.00     0.028 C 
BRANCH  13  14
ATOM     14  C   UNL     1     224.987 232.905 238.037  1.00  0.00     0.156 C 
BRANCH  14  15
ATOM     15  O   UNL     1     224.591 233.579 236.873  1.00  0.00    -0.396 OA
ATOM     16  H   UNL     1     225.395 233.644 236.295  1.00  0.00     0.210 HD
ENDBRANCH  14  15
ENDBRANCH  13  14
ENDBRANCH  12  13
ENDBRANCH  11  12
ENDBRANCH  10  11
ENDBRANCH   9  10
ENDBRANCH   1   9
TORSDOF 13
ENDMDL
MODEL 9
REMARK VINA RESULT:    -2.240     13.082     15.541
REMARK INTER + INTRA:          -6.081
REMARK INTER:                  -4.158
REMARK INTRA:                  -1.923
REMARK UNBOUND:                -2.205
REMARK SMILES CCCCCCCCCCCCCCO
REMARK SMILES IDX 8 1 7 2 6 3 5 4 4 5 3 6 2 7 1 8 9 9 10 10 11 11 12 12 13 13
REMARK SMILES IDX 14 14 15 15
REMARK H PARENT 15 16
REMARK Flexibility Score: inf
ROOT
ATOM      1  C   UNL     1     238.701 237.845 235.925  1.00  0.00     0.000 C 
ENDROOT
BRANCH   1   2
ATOM      2  C   UNL     1     239.078 237.116 234.624  1.00  0.00    -0.000 C 
BRANCH   2   3
ATOM      3  C   UNL     1     240.074 235.967 234.852  1.00  0.00    -0.000 C 
BRANCH   3   4
ATOM      4  C   UNL     1     241.476 236.284 234.309  1.00  0.00    -0.000 C 
BRANCH   4   5
ATOM      5  C   UNL     1     241.558 237.670 233.642  1.00  0.00    -0.000 C 
BRANCH   5   6
ATOM      6  C   UNL     1     242.698 238.530 234.226  1.00  0.00    -0.000 C 
BRANCH   6   7
ATOM      7  C   UNL     1     242.558 240.030 233.916  1.00  0.00    -0.003 C 
ATOM      8  C   UNL     1     242.970 240.388 232.489  1.00  0.00     0.004 C 
ENDBRANCH   6   7
ENDBRANCH   5   6
ENDBRANCH   4   5
ENDBRANCH   3   4
ENDBRANCH   2   3
ENDBRANCH   1   2
BRANCH   1   9
ATOM      9  C   UNL     1     239.303 239.263 236.038  1.00  0.00     0.000 C 
BRANCH   9  10
ATOM     10  C   UNL     1     240.503 239.308 236.995  1.00  0.00     0.000 C 
BRANCH  10  11
ATOM     11  C   UNL     1     240.545 238.061 237.887  1.00  0.00     0.000 C 
BRANCH  11  12
ATOM     12  C   UNL     1     241.911 237.365 237.796  1.00  0.00     0.002 C 
BRANCH  12  13
ATOM     13  C   UNL     1     241.857 235.891 238.232  1.00  0.00     0.028 C 
BRANCH  13  14
ATOM     14  C   UNL     1     243.210 235.173 238.145  1.00  0.00     0.156 C 
BRANCH  14  15
ATOM     15  O   UNL     1     243.796 235.352 236.883  1.00  0.00    -0.396 OA
ATOM     16  H   UNL     1     243.712 236.316 236.665  1.00  0.00     0.210 HD
ENDBRANCH  14  15
ENDBRANCH  13  14
ENDBRANCH  12  13
ENDBRANCH  11  12
ENDBRANCH  10  11
ENDBRANCH   9  10
ENDBRANCH   1   9
TORSDOF 13
ENDMDL
