MODEL 1
REMARK VINA RESULT:    -5.010      0.000      0.000
REMARK INTER + INTRA:          -9.614
REMARK INTER:                  -7.646
REMARK INTRA:                  -1.967
REMARK UNBOUND:                -1.967
REMARK SMILES OC[C@H]1O[C@@H](O[C@@]2(CO)O[C@H](CO)[C@@H](O)[C@@H]2O)[C@@H](O)[C@@H](O)[C@H]1O
REMARK SMILES IDX 6 1 5 2 3 3 22 4 4 5 20 6 18 7 2 8 1 9 23 11 21 13 19 15
REMARK SMILES IDX 7 17 16 18 10 19 14 20 11 21 8 22 9 23 17 25 15 27 12 29
REMARK SMILES IDX 13 30
REMARK H PARENT 1 10 23 12 21 14 19 16 9 24 17 26 15 28 13 31
REMARK Flexibility Score: inf
ROOT
ATOM      1  O   UNL     1       5.488  10.282  59.930  1.00  0.00    -0.313 OA
ENDROOT
BRANCH   1   2
ATOM      2  C   UNL     1       5.559   9.669  61.212  1.00  0.00     0.285 C 
ATOM      3  C   UNL     1       7.799   8.866  60.961  1.00  0.00     0.178 C 
ATOM      4  C   UNL     1       7.306   7.399  60.823  1.00  0.00     0.177 C 
ATOM      5  O   UNL     1       6.895   9.682  61.700  1.00  0.00    -0.341 OA
ATOM      6  C   UNL     1       5.860   7.315  60.316  1.00  0.00     0.179 C 
ATOM      7  C   UNL     1       4.976   8.239  61.158  1.00  0.00     0.202 C 
BRANCH   3   8
ATOM      8  C   UNL     1       8.251   9.542  59.644  1.00  0.00     0.191 C 
BRANCH   8   9
ATOM      9  O   UNL     1       8.596  10.883  59.873  1.00  0.00    -0.394 OA
ATOM     10  H   UNL     1       7.762  11.366  60.114  1.00  0.00     0.210 HD
ENDBRANCH   8   9
ENDBRANCH   3   8
BRANCH   4  11
ATOM     11  O   UNL     1       8.152   6.648  59.991  1.00  0.00    -0.387 OA
ATOM     12  H   UNL     1       7.570   6.190  59.328  1.00  0.00     0.211 HD
ENDBRANCH   4  11
BRANCH   6  13
ATOM     13  O   UNL     1       5.772   7.665  58.958  1.00  0.00    -0.387 OA
ATOM     14  H   UNL     1       5.562   8.635  58.919  1.00  0.00     0.211 HD
ENDBRANCH   6  13
BRANCH   7  15
ATOM     15  O   UNL     1       3.675   8.256  60.629  1.00  0.00    -0.385 OA
ATOM     16  H   UNL     1       3.715   8.779  59.785  1.00  0.00     0.211 HD
ENDBRANCH   7  15
ENDBRANCH   1   2
BRANCH   1  17
ATOM     17  C   UNL     1       4.540  11.338  59.817  1.00  0.00     0.224 C 
ATOM     18  C   UNL     1       4.126  11.854  61.221  1.00  0.00     0.208 C 
ATOM     19  O   UNL     1       3.386  10.906  59.113  1.00  0.00    -0.337 OA
ATOM     20  C   UNL     1       2.636  11.598  61.291  1.00  0.00     0.180 C 
ATOM     21  C   UNL     1       2.240  11.279  59.845  1.00  0.00     0.179 C 
BRANCH  17  22
ATOM     22  C   UNL     1       5.221  12.433  58.965  1.00  0.00     0.225 C 
BRANCH  22  23
ATOM     23  O   UNL     1       6.405  12.869  59.577  1.00  0.00    -0.391 OA
ATOM     24  H   UNL     1       6.409  13.861  59.518  1.00  0.00     0.210 HD
ENDBRANCH  22  23
ENDBRANCH  17  22
BRANCH  18  25
ATOM     25  O   UNL     1       4.388  13.227  61.382  1.00  0.00    -0.385 OA
ATOM     26  H   UNL     1       4.684  13.354  62.321  1.00  0.00     0.211 HD
ENDBRANCH  18  25
BRANCH  20  27
ATOM     27  O   UNL     1       2.381  10.497  62.125  1.00  0.00    -0.387 OA
ATOM     28  H   UNL     1       1.455  10.200  61.929  1.00  0.00     0.211 HD
ENDBRANCH  20  27
BRANCH  21  29
ATOM     29  C   UNL     1       1.555  12.466  59.154  1.00  0.00     0.191 C 
BRANCH  29  30
ATOM     30  O   UNL     1       1.771  12.402  57.770  1.00  0.00    -0.394 OA
ATOM     31  H   UNL     1       1.907  13.337  57.470  1.00  0.00     0.210 HD
ENDBRANCH  29  30
ENDBRANCH  21  29
ENDBRANCH   1  17
TORSDOF 13
ENDMDL
MODEL 2
REMARK VINA RESULT:    -4.946      0.779      2.496
REMARK INTER + INTRA:          -9.515
REMARK INTER:                  -7.834
REMARK INTRA:                  -1.681
REMARK UNBOUND:                -1.967
REMARK SMILES OC[C@H]1O[C@@H](O[C@@]2(CO)O[C@H](CO)[C@@H](O)[C@@H]2O)[C@@H](O)[C@@H](O)[C@H]1O
REMARK SMILES IDX 6 1 5 2 3 3 22 4 4 5 20 6 18 7 2 8 1 9 23 11 21 13 19 15
REMARK SMILES IDX 7 17 16 18 10 19 14 20 11 21 8 22 9 23 17 25 15 27 12 29
REMARK SMILES IDX 13 30
REMARK H PARENT 1 10 23 12 21 14 19 16 9 24 17 26 15 28 13 31
REMARK Flexibility Score: inf
ROOT
ATOM      1  O   UNL     1       5.824  10.553  60.352  1.00  0.00    -0.313 OA
ENDROOT
BRANCH   1   2
ATOM      2  C   UNL     1       6.469   9.947  59.238  1.00  0.00     0.285 C 
ATOM      3  C   UNL     1       6.008   7.695  59.903  1.00  0.00     0.178 C 
ATOM      4  C   UNL     1       7.495   7.453  60.281  1.00  0.00     0.177 C 
ATOM      5  O   UNL     1       5.849   8.708  58.914  1.00  0.00    -0.341 OA
ATOM      6  C   UNL     1       8.229   8.757  60.625  1.00  0.00     0.179 C 
ATOM      7  C   UNL     1       7.980   9.783  59.516  1.00  0.00     0.202 C 
BRANCH   3   8
ATOM      8  C   UNL     1       5.043   7.890  61.097  1.00  0.00     0.191 C 
BRANCH   8   9
ATOM      9  O   UNL     1       3.747   8.177  60.640  1.00  0.00    -0.394 OA
ATOM     10  H   UNL     1       3.276   8.658  61.371  1.00  0.00     0.210 HD
ENDBRANCH   8   9
ENDBRANCH   3   8
BRANCH   4  11
ATOM     11  O   UNL     1       7.616   6.539  61.340  1.00  0.00    -0.387 OA
ATOM     12  H   UNL     1       7.195   5.692  61.036  1.00  0.00     0.211 HD
ENDBRANCH   4  11
BRANCH   6  13
ATOM     13  O   UNL     1       7.808   9.270  61.864  1.00  0.00    -0.387 OA
ATOM     14  H   UNL     1       7.459  10.184  61.698  1.00  0.00     0.211 HD
ENDBRANCH   6  13
BRANCH   7  15
ATOM     15  O   UNL     1       8.552  11.014  59.878  1.00  0.00    -0.385 OA
ATOM     16  H   UNL     1       9.538  10.899  59.822  1.00  0.00     0.211 HD
ENDBRANCH   7  15
ENDBRANCH   1   2
BRANCH   1  17
ATOM     17  C   UNL     1       4.790  11.475  60.021  1.00  0.00     0.224 C 
ATOM     18  C   UNL     1       4.132  12.043  61.308  1.00  0.00     0.208 C 
ATOM     19  O   UNL     1       3.799  10.855  59.217  1.00  0.00    -0.337 OA
ATOM     20  C   UNL     1       2.683  11.615  61.209  1.00  0.00     0.180 C 
ATOM     21  C   UNL     1       2.529  11.142  59.759  1.00  0.00     0.179 C 
BRANCH  17  22
ATOM     22  C   UNL     1       5.458  12.577  59.168  1.00  0.00     0.225 C 
BRANCH  22  23
ATOM     23  O   UNL     1       6.467  13.223  59.898  1.00  0.00    -0.391 OA
ATOM     24  H   UNL     1       6.050  13.545  60.740  1.00  0.00     0.210 HD
ENDBRANCH  22  23
ENDBRANCH  17  22
BRANCH  18  25
ATOM     25  O   UNL     1       4.218  13.446  61.375  1.00  0.00    -0.385 OA
ATOM     26  H   UNL     1       3.514  13.746  62.007  1.00  0.00     0.211 HD
ENDBRANCH  18  25
BRANCH  20  27
ATOM     27  O   UNL     1       2.438  10.558  62.100  1.00  0.00    -0.387 OA
ATOM     28  H   UNL     1       2.660   9.721  61.615  1.00  0.00     0.211 HD
ENDBRANCH  20  27
BRANCH  21  29
ATOM     29  C   UNL     1       1.820  12.181  58.880  1.00  0.00     0.191 C 
BRANCH  29  30
ATOM     30  O   UNL     1       2.280  13.467  59.196  1.00  0.00    -0.394 OA
ATOM     31  H   UNL     1       2.884  13.359  59.975  1.00  0.00     0.210 HD
ENDBRANCH  29  30
ENDBRANCH  21  29
ENDBRANCH   1  17
TORSDOF 13
ENDMDL
MODEL 3
REMARK VINA RESULT:    -4.809      1.622      5.630
REMARK INTER + INTRA:          -9.306
REMARK INTER:                  -7.520
REMARK INTRA:                  -1.786
REMARK UNBOUND:                -1.967
REMARK SMILES OC[C@H]1O[C@@H](O[C@@]2(CO)O[C@H](CO)[C@@H](O)[C@@H]2O)[C@@H](O)[C@@H](O)[C@H]1O
REMARK SMILES IDX 6 1 5 2 3 3 22 4 4 5 20 6 18 7 2 8 1 9 23 11 21 13 19 15
REMARK SMILES IDX 7 17 16 18 10 19 14 20 11 21 8 22 9 23 17 25 15 27 12 29
REMARK SMILES IDX 13 30
REMARK H PARENT 1 10 23 12 21 14 19 16 9 24 17 26 15 28 13 31
REMARK Flexibility Score: inf
ROOT
ATOM      1  O   UNL     1       5.642  10.456  59.966  1.00  0.00    -0.313 OA
ENDROOT
BRANCH   1   2
ATOM      2  C   UNL     1       5.050  10.285  58.683  1.00  0.00     0.285 C 
ATOM      3  C   UNL     1       4.725  12.619  58.267  1.00  0.00     0.178 C 
ATOM      4  C   UNL     1       3.189  12.486  58.457  1.00  0.00     0.177 C 
ATOM      5  O   UNL     1       5.335  11.401  57.848  1.00  0.00    -0.341 OA
ATOM      6  C   UNL     1       2.813  11.285  59.337  1.00  0.00     0.179 C 
ATOM      7  C   UNL     1       3.532  10.036  58.820  1.00  0.00     0.202 C 
BRANCH   3   8
ATOM      8  C   UNL     1       5.486  13.278  59.443  1.00  0.00     0.191 C 
BRANCH   8   9
ATOM      9  O   UNL     1       5.540  14.671  59.274  1.00  0.00    -0.394 OA
ATOM     10  H   UNL     1       5.381  14.858  58.311  1.00  0.00     0.210 HD
ENDBRANCH   8   9
ENDBRANCH   3   8
BRANCH   4  11
ATOM     11  O   UNL     1       2.632  13.662  58.984  1.00  0.00    -0.387 OA
ATOM     12  H   UNL     1       1.924  13.383  59.623  1.00  0.00     0.211 HD
ENDBRANCH   4  11
BRANCH   6  13
ATOM     13  O   UNL     1       3.144  11.513  60.683  1.00  0.00    -0.387 OA
ATOM     14  H   UNL     1       4.135  11.544  60.738  1.00  0.00     0.211 HD
ENDBRANCH   6  13
BRANCH   7  15
ATOM     15  O   UNL     1       3.284   8.959  59.686  1.00  0.00    -0.385 OA
ATOM     16  H   UNL     1       2.321   8.731  59.592  1.00  0.00     0.211 HD
ENDBRANCH   7  15
ENDBRANCH   1   2
BRANCH   1  17
ATOM     17  C   UNL     1       6.563   9.439  60.347  1.00  0.00     0.224 C 
ATOM     18  C   UNL     1       8.021   9.967  60.274  1.00  0.00     0.208 C 
ATOM     19  O   UNL     1       6.430   8.300  59.512  1.00  0.00    -0.337 OA
ATOM     20  C   UNL     1       8.693   9.075  59.251  1.00  0.00     0.180 C 
ATOM     21  C   UNL     1       7.709   7.915  59.060  1.00  0.00     0.179 C 
BRANCH  17  22
ATOM     22  C   UNL     1       6.162   9.015  61.778  1.00  0.00     0.225 C 
BRANCH  22  23
ATOM     23  O   UNL     1       4.850   9.419  62.063  1.00  0.00    -0.391 OA
ATOM     24  H   UNL     1       4.335   9.338  61.217  1.00  0.00     0.210 HD
ENDBRANCH  22  23
ENDBRANCH  17  22
BRANCH  18  25
ATOM     25  O   UNL     1       8.686   9.869  61.510  1.00  0.00    -0.385 OA
ATOM     26  H   UNL     1       8.955   8.919  61.616  1.00  0.00     0.211 HD
ENDBRANCH  18  25
BRANCH  20  27
ATOM     27  O   UNL     1       8.863   9.778  58.047  1.00  0.00    -0.387 OA
ATOM     28  H   UNL     1       8.472   9.213  57.330  1.00  0.00     0.211 HD
ENDBRANCH  20  27
BRANCH  21  29
ATOM     29  C   UNL     1       8.153   6.647  59.803  1.00  0.00     0.191 C 
BRANCH  29  30
ATOM     30  O   UNL     1       9.121   6.971  60.764  1.00  0.00    -0.394 OA
ATOM     31  H   UNL     1       8.681   6.857  61.646  1.00  0.00     0.210 HD
ENDBRANCH  29  30
ENDBRANCH  21  29
ENDBRANCH   1  17
TORSDOF 13
ENDMDL
MODEL 4
REMARK VINA RESULT:    -4.792      1.644      5.783
REMARK INTER + INTRA:          -9.280
REMARK INTER:                  -7.509
REMARK INTRA:                  -1.771
REMARK UNBOUND:                -1.967
REMARK SMILES OC[C@H]1O[C@@H](O[C@@]2(CO)O[C@H](CO)[C@@H](O)[C@@H]2O)[C@@H](O)[C@@H](O)[C@H]1O
REMARK SMILES IDX 6 1 5 2 3 3 22 4 4 5 20 6 18 7 2 8 1 9 23 11 21 13 19 15
REMARK SMILES IDX 7 17 16 18 10 19 14 20 11 21 8 22 9 23 17 25 15 27 12 29
REMARK SMILES IDX 13 30
REMARK H PARENT 1 10 23 12 21 14 19 16 9 24 17 26 15 28 13 31
REMARK Flexibility Score: inf
ROOT
ATOM      1  O   UNL     1       5.716  10.300  60.246  1.00  0.00    -0.313 OA
ENDROOT
BRANCH   1   2
ATOM      2  C   UNL     1       6.142  11.448  59.523  1.00  0.00     0.285 C 
ATOM      3  C   UNL     1       4.472  12.913  60.410  1.00  0.00     0.178 C 
ATOM      4  C   UNL     1       3.711  12.940  59.056  1.00  0.00     0.177 C 
ATOM      5  O   UNL     1       5.860  12.634  60.255  1.00  0.00    -0.341 OA
ATOM      6  C   UNL     1       3.988  11.692  58.206  1.00  0.00     0.179 C 
ATOM      7  C   UNL     1       5.500  11.468  58.118  1.00  0.00     0.202 C 
BRANCH   3   8
ATOM      8  C   UNL     1       3.824  12.049  61.519  1.00  0.00     0.191 C 
BRANCH   8   9
ATOM      9  O   UNL     1       2.763  12.742  62.125  1.00  0.00    -0.394 OA
ATOM     10  H   UNL     1       2.665  13.607  61.647  1.00  0.00     0.210 HD
ENDBRANCH   8   9
ENDBRANCH   3   8
BRANCH   4  11
ATOM     11  O   UNL     1       2.329  13.097  59.245  1.00  0.00    -0.387 OA
ATOM     12  H   UNL     1       2.178  14.051  59.480  1.00  0.00     0.211 HD
ENDBRANCH   4  11
BRANCH   6  13
ATOM     13  O   UNL     1       3.360  10.557  58.745  1.00  0.00    -0.387 OA
ATOM     14  H   UNL     1       3.067  10.794  59.664  1.00  0.00     0.211 HD
ENDBRANCH   6  13
BRANCH   7  15
ATOM     15  O   UNL     1       5.758  10.265  57.439  1.00  0.00    -0.385 OA
ATOM     16  H   UNL     1       6.458  10.462  56.761  1.00  0.00     0.211 HD
ENDBRANCH   7  15
ENDBRANCH   1   2
BRANCH   1  17
ATOM     17  C   UNL     1       6.741   9.355  60.538  1.00  0.00     0.224 C 
ATOM     18  C   UNL     1       8.142   9.981  60.311  1.00  0.00     0.208 C 
ATOM     19  O   UNL     1       6.603   8.197  59.730  1.00  0.00    -0.337 OA
ATOM     20  C   UNL     1       8.767   9.123  59.231  1.00  0.00     0.180 C 
ATOM     21  C   UNL     1       7.854   7.895  59.151  1.00  0.00     0.179 C 
BRANCH  17  22
ATOM     22  C   UNL     1       6.519   8.925  62.006  1.00  0.00     0.225 C 
BRANCH  22  23
ATOM     23  O   UNL     1       5.812   7.716  62.065  1.00  0.00    -0.391 OA
ATOM     24  H   UNL     1       6.367   7.036  61.600  1.00  0.00     0.210 HD
ENDBRANCH  22  23
ENDBRANCH  17  22
BRANCH  18  25
ATOM     25  O   UNL     1       8.935   9.948  61.473  1.00  0.00    -0.385 OA
ATOM     26  H   UNL     1       8.807  10.818  61.933  1.00  0.00     0.211 HD
ENDBRANCH  18  25
BRANCH  20  27
ATOM     27  O   UNL     1       8.764   9.818  58.011  1.00  0.00    -0.387 OA
ATOM     28  H   UNL     1       7.871  10.246  57.930  1.00  0.00     0.211 HD
ENDBRANCH  20  27
BRANCH  21  29
ATOM     29  C   UNL     1       8.460   6.672  59.854  1.00  0.00     0.191 C 
BRANCH  29  30
ATOM     30  O   UNL     1       7.440   5.877  60.393  1.00  0.00    -0.394 OA
ATOM     31  H   UNL     1       7.327   6.174  61.333  1.00  0.00     0.210 HD
ENDBRANCH  29  30
ENDBRANCH  21  29
ENDBRANCH   1  17
TORSDOF 13
ENDMDL
MODEL 5
REMARK VINA RESULT:    -4.638      2.808      5.529
REMARK INTER + INTRA:          -9.046
REMARK INTER:                  -7.423
REMARK INTRA:                  -1.623
REMARK UNBOUND:                -1.967
REMARK SMILES OC[C@H]1O[C@@H](O[C@@]2(CO)O[C@H](CO)[C@@H](O)[C@@H]2O)[C@@H](O)[C@@H](O)[C@H]1O
REMARK SMILES IDX 6 1 5 2 3 3 22 4 4 5 20 6 18 7 2 8 1 9 23 11 21 13 19 15
REMARK SMILES IDX 7 17 16 18 10 19 14 20 11 21 8 22 9 23 17 25 15 27 12 29
REMARK SMILES IDX 13 30
REMARK H PARENT 1 10 23 12 21 14 19 16 9 24 17 26 15 28 13 31
REMARK Flexibility Score: inf
ROOT
ATOM      1  O   UNL     1       4.531  11.172  58.132  1.00  0.00    -0.313 OA
ENDROOT
BRANCH   1   2
ATOM      2  C   UNL     1       5.576  11.451  59.056  1.00  0.00     0.285 C 
ATOM      3  C   UNL     1       4.294  10.945  61.013  1.00  0.00     0.178 C 
ATOM      4  C   UNL     1       4.208  12.447  61.400  1.00  0.00     0.177 C 
ATOM      5  O   UNL     1       5.441  10.646  60.222  1.00  0.00    -0.341 OA
ATOM      6  C   UNL     1       4.365  13.373  60.185  1.00  0.00     0.179 C 
ATOM      7  C   UNL     1       5.609  12.958  59.393  1.00  0.00     0.202 C 
BRANCH   3   8
ATOM      8  C   UNL     1       3.002  10.337  60.417  1.00  0.00     0.191 C 
BRANCH   8   9
ATOM      9  O   UNL     1       3.229   9.018  59.992  1.00  0.00    -0.394 OA
ATOM     10  H   UNL     1       4.205   8.849  60.067  1.00  0.00     0.210 HD
ENDBRANCH   8   9
ENDBRANCH   3   8
BRANCH   4  11
ATOM     11  O   UNL     1       3.011  12.737  62.074  1.00  0.00    -0.387 OA
ATOM     12  H   UNL     1       2.283  12.279  61.576  1.00  0.00     0.211 HD
ENDBRANCH   4  11
BRANCH   6  13
ATOM     13  O   UNL     1       3.229  13.332  59.360  1.00  0.00    -0.387 OA
ATOM     14  H   UNL     1       2.435  13.371  59.955  1.00  0.00     0.211 HD
ENDBRANCH   6  13
BRANCH   7  15
ATOM     15  O   UNL     1       5.695  13.725  58.220  1.00  0.00    -0.385 OA
ATOM     16  H   UNL     1       4.782  13.756  57.829  1.00  0.00     0.211 HD
ENDBRANCH   7  15
ENDBRANCH   1   2
BRANCH   1  17
ATOM     17  C   UNL     1       4.957  10.637  56.883  1.00  0.00     0.224 C 
ATOM     18  C   UNL     1       4.349   9.227  56.656  1.00  0.00     0.208 C 
ATOM     19  O   UNL     1       6.372  10.557  56.824  1.00  0.00    -0.337 OA
ATOM     20  C   UNL     1       5.551   8.313  56.548  1.00  0.00     0.180 C 
ATOM     21  C   UNL     1       6.737   9.269  56.381  1.00  0.00     0.179 C 
BRANCH  17  22
ATOM     22  C   UNL     1       4.504  11.651  55.808  1.00  0.00     0.225 C 
BRANCH  22  23
ATOM     23  O   UNL     1       5.586  12.436  55.384  1.00  0.00    -0.391 OA
ATOM     24  H   UNL     1       5.602  12.389  54.391  1.00  0.00     0.210 HD
ENDBRANCH  22  23
ENDBRANCH  17  22
BRANCH  18  25
ATOM     25  O   UNL     1       3.584   9.160  55.478  1.00  0.00    -0.385 OA
ATOM     26  H   UNL     1       3.785   8.284  55.055  1.00  0.00     0.211 HD
ENDBRANCH  18  25
BRANCH  20  27
ATOM     27  O   UNL     1       5.686   7.563  57.728  1.00  0.00    -0.387 OA
ATOM     28  H   UNL     1       4.812   7.609  58.195  1.00  0.00     0.211 HD
ENDBRANCH  20  27
BRANCH  21  29
ATOM     29  C   UNL     1       7.222   9.347  54.927  1.00  0.00     0.191 C 
BRANCH  29  30
ATOM     30  O   UNL     1       7.980  10.511  54.738  1.00  0.00    -0.394 OA
ATOM     31  H   UNL     1       7.869  10.760  53.784  1.00  0.00     0.210 HD
ENDBRANCH  29  30
ENDBRANCH  21  29
ENDBRANCH   1  17
TORSDOF 13
ENDMDL
MODEL 6
REMARK VINA RESULT:    -4.577      2.732      5.624
REMARK INTER + INTRA:          -8.953
REMARK INTER:                  -7.085
REMARK INTRA:                  -1.868
REMARK UNBOUND:                -1.967
REMARK SMILES OC[C@H]1O[C@@H](O[C@@]2(CO)O[C@H](CO)[C@@H](O)[C@@H]2O)[C@@H](O)[C@@H](O)[C@H]1O
REMARK SMILES IDX 6 1 5 2 3 3 22 4 4 5 20 6 18 7 2 8 1 9 23 11 21 13 19 15
REMARK SMILES IDX 7 17 16 18 10 19 14 20 11 21 8 22 9 23 17 25 15 27 12 29
REMARK SMILES IDX 13 30
REMARK H PARENT 1 10 23 12 21 14 19 16 9 24 17 26 15 28 13 31
REMARK Flexibility Score: inf
ROOT
ATOM      1  O   UNL     1       5.109   9.924  58.613  1.00  0.00    -0.313 OA
ENDROOT
BRANCH   1   2
ATOM      2  C   UNL     1       5.606  11.236  58.849  1.00  0.00     0.285 C 
ATOM      3  C   UNL     1       4.662  11.449  61.038  1.00  0.00     0.178 C 
ATOM      4  C   UNL     1       3.603  12.465  60.532  1.00  0.00     0.177 C 
ATOM      5  O   UNL     1       5.841  11.439  60.238  1.00  0.00    -0.341 OA
ATOM      6  C   UNL     1       3.315  12.311  59.032  1.00  0.00     0.179 C 
ATOM      7  C   UNL     1       4.641  12.291  58.265  1.00  0.00     0.202 C 
BRANCH   3   8
ATOM      8  C   UNL     1       4.134  10.021  61.315  1.00  0.00     0.191 C 
BRANCH   8   9
ATOM      9  O   UNL     1       5.037   9.310  62.122  1.00  0.00    -0.394 OA
ATOM     10  H   UNL     1       4.621   9.218  63.019  1.00  0.00     0.210 HD
ENDBRANCH   8   9
ENDBRANCH   3   8
BRANCH   4  11
ATOM     11  O   UNL     1       2.408  12.370  61.263  1.00  0.00    -0.387 OA
ATOM     12  H   UNL     1       2.063  11.447  61.130  1.00  0.00     0.211 HD
ENDBRANCH   4  11
BRANCH   6  13
ATOM     13  O   UNL     1       2.585  11.140  58.769  1.00  0.00    -0.387 OA
ATOM     14  H   UNL     1       2.907  10.447  59.402  1.00  0.00     0.211 HD
ENDBRANCH   6  13
BRANCH   7  15
ATOM     15  O   UNL     1       4.393  12.035  56.906  1.00  0.00    -0.385 OA
ATOM     16  H   UNL     1       4.249  12.917  56.470  1.00  0.00     0.211 HD
ENDBRANCH   7  15
ENDBRANCH   1   2
BRANCH   1  17
ATOM     17  C   UNL     1       5.981   9.071  57.879  1.00  0.00     0.224 C 
ATOM     18  C   UNL     1       7.203   9.866  57.346  1.00  0.00     0.208 C 
ATOM     19  O   UNL     1       5.299   8.467  56.792  1.00  0.00    -0.337 OA
ATOM     20  C   UNL     1       7.109   9.734  55.840  1.00  0.00     0.180 C 
ATOM     21  C   UNL     1       6.074   8.625  55.624  1.00  0.00     0.179 C 
BRANCH  17  22
ATOM     22  C   UNL     1       6.394   7.944  58.853  1.00  0.00     0.225 C 
BRANCH  22  23
ATOM     23  O   UNL     1       6.933   8.482  60.030  1.00  0.00    -0.391 OA
ATOM     24  H   UNL     1       6.259   9.116  60.391  1.00  0.00     0.210 HD
ENDBRANCH  22  23
ENDBRANCH  17  22
BRANCH  18  25
ATOM     25  O   UNL     1       8.424   9.337  57.802  1.00  0.00    -0.385 OA
ATOM     26  H   UNL     1       8.935   9.060  56.997  1.00  0.00     0.211 HD
ENDBRANCH  18  25
BRANCH  20  27
ATOM     27  O   UNL     1       6.659  10.942  55.284  1.00  0.00    -0.387 OA
ATOM     28  H   UNL     1       6.362  11.511  56.042  1.00  0.00     0.211 HD
ENDBRANCH  20  27
BRANCH  21  29
ATOM     29  C   UNL     1       6.725   7.284  55.257  1.00  0.00     0.191 C 
BRANCH  29  30
ATOM     30  O   UNL     1       7.941   7.509  54.599  1.00  0.00    -0.394 OA
ATOM     31  H   UNL     1       8.297   6.612  54.366  1.00  0.00     0.210 HD
ENDBRANCH  29  30
ENDBRANCH  21  29
ENDBRANCH   1  17
TORSDOF 13
ENDMDL
MODEL 7
REMARK VINA RESULT:    -4.551      1.714      2.714
REMARK INTER + INTRA:          -8.913
REMARK INTER:                  -6.944
REMARK INTRA:                  -1.969
REMARK UNBOUND:                -1.967
REMARK SMILES OC[C@H]1O[C@@H](O[C@@]2(CO)O[C@H](CO)[C@@H](O)[C@@H]2O)[C@@H](O)[C@@H](O)[C@H]1O
REMARK SMILES IDX 6 1 5 2 3 3 22 4 4 5 20 6 18 7 2 8 1 9 23 11 21 13 19 15
REMARK SMILES IDX 7 17 16 18 10 19 14 20 11 21 8 22 9 23 17 25 15 27 12 29
REMARK SMILES IDX 13 30
REMARK H PARENT 1 10 23 12 21 14 19 16 9 24 17 26 15 28 13 31
REMARK Flexibility Score: inf
ROOT
ATOM      1  O   UNL     1       5.984  10.540  58.815  1.00  0.00    -0.313 OA
ENDROOT
BRANCH   1   2
ATOM      2  C   UNL     1       5.987   9.194  58.356  1.00  0.00     0.285 C 
ATOM      3  C   UNL     1       6.723   8.247  60.427  1.00  0.00     0.178 C 
ATOM      4  C   UNL     1       8.128   7.940  59.840  1.00  0.00     0.177 C 
ATOM      5  O   UNL     1       5.709   8.300  59.427  1.00  0.00    -0.341 OA
ATOM      6  C   UNL     1       8.483   8.861  58.664  1.00  0.00     0.179 C 
ATOM      7  C   UNL     1       7.326   8.865  57.660  1.00  0.00     0.202 C 
BRANCH   3   8
ATOM      8  C   UNL     1       6.655   9.457  61.390  1.00  0.00     0.191 C 
BRANCH   8   9
ATOM      9  O   UNL     1       5.324   9.730  61.744  1.00  0.00    -0.394 OA
ATOM     10  H   UNL     1       5.144  10.677  61.504  1.00  0.00     0.210 HD
ENDBRANCH   8   9
ENDBRANCH   3   8
BRANCH   4  11
ATOM     11  O   UNL     1       9.125   8.013  60.826  1.00  0.00    -0.387 OA
ATOM     12  H   UNL     1       9.523   8.921  60.765  1.00  0.00     0.211 HD
ENDBRANCH   4  11
BRANCH   6  13
ATOM     13  O   UNL     1       8.750  10.170  59.101  1.00  0.00    -0.387 OA
ATOM     14  H   UNL     1       9.568  10.128  59.661  1.00  0.00     0.211 HD
ENDBRANCH   6  13
BRANCH   7  15
ATOM     15  O   UNL     1       7.593   9.792  56.639  1.00  0.00    -0.385 OA
ATOM     16  H   UNL     1       7.797   9.267  55.820  1.00  0.00     0.211 HD
ENDBRANCH   7  15
ENDBRANCH   1   2
BRANCH   1  17
ATOM     17  C   UNL     1       4.761  11.243  58.617  1.00  0.00     0.224 C 
ATOM     18  C   UNL     1       4.803  12.623  59.326  1.00  0.00     0.208 C 
ATOM     19  O   UNL     1       3.663  10.492  59.108  1.00  0.00    -0.337 OA
ATOM     20  C   UNL     1       3.675  12.562  60.334  1.00  0.00     0.180 C 
ATOM     21  C   UNL     1       2.867  11.326  59.921  1.00  0.00     0.179 C 
BRANCH  17  22
ATOM     22  C   UNL     1       4.587  11.374  57.087  1.00  0.00     0.225 C 
BRANCH  22  23
ATOM     23  O   UNL     1       5.658  12.085  56.527  1.00  0.00    -0.391 OA
ATOM     24  H   UNL     1       5.784  11.736  55.606  1.00  0.00     0.210 HD
ENDBRANCH  22  23
ENDBRANCH  17  22
BRANCH  18  25
ATOM     25  O   UNL     1       4.592  13.688  58.431  1.00  0.00    -0.385 OA
ATOM     26  H   UNL     1       4.016  13.341  57.702  1.00  0.00     0.211 HD
ENDBRANCH  18  25
BRANCH  20  27
ATOM     27  O   UNL     1       4.201  12.395  61.626  1.00  0.00    -0.387 OA
ATOM     28  H   UNL     1       3.733  11.615  62.025  1.00  0.00     0.211 HD
ENDBRANCH  20  27
BRANCH  21  29
ATOM     29  C   UNL     1       1.581  11.697  59.169  1.00  0.00     0.191 C 
BRANCH  29  30
ATOM     30  O   UNL     1       1.626  13.042  58.780  1.00  0.00    -0.394 OA
ATOM     31  H   UNL     1       1.993  13.540  59.556  1.00  0.00     0.210 HD
ENDBRANCH  29  30
ENDBRANCH  21  29
ENDBRANCH   1  17
TORSDOF 13
ENDMDL
MODEL 8
REMARK VINA RESULT:    -4.527      2.958      4.534
REMARK INTER + INTRA:          -8.876
REMARK INTER:                  -6.956
REMARK INTRA:                  -1.920
REMARK UNBOUND:                -1.967
REMARK SMILES OC[C@H]1O[C@@H](O[C@@]2(CO)O[C@H](CO)[C@@H](O)[C@@H]2O)[C@@H](O)[C@@H](O)[C@H]1O
REMARK SMILES IDX 6 1 5 2 3 3 22 4 4 5 20 6 18 7 2 8 1 9 23 11 21 13 19 15
REMARK SMILES IDX 7 17 16 18 10 19 14 20 11 21 8 22 9 23 17 25 15 27 12 29
REMARK SMILES IDX 13 30
REMARK H PARENT 1 10 23 12 21 14 19 16 9 24 17 26 15 28 13 31
REMARK Flexibility Score: inf
ROOT
ATOM      1  O   UNL     1       3.942  11.284  57.079  1.00  0.00    -0.313 OA
ENDROOT
BRANCH   1   2
ATOM      2  C   UNL     1       3.901  10.140  56.235  1.00  0.00     0.285 C 
ATOM      3  C   UNL     1       6.191   9.528  56.564  1.00  0.00     0.178 C 
ATOM      4  C   UNL     1       6.565   9.976  55.125  1.00  0.00     0.177 C 
ATOM      5  O   UNL     1       4.822   9.153  56.685  1.00  0.00    -0.341 OA
ATOM      6  C   UNL     1       5.596  11.031  54.572  1.00  0.00     0.179 C 
ATOM      7  C   UNL     1       4.157  10.544  54.767  1.00  0.00     0.202 C 
BRANCH   3   8
ATOM      8  C   UNL     1       6.634  10.488  57.695  1.00  0.00     0.191 C 
BRANCH   8   9
ATOM      9  O   UNL     1       6.097  10.079  58.926  1.00  0.00    -0.394 OA
ATOM     10  H   UNL     1       5.706   9.176  58.791  1.00  0.00     0.210 HD
ENDBRANCH   8   9
ENDBRANCH   3   8
BRANCH   4  11
ATOM     11  O   UNL     1       7.884  10.454  55.060  1.00  0.00    -0.387 OA
ATOM     12  H   UNL     1       7.886  11.204  54.409  1.00  0.00     0.211 HD
ENDBRANCH   4  11
BRANCH   6  13
ATOM     13  O   UNL     1       5.777  12.273  55.202  1.00  0.00    -0.387 OA
ATOM     14  H   UNL     1       6.674  12.256  55.627  1.00  0.00     0.211 HD
ENDBRANCH   6  13
BRANCH   7  15
ATOM     15  O   UNL     1       3.263  11.551  54.368  1.00  0.00    -0.385 OA
ATOM     16  H   UNL     1       2.480  11.498  54.979  1.00  0.00     0.211 HD
ENDBRANCH   7  15
ENDBRANCH   1   2
BRANCH   1  17
ATOM     17  C   UNL     1       2.945  11.322  58.095  1.00  0.00     0.224 C 
ATOM     18  C   UNL     1       3.114  12.586  58.980  1.00  0.00     0.208 C 
ATOM     19  O   UNL     1       3.010  10.162  58.909  1.00  0.00    -0.337 OA
ATOM     20  C   UNL     1       3.369  12.040  60.369  1.00  0.00     0.180 C 
ATOM     21  C   UNL     1       3.002  10.556  60.263  1.00  0.00     0.179 C 
BRANCH  17  22
ATOM     22  C   UNL     1       1.586  11.297  57.359  1.00  0.00     0.225 C 
BRANCH  22  23
ATOM     23  O   UNL     1       1.482  12.383  56.477  1.00  0.00    -0.391 OA
ATOM     24  H   UNL     1       1.993  13.132  56.884  1.00  0.00     0.210 HD
ENDBRANCH  22  23
ENDBRANCH  17  22
BRANCH  18  25
ATOM     25  O   UNL     1       1.961  13.392  58.983  1.00  0.00    -0.385 OA
ATOM     26  H   UNL     1       2.241  14.292  59.293  1.00  0.00     0.211 HD
ENDBRANCH  18  25
BRANCH  20  27
ATOM     27  O   UNL     1       4.726  12.190  60.696  1.00  0.00    -0.387 OA
ATOM     28  H   UNL     1       4.793  12.090  61.682  1.00  0.00     0.211 HD
ENDBRANCH  20  27
BRANCH  21  29
ATOM     29  C   UNL     1       1.629  10.250  60.877  1.00  0.00     0.191 C 
BRANCH  29  30
ATOM     30  O   UNL     1       0.865  11.423  60.948  1.00  0.00    -0.394 OA
ATOM     31  H   UNL     1       0.978  11.877  60.073  1.00  0.00     0.210 HD
ENDBRANCH  29  30
ENDBRANCH  21  29
ENDBRANCH   1  17
TORSDOF 13
ENDMDL
MODEL 9
REMARK VINA RESULT:    -4.430      1.339      5.605
REMARK INTER + INTRA:          -8.728
REMARK INTER:                  -6.908
REMARK INTRA:                  -1.820
REMARK UNBOUND:                -1.967
REMARK SMILES OC[C@H]1O[C@@H](O[C@@]2(CO)O[C@H](CO)[C@@H](O)[C@@H]2O)[C@@H](O)[C@@H](O)[C@H]1O
REMARK SMILES IDX 6 1 5 2 3 3 22 4 4 5 20 6 18 7 2 8 1 9 23 11 21 13 19 15
REMARK SMILES IDX 7 17 16 18 10 19 14 20 11 21 8 22 9 23 17 25 15 27 12 29
REMARK SMILES IDX 13 30
REMARK H PARENT 1 10 23 12 21 14 19 16 9 24 17 26 15 28 13 31
REMARK Flexibility Score: inf
ROOT
ATOM      1  O   UNL     1       5.043  10.165  59.842  1.00  0.00    -0.313 OA
ENDROOT
BRANCH   1   2
ATOM      2  C   UNL     1       4.721  10.911  61.009  1.00  0.00     0.285 C 
ATOM      3  C   UNL     1       2.365  10.509  60.896  1.00  0.00     0.178 C 
ATOM      4  C   UNL     1       2.088  11.977  60.470  1.00  0.00     0.177 C 
ATOM      5  O   UNL     1       3.569  10.371  61.645  1.00  0.00    -0.341 OA
ATOM      6  C   UNL     1       3.303  12.626  59.791  1.00  0.00     0.179 C 
ATOM      7  C   UNL     1       4.543  12.406  60.661  1.00  0.00     0.202 C 
BRANCH   3   8
ATOM      8  C   UNL     1       2.259   9.458  59.765  1.00  0.00     0.191 C 
BRANCH   8   9
ATOM      9  O   UNL     1       2.653   8.193  60.232  1.00  0.00    -0.394 OA
ATOM     10  H   UNL     1       2.448   8.160  61.203  1.00  0.00     0.210 HD
ENDBRANCH   8   9
ENDBRANCH   3   8
BRANCH   4  11
ATOM     11  O   UNL     1       0.964  12.066  59.634  1.00  0.00    -0.387 OA
ATOM     12  H   UNL     1       1.071  12.896  59.097  1.00  0.00     0.211 HD
ENDBRANCH   4  11
BRANCH   6  13
ATOM     13  O   UNL     1       3.512  12.099  58.505  1.00  0.00    -0.387 OA
ATOM     14  H   UNL     1       2.990  12.658  57.873  1.00  0.00     0.211 HD
ENDBRANCH   6  13
BRANCH   7  15
ATOM     15  O   UNL     1       5.678  12.896  59.993  1.00  0.00    -0.385 OA
ATOM     16  H   UNL     1       6.375  13.048  60.685  1.00  0.00     0.211 HD
ENDBRANCH   7  15
ENDBRANCH   1   2
BRANCH   1  17
ATOM     17  C   UNL     1       6.217   9.365  59.941  1.00  0.00     0.224 C 
ATOM     18  C   UNL     1       5.940   7.922  59.441  1.00  0.00     0.208 C 
ATOM     19  O   UNL     1       6.685   9.321  61.280  1.00  0.00    -0.337 OA
ATOM     20  C   UNL     1       6.209   7.048  60.648  1.00  0.00     0.180 C 
ATOM     21  C   UNL     1       6.930   7.977  61.631  1.00  0.00     0.179 C 
BRANCH  17  22
ATOM     22  C   UNL     1       7.295  10.082  59.097  1.00  0.00     0.225 C 
BRANCH  22  23
ATOM     23  O   UNL     1       8.141  10.842  59.918  1.00  0.00    -0.391 OA
ATOM     24  H   UNL     1       8.832  11.241  59.327  1.00  0.00     0.210 HD
ENDBRANCH  22  23
ENDBRANCH  17  22
BRANCH  18  25
ATOM     25  O   UNL     1       6.786   7.554  58.380  1.00  0.00    -0.385 OA
ATOM     26  H   UNL     1       6.211   7.144  57.683  1.00  0.00     0.211 HD
ENDBRANCH  18  25
BRANCH  20  27
ATOM     27  O   UNL     1       4.994   6.603  61.193  1.00  0.00    -0.387 OA
ATOM     28  H   UNL     1       4.280   6.886  60.564  1.00  0.00     0.211 HD
ENDBRANCH  20  27
BRANCH  21  29
ATOM     29  C   UNL     1       8.444   7.726  61.666  1.00  0.00     0.191 C 
BRANCH  29  30
ATOM     30  O   UNL     1       9.113   8.892  62.063  1.00  0.00    -0.394 OA
ATOM     31  H   UNL     1       9.860   8.595  62.644  1.00  0.00     0.210 HD
ENDBRANCH  29  30
ENDBRANCH  21  29
ENDBRANCH   1  17
TORSDOF 13
ENDMDL
