MODEL 1
REMARK VINA RESULT:    -3.613      0.000      0.000
REMARK INTER + INTRA:          -5.590
REMARK INTER:                  -4.880
REMARK INTRA:                  -0.710
REMARK UNBOUND:                -0.710
REMARK SMILES O=C[C@H](O)[C@@H](O)[C@H](O)CO
REMARK SMILES IDX 7 1 9 2 10 3 5 5 3 6 2 7 1 8 4 9 6 11 8 13
REMARK H PARENT 10 4 4 10 6 12 8 14
REMARK Flexibility Score: inf
ROOT
ATOM      1  C   UNL     1     -21.378  -6.958   7.549  1.00  0.00     0.171 C 
ENDROOT
BRANCH   1   2
ATOM      2  C   UNL     1     -22.275  -7.610   8.612  1.00  0.00     0.190 C 
BRANCH   2   3
ATOM      3  O   UNL     1     -21.625  -7.624   9.856  1.00  0.00    -0.394 OA
ATOM      4  H   UNL     1     -20.900  -8.299   9.793  1.00  0.00     0.210 HD
ENDBRANCH   2   3
ENDBRANCH   1   2
BRANCH   1   5
ATOM      5  C   UNL     1     -21.440  -7.745   6.214  1.00  0.00     0.181 C 
BRANCH   5   6
ATOM      6  C   UNL     1     -20.801  -6.971   5.035  1.00  0.00     0.209 C 
BRANCH   6   7
ATOM      7  C   UNL     1     -19.540  -7.653   4.574  1.00  0.00     0.258 C 
ATOM      8  O   UNL     1     -18.532  -7.620   5.262  1.00  0.00    -0.300 OA
ENDBRANCH   6   7
BRANCH   6   9
ATOM      9  O   UNL     1     -20.507  -5.652   5.419  1.00  0.00    -0.383 OA
ATOM     10  H   UNL     1     -21.098  -5.059   4.884  1.00  0.00     0.211 HD
ENDBRANCH   6   9
ENDBRANCH   5   6
BRANCH   5  11
ATOM     11  O   UNL     1     -20.878  -9.030   6.344  1.00  0.00    -0.387 OA
ATOM     12  H   UNL     1     -20.371  -9.058   7.198  1.00  0.00     0.211 HD
ENDBRANCH   5  11
ENDBRANCH   1   5
BRANCH   1  13
ATOM     13  O   UNL     1     -20.058  -6.904   8.033  1.00  0.00    -0.388 OA
ATOM     14  H   UNL     1     -19.936  -7.678   8.643  1.00  0.00     0.211 HD
ENDBRANCH   1  13
TORSDOF 8
ENDMDL
MODEL 2
REMARK VINA RESULT:    -3.542      1.547      2.210
REMARK INTER + INTRA:          -5.495
REMARK INTER:                  -4.628
REMARK INTRA:                  -0.867
REMARK UNBOUND:                -0.710
REMARK SMILES O=C[C@H](O)[C@@H](O)[C@H](O)CO
REMARK SMILES IDX 7 1 9 2 10 3 5 5 3 6 2 7 1 8 4 9 6 11 8 13
REMARK H PARENT 10 4 4 10 6 12 8 14
REMARK Flexibility Score: inf
ROOT
ATOM      1  C   UNL     1     -22.737  -7.131   8.041  1.00  0.00     0.171 C 
ENDROOT
BRANCH   1   2
ATOM      2  C   UNL     1     -22.798  -7.638   9.489  1.00  0.00     0.190 C 
BRANCH   2   3
ATOM      3  O   UNL     1     -21.517  -7.639  10.061  1.00  0.00    -0.394 OA
ATOM      4  H   UNL     1     -21.596  -8.091  10.942  1.00  0.00     0.210 HD
ENDBRANCH   2   3
ENDBRANCH   1   2
BRANCH   1   5
ATOM      5  C   UNL     1     -21.384  -7.505   7.381  1.00  0.00     0.181 C 
BRANCH   5   6
ATOM      6  C   UNL     1     -21.459  -7.520   5.834  1.00  0.00     0.209 C 
BRANCH   6   7
ATOM      7  C   UNL     1     -20.766  -6.314   5.258  1.00  0.00     0.258 C 
ATOM      8  O   UNL     1     -21.105  -5.188   5.588  1.00  0.00    -0.300 OA
ENDBRANCH   6   7
BRANCH   6   9
ATOM      9  O   UNL     1     -22.798  -7.537   5.410  1.00  0.00    -0.383 OA
ATOM     10  H   UNL     1     -23.148  -6.614   5.524  1.00  0.00     0.211 HD
ENDBRANCH   6   9
ENDBRANCH   5   6
BRANCH   5  11
ATOM     11  O   UNL     1     -20.340  -6.674   7.833  1.00  0.00    -0.387 OA
ATOM     12  H   UNL     1     -19.483  -7.053   7.506  1.00  0.00     0.211 HD
ENDBRANCH   5  11
ENDBRANCH   1   5
BRANCH   1  13
ATOM     13  O   UNL     1     -22.924  -5.737   8.035  1.00  0.00    -0.388 OA
ATOM     14  H   UNL     1     -22.055  -5.321   8.280  1.00  0.00     0.211 HD
ENDBRANCH   1  13
TORSDOF 8
ENDMDL
MODEL 3
REMARK VINA RESULT:    -3.390      1.406      4.170
REMARK INTER + INTRA:          -5.289
REMARK INTER:                  -4.587
REMARK INTRA:                  -0.701
REMARK UNBOUND:                -0.710
REMARK SMILES O=C[C@H](O)[C@@H](O)[C@H](O)CO
REMARK SMILES IDX 7 1 9 2 10 3 5 5 3 6 2 7 1 8 4 9 6 11 8 13
REMARK H PARENT 10 4 4 10 6 12 8 14
REMARK Flexibility Score: inf
ROOT
ATOM      1  C   UNL     1     -20.349  -6.842   4.820  1.00  0.00     0.171 C 
ENDROOT
BRANCH   1   2
ATOM      2  C   UNL     1     -20.250  -5.688   3.811  1.00  0.00     0.190 C 
BRANCH   2   3
ATOM      3  O   UNL     1     -19.310  -4.740   4.246  1.00  0.00    -0.394 OA
ATOM      4  H   UNL     1     -19.033  -4.224   3.444  1.00  0.00     0.210 HD
ENDBRANCH   2   3
ENDBRANCH   1   2
BRANCH   1   5
ATOM      5  C   UNL     1     -21.393  -6.527   5.922  1.00  0.00     0.181 C 
BRANCH   5   6
ATOM      6  C   UNL     1     -21.163  -7.348   7.214  1.00  0.00     0.209 C 
BRANCH   6   7
ATOM      7  C   UNL     1     -22.421  -7.401   8.040  1.00  0.00     0.258 C 
ATOM      8  O   UNL     1     -23.008  -6.373   8.339  1.00  0.00    -0.300 OA
ENDBRANCH   6   7
BRANCH   6   9
ATOM      9  O   UNL     1     -20.127  -6.783   7.975  1.00  0.00    -0.383 OA
ATOM     10  H   UNL     1     -19.273  -7.056   7.547  1.00  0.00     0.211 HD
ENDBRANCH   6   9
ENDBRANCH   5   6
BRANCH   5  11
ATOM     11  O   UNL     1     -21.454  -5.147   6.198  1.00  0.00    -0.387 OA
ATOM     12  H   UNL     1     -22.388  -4.846   6.051  1.00  0.00     0.211 HD
ENDBRANCH   5  11
ENDBRANCH   1   5
BRANCH   1  13
ATOM     13  O   UNL     1     -19.081  -7.066   5.386  1.00  0.00    -0.388 OA
ATOM     14  H   UNL     1     -18.415  -7.010   4.650  1.00  0.00     0.211 HD
ENDBRANCH   1  13
TORSDOF 8
ENDMDL
MODEL 4
REMARK VINA RESULT:    -3.330      1.399      2.159
REMARK INTER + INTRA:          -5.208
REMARK INTER:                  -4.576
REMARK INTRA:                  -0.632
REMARK UNBOUND:                -0.710
REMARK SMILES O=C[C@H](O)[C@@H](O)[C@H](O)CO
REMARK SMILES IDX 7 1 9 2 10 3 5 5 3 6 2 7 1 8 4 9 6 11 8 13
REMARK H PARENT 10 4 4 10 6 12 8 14
REMARK Flexibility Score: inf
ROOT
ATOM      1  C   UNL     1     -21.227  -6.796   6.788  1.00  0.00     0.171 C 
ENDROOT
BRANCH   1   2
ATOM      2  C   UNL     1     -21.948  -8.113   7.113  1.00  0.00     0.190 C 
BRANCH   2   3
ATOM      3  O   UNL     1     -21.228  -9.203   6.602  1.00  0.00    -0.394 OA
ATOM      4  H   UNL     1     -20.283  -9.077   6.879  1.00  0.00     0.210 HD
ENDBRANCH   2   3
ENDBRANCH   1   2
BRANCH   1   5
ATOM      5  C   UNL     1     -20.591  -6.848   5.374  1.00  0.00     0.181 C 
BRANCH   5   6
ATOM      6  C   UNL     1     -20.825  -5.548   4.567  1.00  0.00     0.209 C 
BRANCH   6   7
ATOM      7  C   UNL     1     -19.764  -5.381   3.512  1.00  0.00     0.258 C 
ATOM      8  O   UNL     1     -18.742  -4.757   3.755  1.00  0.00    -0.300 OA
ENDBRANCH   6   7
BRANCH   6   9
ATOM      9  O   UNL     1     -20.815  -4.434   5.421  1.00  0.00    -0.383 OA
ATOM     10  H   UNL     1     -21.763  -4.169   5.559  1.00  0.00     0.211 HD
ENDBRANCH   6   9
ENDBRANCH   5   6
BRANCH   5  11
ATOM     11  O   UNL     1     -19.222  -7.172   5.434  1.00  0.00    -0.387 OA
ATOM     12  H   UNL     1     -18.973  -7.278   6.390  1.00  0.00     0.211 HD
ENDBRANCH   5  11
ENDBRANCH   1   5
BRANCH   1  13
ATOM     13  O   UNL     1     -20.245  -6.558   7.766  1.00  0.00    -0.388 OA
ATOM     14  H   UNL     1     -20.303  -7.296   8.429  1.00  0.00     0.211 HD
ENDBRANCH   1  13
TORSDOF 8
ENDMDL
MODEL 5
REMARK VINA RESULT:    -3.291      1.454      3.826
REMARK INTER + INTRA:          -5.155
REMARK INTER:                  -4.235
REMARK INTRA:                  -0.921
REMARK UNBOUND:                -0.710
REMARK SMILES O=C[C@H](O)[C@@H](O)[C@H](O)CO
REMARK SMILES IDX 7 1 9 2 10 3 5 5 3 6 2 7 1 8 4 9 6 11 8 13
REMARK H PARENT 10 4 4 10 6 12 8 14
REMARK Flexibility Score: inf
ROOT
ATOM      1  C   UNL     1     -20.894  -6.768   5.365  1.00  0.00     0.171 C 
ENDROOT
BRANCH   1   2
ATOM      2  C   UNL     1     -20.833  -5.490   4.514  1.00  0.00     0.190 C 
BRANCH   2   3
ATOM      3  O   UNL     1     -20.846  -4.355   5.338  1.00  0.00    -0.394 OA
ATOM      4  H   UNL     1     -21.116  -4.661   6.243  1.00  0.00     0.210 HD
ENDBRANCH   2   3
ENDBRANCH   1   2
BRANCH   1   5
ATOM      5  C   UNL     1     -22.364  -7.152   5.681  1.00  0.00     0.181 C 
BRANCH   5   6
ATOM      6  C   UNL     1     -22.472  -8.426   6.553  1.00  0.00     0.209 C 
BRANCH   6   7
ATOM      7  C   UNL     1     -22.911  -8.076   7.950  1.00  0.00     0.258 C 
ATOM      8  O   UNL     1     -22.159  -7.478   8.704  1.00  0.00    -0.300 OA
ENDBRANCH   6   7
BRANCH   6   9
ATOM      9  O   UNL     1     -21.236  -9.091   6.604  1.00  0.00    -0.383 OA
ATOM     10  H   UNL     1     -21.367  -9.900   7.165  1.00  0.00     0.211 HD
ENDBRANCH   6   9
ENDBRANCH   5   6
BRANCH   5  11
ATOM     11  O   UNL     1     -23.067  -6.077   6.258  1.00  0.00    -0.387 OA
ATOM     12  H   UNL     1     -22.937  -5.280   5.680  1.00  0.00     0.211 HD
ENDBRANCH   5  11
ENDBRANCH   1   5
BRANCH   1  13
ATOM     13  O   UNL     1     -20.168  -6.564   6.552  1.00  0.00    -0.388 OA
ATOM     14  H   UNL     1     -19.837  -5.627   6.538  1.00  0.00     0.211 HD
ENDBRANCH   1  13
TORSDOF 8
ENDMDL
MODEL 6
REMARK VINA RESULT:    -3.175      2.159      4.496
REMARK INTER + INTRA:          -4.999
REMARK INTER:                  -4.361
REMARK INTRA:                  -0.638
REMARK UNBOUND:                -0.710
REMARK SMILES O=C[C@H](O)[C@@H](O)[C@H](O)CO
REMARK SMILES IDX 7 1 9 2 10 3 5 5 3 6 2 7 1 8 4 9 6 11 8 13
REMARK H PARENT 10 4 4 10 6 12 8 14
REMARK Flexibility Score: inf
ROOT
ATOM      1  C   UNL     1     -20.040  -4.810   3.602  1.00  0.00     0.171 C 
ENDROOT
BRANCH   1   2
ATOM      2  C   UNL     1     -20.711  -3.541   3.055  1.00  0.00     0.190 C 
BRANCH   2   3
ATOM      3  O   UNL     1     -20.723  -2.535   4.034  1.00  0.00    -0.394 OA
ATOM      4  H   UNL     1     -19.968  -1.924   3.826  1.00  0.00     0.210 HD
ENDBRANCH   2   3
ENDBRANCH   1   2
BRANCH   1   5
ATOM      5  C   UNL     1     -20.907  -5.459   4.712  1.00  0.00     0.181 C 
BRANCH   5   6
ATOM      6  C   UNL     1     -20.427  -6.883   5.087  1.00  0.00     0.209 C 
BRANCH   6   7
ATOM      7  C   UNL     1     -21.075  -7.341   6.367  1.00  0.00     0.258 C 
ATOM      8  O   UNL     1     -20.639  -6.973   7.447  1.00  0.00    -0.300 OA
ENDBRANCH   6   7
BRANCH   6   9
ATOM      9  O   UNL     1     -19.031  -6.905   5.236  1.00  0.00    -0.383 OA
ATOM     10  H   UNL     1     -18.664  -6.232   4.603  1.00  0.00     0.211 HD
ENDBRANCH   6   9
ENDBRANCH   5   6
BRANCH   5  11
ATOM     11  O   UNL     1     -20.995  -4.634   5.850  1.00  0.00    -0.387 OA
ATOM     12  H   UNL     1     -21.323  -5.188   6.606  1.00  0.00     0.211 HD
ENDBRANCH   5  11
ENDBRANCH   1   5
BRANCH   1  13
ATOM     13  O   UNL     1     -18.766  -4.478   4.097  1.00  0.00    -0.388 OA
ATOM     14  H   UNL     1     -18.594  -3.530   3.857  1.00  0.00     0.211 HD
ENDBRANCH   1  13
TORSDOF 8
ENDMDL
MODEL 7
REMARK VINA RESULT:    -3.139      1.914      2.794
REMARK INTER + INTRA:          -4.949
REMARK INTER:                  -4.661
REMARK INTRA:                  -0.288
REMARK UNBOUND:                -0.710
REMARK SMILES O=C[C@H](O)[C@@H](O)[C@H](O)CO
REMARK SMILES IDX 7 1 9 2 10 3 5 5 3 6 2 7 1 8 4 9 6 11 8 13
REMARK H PARENT 10 4 4 10 6 12 8 14
REMARK Flexibility Score: inf
ROOT
ATOM      1  C   UNL     1     -20.782  -7.120   6.722  1.00  0.00     0.171 C 
ENDROOT
BRANCH   1   2
ATOM      2  C   UNL     1     -21.317  -5.781   6.194  1.00  0.00     0.190 C 
BRANCH   2   3
ATOM      3  O   UNL     1     -22.588  -5.519   6.727  1.00  0.00    -0.394 OA
ATOM      4  H   UNL     1     -23.231  -6.085   6.224  1.00  0.00     0.210 HD
ENDBRANCH   2   3
ENDBRANCH   1   2
BRANCH   1   5
ATOM      5  C   UNL     1     -21.934  -8.142   6.907  1.00  0.00     0.181 C 
BRANCH   5   6
ATOM      6  C   UNL     1     -21.663  -9.483   6.181  1.00  0.00     0.209 C 
BRANCH   6   7
ATOM      7  C   UNL     1     -20.428  -9.383   5.325  1.00  0.00     0.258 C 
ATOM      8  O   UNL     1     -20.433  -9.808   4.180  1.00  0.00    -0.300 OA
ENDBRANCH   6   7
BRANCH   6   9
ATOM      9  O   UNL     1     -22.761  -9.835   5.379  1.00  0.00    -0.383 OA
ATOM     10  H   UNL     1     -23.579  -9.621   5.901  1.00  0.00     0.211 HD
ENDBRANCH   6   9
ENDBRANCH   5   6
BRANCH   5  11
ATOM     11  O   UNL     1     -22.229  -8.349   8.268  1.00  0.00    -0.387 OA
ATOM     12  H   UNL     1     -23.066  -8.881   8.323  1.00  0.00     0.211 HD
ENDBRANCH   5  11
ENDBRANCH   1   5
BRANCH   1  13
ATOM     13  O   UNL     1     -20.114  -6.899   7.940  1.00  0.00    -0.388 OA
ATOM     14  H   UNL     1     -20.287  -7.688   8.519  1.00  0.00     0.211 HD
ENDBRANCH   1  13
TORSDOF 8
ENDMDL
MODEL 8
REMARK VINA RESULT:    -3.059      2.001      2.879
REMARK INTER + INTRA:          -4.842
REMARK INTER:                  -4.175
REMARK INTRA:                  -0.667
REMARK UNBOUND:                -0.710
REMARK SMILES O=C[C@H](O)[C@@H](O)[C@H](O)CO
REMARK SMILES IDX 7 1 9 2 10 3 5 5 3 6 2 7 1 8 4 9 6 11 8 13
REMARK H PARENT 10 4 4 10 6 12 8 14
REMARK Flexibility Score: inf
ROOT
ATOM      1  C   UNL     1     -22.161  -6.581   6.460  1.00  0.00     0.171 C 
ENDROOT
BRANCH   1   2
ATOM      2  C   UNL     1     -21.367  -7.277   7.575  1.00  0.00     0.190 C 
BRANCH   2   3
ATOM      3  O   UNL     1     -20.147  -6.619   7.790  1.00  0.00    -0.394 OA
ATOM      4  H   UNL     1     -20.037  -6.532   8.773  1.00  0.00     0.210 HD
ENDBRANCH   2   3
ENDBRANCH   1   2
BRANCH   1   5
ATOM      5  C   UNL     1     -21.208  -5.874   5.461  1.00  0.00     0.181 C 
BRANCH   5   6
ATOM      6  C   UNL     1     -21.686  -5.995   3.993  1.00  0.00     0.209 C 
BRANCH   6   7
ATOM      7  C   UNL     1     -20.913  -5.058   3.104  1.00  0.00     0.258 C 
ATOM      8  O   UNL     1     -19.727  -4.847   3.310  1.00  0.00    -0.300 OA
ENDBRANCH   6   7
BRANCH   6   9
ATOM      9  O   UNL     1     -23.057  -5.705   3.900  1.00  0.00    -0.383 OA
ATOM     10  H   UNL     1     -23.182  -5.169   3.073  1.00  0.00     0.211 HD
ENDBRANCH   6   9
ENDBRANCH   5   6
BRANCH   5  11
ATOM     11  O   UNL     1     -20.989  -4.529   5.817  1.00  0.00    -0.387 OA
ATOM     12  H   UNL     1     -20.018  -4.342   5.729  1.00  0.00     0.211 HD
ENDBRANCH   5  11
ENDBRANCH   1   5
BRANCH   1  13
ATOM     13  O   UNL     1     -23.049  -5.656   7.038  1.00  0.00    -0.388 OA
ATOM     14  H   UNL     1     -23.000  -5.776   8.023  1.00  0.00     0.211 HD
ENDBRANCH   1  13
TORSDOF 8
ENDMDL
