MODEL 1
REMARK VINA RESULT:    -3.576      0.000      0.000
REMARK INTER + INTRA:          -8.491
REMARK INTER:                  -6.294
REMARK INTRA:                  -2.197
REMARK UNBOUND:                -2.197
REMARK SMILES CCCCCCC=CCCCCCCCC(=O)[O-]
REMARK SMILES IDX 10 1 11 2 12 3 13 4 14 5 15 6 16 7 17 8 18 9 9 10 8 11 7 12
REMARK SMILES IDX 6 13 5 14 4 15 3 16 2 17 1 18
REMARK H PARENT
REMARK Flexibility Score: inf
ROOT
ATOM      1  C   UNL     1     170.125 185.105  30.745  1.00  0.00     0.004 C 
ENDROOT
BRANCH   1   2
ATOM      2  C   UNL     1     168.999 186.095  30.399  1.00  0.00     0.000 C 
BRANCH   2   3
ATOM      3  C   UNL     1     167.600 185.504  30.634  1.00  0.00     0.000 C 
BRANCH   3   4
ATOM      4  C   UNL     1     167.241 185.405  32.123  1.00  0.00     0.000 C 
BRANCH   4   5
ATOM      5  C   UNL     1     166.555 184.067  32.435  1.00  0.00     0.006 C 
BRANCH   5   6
ATOM      6  C   UNL     1     165.086 184.049  31.992  1.00  0.00     0.053 C 
BRANCH   6   7
ATOM      7  C   UNL     1     164.817 182.959  31.000  1.00  0.00     0.041 C 
ATOM      8  O   UNL     1     164.500 183.245  29.816  1.00  0.00    -0.550 OA
ATOM      9  O   UNL     1     164.948 181.628  31.375  1.00  0.00    -0.550 OA
ENDBRANCH   6   7
ENDBRANCH   5   6
ENDBRANCH   4   5
ENDBRANCH   3   4
ENDBRANCH   2   3
ENDBRANCH   1   2
BRANCH   1  10
ATOM     10  C   UNL     1     171.213 185.749  31.614  1.00  0.00     0.027 C 
BRANCH  10  11
ATOM     11  C   UNL     1     170.657 186.884  32.443  1.00  0.00    -0.031 C 
ATOM     12  C   UNL     1     170.477 186.851  33.778  1.00  0.00    -0.031 C 
BRANCH  12  13
ATOM     13  C   UNL     1     170.849 185.694  34.669  1.00  0.00     0.027 C 
BRANCH  13  14
ATOM     14  C   UNL     1     169.698 184.685  34.772  1.00  0.00     0.004 C 
BRANCH  14  15
ATOM     15  C   UNL     1     170.186 183.264  34.475  1.00  0.00     0.000 C 
BRANCH  15  16
ATOM     16  C   UNL     1     171.721 183.201  34.456  1.00  0.00    -0.000 C 
BRANCH  16  17
ATOM     17  C   UNL     1     172.269 182.554  33.176  1.00  0.00    -0.003 C 
ATOM     18  C   UNL     1     173.624 183.125  32.757  1.00  0.00     0.004 C 
ENDBRANCH  16  17
ENDBRANCH  15  16
ENDBRANCH  14  15
ENDBRANCH  13  14
ENDBRANCH  12  13
ENDBRANCH  10  11
ENDBRANCH   1  10
TORSDOF 13
ENDMDL
MODEL 2
REMARK VINA RESULT:    -3.489      3.036      5.629
REMARK INTER + INTRA:          -8.338
REMARK INTER:                  -6.017
REMARK INTRA:                  -2.321
REMARK UNBOUND:                -2.197
REMARK SMILES CCCCCCC=CCCCCCCCC(=O)[O-]
REMARK SMILES IDX 10 1 11 2 12 3 13 4 14 5 15 6 16 7 17 8 18 9 9 10 8 11 7 12
REMARK SMILES IDX 6 13 5 14 4 15 3 16 2 17 1 18
REMARK H PARENT
REMARK Flexibility Score: inf
ROOT
ATOM      1  C   UNL     1     169.801 185.409  30.266  1.00  0.00     0.004 C 
ENDROOT
BRANCH   1   2
ATOM      2  C   UNL     1     170.677 185.066  31.483  1.00  0.00     0.000 C 
BRANCH   2   3
ATOM      3  C   UNL     1     171.262 186.315  32.162  1.00  0.00     0.000 C 
BRANCH   3   4
ATOM      4  C   UNL     1     171.556 186.097  33.653  1.00  0.00     0.000 C 
BRANCH   4   5
ATOM      5  C   UNL     1     171.061 184.718  34.115  1.00  0.00     0.006 C 
BRANCH   5   6
ATOM      6  C   UNL     1     172.193 183.855  34.688  1.00  0.00     0.053 C 
BRANCH   6   7
ATOM      7  C   UNL     1     172.736 182.902  33.669  1.00  0.00     0.041 C 
ATOM      8  O   UNL     1     173.680 183.253  32.913  1.00  0.00    -0.550 OA
ATOM      9  O   UNL     1     172.224 181.614  33.575  1.00  0.00    -0.550 OA
ENDBRANCH   6   7
ENDBRANCH   5   6
ENDBRANCH   4   5
ENDBRANCH   3   4
ENDBRANCH   2   3
ENDBRANCH   1   2
BRANCH   1  10
ATOM     10  C   UNL     1     168.314 185.495  30.631  1.00  0.00     0.027 C 
BRANCH  10  11
ATOM     11  C   UNL     1     167.866 186.930  30.788  1.00  0.00    -0.031 C 
ATOM     12  C   UNL     1     167.680 187.559  31.964  1.00  0.00    -0.031 C 
BRANCH  12  13
ATOM     13  C   UNL     1     167.938 186.949  33.318  1.00  0.00     0.027 C 
BRANCH  13  14
ATOM     14  C   UNL     1     166.735 186.122  33.787  1.00  0.00     0.004 C 
BRANCH  14  15
ATOM     15  C   UNL     1     167.156 184.692  34.142  1.00  0.00     0.000 C 
BRANCH  15  16
ATOM     16  C   UNL     1     166.486 183.673  33.208  1.00  0.00    -0.000 C 
BRANCH  16  17
ATOM     17  C   UNL     1     165.248 184.245  32.501  1.00  0.00    -0.003 C 
ATOM     18  C   UNL     1     165.101 183.742  31.065  1.00  0.00     0.004 C 
ENDBRANCH  16  17
ENDBRANCH  15  16
ENDBRANCH  14  15
ENDBRANCH  13  14
ENDBRANCH  12  13
ENDBRANCH  10  11
ENDBRANCH   1  10
TORSDOF 13
ENDMDL
MODEL 3
REMARK VINA RESULT:    -3.475      3.240      5.717
REMARK INTER + INTRA:          -8.312
REMARK INTER:                  -5.850
REMARK INTRA:                  -2.463
REMARK UNBOUND:                -2.197
REMARK SMILES CCCCCCC=CCCCCCCCC(=O)[O-]
REMARK SMILES IDX 10 1 11 2 12 3 13 4 14 5 15 6 16 7 17 8 18 9 9 10 8 11 7 12
REMARK SMILES IDX 6 13 5 14 4 15 3 16 2 17 1 18
REMARK H PARENT
REMARK Flexibility Score: inf
ROOT
ATOM      1  C   UNL     1     169.964 185.307  30.613  1.00  0.00     0.004 C 
ENDROOT
BRANCH   1   2
ATOM      2  C   UNL     1     171.255 185.749  31.323  1.00  0.00     0.000 C 
BRANCH   2   3
ATOM      3  C   UNL     1     170.986 186.689  32.508  1.00  0.00     0.000 C 
BRANCH   3   4
ATOM      4  C   UNL     1     171.457 186.104  33.848  1.00  0.00     0.000 C 
BRANCH   4   5
ATOM      5  C   UNL     1     171.217 184.588  33.900  1.00  0.00     0.006 C 
BRANCH   5   6
ATOM      6  C   UNL     1     172.435 183.824  34.435  1.00  0.00     0.053 C 
BRANCH   6   7
ATOM      7  C   UNL     1     172.913 182.789  33.464  1.00  0.00     0.041 C 
ATOM      8  O   UNL     1     173.638 183.121  32.490  1.00  0.00    -0.550 OA
ATOM      9  O   UNL     1     172.587 181.452  33.653  1.00  0.00    -0.550 OA
ENDBRANCH   6   7
ENDBRANCH   5   6
ENDBRANCH   4   5
ENDBRANCH   3   4
ENDBRANCH   2   3
ENDBRANCH   1   2
BRANCH   1  10
ATOM     10  C   UNL     1     168.778 186.220  30.950  1.00  0.00     0.027 C 
BRANCH  10  11
ATOM     11  C   UNL     1     167.463 185.485  30.826  1.00  0.00    -0.031 C 
ATOM     12  C   UNL     1     166.895 184.745  31.797  1.00  0.00    -0.031 C 
BRANCH  12  13
ATOM     13  C   UNL     1     167.456 184.570  33.186  1.00  0.00     0.027 C 
BRANCH  13  14
ATOM     14  C   UNL     1     166.921 185.649  34.136  1.00  0.00     0.004 C 
BRANCH  14  15
ATOM     15  C   UNL     1     168.006 186.101  35.118  1.00  0.00     0.000 C 
BRANCH  15  16
ATOM     16  C   UNL     1     168.311 187.597  34.952  1.00  0.00    -0.000 C 
BRANCH  16  17
ATOM     17  C   UNL     1     167.378 188.280  33.941  1.00  0.00    -0.003 C 
ATOM     18  C   UNL     1     168.134 189.123  32.914  1.00  0.00     0.004 C 
ENDBRANCH  16  17
ENDBRANCH  15  16
ENDBRANCH  14  15
ENDBRANCH  13  14
ENDBRANCH  12  13
ENDBRANCH  10  11
ENDBRANCH   1  10
TORSDOF 13
ENDMDL
MODEL 4
REMARK VINA RESULT:    -3.463      0.958      2.280
REMARK INTER + INTRA:          -8.291
REMARK INTER:                  -5.864
REMARK INTRA:                  -2.427
REMARK UNBOUND:                -2.197
REMARK SMILES CCCCCCC=CCCCCCCCC(=O)[O-]
REMARK SMILES IDX 10 1 11 2 12 3 13 4 14 5 15 6 16 7 17 8 18 9 9 10 8 11 7 12
REMARK SMILES IDX 6 13 5 14 4 15 3 16 2 17 1 18
REMARK H PARENT
REMARK Flexibility Score: inf
ROOT
ATOM      1  C   UNL     1     167.797 185.273  31.510  1.00  0.00     0.004 C 
ENDROOT
BRANCH   1   2
ATOM      2  C   UNL     1     167.352 186.065  32.752  1.00  0.00     0.000 C 
BRANCH   2   3
ATOM      3  C   UNL     1     166.943 185.154  33.919  1.00  0.00     0.000 C 
BRANCH   3   4
ATOM      4  C   UNL     1     166.791 183.685  33.501  1.00  0.00     0.000 C 
BRANCH   4   5
ATOM      5  C   UNL     1     165.357 183.190  33.740  1.00  0.00     0.006 C 
BRANCH   5   6
ATOM      6  C   UNL     1     164.410 183.576  32.597  1.00  0.00     0.053 C 
BRANCH   6   7
ATOM      7  C   UNL     1     164.733 182.838  31.334  1.00  0.00     0.041 C 
ATOM      8  O   UNL     1     164.985 181.605  31.368  1.00  0.00    -0.550 OA
ATOM      9  O   UNL     1     164.722 183.505  30.115  1.00  0.00    -0.550 OA
ENDBRANCH   6   7
ENDBRANCH   5   6
ENDBRANCH   4   5
ENDBRANCH   3   4
ENDBRANCH   2   3
ENDBRANCH   1   2
BRANCH   1  10
ATOM     10  C   UNL     1     168.831 186.040  30.676  1.00  0.00     0.027 C 
BRANCH  10  11
ATOM     11  C   UNL     1     170.171 185.342  30.682  1.00  0.00    -0.031 C 
ATOM     12  C   UNL     1     171.222 185.689  31.449  1.00  0.00    -0.031 C 
BRANCH  12  13
ATOM     13  C   UNL     1     171.215 186.801  32.467  1.00  0.00     0.027 C 
BRANCH  13  14
ATOM     14  C   UNL     1     170.897 186.263  33.868  1.00  0.00     0.004 C 
BRANCH  14  15
ATOM     15  C   UNL     1     171.480 184.859  34.062  1.00  0.00     0.000 C 
BRANCH  15  16
ATOM     16  C   UNL     1     170.424 183.899  34.630  1.00  0.00    -0.000 C 
BRANCH  16  17
ATOM     17  C   UNL     1     170.206 182.667  33.738  1.00  0.00    -0.003 C 
ATOM     18  C   UNL     1     171.415 182.355  32.855  1.00  0.00     0.004 C 
ENDBRANCH  16  17
ENDBRANCH  15  16
ENDBRANCH  14  15
ENDBRANCH  13  14
ENDBRANCH  12  13
ENDBRANCH  10  11
ENDBRANCH   1  10
TORSDOF 13
ENDMDL
MODEL 5
REMARK VINA RESULT:    -3.451      3.037      5.650
REMARK INTER + INTRA:          -8.271
REMARK INTER:                  -5.965
REMARK INTRA:                  -2.306
REMARK UNBOUND:                -2.197
REMARK SMILES CCCCCCC=CCCCCCCCC(=O)[O-]
REMARK SMILES IDX 10 1 11 2 12 3 13 4 14 5 15 6 16 7 17 8 18 9 9 10 8 11 7 12
REMARK SMILES IDX 6 13 5 14 4 15 3 16 2 17 1 18
REMARK H PARENT
REMARK Flexibility Score: inf
ROOT
ATOM      1  C   UNL     1     167.872 187.099  30.603  1.00  0.00     0.004 C 
ENDROOT
BRANCH   1   2
ATOM      2  C   UNL     1     168.238 185.612  30.451  1.00  0.00     0.000 C 
BRANCH   2   3
ATOM      3  C   UNL     1     169.744 185.392  30.243  1.00  0.00     0.000 C 
BRANCH   3   4
ATOM      4  C   UNL     1     170.434 184.799  31.480  1.00  0.00     0.000 C 
BRANCH   4   5
ATOM      5  C   UNL     1     171.376 185.824  32.128  1.00  0.00     0.006 C 
BRANCH   5   6
ATOM      6  C   UNL     1     171.475 185.645  33.648  1.00  0.00     0.053 C 
BRANCH   6   7
ATOM      7  C   UNL     1     171.994 184.289  34.016  1.00  0.00     0.041 C 
ATOM      8  O   UNL     1     173.083 183.876  33.537  1.00  0.00    -0.550 OA
ATOM      9  O   UNL     1     171.293 183.494  34.915  1.00  0.00    -0.550 OA
ENDBRANCH   6   7
ENDBRANCH   5   6
ENDBRANCH   4   5
ENDBRANCH   3   4
ENDBRANCH   2   3
ENDBRANCH   1   2
BRANCH   1  10
ATOM     10  C   UNL     1     168.107 187.608  32.031  1.00  0.00     0.027 C 
BRANCH  10  11
ATOM     11  C   UNL     1     166.873 187.436  32.887  1.00  0.00    -0.031 C 
ATOM     12  C   UNL     1     166.728 186.517  33.861  1.00  0.00    -0.031 C 
BRANCH  12  13
ATOM     13  C   UNL     1     167.793 185.541  34.289  1.00  0.00     0.027 C 
BRANCH  13  14
ATOM     14  C   UNL     1     167.548 184.154  33.680  1.00  0.00     0.004 C 
BRANCH  14  15
ATOM     15  C   UNL     1     166.058 183.938  33.391  1.00  0.00     0.000 C 
BRANCH  15  16
ATOM     16  C   UNL     1     165.858 183.163  32.080  1.00  0.00    -0.000 C 
BRANCH  16  17
ATOM     17  C   UNL     1     164.976 183.920  31.076  1.00  0.00    -0.003 C 
ATOM     18  C   UNL     1     164.324 182.996  30.047  1.00  0.00     0.004 C 
ENDBRANCH  16  17
ENDBRANCH  15  16
ENDBRANCH  14  15
ENDBRANCH  13  14
ENDBRANCH  12  13
ENDBRANCH  10  11
ENDBRANCH   1  10
TORSDOF 13
ENDMDL
MODEL 6
REMARK VINA RESULT:    -3.393      2.364      3.176
REMARK INTER + INTRA:          -8.167
REMARK INTER:                  -5.897
REMARK INTRA:                  -2.271
REMARK UNBOUND:                -2.197
REMARK SMILES CCCCCCC=CCCCCCCCC(=O)[O-]
REMARK SMILES IDX 10 1 11 2 12 3 13 4 14 5 15 6 16 7 17 8 18 9 9 10 8 11 7 12
REMARK SMILES IDX 6 13 5 14 4 15 3 16 2 17 1 18
REMARK H PARENT
REMARK Flexibility Score: inf
ROOT
ATOM      1  C   UNL     1     168.381 188.476  32.776  1.00  0.00     0.004 C 
ENDROOT
BRANCH   1   2
ATOM      2  C   UNL     1     167.249 187.945  33.671  1.00  0.00     0.000 C 
BRANCH   2   3
ATOM      3  C   UNL     1     167.617 186.628  34.371  1.00  0.00     0.000 C 
BRANCH   3   4
ATOM      4  C   UNL     1     167.003 185.399  33.686  1.00  0.00     0.000 C 
BRANCH   4   5
ATOM      5  C   UNL     1     167.915 184.883  32.563  1.00  0.00     0.006 C 
BRANCH   5   6
ATOM      6  C   UNL     1     167.322 185.134  31.170  1.00  0.00     0.053 C 
BRANCH   6   7
ATOM      7  C   UNL     1     168.298 185.824  30.266  1.00  0.00     0.041 C 
ATOM      8  O   UNL     1     169.460 185.364  30.120  1.00  0.00    -0.550 OA
ATOM      9  O   UNL     1     167.912 186.956  29.559  1.00  0.00    -0.550 OA
ENDBRANCH   6   7
ENDBRANCH   5   6
ENDBRANCH   4   5
ENDBRANCH   3   4
ENDBRANCH   2   3
ENDBRANCH   1   2
BRANCH   1  10
ATOM     10  C   UNL     1     169.757 188.326  33.436  1.00  0.00     0.027 C 
BRANCH  10  11
ATOM     11  C   UNL     1     170.685 187.483  32.591  1.00  0.00    -0.031 C 
ATOM     12  C   UNL     1     171.377 186.415  33.032  1.00  0.00    -0.031 C 
BRANCH  12  13
ATOM     13  C   UNL     1     171.298 185.854  34.428  1.00  0.00     0.027 C 
BRANCH  13  14
ATOM     14  C   UNL     1     171.135 184.329  34.401  1.00  0.00     0.004 C 
BRANCH  14  15
ATOM     15  C   UNL     1     171.390 183.775  32.996  1.00  0.00     0.000 C 
BRANCH  15  16
ATOM     16  C   UNL     1     172.349 182.576  33.042  1.00  0.00    -0.000 C 
BRANCH  16  17
ATOM     17  C   UNL     1     173.227 182.571  34.303  1.00  0.00    -0.003 C 
ATOM     18  C   UNL     1     174.644 183.078  34.039  1.00  0.00     0.004 C 
ENDBRANCH  16  17
ENDBRANCH  15  16
ENDBRANCH  14  15
ENDBRANCH  13  14
ENDBRANCH  12  13
ENDBRANCH  10  11
ENDBRANCH   1  10
TORSDOF 13
ENDMDL
MODEL 7
REMARK VINA RESULT:    -3.377      3.383      5.632
REMARK INTER + INTRA:          -8.141
REMARK INTER:                  -5.398
REMARK INTRA:                  -2.742
REMARK UNBOUND:                -2.197
REMARK SMILES CCCCCCC=CCCCCCCCC(=O)[O-]
REMARK SMILES IDX 10 1 11 2 12 3 13 4 14 5 15 6 16 7 17 8 18 9 9 10 8 11 7 12
REMARK SMILES IDX 6 13 5 14 4 15 3 16 2 17 1 18
REMARK H PARENT
REMARK Flexibility Score: inf
ROOT
ATOM      1  C   UNL     1     167.866 187.272  30.937  1.00  0.00     0.004 C 
ENDROOT
BRANCH   1   2
ATOM      2  C   UNL     1     167.569 185.819  31.345  1.00  0.00     0.000 C 
BRANCH   2   3
ATOM      3  C   UNL     1     168.846 185.005  31.605  1.00  0.00     0.000 C 
BRANCH   3   4
ATOM      4  C   UNL     1     169.994 185.383  30.658  1.00  0.00     0.000 C 
BRANCH   4   5
ATOM      5  C   UNL     1     171.256 185.759  31.447  1.00  0.00     0.006 C 
BRANCH   5   6
ATOM      6  C   UNL     1     171.186 185.302  32.910  1.00  0.00     0.053 C 
BRANCH   6   7
ATOM      7  C   UNL     1     172.167 184.208  33.198  1.00  0.00     0.041 C 
ATOM      8  O   UNL     1     172.354 183.821  34.382  1.00  0.00    -0.550 OA
ATOM      9  O   UNL     1     172.851 183.592  32.157  1.00  0.00    -0.550 OA
ENDBRANCH   6   7
ENDBRANCH   5   6
ENDBRANCH   4   5
ENDBRANCH   3   4
ENDBRANCH   2   3
ENDBRANCH   1   2
BRANCH   1  10
ATOM     10  C   UNL     1     167.704 188.247  32.110  1.00  0.00     0.027 C 
BRANCH  10  11
ATOM     11  C   UNL     1     168.990 188.389  32.891  1.00  0.00    -0.031 C 
ATOM     12  C   UNL     1     169.133 188.122  34.203  1.00  0.00    -0.031 C 
BRANCH  12  13
ATOM     13  C   UNL     1     168.044 187.588  35.097  1.00  0.00     0.027 C 
BRANCH  13  14
ATOM     14  C   UNL     1     167.999 186.055  35.055  1.00  0.00     0.004 C 
BRANCH  14  15
ATOM     15  C   UNL     1     166.553 185.550  35.010  1.00  0.00     0.000 C 
BRANCH  15  16
ATOM     16  C   UNL     1     165.584 186.684  34.640  1.00  0.00    -0.000 C 
BRANCH  16  17
ATOM     17  C   UNL     1     164.557 186.260  33.581  1.00  0.00    -0.003 C 
ATOM     18  C   UNL     1     164.626 184.768  33.253  1.00  0.00     0.004 C 
ENDBRANCH  16  17
ENDBRANCH  15  16
ENDBRANCH  14  15
ENDBRANCH  13  14
ENDBRANCH  12  13
ENDBRANCH  10  11
ENDBRANCH   1  10
TORSDOF 13
ENDMDL
MODEL 8
REMARK VINA RESULT:    -3.361      3.760      5.951
REMARK INTER + INTRA:          -8.112
REMARK INTER:                  -5.878
REMARK INTRA:                  -2.234
REMARK UNBOUND:                -2.197
REMARK SMILES CCCCCCC=CCCCCCCCC(=O)[O-]
REMARK SMILES IDX 10 1 11 2 12 3 13 4 14 5 15 6 16 7 17 8 18 9 9 10 8 11 7 12
REMARK SMILES IDX 6 13 5 14 4 15 3 16 2 17 1 18
REMARK H PARENT
REMARK Flexibility Score: inf
ROOT
ATOM      1  C   UNL     1     169.972 185.394  30.484  1.00  0.00     0.004 C 
ENDROOT
BRANCH   1   2
ATOM      2  C   UNL     1     171.252 185.427  31.337  1.00  0.00     0.000 C 
BRANCH   2   3
ATOM      3  C   UNL     1     171.126 186.352  32.557  1.00  0.00     0.000 C 
BRANCH   3   4
ATOM      4  C   UNL     1     171.632 185.700  33.852  1.00  0.00     0.000 C 
BRANCH   4   5
ATOM      5  C   UNL     1     171.581 184.168  33.752  1.00  0.00     0.006 C 
BRANCH   5   6
ATOM      6  C   UNL     1     172.740 183.498  34.501  1.00  0.00     0.053 C 
BRANCH   6   7
ATOM      7  C   UNL     1     173.906 183.232  33.599  1.00  0.00     0.041 C 
ATOM      8  O   UNL     1     173.737 183.144  32.354  1.00  0.00    -0.550 OA
ATOM      9  O   UNL     1     175.185 183.116  34.129  1.00  0.00    -0.550 OA
ENDBRANCH   6   7
ENDBRANCH   5   6
ENDBRANCH   4   5
ENDBRANCH   3   4
ENDBRANCH   2   3
ENDBRANCH   1   2
BRANCH   1  10
ATOM     10  C   UNL     1     168.716 185.680  31.316  1.00  0.00     0.027 C 
BRANCH  10  11
ATOM     11  C   UNL     1     167.914 186.820  30.732  1.00  0.00    -0.031 C 
ATOM     12  C   UNL     1     167.530 187.922  31.405  1.00  0.00    -0.031 C 
BRANCH  12  13
ATOM     13  C   UNL     1     167.882 188.220  32.840  1.00  0.00     0.027 C 
BRANCH  13  14
ATOM     14  C   UNL     1     166.638 188.158  33.736  1.00  0.00     0.004 C 
BRANCH  14  15
ATOM     15  C   UNL     1     166.931 187.389  35.029  1.00  0.00     0.000 C 
BRANCH  15  16
ATOM     16  C   UNL     1     168.264 186.632  34.929  1.00  0.00    -0.000 C 
BRANCH  16  17
ATOM     17  C   UNL     1     168.083 185.108  34.994  1.00  0.00    -0.003 C 
ATOM     18  C   UNL     1     166.799 184.635  34.312  1.00  0.00     0.004 C 
ENDBRANCH  16  17
ENDBRANCH  15  16
ENDBRANCH  14  15
ENDBRANCH  13  14
ENDBRANCH  12  13
ENDBRANCH  10  11
ENDBRANCH   1  10
TORSDOF 13
ENDMDL
MODEL 9
REMARK VINA RESULT:    -3.309     17.309     20.806
REMARK INTER + INTRA:          -8.020
REMARK INTER:                  -6.446
REMARK INTRA:                  -1.575
REMARK UNBOUND:                -2.197
REMARK SMILES CCCCCCC=CCCCCCCCC(=O)[O-]
REMARK SMILES IDX 10 1 11 2 12 3 13 4 14 5 15 6 16 7 17 8 18 9 9 10 8 11 7 12
REMARK SMILES IDX 6 13 5 14 4 15 3 16 2 17 1 18
REMARK H PARENT
REMARK Flexibility Score: inf
ROOT
ATOM      1  C   UNL     1     161.020 170.971  20.173  1.00  0.00     0.004 C 
ENDROOT
BRANCH   1   2
ATOM      2  C   UNL     1     159.581 171.296  19.738  1.00  0.00     0.000 C 
BRANCH   2   3
ATOM      3  C   UNL     1     158.651 171.571  20.930  1.00  0.00     0.000 C 
BRANCH   3   4
ATOM      4  C   UNL     1     157.810 172.842  20.746  1.00  0.00     0.000 C 
BRANCH   4   5
ATOM      5  C   UNL     1     158.563 174.079  21.259  1.00  0.00     0.006 C 
BRANCH   5   6
ATOM      6  C   UNL     1     159.401 173.773  22.506  1.00  0.00     0.053 C 
BRANCH   6   7
ATOM      7  C   UNL     1     158.825 174.410  23.734  1.00  0.00     0.041 C 
ATOM      8  O   UNL     1     157.586 174.620  23.817  1.00  0.00    -0.550 OA
ATOM      9  O   UNL     1     159.651 174.740  24.801  1.00  0.00    -0.550 OA
ENDBRANCH   6   7
ENDBRANCH   5   6
ENDBRANCH   4   5
ENDBRANCH   3   4
ENDBRANCH   2   3
ENDBRANCH   1   2
BRANCH   1  10
ATOM     10  C   UNL     1     161.934 170.682  18.975  1.00  0.00     0.027 C 
BRANCH  10  11
ATOM     11  C   UNL     1     161.683 169.303  18.410  1.00  0.00    -0.031 C 
ATOM     12  C   UNL     1     161.188 169.047  17.184  1.00  0.00    -0.031 C 
BRANCH  12  13
ATOM     13  C   UNL     1     160.850 170.096  16.155  1.00  0.00     0.027 C 
BRANCH  13  14
ATOM     14  C   UNL     1     161.804 170.018  14.956  1.00  0.00     0.004 C 
BRANCH  14  15
ATOM     15  C   UNL     1     162.847 171.139  15.012  1.00  0.00     0.000 C 
BRANCH  15  16
ATOM     16  C   UNL     1     164.269 170.564  15.096  1.00  0.00    -0.000 C 
BRANCH  16  17
ATOM     17  C   UNL     1     164.732 170.346  16.544  1.00  0.00    -0.003 C 
ATOM     18  C   UNL     1     165.008 168.876  16.862  1.00  0.00     0.004 C 
ENDBRANCH  16  17
ENDBRANCH  15  16
ENDBRANCH  14  15
ENDBRANCH  13  14
ENDBRANCH  12  13
ENDBRANCH  10  11
ENDBRANCH   1  10
TORSDOF 13
ENDMDL
