MODEL 1
REMARK VINA RESULT:    -4.156      0.000      0.000
REMARK INTER + INTRA:          -4.849
REMARK INTER:                  -4.763
REMARK INTRA:                  -0.086
REMARK UNBOUND:                -0.086
REMARK SMILES COc1cc(C(=O)[O-])ccc1O
REMARK SMILES IDX 5 1 9 2 4 3 10 4 3 5 11 6 6 7 7 8 8 9 2 10 1 11 12 12
REMARK H PARENT 12 13
REMARK Flexibility Score: inf
ROOT
ATOM      1  C   UNL     1      -5.489   3.423 -27.797  1.00  0.00     0.001 A 
ATOM      2  C   UNL     1      -4.198   3.631 -27.282  1.00  0.00     0.014 A 
ATOM      3  C   UNL     1      -6.602   3.716 -26.990  1.00  0.00     0.060 A 
ATOM      4  C   UNL     1      -4.026   4.121 -25.986  1.00  0.00     0.051 A 
ATOM      5  C   UNL     1      -6.433   4.211 -25.682  1.00  0.00     0.161 A 
ATOM      6  C   UNL     1      -5.138   4.411 -25.185  1.00  0.00     0.157 A 
ENDROOT
BRANCH   1   7
ATOM      7  C   UNL     1      -5.676   2.903 -29.170  1.00  0.00     0.072 C 
ATOM      8  O   UNL     1      -6.775   3.053 -29.768  1.00  0.00    -0.545 OA
ATOM      9  O   UNL     1      -4.641   2.241 -29.821  1.00  0.00    -0.545 OA
ENDBRANCH   1   7
BRANCH   5  10
ATOM     10  O   UNL     1      -7.521   4.514 -24.848  1.00  0.00    -0.493 OA
ATOM     11  C   UNL     1      -8.750   5.075 -25.298  1.00  0.00     0.278 C 
ENDBRANCH   5  10
BRANCH   6  12
ATOM     12  O   UNL     1      -4.963   4.900 -23.892  1.00  0.00    -0.504 OA
ATOM     13  H   UNL     1      -5.567   4.616 -23.130  1.00  0.00     0.293 HD
ENDBRANCH   6  12
TORSDOF 3
ENDMDL
MODEL 2
REMARK VINA RESULT:    -3.819     21.497     22.682
REMARK INTER + INTRA:          -4.463
REMARK INTER:                  -4.371
REMARK INTRA:                  -0.092
REMARK UNBOUND:                -0.086
REMARK SMILES COc1cc(C(=O)[O-])ccc1O
REMARK SMILES IDX 5 1 9 2 4 3 10 4 3 5 11 6 6 7 7 8 8 9 2 10 1 11 12 12
REMARK H PARENT 12 13
REMARK Flexibility Score: inf
ROOT
ATOM      1  C   UNL     1     -22.202  19.763 -29.777  1.00  0.00     0.001 A 
ATOM      2  C   UNL     1     -22.658  18.529 -29.282  1.00  0.00     0.014 A 
ATOM      3  C   UNL     1     -21.387  20.567 -28.962  1.00  0.00     0.060 A 
ATOM      4  C   UNL     1     -22.305  18.110 -27.999  1.00  0.00     0.051 A 
ATOM      5  C   UNL     1     -21.028  20.147 -27.666  1.00  0.00     0.161 A 
ATOM      6  C   UNL     1     -21.492  18.914 -27.190  1.00  0.00     0.157 A 
ENDROOT
BRANCH   1   7
ATOM      7  C   UNL     1     -22.574  20.212 -31.138  1.00  0.00     0.072 C 
ATOM      8  O   UNL     1     -21.770  20.079 -32.099  1.00  0.00    -0.545 OA
ATOM      9  O   UNL     1     -23.817  20.788 -31.375  1.00  0.00    -0.545 OA
ENDBRANCH   1   7
BRANCH   5  10
ATOM     10  O   UNL     1     -20.215  20.924 -26.824  1.00  0.00    -0.493 OA
ATOM     11  C   UNL     1     -18.793  20.950 -26.876  1.00  0.00     0.278 C 
ENDBRANCH   5  10
BRANCH   6  12
ATOM     12  O   UNL     1     -21.141  18.492 -25.909  1.00  0.00    -0.504 OA
ATOM     13  H   UNL     1     -20.945  19.154 -25.167  1.00  0.00     0.293 HD
ENDBRANCH   6  12
TORSDOF 3
ENDMDL
MODEL 3
REMARK VINA RESULT:    -3.815     14.063     15.968
REMARK INTER + INTRA:          -4.459
REMARK INTER:                  -4.377
REMARK INTRA:                  -0.081
REMARK UNBOUND:                -0.086
REMARK SMILES COc1cc(C(=O)[O-])ccc1O
REMARK SMILES IDX 5 1 9 2 4 3 10 4 3 5 11 6 6 7 7 8 8 9 2 10 1 11 12 12
REMARK H PARENT 12 13
REMARK Flexibility Score: inf
ROOT
ATOM      1  C   UNL     1     -19.449   9.308 -30.130  1.00  0.00     0.001 A 
ATOM      2  C   UNL     1     -20.184   9.242 -31.326  1.00  0.00     0.014 A 
ATOM      3  C   UNL     1     -19.170  10.566 -29.568  1.00  0.00     0.060 A 
ATOM      4  C   UNL     1     -20.630  10.411 -31.946  1.00  0.00     0.051 A 
ATOM      5  C   UNL     1     -19.620  11.747 -30.190  1.00  0.00     0.161 A 
ATOM      6  C   UNL     1     -20.351  11.662 -31.382  1.00  0.00     0.157 A 
ENDROOT
BRANCH   1   7
ATOM      7  C   UNL     1     -18.973   8.071 -29.471  1.00  0.00     0.072 C 
ATOM      8  O   UNL     1     -18.606   8.088 -28.266  1.00  0.00    -0.545 OA
ATOM      9  O   UNL     1     -18.922   6.872 -30.173  1.00  0.00    -0.545 OA
ENDBRANCH   1   7
BRANCH   5  10
ATOM     10  O   UNL     1     -19.360  13.021 -29.656  1.00  0.00    -0.493 OA
ATOM     11  C   UNL     1     -18.595  13.261 -28.481  1.00  0.00     0.278 C 
ENDBRANCH   5  10
BRANCH   6  12
ATOM     12  O   UNL     1     -20.799  12.826 -32.002  1.00  0.00    -0.504 OA
ATOM     13  H   UNL     1     -21.626  12.832 -32.589  1.00  0.00     0.293 HD
ENDBRANCH   6  12
TORSDOF 3
ENDMDL
MODEL 4
REMARK VINA RESULT:    -3.810     23.066     23.773
REMARK INTER + INTRA:          -4.453
REMARK INTER:                  -4.357
REMARK INTRA:                  -0.096
REMARK UNBOUND:                -0.086
REMARK SMILES COc1cc(C(=O)[O-])ccc1O
REMARK SMILES IDX 5 1 9 2 4 3 10 4 3 5 11 6 6 7 7 8 8 9 2 10 1 11 12 12
REMARK H PARENT 12 13
REMARK Flexibility Score: inf
ROOT
ATOM      1  C   UNL     1     -22.626  20.219 -29.348  1.00  0.00     0.001 A 
ATOM      2  C   UNL     1     -23.001  18.871 -29.220  1.00  0.00     0.014 A 
ATOM      3  C   UNL     1     -22.748  21.071 -28.236  1.00  0.00     0.060 A 
ATOM      4  C   UNL     1     -23.489  18.386 -28.005  1.00  0.00     0.051 A 
ATOM      5  C   UNL     1     -23.240  20.585 -27.008  1.00  0.00     0.161 A 
ATOM      6  C   UNL     1     -23.609  19.238 -26.900  1.00  0.00     0.157 A 
ENDROOT
BRANCH   1   7
ATOM      7  C   UNL     1     -22.109  20.737 -30.634  1.00  0.00     0.072 C 
ATOM      8  O   UNL     1     -21.875  21.967 -30.782  1.00  0.00    -0.545 OA
ATOM      9  O   UNL     1     -21.875  19.875 -31.700  1.00  0.00    -0.545 OA
ENDBRANCH   1   7
BRANCH   5  10
ATOM     10  O   UNL     1     -23.375  21.407 -25.877  1.00  0.00    -0.493 OA
ATOM     11  C   UNL     1     -22.325  21.696 -24.961  1.00  0.00     0.278 C 
ENDBRANCH   5  10
BRANCH   6  12
ATOM     12  O   UNL     1     -24.096  18.751 -25.689  1.00  0.00    -0.504 OA
ATOM     13  H   UNL     1     -24.194  19.349 -24.876  1.00  0.00     0.293 HD
ENDBRANCH   6  12
TORSDOF 3
ENDMDL
MODEL 5
REMARK VINA RESULT:    -3.803     20.087     22.164
REMARK INTER + INTRA:          -4.445
REMARK INTER:                  -4.364
REMARK INTRA:                  -0.081
REMARK UNBOUND:                -0.086
REMARK SMILES COc1cc(C(=O)[O-])ccc1O
REMARK SMILES IDX 5 1 9 2 4 3 10 4 3 5 11 6 6 7 7 8 8 9 2 10 1 11 12 12
REMARK H PARENT 12 13
REMARK Flexibility Score: inf
ROOT
ATOM      1  C   UNL     1     -18.366  17.260 -14.587  1.00  0.00     0.001 A 
ATOM      2  C   UNL     1     -19.120  17.680 -13.479  1.00  0.00     0.014 A 
ATOM      3  C   UNL     1     -18.602  15.985 -15.131  1.00  0.00     0.060 A 
ATOM      4  C   UNL     1     -20.091  16.842 -12.927  1.00  0.00     0.051 A 
ATOM      5  C   UNL     1     -19.582  15.137 -14.577  1.00  0.00     0.161 A 
ATOM      6  C   UNL     1     -20.324  15.574 -13.472  1.00  0.00     0.157 A 
ENDROOT
BRANCH   1   7
ATOM      7  C   UNL     1     -17.335  18.144 -15.175  1.00  0.00     0.072 C 
ATOM      8  O   UNL     1     -16.950  17.978 -16.363  1.00  0.00    -0.545 OA
ATOM      9  O   UNL     1     -16.775  19.171 -14.424  1.00  0.00    -0.545 OA
ENDBRANCH   1   7
BRANCH   5  10
ATOM     10  O   UNL     1     -19.846  13.858 -15.095  1.00  0.00    -0.493 OA
ATOM     11  C   UNL     1     -19.250  13.326 -16.273  1.00  0.00     0.278 C 
ENDBRANCH   5  10
BRANCH   6  12
ATOM     12  O   UNL     1     -21.294  14.740 -12.919  1.00  0.00    -0.504 OA
ATOM     13  H   UNL     1     -21.253  14.446 -11.950  1.00  0.00     0.293 HD
ENDBRANCH   6  12
TORSDOF 3
ENDMDL
MODEL 6
REMARK VINA RESULT:    -3.782     14.290     15.192
REMARK INTER + INTRA:          -4.420
REMARK INTER:                  -4.340
REMARK INTRA:                  -0.081
REMARK UNBOUND:                -0.086
REMARK SMILES COc1cc(C(=O)[O-])ccc1O
REMARK SMILES IDX 5 1 9 2 4 3 10 4 3 5 11 6 6 7 7 8 8 9 2 10 1 11 12 12
REMARK H PARENT 12 13
REMARK Flexibility Score: inf
ROOT
ATOM      1  C   UNL     1     -11.104   8.850 -13.814  1.00  0.00     0.001 A 
ATOM      2  C   UNL     1     -10.372   8.682 -12.627  1.00  0.00     0.014 A 
ATOM      3  C   UNL     1     -10.833   9.960 -14.632  1.00  0.00     0.060 A 
ATOM      4  C   UNL     1      -9.389   9.606 -12.266  1.00  0.00     0.051 A 
ATOM      5  C   UNL     1      -9.842  10.895 -14.272  1.00  0.00     0.161 A 
ATOM      6  C   UNL     1      -9.123  10.711 -13.084  1.00  0.00     0.157 A 
ENDROOT
BRANCH   1   7
ATOM      7  C   UNL     1     -12.146   7.872 -14.200  1.00  0.00     0.072 C 
ATOM      8  O   UNL     1     -12.484   7.737 -15.406  1.00  0.00    -0.545 OA
ATOM      9  O   UNL     1     -12.770   7.089 -13.235  1.00  0.00    -0.545 OA
ENDBRANCH   1   7
BRANCH   5  10
ATOM     10  O   UNL     1      -9.545  12.015 -15.065  1.00  0.00    -0.493 OA
ATOM     11  C   UNL     1     -10.244  12.371 -16.253  1.00  0.00     0.278 C 
ENDBRANCH   5  10
BRANCH   6  12
ATOM     12  O   UNL     1      -8.141  11.631 -12.722  1.00  0.00    -0.504 OA
ATOM     13  H   UNL     1      -8.248  12.230 -11.911  1.00  0.00     0.293 HD
ENDBRANCH   6  12
TORSDOF 3
ENDMDL
MODEL 7
REMARK VINA RESULT:    -3.679     15.260     16.997
REMARK INTER + INTRA:          -4.303
REMARK INTER:                  -4.217
REMARK INTRA:                  -0.086
REMARK UNBOUND:                -0.086
REMARK SMILES COc1cc(C(=O)[O-])ccc1O
REMARK SMILES IDX 5 1 9 2 4 3 10 4 3 5 11 6 6 7 7 8 8 9 2 10 1 11 12 12
REMARK H PARENT 12 13
REMARK Flexibility Score: inf
ROOT
ATOM      1  C   UNL     1     -11.941  18.792 -26.563  1.00  0.00     0.001 A 
ATOM      2  C   UNL     1     -13.074  19.539 -26.200  1.00  0.00     0.014 A 
ATOM      3  C   UNL     1     -11.776  18.409 -27.906  1.00  0.00     0.060 A 
ATOM      4  C   UNL     1     -14.022  19.896 -27.161  1.00  0.00     0.051 A 
ATOM      5  C   UNL     1     -12.730  18.768 -28.878  1.00  0.00     0.161 A 
ATOM      6  C   UNL     1     -13.854  19.514 -28.497  1.00  0.00     0.157 A 
ENDROOT
BRANCH   1   7
ATOM      7  C   UNL     1     -10.934  18.411 -25.547  1.00  0.00     0.072 C 
ATOM      8  O   UNL     1     -10.260  17.354 -25.678  1.00  0.00    -0.545 OA
ATOM      9  O   UNL     1     -10.718  19.213 -24.432  1.00  0.00    -0.545 OA
ENDBRANCH   1   7
BRANCH   5  10
ATOM     10  O   UNL     1     -12.598  18.404 -30.228  1.00  0.00    -0.493 OA
ATOM     11  C   UNL     1     -11.366  18.381 -30.940  1.00  0.00     0.278 C 
ENDBRANCH   5  10
BRANCH   6  12
ATOM     12  O   UNL     1     -14.802  19.872 -29.454  1.00  0.00    -0.504 OA
ATOM     13  H   UNL     1     -14.530  20.212 -30.369  1.00  0.00     0.293 HD
ENDBRANCH   6  12
TORSDOF 3
ENDMDL
MODEL 8
REMARK VINA RESULT:    -3.610     17.789     19.059
REMARK INTER + INTRA:          -4.223
REMARK INTER:                  -4.136
REMARK INTRA:                  -0.087
REMARK UNBOUND:                -0.086
REMARK SMILES COc1cc(C(=O)[O-])ccc1O
REMARK SMILES IDX 5 1 9 2 4 3 10 4 3 5 11 6 6 7 7 8 8 9 2 10 1 11 12 12
REMARK H PARENT 12 13
REMARK Flexibility Score: inf
ROOT
ATOM      1  C   UNL     1     -13.280  19.227 -19.968  1.00  0.00     0.001 A 
ATOM      2  C   UNL     1     -12.063  19.792 -20.385  1.00  0.00     0.014 A 
ATOM      3  C   UNL     1     -13.582  19.191 -18.595  1.00  0.00     0.060 A 
ATOM      4  C   UNL     1     -11.168  20.312 -19.448  1.00  0.00     0.051 A 
ATOM      5  C   UNL     1     -12.681  19.715 -17.646  1.00  0.00     0.161 A 
ATOM      6  C   UNL     1     -11.473  20.275 -18.082  1.00  0.00     0.157 A 
ENDROOT
BRANCH   1   7
ATOM      7  C   UNL     1     -14.231  18.674 -20.957  1.00  0.00     0.072 C 
ATOM      8  O   UNL     1     -14.052  17.527 -21.448  1.00  0.00    -0.545 OA
ATOM      9  O   UNL     1     -15.337  19.413 -21.362  1.00  0.00    -0.545 OA
ENDBRANCH   1   7
BRANCH   5  10
ATOM     10  O   UNL     1     -12.949  19.697 -16.268  1.00  0.00    -0.493 OA
ATOM     11  C   UNL     1     -14.138  20.205 -15.672  1.00  0.00     0.278 C 
ENDBRANCH   5  10
BRANCH   6  12
ATOM     12  O   UNL     1     -10.577  20.795 -17.149  1.00  0.00    -0.504 OA
ATOM     13  H   UNL     1     -10.557  20.465 -16.191  1.00  0.00     0.293 HD
ENDBRANCH   6  12
TORSDOF 3
ENDMDL
MODEL 9
REMARK VINA RESULT:    -3.549      1.554      2.053
REMARK INTER + INTRA:          -4.153
REMARK INTER:                  -4.097
REMARK INTRA:                  -0.057
REMARK UNBOUND:                -0.086
REMARK SMILES COc1cc(C(=O)[O-])ccc1O
REMARK SMILES IDX 5 1 9 2 4 3 10 4 3 5 11 6 6 7 7 8 8 9 2 10 1 11 12 12
REMARK H PARENT 12 13
REMARK Flexibility Score: inf
ROOT
ATOM      1  C   UNL     1      -6.317   3.415 -28.001  1.00  0.00     0.001 A 
ATOM      2  C   UNL     1      -6.054   4.754 -27.667  1.00  0.00     0.014 A 
ATOM      3  C   UNL     1      -6.957   2.590 -27.060  1.00  0.00     0.060 A 
ATOM      4  C   UNL     1      -6.423   5.256 -26.418  1.00  0.00     0.051 A 
ATOM      5  C   UNL     1      -7.332   3.093 -25.799  1.00  0.00     0.161 A 
ATOM      6  C   UNL     1      -7.061   4.431 -25.484  1.00  0.00     0.157 A 
ENDROOT
BRANCH   1   7
ATOM      7  C   UNL     1      -5.926   2.879 -29.324  1.00  0.00     0.072 C 
ATOM      8  O   UNL     1      -4.789   2.365 -29.497  1.00  0.00    -0.545 OA
ATOM      9  O   UNL     1      -6.809   2.935 -30.397  1.00  0.00    -0.545 OA
ENDBRANCH   1   7
BRANCH   5  10
ATOM     10  O   UNL     1      -7.974   2.297 -24.835  1.00  0.00    -0.493 OA
ATOM     11  C   UNL     1      -9.385   2.192 -24.686  1.00  0.00     0.278 C 
ENDBRANCH   5  10
BRANCH   6  12
ATOM     12  O   UNL     1      -7.429   4.935 -24.238  1.00  0.00    -0.504 OA
ATOM     13  H   UNL     1      -7.439   4.350 -23.410  1.00  0.00     0.293 HD
ENDBRANCH   6  12
TORSDOF 3
ENDMDL
