MODEL 1
REMARK VINA RESULT:    -3.556      0.000      0.000
REMARK INTER + INTRA:          -5.781
REMARK INTER:                  -5.636
REMARK INTRA:                  -0.145
REMARK UNBOUND:                -0.145
REMARK SMILES CCCCCCCCCCCC(=O)[O-]
REMARK SMILES IDX 7 1 8 2 9 3 10 4 11 5 12 6 13 7 14 8 6 9 5 10 4 11 3 12 2 13
REMARK SMILES IDX 1 14
REMARK H PARENT
REMARK Flexibility Score: inf
ROOT
ATOM      1  C   UNL     1       3.838   5.891   9.113  1.00  0.00     0.000 C 
ENDROOT
BRANCH   1   2
ATOM      2  C   UNL     1       4.951   6.949   9.016  1.00  0.00     0.000 C 
BRANCH   2   3
ATOM      3  C   UNL     1       6.348   6.322   8.874  1.00  0.00     0.000 C 
BRANCH   3   4
ATOM      4  C   UNL     1       6.945   6.515   7.470  1.00  0.00     0.006 C 
BRANCH   4   5
ATOM      5  C   UNL     1       8.260   7.306   7.505  1.00  0.00     0.053 C 
BRANCH   5   6
ATOM      6  C   UNL     1       8.616   7.728   8.897  1.00  0.00     0.041 C 
ATOM      7  O   UNL     1       8.369   8.899   9.287  1.00  0.00    -0.550 OA
ATOM      8  O   UNL     1       9.254   6.837   9.752  1.00  0.00    -0.550 OA
ENDBRANCH   5   6
ENDBRANCH   4   5
ENDBRANCH   3   4
ENDBRANCH   2   3
ENDBRANCH   1   2
BRANCH   1   9
ATOM      9  C   UNL     1       4.280   4.640   9.891  1.00  0.00     0.000 C 
BRANCH   9  10
ATOM     10  C   UNL     1       3.129   3.649  10.125  1.00  0.00    -0.000 C 
BRANCH  10  11
ATOM     11  C   UNL     1       3.495   2.207   9.736  1.00  0.00    -0.000 C 
BRANCH  11  12
ATOM     12  C   UNL     1       2.392   1.178  10.068  1.00  0.00    -0.000 C 
BRANCH  12  13
ATOM     13  C   UNL     1       0.988   1.705   9.742  1.00  0.00    -0.003 C 
ATOM     14  C   UNL     1      -0.046   0.582   9.780  1.00  0.00     0.004 C 
ENDBRANCH  12  13
ENDBRANCH  11  12
ENDBRANCH  10  11
ENDBRANCH   9  10
ENDBRANCH   1   9
TORSDOF 10
ENDMDL
MODEL 2
REMARK VINA RESULT:    -3.515      5.056      8.926
REMARK INTER + INTRA:          -5.715
REMARK INTER:                  -5.503
REMARK INTRA:                  -0.212
REMARK UNBOUND:                -0.145
REMARK SMILES CCCCCCCCCCCC(=O)[O-]
REMARK SMILES IDX 7 1 8 2 9 3 10 4 11 5 12 6 13 7 14 8 6 9 5 10 4 11 3 12 2 13
REMARK SMILES IDX 1 14
REMARK H PARENT
REMARK Flexibility Score: inf
ROOT
ATOM      1  C   UNL     1       3.706   3.807   9.874  1.00  0.00     0.000 C 
ENDROOT
BRANCH   1   2
ATOM      2  C   UNL     1       3.326   2.334  10.102  1.00  0.00     0.000 C 
BRANCH   2   3
ATOM      3  C   UNL     1       1.805   2.115  10.125  1.00  0.00     0.000 C 
BRANCH   3   4
ATOM      4  C   UNL     1       1.418   0.627  10.074  1.00  0.00     0.006 C 
BRANCH   4   5
ATOM      5  C   UNL     1      -0.097   0.429   9.931  1.00  0.00     0.053 C 
BRANCH   5   6
ATOM      6  C   UNL     1      -0.467  -1.023   9.920  1.00  0.00     0.041 C 
ATOM      7  O   UNL     1       0.428  -1.904   9.843  1.00  0.00    -0.550 OA
ATOM      8  O   UNL     1      -1.804  -1.400   9.958  1.00  0.00    -0.550 OA
ENDBRANCH   5   6
ENDBRANCH   4   5
ENDBRANCH   3   4
ENDBRANCH   2   3
ENDBRANCH   1   2
BRANCH   1   9
ATOM      9  C   UNL     1       5.205   4.070  10.097  1.00  0.00     0.000 C 
BRANCH   9  10
ATOM     10  C   UNL     1       5.594   5.537   9.851  1.00  0.00    -0.000 C 
BRANCH  10  11
ATOM     11  C   UNL     1       7.040   5.696   9.352  1.00  0.00    -0.000 C 
BRANCH  11  12
ATOM     12  C   UNL     1       7.190   6.727   8.213  1.00  0.00    -0.000 C 
BRANCH  12  13
ATOM     13  C   UNL     1       8.359   7.692   8.452  1.00  0.00    -0.003 C 
ATOM     14  C   UNL     1       7.860   9.063   8.902  1.00  0.00     0.004 C 
ENDBRANCH  12  13
ENDBRANCH  11  12
ENDBRANCH  10  11
ENDBRANCH   9  10
ENDBRANCH   1   9
TORSDOF 10
ENDMDL
MODEL 3
REMARK VINA RESULT:    -3.436     10.041     14.724
REMARK INTER + INTRA:          -5.590
REMARK INTER:                  -5.082
REMARK INTRA:                  -0.507
REMARK UNBOUND:                -0.145
REMARK SMILES CCCCCCCCCCCC(=O)[O-]
REMARK SMILES IDX 7 1 8 2 9 3 10 4 11 5 12 6 13 7 14 8 6 9 5 10 4 11 3 12 2 13
REMARK SMILES IDX 1 14
REMARK H PARENT
REMARK Flexibility Score: inf
ROOT
ATOM      1  C   UNL     1      -4.128  -3.070   9.201  1.00  0.00     0.000 C 
ENDROOT
BRANCH   1   2
ATOM      2  C   UNL     1      -4.920  -4.268   9.755  1.00  0.00     0.000 C 
BRANCH   2   3
ATOM      3  C   UNL     1      -4.151  -5.593   9.626  1.00  0.00     0.000 C 
BRANCH   3   4
ATOM      4  C   UNL     1      -4.968  -6.687   8.917  1.00  0.00     0.006 C 
BRANCH   4   5
ATOM      5  C   UNL     1      -6.414  -6.748   9.426  1.00  0.00     0.053 C 
BRANCH   5   6
ATOM      6  C   UNL     1      -7.402  -6.632   8.306  1.00  0.00     0.041 C 
ATOM      7  O   UNL     1      -8.538  -7.165   8.405  1.00  0.00    -0.550 OA
ATOM      8  O   UNL     1      -7.053  -5.965   7.138  1.00  0.00    -0.550 OA
ENDBRANCH   5   6
ENDBRANCH   4   5
ENDBRANCH   3   4
ENDBRANCH   2   3
ENDBRANCH   1   2
BRANCH   1   9
ATOM      9  C   UNL     1      -4.304  -1.803  10.054  1.00  0.00     0.000 C 
BRANCH   9  10
ATOM     10  C   UNL     1      -3.025  -0.953  10.124  1.00  0.00    -0.000 C 
BRANCH  10  11
ATOM     11  C   UNL     1      -1.765  -1.735   9.717  1.00  0.00    -0.000 C 
BRANCH  11  12
ATOM     12  C   UNL     1      -0.448  -1.039  10.125  1.00  0.00    -0.000 C 
BRANCH  12  13
ATOM     13  C   UNL     1      -0.523   0.486   9.971  1.00  0.00    -0.003 C 
ATOM     14  C   UNL     1       0.869   1.096   9.831  1.00  0.00     0.004 C 
ENDBRANCH  12  13
ENDBRANCH  11  12
ENDBRANCH  10  11
ENDBRANCH   9  10
ENDBRANCH   1   9
TORSDOF 10
ENDMDL
MODEL 4
REMARK VINA RESULT:    -3.329      8.023     12.325
REMARK INTER + INTRA:          -5.421
REMARK INTER:                  -4.912
REMARK INTRA:                  -0.509
REMARK UNBOUND:                -0.145
REMARK SMILES CCCCCCCCCCCC(=O)[O-]
REMARK SMILES IDX 7 1 8 2 9 3 10 4 11 5 12 6 13 7 14 8 6 9 5 10 4 11 3 12 2 13
REMARK SMILES IDX 1 14
REMARK H PARENT
REMARK Flexibility Score: inf
ROOT
ATOM      1  C   UNL     1      -4.588  -4.262   9.731  1.00  0.00     0.000 C 
ENDROOT
BRANCH   1   2
ATOM      2  C   UNL     1      -3.994  -2.898  10.124  1.00  0.00     0.000 C 
BRANCH   2   3
ATOM      3  C   UNL     1      -2.530  -2.745   9.681  1.00  0.00     0.000 C 
BRANCH   3   4
ATOM      4  C   UNL     1      -1.930  -1.383  10.073  1.00  0.00     0.006 C 
BRANCH   4   5
ATOM      5  C   UNL     1      -0.398  -1.381   9.990  1.00  0.00     0.053 C 
BRANCH   5   6
ATOM      6  C   UNL     1       0.157   0.010  10.028  1.00  0.00     0.041 C 
ATOM      7  O   UNL     1       1.401   0.194  10.076  1.00  0.00    -0.550 OA
ATOM      8  O   UNL     1      -0.702   1.102  10.047  1.00  0.00    -0.550 OA
ENDBRANCH   5   6
ENDBRANCH   4   5
ENDBRANCH   3   4
ENDBRANCH   2   3
ENDBRANCH   1   2
BRANCH   1   9
ATOM      9  C   UNL     1      -3.522  -5.365   9.641  1.00  0.00     0.000 C 
BRANCH   9  10
ATOM     10  C   UNL     1      -4.050  -6.651   8.984  1.00  0.00    -0.000 C 
BRANCH  10  11
ATOM     11  C   UNL     1      -4.498  -7.705  10.011  1.00  0.00    -0.000 C 
BRANCH  11  12
ATOM     12  C   UNL     1      -5.954  -8.181   9.812  1.00  0.00    -0.000 C 
BRANCH  12  13
ATOM     13  C   UNL     1      -6.737  -7.273   8.854  1.00  0.00    -0.003 C 
ATOM     14  C   UNL     1      -8.097  -7.875   8.512  1.00  0.00     0.004 C 
ENDBRANCH  12  13
ENDBRANCH  11  12
ENDBRANCH  10  11
ENDBRANCH   9  10
ENDBRANCH   1   9
TORSDOF 10
ENDMDL
MODEL 5
REMARK VINA RESULT:    -3.310     21.203     22.066
REMARK INTER + INTRA:          -5.391
REMARK INTER:                  -5.052
REMARK INTRA:                  -0.338
REMARK UNBOUND:                -0.145
REMARK SMILES CCCCCCCCCCCC(=O)[O-]
REMARK SMILES IDX 7 1 8 2 9 3 10 4 11 5 12 6 13 7 14 8 6 9 5 10 4 11 3 12 2 13
REMARK SMILES IDX 1 14
REMARK H PARENT
REMARK Flexibility Score: inf
ROOT
ATOM      1  C   UNL     1      -4.323   5.248  -8.951  1.00  0.00     0.000 C 
ENDROOT
BRANCH   1   2
ATOM      2  C   UNL     1      -5.384   6.361  -9.004  1.00  0.00     0.000 C 
BRANCH   2   3
ATOM      3  C   UNL     1      -6.452   6.208  -7.909  1.00  0.00     0.000 C 
BRANCH   3   4
ATOM      4  C   UNL     1      -7.878   6.454  -8.432  1.00  0.00     0.006 C 
BRANCH   4   5
ATOM      5  C   UNL     1      -7.901   7.452  -9.597  1.00  0.00     0.053 C 
BRANCH   5   6
ATOM      6  C   UNL     1      -8.675   8.688  -9.253  1.00  0.00     0.041 C 
ATOM      7  O   UNL     1      -9.934   8.665  -9.243  1.00  0.00    -0.550 OA
ATOM      8  O   UNL     1      -8.006   9.874  -8.977  1.00  0.00    -0.550 OA
ENDBRANCH   5   6
ENDBRANCH   4   5
ENDBRANCH   3   4
ENDBRANCH   2   3
ENDBRANCH   1   2
BRANCH   1   9
ATOM      9  C   UNL     1      -4.444   4.262 -10.125  1.00  0.00     0.000 C 
BRANCH   9  10
ATOM     10  C   UNL     1      -3.918   2.859  -9.780  1.00  0.00    -0.000 C 
BRANCH  10  11
ATOM     11  C   UNL     1      -2.411   2.704 -10.048  1.00  0.00    -0.000 C 
BRANCH  11  12
ATOM     12  C   UNL     1      -1.945   1.234 -10.124  1.00  0.00    -0.000 C 
BRANCH  12  13
ATOM     13  C   UNL     1      -0.427   1.095  -9.945  1.00  0.00    -0.003 C 
ATOM     14  C   UNL     1      -0.010  -0.372  -9.889  1.00  0.00     0.004 C 
ENDBRANCH  12  13
ENDBRANCH  11  12
ENDBRANCH  10  11
ENDBRANCH   9  10
ENDBRANCH   1   9
TORSDOF 10
ENDMDL
MODEL 6
REMARK VINA RESULT:    -3.308     11.239     16.020
REMARK INTER + INTRA:          -5.387
REMARK INTER:                  -5.083
REMARK INTRA:                  -0.304
REMARK UNBOUND:                -0.145
REMARK SMILES CCCCCCCCCCCC(=O)[O-]
REMARK SMILES IDX 7 1 8 2 9 3 10 4 11 5 12 6 13 7 14 8 6 9 5 10 4 11 3 12 2 13
REMARK SMILES IDX 1 14
REMARK H PARENT
REMARK Flexibility Score: inf
ROOT
ATOM      1  C   UNL     1      -3.599  -5.192   9.067  1.00  0.00     0.000 C 
ENDROOT
BRANCH   1   2
ATOM      2  C   UNL     1      -4.074  -6.632   9.332  1.00  0.00     0.000 C 
BRANCH   2   3
ATOM      3  C   UNL     1      -5.564  -6.701   9.704  1.00  0.00     0.000 C 
BRANCH   3   4
ATOM      4  C   UNL     1      -6.489  -6.461   8.498  1.00  0.00     0.006 C 
BRANCH   4   5
ATOM      5  C   UNL     1      -7.971  -6.461   8.897  1.00  0.00     0.053 C 
BRANCH   5   6
ATOM      6  C   UNL     1      -8.573  -7.829   8.793  1.00  0.00     0.041 C 
ATOM      7  O   UNL     1      -7.854  -8.816   8.491  1.00  0.00    -0.550 OA
ATOM      8  O   UNL     1      -9.936  -8.005   8.996  1.00  0.00    -0.550 OA
ENDBRANCH   5   6
ENDBRANCH   4   5
ENDBRANCH   3   4
ENDBRANCH   2   3
ENDBRANCH   1   2
BRANCH   1   9
ATOM      9  C   UNL     1      -4.262  -4.171  10.006  1.00  0.00     0.000 C 
BRANCH   9  10
ATOM     10  C   UNL     1      -3.675  -2.758   9.858  1.00  0.00    -0.000 C 
BRANCH  10  11
ATOM     11  C   UNL     1      -2.161  -2.710  10.125  1.00  0.00    -0.000 C 
BRANCH  11  12
ATOM     12  C   UNL     1      -1.521  -1.341   9.808  1.00  0.00    -0.000 C 
BRANCH  12  13
ATOM     13  C   UNL     1       0.008  -1.424   9.704  1.00  0.00    -0.003 C 
ATOM     14  C   UNL     1       0.659  -0.091  10.064  1.00  0.00     0.004 C 
ENDBRANCH  12  13
ENDBRANCH  11  12
ENDBRANCH  10  11
ENDBRANCH   9  10
ENDBRANCH   1   9
TORSDOF 10
ENDMDL
MODEL 7
REMARK VINA RESULT:    -3.280     21.099     21.849
REMARK INTER + INTRA:          -5.343
REMARK INTER:                  -4.858
REMARK INTRA:                  -0.486
REMARK UNBOUND:                -0.145
REMARK SMILES CCCCCCCCCCCC(=O)[O-]
REMARK SMILES IDX 7 1 8 2 9 3 10 4 11 5 12 6 13 7 14 8 6 9 5 10 4 11 3 12 2 13
REMARK SMILES IDX 1 14
REMARK H PARENT
REMARK Flexibility Score: inf
ROOT
ATOM      1  C   UNL     1       5.332  -3.836  -9.988  1.00  0.00     0.000 C 
ENDROOT
BRANCH   1   2
ATOM      2  C   UNL     1       6.474  -4.862  -9.882  1.00  0.00     0.000 C 
BRANCH   2   3
ATOM      3  C   UNL     1       5.963  -6.286  -9.613  1.00  0.00     0.000 C 
BRANCH   3   4
ATOM      4  C   UNL     1       6.929  -7.370 -10.122  1.00  0.00     0.006 C 
BRANCH   4   5
ATOM      5  C   UNL     1       8.362  -7.149  -9.619  1.00  0.00     0.053 C 
BRANCH   5   6
ATOM      6  C   UNL     1       8.689  -8.045  -8.464  1.00  0.00     0.041 C 
ATOM      7  O   UNL     1       8.211  -7.809  -7.324  1.00  0.00    -0.550 OA
ATOM      8  O   UNL     1       9.551  -9.120  -8.641  1.00  0.00    -0.550 OA
ENDBRANCH   5   6
ENDBRANCH   4   5
ENDBRANCH   3   4
ENDBRANCH   2   3
ENDBRANCH   1   2
BRANCH   1   9
ATOM      9  C   UNL     1       3.944  -4.484  -9.850  1.00  0.00     0.000 C 
BRANCH   9  10
ATOM     10  C   UNL     1       2.798  -3.497 -10.125  1.00  0.00    -0.000 C 
BRANCH  10  11
ATOM     11  C   UNL     1       3.143  -2.054  -9.721  1.00  0.00    -0.000 C 
BRANCH  11  12
ATOM     12  C   UNL     1       2.065  -1.024 -10.125  1.00  0.00    -0.000 C 
BRANCH  12  13
ATOM     13  C   UNL     1       0.663  -1.434  -9.652  1.00  0.00    -0.003 C 
ATOM     14  C   UNL     1      -0.354  -0.327  -9.918  1.00  0.00     0.004 C 
ENDBRANCH  12  13
ENDBRANCH  11  12
ENDBRANCH  10  11
ENDBRANCH   9  10
ENDBRANCH   1   9
TORSDOF 10
ENDMDL
MODEL 8
REMARK VINA RESULT:    -3.255     21.271     22.178
REMARK INTER + INTRA:          -5.303
REMARK INTER:                  -4.401
REMARK INTRA:                  -0.903
REMARK UNBOUND:                -0.145
REMARK SMILES CCCCCCCCCCCC(=O)[O-]
REMARK SMILES IDX 7 1 8 2 9 3 10 4 11 5 12 6 13 7 14 8 6 9 5 10 4 11 3 12 2 13
REMARK SMILES IDX 1 14
REMARK H PARENT
REMARK Flexibility Score: inf
ROOT
ATOM      1  C   UNL     1      -6.676   5.496  -8.260  1.00  0.00     0.000 C 
ENDROOT
BRANCH   1   2
ATOM      2  C   UNL     1      -6.250   5.489  -9.739  1.00  0.00     0.000 C 
BRANCH   2   3
ATOM      3  C   UNL     1      -4.744   5.230  -9.916  1.00  0.00     0.000 C 
BRANCH   3   4
ATOM      4  C   UNL     1      -4.353   3.774  -9.613  1.00  0.00     0.006 C 
BRANCH   4   5
ATOM      5  C   UNL     1      -2.947   3.435 -10.125  1.00  0.00     0.053 C 
BRANCH   5   6
ATOM      6  C   UNL     1      -2.624   1.984  -9.940  1.00  0.00     0.041 C 
ATOM      7  O   UNL     1      -3.538   1.120  -9.992  1.00  0.00    -0.550 OA
ATOM      8  O   UNL     1      -1.319   1.590  -9.676  1.00  0.00    -0.550 OA
ENDBRANCH   5   6
ENDBRANCH   4   5
ENDBRANCH   3   4
ENDBRANCH   2   3
ENDBRANCH   1   2
BRANCH   1   9
ATOM      9  C   UNL     1      -7.744   6.561  -7.961  1.00  0.00     0.000 C 
BRANCH   9  10
ATOM     10  C   UNL     1      -8.300   7.221  -9.234  1.00  0.00    -0.000 C 
BRANCH  10  11
ATOM     11  C   UNL     1      -8.686   8.694  -9.023  1.00  0.00    -0.000 C 
BRANCH  11  12
ATOM     12  C   UNL     1      -7.495   9.669  -9.146  1.00  0.00    -0.000 C 
BRANCH  12  13
ATOM     13  C   UNL     1      -6.414   9.149 -10.104  1.00  0.00    -0.003 C 
ATOM     14  C   UNL     1      -5.075   8.985  -9.390  1.00  0.00     0.004 C 
ENDBRANCH  12  13
ENDBRANCH  11  12
ENDBRANCH  10  11
ENDBRANCH   9  10
ENDBRANCH   1   9
TORSDOF 10
ENDMDL
