MODEL 1
REMARK VINA RESULT:    -4.296      0.000      0.000
REMARK INTER + INTRA:          -4.568
REMARK INTER:                  -4.547
REMARK INTRA:                  -0.021
REMARK UNBOUND:                -0.021
REMARK SMILES O=C([O-])c1cccnc1
REMARK SMILES IDX 4 1 5 2 9 3 6 4 8 5 7 6 2 7 1 8 3 9
REMARK H PARENT
REMARK Flexibility Score: inf
ROOT
ATOM      1  C   UNL     1      21.401  17.602  26.788  1.00  0.00     0.016 A 
ATOM      2  C   UNL     1      20.001  17.487  26.830  1.00  0.00     0.013 A 
ATOM      3  C   UNL     1      22.043  18.329  27.806  1.00  0.00     0.120 A 
ATOM      4  C   UNL     1      19.280  18.085  27.864  1.00  0.00     0.021 A 
ATOM      5  N   UNL     1      21.315  18.903  28.802  1.00  0.00    -0.264 NA
ATOM      6  C   UNL     1      19.962  18.797  28.852  1.00  0.00     0.111 A 
ENDROOT
BRANCH   1   7
ATOM      7  C   UNL     1      22.185  16.976  25.702  1.00  0.00     0.073 C 
ATOM      8  O   UNL     1      21.819  15.880  25.198  1.00  0.00    -0.545 OA
ATOM      9  O   UNL     1      23.337  17.586  25.221  1.00  0.00    -0.545 OA
ENDBRANCH   1   7
TORSDOF 1
ENDMDL
MODEL 2
REMARK VINA RESULT:    -4.287     15.806     16.783
REMARK INTER + INTRA:          -4.559
REMARK INTER:                  -4.536
REMARK INTRA:                  -0.023
REMARK UNBOUND:                -0.021
REMARK SMILES O=C([O-])c1cccnc1
REMARK SMILES IDX 4 1 5 2 9 3 6 4 8 5 7 6 2 7 1 8 3 9
REMARK H PARENT
REMARK Flexibility Score: inf
ROOT
ATOM      1  C   UNL     1      34.352  26.802  22.996  1.00  0.00     0.016 A 
ATOM      2  C   UNL     1      34.389  26.967  24.391  1.00  0.00     0.013 A 
ATOM      3  C   UNL     1      34.862  27.834  22.187  1.00  0.00     0.120 A 
ATOM      4  C   UNL     1      34.921  28.132  24.944  1.00  0.00     0.021 A 
ATOM      5  N   UNL     1      35.374  28.959  22.753  1.00  0.00    -0.264 NA
ATOM      6  C   UNL     1      35.415  29.128  24.101  1.00  0.00     0.111 A 
ENDROOT
BRANCH   1   7
ATOM      7  C   UNL     1      33.794  25.576  22.388  1.00  0.00     0.073 C 
ATOM      8  O   UNL     1      33.006  24.839  23.041  1.00  0.00    -0.545 OA
ATOM      9  O   UNL     1      34.128  25.218  21.087  1.00  0.00    -0.545 OA
ENDBRANCH   1   7
TORSDOF 1
ENDMDL
MODEL 3
REMARK VINA RESULT:    -4.117     14.104     14.491
REMARK INTER + INTRA:          -4.379
REMARK INTER:                  -4.357
REMARK INTRA:                  -0.022
REMARK UNBOUND:                -0.021
REMARK SMILES O=C([O-])c1cccnc1
REMARK SMILES IDX 4 1 5 2 9 3 6 4 8 5 7 6 2 7 1 8 3 9
REMARK H PARENT
REMARK Flexibility Score: inf
ROOT
ATOM      1  C   UNL     1      21.405  31.122  22.994  1.00  0.00     0.016 A 
ATOM      2  C   UNL     1      20.762  30.197  22.155  1.00  0.00     0.013 A 
ATOM      3  C   UNL     1      21.903  32.307  22.425  1.00  0.00     0.120 A 
ATOM      4  C   UNL     1      20.628  30.463  20.792  1.00  0.00     0.021 A 
ATOM      5  N   UNL     1      21.759  32.542  21.093  1.00  0.00    -0.264 NA
ATOM      6  C   UNL     1      21.138  31.654  20.273  1.00  0.00     0.111 A 
ENDROOT
BRANCH   1   7
ATOM      7  C   UNL     1      21.558  30.861  24.442  1.00  0.00     0.073 C 
ATOM      8  O   UNL     1      21.583  29.679  24.879  1.00  0.00    -0.545 OA
ATOM      9  O   UNL     1      21.676  31.914  25.340  1.00  0.00    -0.545 OA
ENDBRANCH   1   7
TORSDOF 1
ENDMDL
MODEL 4
REMARK VINA RESULT:    -4.049      1.997      2.805
REMARK INTER + INTRA:          -4.307
REMARK INTER:                  -4.289
REMARK INTRA:                  -0.018
REMARK UNBOUND:                -0.021
REMARK SMILES O=C([O-])c1cccnc1
REMARK SMILES IDX 4 1 5 2 9 3 6 4 8 5 7 6 2 7 1 8 3 9
REMARK H PARENT
REMARK Flexibility Score: inf
ROOT
ATOM      1  C   UNL     1      20.503  18.657  28.700  1.00  0.00     0.016 A 
ATOM      2  C   UNL     1      21.039  18.449  29.982  1.00  0.00     0.013 A 
ATOM      3  C   UNL     1      19.293  19.363  28.587  1.00  0.00     0.120 A 
ATOM      4  C   UNL     1      20.373  18.938  31.106  1.00  0.00     0.021 A 
ATOM      5  N   UNL     1      18.664  19.828  29.700  1.00  0.00    -0.264 NA
ATOM      6  C   UNL     1      19.174  19.633  30.944  1.00  0.00     0.111 A 
ENDROOT
BRANCH   1   7
ATOM      7  C   UNL     1      21.192  18.148  27.494  1.00  0.00     0.073 C 
ATOM      8  O   UNL     1      20.578  17.426  26.663  1.00  0.00    -0.545 OA
ATOM      9  O   UNL     1      22.526  18.458  27.260  1.00  0.00    -0.545 OA
ENDBRANCH   1   7
TORSDOF 1
ENDMDL
MODEL 5
REMARK VINA RESULT:    -4.031      3.435      4.456
REMARK INTER + INTRA:          -4.287
REMARK INTER:                  -4.265
REMARK INTRA:                  -0.023
REMARK UNBOUND:                -0.021
REMARK SMILES O=C([O-])c1cccnc1
REMARK SMILES IDX 4 1 5 2 9 3 6 4 8 5 7 6 2 7 1 8 3 9
REMARK H PARENT
REMARK Flexibility Score: inf
ROOT
ATOM      1  C   UNL     1      20.280  18.718  28.845  1.00  0.00     0.016 A 
ATOM      2  C   UNL     1      21.607  18.475  28.451  1.00  0.00     0.013 A 
ATOM      3  C   UNL     1      19.242  18.187  28.058  1.00  0.00     0.120 A 
ATOM      4  C   UNL     1      21.871  17.724  27.305  1.00  0.00     0.021 A 
ATOM      5  N   UNL     1      19.528  17.460  26.945  1.00  0.00    -0.264 NA
ATOM      6  C   UNL     1      20.807  17.219  26.556  1.00  0.00     0.111 A 
ENDROOT
BRANCH   1   7
ATOM      7  C   UNL     1      19.978  19.510  30.056  1.00  0.00     0.073 C 
ATOM      8  O   UNL     1      20.810  20.346  30.498  1.00  0.00    -0.545 OA
ATOM      9  O   UNL     1      18.770  19.344  30.724  1.00  0.00    -0.545 OA
ENDBRANCH   1   7
TORSDOF 1
ENDMDL
MODEL 6
REMARK VINA RESULT:    -3.990      3.215      3.906
REMARK INTER + INTRA:          -4.245
REMARK INTER:                  -4.224
REMARK INTRA:                  -0.021
REMARK UNBOUND:                -0.021
REMARK SMILES O=C([O-])c1cccnc1
REMARK SMILES IDX 4 1 5 2 9 3 6 4 8 5 7 6 2 7 1 8 3 9
REMARK H PARENT
REMARK Flexibility Score: inf
ROOT
ATOM      1  C   UNL     1      20.601  18.511  28.737  1.00  0.00     0.016 A 
ATOM      2  C   UNL     1      19.639  17.849  27.956  1.00  0.00     0.013 A 
ATOM      3  C   UNL     1      21.929  18.542  28.278  1.00  0.00     0.120 A 
ATOM      4  C   UNL     1      20.010  17.242  26.756  1.00  0.00     0.021 A 
ATOM      5  N   UNL     1      22.263  17.941  27.104  1.00  0.00    -0.264 NA
ATOM      6  C   UNL     1      21.341  17.299  26.341  1.00  0.00     0.111 A 
ENDROOT
BRANCH   1   7
ATOM      7  C   UNL     1      20.230  19.162  30.012  1.00  0.00     0.073 C 
ATOM      8  O   UNL     1      19.367  18.641  30.769  1.00  0.00    -0.545 OA
ATOM      9  O   UNL     1      20.829  20.356  30.395  1.00  0.00    -0.545 OA
ENDBRANCH   1   7
TORSDOF 1
ENDMDL
MODEL 7
REMARK VINA RESULT:    -3.910     14.570     15.006
REMARK INTER + INTRA:          -4.159
REMARK INTER:                  -4.138
REMARK INTRA:                  -0.021
REMARK UNBOUND:                -0.021
REMARK SMILES O=C([O-])c1cccnc1
REMARK SMILES IDX 4 1 5 2 9 3 6 4 8 5 7 6 2 7 1 8 3 9
REMARK H PARENT
REMARK Flexibility Score: inf
ROOT
ATOM      1  C   UNL     1      21.640  31.775  23.485  1.00  0.00     0.016 A 
ATOM      2  C   UNL     1      21.730  32.638  24.590  1.00  0.00     0.013 A 
ATOM      3  C   UNL     1      21.914  32.294  22.207  1.00  0.00     0.120 A 
ATOM      4  C   UNL     1      22.084  33.975  24.407  1.00  0.00     0.021 A 
ATOM      5  N   UNL     1      22.256  33.602  22.057  1.00  0.00    -0.264 NA
ATOM      6  C   UNL     1      22.347  34.444  23.120  1.00  0.00     0.111 A 
ENDROOT
BRANCH   1   7
ATOM      7  C   UNL     1      21.266  30.355  23.655  1.00  0.00     0.073 C 
ATOM      8  O   UNL     1      20.626  29.749  22.754  1.00  0.00    -0.545 OA
ATOM      9  O   UNL     1      21.617  29.667  24.811  1.00  0.00    -0.545 OA
ENDBRANCH   1   7
TORSDOF 1
ENDMDL
MODEL 8
REMARK VINA RESULT:    -3.859     15.945     16.927
REMARK INTER + INTRA:          -4.105
REMARK INTER:                  -4.086
REMARK INTRA:                  -0.019
REMARK UNBOUND:                -0.021
REMARK SMILES O=C([O-])c1cccnc1
REMARK SMILES IDX 4 1 5 2 9 3 6 4 8 5 7 6 2 7 1 8 3 9
REMARK H PARENT
REMARK Flexibility Score: inf
ROOT
ATOM      1  C   UNL     1      34.234  26.604  21.121  1.00  0.00     0.016 A 
ATOM      2  C   UNL     1      34.729  27.918  21.088  1.00  0.00     0.013 A 
ATOM      3  C   UNL     1      34.002  26.008  22.374  1.00  0.00     0.120 A 
ATOM      4  C   UNL     1      34.981  28.602  22.278  1.00  0.00     0.021 A 
ATOM      5  N   UNL     1      34.257  26.697  23.518  1.00  0.00    -0.264 NA
ATOM      6  C   UNL     1      34.736  27.968  23.497  1.00  0.00     0.111 A 
ENDROOT
BRANCH   1   7
ATOM      7  C   UNL     1      33.959  25.861  19.873  1.00  0.00     0.073 C 
ATOM      8  O   UNL     1      34.835  25.782  18.969  1.00  0.00    -0.545 OA
ATOM      9  O   UNL     1      32.733  25.237  19.677  1.00  0.00    -0.545 OA
ENDBRANCH   1   7
TORSDOF 1
ENDMDL
MODEL 9
REMARK VINA RESULT:    -3.849     14.211     14.776
REMARK INTER + INTRA:          -4.096
REMARK INTER:                  -4.072
REMARK INTRA:                  -0.023
REMARK UNBOUND:                -0.021
REMARK SMILES O=C([O-])c1cccnc1
REMARK SMILES IDX 4 1 5 2 9 3 6 4 8 5 7 6 2 7 1 8 3 9
REMARK H PARENT
REMARK Flexibility Score: inf
ROOT
ATOM      1  C   UNL     1      21.711  32.087  25.274  1.00  0.00     0.016 A 
ATOM      2  C   UNL     1      22.016  33.386  24.834  1.00  0.00     0.013 A 
ATOM      3  C   UNL     1      21.567  31.866  26.655  1.00  0.00     0.120 A 
ATOM      4  C   UNL     1      22.167  34.421  25.758  1.00  0.00     0.021 A 
ATOM      5  N   UNL     1      21.722  32.892  27.534  1.00  0.00    -0.264 NA
ATOM      6  C   UNL     1      22.015  34.152  27.119  1.00  0.00     0.111 A 
ENDROOT
BRANCH   1   7
ATOM      7  C   UNL     1      21.545  30.976  24.313  1.00  0.00     0.073 C 
ATOM      8  O   UNL     1      21.385  31.211  23.085  1.00  0.00    -0.545 OA
ATOM      9  O   UNL     1      21.564  29.657  24.749  1.00  0.00    -0.545 OA
ENDBRANCH   1   7
TORSDOF 1
ENDMDL
