MODEL 1
REMARK VINA RESULT:    -5.829      0.000      0.000
REMARK INTER + INTRA:          -6.340
REMARK INTER:                  -6.340
REMARK INTRA:                   0.000
REMARK UNBOUND:                 0.000
REMARK SMILES Cc1cc(O)c2c(c1)C(=O)c1cc(O)cc(O)c1C2=O
REMARK SMILES IDX 1 1 2 2 8 3 7 4 6 5 4 6 3 7 19 8 20 9 18 10 11 11 9 12 10 13
REMARK SMILES IDX 12 14 13 15 15 16 16 17 5 18 17 20 14 22
REMARK H PARENT 5 19 17 21 14 23
REMARK Flexibility Score: inf
ROOT
ATOM      1  C   UNL     1      35.919  -0.530   4.275  1.00  0.00     0.044 C 
ATOM      2  C   UNL     1      34.598  -0.509   4.986  1.00  0.00    -0.047 A 
ATOM      3  C   UNL     1      33.407  -0.439   4.256  1.00  0.00     0.016 A 
ATOM      4  C   UNL     1      32.166  -0.375   4.913  1.00  0.00     0.038 A 
ATOM      5  C   UNL     1      32.118  -0.354   6.326  1.00  0.00     0.076 A 
ATOM      6  C   UNL     1      33.327  -0.471   7.060  1.00  0.00     0.127 A 
ATOM      7  C   UNL     1      34.550  -0.513   6.384  1.00  0.00     0.050 A 
ATOM      8  C   UNL     1      30.803  -0.136   6.980  1.00  0.00     0.201 C 
ATOM      9  O   UNL     1      30.745   0.444   8.097  1.00  0.00    -0.288 OA
ATOM     10  C   UNL     1      29.550  -0.432   6.236  1.00  0.00     0.076 A 
ATOM     11  C   UNL     1      29.603  -0.453   4.823  1.00  0.00     0.041 A 
ATOM     12  C   UNL     1      30.907  -0.334   4.132  1.00  0.00     0.194 C 
ATOM     13  O   UNL     1      30.948  -0.222   2.875  1.00  0.00    -0.289 OA
ATOM     14  C   UNL     1      28.417  -0.591   4.082  1.00  0.00     0.059 A 
ATOM     15  C   UNL     1      27.187  -0.724   4.732  1.00  0.00     0.120 A 
ATOM     16  C   UNL     1      27.136  -0.745   6.125  1.00  0.00     0.093 A 
ATOM     17  C   UNL     1      28.304  -0.629   6.886  1.00  0.00     0.131 A 
ENDROOT
BRANCH   6  18
ATOM     18  O   UNL     1      33.356  -0.580   8.453  1.00  0.00    -0.507 OA
ATOM     19  H   UNL     1      33.894   0.031   9.051  1.00  0.00     0.293 HD
ENDBRANCH   6  18
BRANCH  17  20
ATOM     20  O   UNL     1      28.185  -0.750   8.272  1.00  0.00    -0.507 OA
ATOM     21  H   UNL     1      28.743  -1.383   8.828  1.00  0.00     0.293 HD
ENDBRANCH  17  20
BRANCH  15  22
ATOM     22  O   UNL     1      26.007  -0.849   4.000  1.00  0.00    -0.508 OA
ATOM     23  H   UNL     1      25.121  -1.043   4.452  1.00  0.00     0.293 HD
ENDBRANCH  15  22
TORSDOF 3
ENDMDL
MODEL 2
REMARK VINA RESULT:    -5.638     13.649     16.288
REMARK INTER + INTRA:          -6.133
REMARK INTER:                  -6.133
REMARK INTRA:                   0.000
REMARK UNBOUND:                 0.000
REMARK SMILES Cc1cc(O)c2c(c1)C(=O)c1cc(O)cc(O)c1C2=O
REMARK SMILES IDX 1 1 2 2 8 3 7 4 6 5 4 6 3 7 19 8 20 9 18 10 11 11 9 12 10 13
REMARK SMILES IDX 12 14 13 15 15 16 16 17 5 18 17 20 14 22
REMARK H PARENT 5 19 17 21 14 23
REMARK Flexibility Score: inf
ROOT
ATOM      1  C   UNL     1      19.030  -6.486  18.527  1.00  0.00     0.044 C 
ATOM      2  C   UNL     1      20.209  -5.614  18.210  1.00  0.00    -0.047 A 
ATOM      3  C   UNL     1      20.537  -4.541  19.047  1.00  0.00     0.016 A 
ATOM      4  C   UNL     1      21.612  -3.692  18.736  1.00  0.00     0.038 A 
ATOM      5  C   UNL     1      22.356  -3.903  17.552  1.00  0.00     0.076 A 
ATOM      6  C   UNL     1      22.047  -5.019  16.731  1.00  0.00     0.127 A 
ATOM      7  C   UNL     1      20.960  -5.838  17.052  1.00  0.00     0.050 A 
ATOM      8  C   UNL     1      23.386  -2.899  17.182  1.00  0.00     0.201 C 
ATOM      9  O   UNL     1      23.655  -2.692  15.969  1.00  0.00    -0.288 OA
ATOM     10  C   UNL     1      23.960  -2.011  18.227  1.00  0.00     0.076 A 
ATOM     11  C   UNL     1      23.213  -1.803  19.410  1.00  0.00     0.041 A 
ATOM     12  C   UNL     1      21.973  -2.578  19.645  1.00  0.00     0.194 C 
ATOM     13  O   UNL     1      21.235  -2.306  20.632  1.00  0.00    -0.289 OA
ATOM     14  C   UNL     1      23.654  -0.866  20.359  1.00  0.00     0.059 A 
ATOM     15  C   UNL     1      24.835  -0.148  20.150  1.00  0.00     0.120 A 
ATOM     16  C   UNL     1      25.595  -0.380  19.005  1.00  0.00     0.093 A 
ATOM     17  C   UNL     1      25.188  -1.321  18.054  1.00  0.00     0.131 A 
ENDROOT
BRANCH   6  18
ATOM     18  O   UNL     1      22.809  -5.367  15.614  1.00  0.00    -0.507 OA
ATOM     19  H   UNL     1      23.368  -4.707  15.091  1.00  0.00     0.293 HD
ENDBRANCH   6  18
BRANCH  17  20
ATOM     20  O   UNL     1      26.046  -1.565  16.979  1.00  0.00    -0.507 OA
ATOM     21  H   UNL     1      25.984  -2.383  16.389  1.00  0.00     0.293 HD
ENDBRANCH  17  20
BRANCH  15  22
ATOM     22  O   UNL     1      25.269   0.793  21.083  1.00  0.00    -0.508 OA
ATOM     23  H   UNL     1      24.933   1.748  21.068  1.00  0.00     0.293 HD
ENDBRANCH  15  22
TORSDOF 3
ENDMDL
MODEL 3
REMARK VINA RESULT:    -5.571     13.292     15.607
REMARK INTER + INTRA:          -6.060
REMARK INTER:                  -6.060
REMARK INTRA:                   0.000
REMARK UNBOUND:                 0.000
REMARK SMILES Cc1cc(O)c2c(c1)C(=O)c1cc(O)cc(O)c1C2=O
REMARK SMILES IDX 1 1 2 2 8 3 7 4 6 5 4 6 3 7 19 8 20 9 18 10 11 11 9 12 10 13
REMARK SMILES IDX 12 14 13 15 15 16 16 17 5 18 17 20 14 22
REMARK H PARENT 5 19 17 21 14 23
REMARK Flexibility Score: inf
ROOT
ATOM      1  C   UNL     1      26.375  -1.430  14.791  1.00  0.00     0.044 C 
ATOM      2  C   UNL     1      25.860  -1.311  16.195  1.00  0.00    -0.047 A 
ATOM      3  C   UNL     1      24.549  -1.693  16.500  1.00  0.00     0.016 A 
ATOM      4  C   UNL     1      24.043  -1.544  17.803  1.00  0.00     0.038 A 
ATOM      5  C   UNL     1      24.855  -0.978  18.812  1.00  0.00     0.076 A 
ATOM      6  C   UNL     1      26.198  -0.634  18.508  1.00  0.00     0.127 A 
ATOM      7  C   UNL     1      26.672  -0.773  17.200  1.00  0.00     0.050 A 
ATOM      8  C   UNL     1      24.238  -0.700  20.134  1.00  0.00     0.201 C 
ATOM      9  O   UNL     1      24.659   0.258  20.835  1.00  0.00    -0.288 OA
ATOM     10  C   UNL     1      23.009  -1.429  20.543  1.00  0.00     0.076 A 
ATOM     11  C   UNL     1      22.201  -1.995  19.531  1.00  0.00     0.041 A 
ATOM     12  C   UNL     1      22.664  -1.982  18.124  1.00  0.00     0.194 C 
ATOM     13  O   UNL     1      21.894  -2.367  17.201  1.00  0.00    -0.289 OA
ATOM     14  C   UNL     1      20.964  -2.570  19.864  1.00  0.00     0.059 A 
ATOM     15  C   UNL     1      20.532  -2.603  21.194  1.00  0.00     0.120 A 
ATOM     16  C   UNL     1      21.346  -2.082  22.200  1.00  0.00     0.093 A 
ATOM     17  C   UNL     1      22.590  -1.521  21.896  1.00  0.00     0.131 A 
ENDROOT
BRANCH   6  18
ATOM     18  O   UNL     1      27.099  -0.184  19.475  1.00  0.00    -0.507 OA
ATOM     19  H   UNL     1      27.002  -0.377  20.463  1.00  0.00     0.293 HD
ENDBRANCH   6  18
BRANCH  17  20
ATOM     20  O   UNL     1      23.387  -1.104  22.965  1.00  0.00    -0.507 OA
ATOM     21  H   UNL     1      23.903  -1.739  23.558  1.00  0.00     0.293 HD
ENDBRANCH  17  20
BRANCH  15  22
ATOM     22  O   UNL     1      19.300  -3.161  21.527  1.00  0.00    -0.508 OA
ATOM     23  H   UNL     1      19.075  -4.123  21.300  1.00  0.00     0.293 HD
ENDBRANCH  15  22
TORSDOF 3
ENDMDL
MODEL 4
REMARK VINA RESULT:    -5.444     13.931     16.130
REMARK INTER + INTRA:          -5.921
REMARK INTER:                  -5.921
REMARK INTRA:                   0.000
REMARK UNBOUND:                 0.000
REMARK SMILES Cc1cc(O)c2c(c1)C(=O)c1cc(O)cc(O)c1C2=O
REMARK SMILES IDX 1 1 2 2 8 3 7 4 6 5 4 6 3 7 19 8 20 9 18 10 11 11 9 12 10 13
REMARK SMILES IDX 12 14 13 15 15 16 16 17 5 18 17 20 14 22
REMARK H PARENT 5 19 17 21 14 23
REMARK Flexibility Score: inf
ROOT
ATOM      1  C   UNL     1      21.389  -5.737  14.882  1.00  0.00     0.044 C 
ATOM      2  C   UNL     1      21.494  -4.835  16.077  1.00  0.00    -0.047 A 
ATOM      3  C   UNL     1      22.661  -4.096  16.301  1.00  0.00     0.016 A 
ATOM      4  C   UNL     1      22.787  -3.282  17.440  1.00  0.00     0.038 A 
ATOM      5  C   UNL     1      21.736  -3.227  18.384  1.00  0.00     0.076 A 
ATOM      6  C   UNL     1      20.538  -3.943  18.128  1.00  0.00     0.127 A 
ATOM      7  C   UNL     1      20.445  -4.761  16.999  1.00  0.00     0.050 A 
ATOM      8  C   UNL     1      21.965  -2.475  19.645  1.00  0.00     0.201 C 
ATOM      9  O   UNL     1      21.383  -2.831  20.703  1.00  0.00    -0.288 OA
ATOM     10  C   UNL     1      23.018  -1.427  19.698  1.00  0.00     0.076 A 
ATOM     11  C   UNL     1      24.066  -1.486  18.751  1.00  0.00     0.041 A 
ATOM     12  C   UNL     1      24.013  -2.478  17.653  1.00  0.00     0.194 C 
ATOM     13  O   UNL     1      25.003  -2.622  16.883  1.00  0.00    -0.289 OA
ATOM     14  C   UNL     1      25.151  -0.599  18.854  1.00  0.00     0.059 A 
ATOM     15  C   UNL     1      25.194   0.353  19.877  1.00  0.00     0.120 A 
ATOM     16  C   UNL     1      24.142   0.440  20.788  1.00  0.00     0.093 A 
ATOM     17  C   UNL     1      23.042  -0.418  20.696  1.00  0.00     0.131 A 
ENDROOT
BRANCH   6  18
ATOM     18  O   UNL     1      19.411  -3.845  18.948  1.00  0.00    -0.507 OA
ATOM     19  H   UNL     1      19.421  -4.041  19.940  1.00  0.00     0.293 HD
ENDBRANCH   6  18
BRANCH  17  20
ATOM     20  O   UNL     1      21.987  -0.211  21.587  1.00  0.00    -0.507 OA
ATOM     21  H   UNL     1      21.911  -0.676  22.482  1.00  0.00     0.293 HD
ENDBRANCH  17  20
BRANCH  15  22
ATOM     22  O   UNL     1      26.275   1.226  19.990  1.00  0.00    -0.508 OA
ATOM     23  H   UNL     1      27.225   0.885  20.069  1.00  0.00     0.293 HD
ENDBRANCH  15  22
TORSDOF 3
ENDMDL
MODEL 5
REMARK VINA RESULT:    -5.316     12.876     15.990
REMARK INTER + INTRA:          -5.782
REMARK INTER:                  -5.782
REMARK INTRA:                   0.000
REMARK UNBOUND:                 0.000
REMARK SMILES Cc1cc(O)c2c(c1)C(=O)c1cc(O)cc(O)c1C2=O
REMARK SMILES IDX 1 1 2 2 8 3 7 4 6 5 4 6 3 7 19 8 20 9 18 10 11 11 9 12 10 13
REMARK SMILES IDX 12 14 13 15 15 16 16 17 5 18 17 20 14 22
REMARK H PARENT 5 19 17 21 14 23
REMARK Flexibility Score: inf
ROOT
ATOM      1  C   UNL     1      18.410  -5.005  18.970  1.00  0.00     0.044 C 
ATOM      2  C   UNL     1      19.642  -4.159  19.103  1.00  0.00    -0.047 A 
ATOM      3  C   UNL     1      20.603  -4.149  18.087  1.00  0.00     0.016 A 
ATOM      4  C   UNL     1      21.782  -3.394  18.221  1.00  0.00     0.038 A 
ATOM      5  C   UNL     1      22.014  -2.658  19.405  1.00  0.00     0.076 A 
ATOM      6  C   UNL     1      21.015  -2.636  20.413  1.00  0.00     0.127 A 
ATOM      7  C   UNL     1      19.861  -3.411  20.265  1.00  0.00     0.050 A 
ATOM      8  C   UNL     1      23.333  -1.995  19.572  1.00  0.00     0.201 C 
ATOM      9  O   UNL     1      23.817  -1.840  20.724  1.00  0.00    -0.288 OA
ATOM     10  C   UNL     1      24.161  -1.689  18.376  1.00  0.00     0.076 A 
ATOM     11  C   UNL     1      23.924  -2.427  17.193  1.00  0.00     0.041 A 
ATOM     12  C   UNL     1      22.779  -3.364  17.125  1.00  0.00     0.194 C 
ATOM     13  O   UNL     1      22.639  -4.119  16.123  1.00  0.00    -0.289 OA
ATOM     14  C   UNL     1      24.775  -2.265  16.087  1.00  0.00     0.059 A 
ATOM     15  C   UNL     1      25.844  -1.367  16.140  1.00  0.00     0.120 A 
ATOM     16  C   UNL     1      26.055  -0.607  17.290  1.00  0.00     0.093 A 
ATOM     17  C   UNL     1      25.212  -0.736  18.398  1.00  0.00     0.131 A 
ENDROOT
BRANCH   6  18
ATOM     18  O   UNL     1      21.114  -1.839  21.556  1.00  0.00    -0.507 OA
ATOM     19  H   UNL     1      21.857  -1.170  21.709  1.00  0.00     0.293 HD
ENDBRANCH   6  18
BRANCH  17  20
ATOM     20  O   UNL     1      25.431   0.123  19.478  1.00  0.00    -0.507 OA
ATOM     21  H   UNL     1      24.831   0.905  19.700  1.00  0.00     0.293 HD
ENDBRANCH  17  20
BRANCH  15  22
ATOM     22  O   UNL     1      26.697  -1.212  15.049  1.00  0.00    -0.508 OA
ATOM     23  H   UNL     1      27.698  -1.351  15.134  1.00  0.00     0.293 HD
ENDBRANCH  15  22
TORSDOF 3
ENDMDL
MODEL 6
REMARK VINA RESULT:    -5.204     13.043     15.443
REMARK INTER + INTRA:          -5.660
REMARK INTER:                  -5.660
REMARK INTRA:                   0.000
REMARK UNBOUND:                 0.000
REMARK SMILES Cc1cc(O)c2c(c1)C(=O)c1cc(O)cc(O)c1C2=O
REMARK SMILES IDX 1 1 2 2 8 3 7 4 6 5 4 6 3 7 19 8 20 9 18 10 11 11 9 12 10 13
REMARK SMILES IDX 12 14 13 15 15 16 16 17 5 18 17 20 14 22
REMARK H PARENT 5 19 17 21 14 23
REMARK Flexibility Score: inf
ROOT
ATOM      1  C   UNL     1      26.628  -1.123  15.296  1.00  0.00     0.044 C 
ATOM      2  C   UNL     1      25.590  -1.265  16.369  1.00  0.00    -0.047 A 
ATOM      3  C   UNL     1      24.608  -2.258  16.273  1.00  0.00     0.016 A 
ATOM      4  C   UNL     1      23.605  -2.371  17.252  1.00  0.00     0.038 A 
ATOM      5  C   UNL     1      23.568  -1.459  18.330  1.00  0.00     0.076 A 
ATOM      6  C   UNL     1      24.592  -0.483  18.446  1.00  0.00     0.127 A 
ATOM      7  C   UNL     1      25.568  -0.377  17.450  1.00  0.00     0.050 A 
ATOM      8  C   UNL     1      22.411  -1.517  19.260  1.00  0.00     0.201 C 
ATOM      9  O   UNL     1      22.013  -0.470  19.835  1.00  0.00    -0.288 OA
ATOM     10  C   UNL     1      21.610  -2.765  19.363  1.00  0.00     0.076 A 
ATOM     11  C   UNL     1      21.651  -3.676  18.282  1.00  0.00     0.041 A 
ATOM     12  C   UNL     1      22.589  -3.446  17.159  1.00  0.00     0.194 C 
ATOM     13  O   UNL     1      22.539  -4.181  16.134  1.00  0.00    -0.289 OA
ATOM     14  C   UNL     1      20.804  -4.797  18.281  1.00  0.00     0.059 A 
ATOM     15  C   UNL     1      19.932  -5.028  19.348  1.00  0.00     0.120 A 
ATOM     16  C   UNL     1      19.919  -4.154  20.435  1.00  0.00     0.093 A 
ATOM     17  C   UNL     1      20.765  -3.042  20.470  1.00  0.00     0.131 A 
ENDROOT
BRANCH   6  18
ATOM     18  O   UNL     1      24.696   0.375  19.544  1.00  0.00    -0.507 OA
ATOM     19  H   UNL     1      25.207   0.147  20.386  1.00  0.00     0.293 HD
ENDBRANCH   6  18
BRANCH  17  20
ATOM     20  O   UNL     1      20.761  -2.264  21.630  1.00  0.00    -0.507 OA
ATOM     21  H   UNL     1      21.068  -2.604  22.531  1.00  0.00     0.293 HD
ENDBRANCH  17  20
BRANCH  15  22
ATOM     22  O   UNL     1      19.081  -6.133  19.345  1.00  0.00    -0.508 OA
ATOM     23  H   UNL     1      19.299  -6.971  19.871  1.00  0.00     0.293 HD
ENDBRANCH  15  22
TORSDOF 3
ENDMDL
MODEL 7
REMARK VINA RESULT:    -5.108     13.404     15.958
REMARK INTER + INTRA:          -5.556
REMARK INTER:                  -5.556
REMARK INTRA:                   0.000
REMARK UNBOUND:                 0.000
REMARK SMILES Cc1cc(O)c2c(c1)C(=O)c1cc(O)cc(O)c1C2=O
REMARK SMILES IDX 1 1 2 2 8 3 7 4 6 5 4 6 3 7 19 8 20 9 18 10 11 11 9 12 10 13
REMARK SMILES IDX 12 14 13 15 15 16 16 17 5 18 17 20 14 22
REMARK H PARENT 5 19 17 21 14 23
REMARK Flexibility Score: inf
ROOT
ATOM      1  C   UNL     1      27.235  -0.323  19.417  1.00  0.00     0.044 C 
ATOM      2  C   UNL     1      26.020  -1.055  18.928  1.00  0.00    -0.047 A 
ATOM      3  C   UNL     1      24.933  -1.266  19.783  1.00  0.00     0.016 A 
ATOM      4  C   UNL     1      23.808  -1.988  19.348  1.00  0.00     0.038 A 
ATOM      5  C   UNL     1      23.782  -2.531  18.044  1.00  0.00     0.076 A 
ATOM      6  C   UNL     1      24.867  -2.275  17.166  1.00  0.00     0.127 A 
ATOM      7  C   UNL     1      25.983  -1.571  17.628  1.00  0.00     0.050 A 
ATOM      8  C   UNL     1      22.644  -3.411  17.673  1.00  0.00     0.201 C 
ATOM      9  O   UNL     1      22.813  -4.336  16.835  1.00  0.00    -0.288 OA
ATOM     10  C   UNL     1      21.366  -3.322  18.426  1.00  0.00     0.076 A 
ATOM     11  C   UNL     1      21.396  -2.777  19.730  1.00  0.00     0.041 A 
ATOM     12  C   UNL     1      22.647  -2.179  20.250  1.00  0.00     0.194 C 
ATOM     13  O   UNL     1      22.718  -1.809  21.456  1.00  0.00    -0.289 OA
ATOM     14  C   UNL     1      20.238  -2.801  20.525  1.00  0.00     0.059 A 
ATOM     15  C   UNL     1      19.050  -3.346  20.030  1.00  0.00     0.120 A 
ATOM     16  C   UNL     1      19.006  -3.847  18.729  1.00  0.00     0.093 A 
ATOM     17  C   UNL     1      20.139  -3.817  17.911  1.00  0.00     0.131 A 
ENDROOT
BRANCH   6  18
ATOM     18  O   UNL     1      24.864  -2.671  15.827  1.00  0.00    -0.507 OA
ATOM     19  H   UNL     1      24.525  -3.569  15.510  1.00  0.00     0.293 HD
ENDBRANCH   6  18
BRANCH  17  20
ATOM     20  O   UNL     1      19.994  -4.253  16.592  1.00  0.00    -0.507 OA
ATOM     21  H   UNL     1      20.761  -4.592  16.028  1.00  0.00     0.293 HD
ENDBRANCH  17  20
BRANCH  15  22
ATOM     22  O   UNL     1      17.902  -3.384  20.819  1.00  0.00    -0.508 OA
ATOM     23  H   UNL     1      17.491  -2.539  21.197  1.00  0.00     0.293 HD
ENDBRANCH  15  22
TORSDOF 3
ENDMDL
MODEL 8
REMARK VINA RESULT:    -5.091     13.826     15.651
REMARK INTER + INTRA:          -5.537
REMARK INTER:                  -5.537
REMARK INTRA:                   0.000
REMARK UNBOUND:                 0.000
REMARK SMILES Cc1cc(O)c2c(c1)C(=O)c1cc(O)cc(O)c1C2=O
REMARK SMILES IDX 1 1 2 2 8 3 7 4 6 5 4 6 3 7 19 8 20 9 18 10 11 11 9 12 10 13
REMARK SMILES IDX 12 14 13 15 15 16 16 17 5 18 17 20 14 22
REMARK H PARENT 5 19 17 21 14 23
REMARK Flexibility Score: inf
ROOT
ATOM      1  C   UNL     1      25.732   0.744  19.756  1.00  0.00     0.044 C 
ATOM      2  C   UNL     1      24.697  -0.336  19.637  1.00  0.00    -0.047 A 
ATOM      3  C   UNL     1      24.608  -1.101  18.468  1.00  0.00     0.016 A 
ATOM      4  C   UNL     1      23.614  -2.086  18.330  1.00  0.00     0.038 A 
ATOM      5  C   UNL     1      22.677  -2.290  19.368  1.00  0.00     0.076 A 
ATOM      6  C   UNL     1      22.800  -1.543  20.568  1.00  0.00     0.127 A 
ATOM      7  C   UNL     1      23.785  -0.556  20.674  1.00  0.00     0.050 A 
ATOM      8  C   UNL     1      21.555  -3.233  19.124  1.00  0.00     0.201 C 
ATOM      9  O   UNL     1      20.446  -3.049  19.692  1.00  0.00    -0.288 OA
ATOM     10  C   UNL     1      21.682  -4.275  18.073  1.00  0.00     0.076 A 
ATOM     11  C   UNL     1      22.622  -4.067  17.037  1.00  0.00     0.041 A 
ATOM     12  C   UNL     1      23.548  -2.913  17.102  1.00  0.00     0.194 C 
ATOM     13  O   UNL     1      24.298  -2.648  16.121  1.00  0.00    -0.289 OA
ATOM     14  C   UNL     1      22.675  -4.959  15.952  1.00  0.00     0.059 A 
ATOM     15  C   UNL     1      21.817  -6.061  15.898  1.00  0.00     0.120 A 
ATOM     16  C   UNL     1      20.917  -6.291  16.938  1.00  0.00     0.093 A 
ATOM     17  C   UNL     1      20.857  -5.430  18.037  1.00  0.00     0.131 A 
ENDROOT
BRANCH   6  18
ATOM     18  O   UNL     1      21.992  -1.770  21.684  1.00  0.00    -0.507 OA
ATOM     19  H   UNL     1      20.982  -1.725  21.663  1.00  0.00     0.293 HD
ENDBRANCH   6  18
BRANCH  17  20
ATOM     20  O   UNL     1      19.996  -5.776  19.081  1.00  0.00    -0.507 OA
ATOM     21  H   UNL     1      20.049  -6.653  19.581  1.00  0.00     0.293 HD
ENDBRANCH  17  20
BRANCH  15  22
ATOM     22  O   UNL     1      21.858  -6.941  14.817  1.00  0.00    -0.508 OA
ATOM     23  H   UNL     1      21.101  -6.991  14.146  1.00  0.00     0.293 HD
ENDBRANCH  15  22
TORSDOF 3
ENDMDL
MODEL 9
REMARK VINA RESULT:    -5.079     13.678     16.320
REMARK INTER + INTRA:          -5.525
REMARK INTER:                  -5.525
REMARK INTRA:                   0.000
REMARK UNBOUND:                 0.000
REMARK SMILES Cc1cc(O)c2c(c1)C(=O)c1cc(O)cc(O)c1C2=O
REMARK SMILES IDX 1 1 2 2 8 3 7 4 6 5 4 6 3 7 19 8 20 9 18 10 11 11 9 12 10 13
REMARK SMILES IDX 12 14 13 15 15 16 16 17 5 18 17 20 14 22
REMARK H PARENT 5 19 17 21 14 23
REMARK Flexibility Score: inf
ROOT
ATOM      1  C   UNL     1      22.018   1.271  23.125  1.00  0.00     0.044 C 
ATOM      2  C   UNL     1      22.511   0.514  21.927  1.00  0.00    -0.047 A 
ATOM      3  C   UNL     1      21.799  -0.593  21.452  1.00  0.00     0.016 A 
ATOM      4  C   UNL     1      22.276  -1.335  20.357  1.00  0.00     0.038 A 
ATOM      5  C   UNL     1      23.499  -0.979  19.745  1.00  0.00     0.076 A 
ATOM      6  C   UNL     1      24.193   0.171  20.202  1.00  0.00     0.127 A 
ATOM      7  C   UNL     1      23.709   0.881  21.305  1.00  0.00     0.050 A 
ATOM      8  C   UNL     1      24.042  -1.874  18.690  1.00  0.00     0.201 C 
ATOM      9  O   UNL     1      25.287  -1.966  18.525  1.00  0.00    -0.288 OA
ATOM     10  C   UNL     1      23.130  -2.795  17.963  1.00  0.00     0.076 A 
ATOM     11  C   UNL     1      21.907  -3.148  18.579  1.00  0.00     0.041 A 
ATOM     12  C   UNL     1      21.499  -2.486  19.840  1.00  0.00     0.194 C 
ATOM     13  O   UNL     1      20.475  -2.887  20.461  1.00  0.00    -0.289 OA
ATOM     14  C   UNL     1      21.083  -4.121  17.990  1.00  0.00     0.059 A 
ATOM     15  C   UNL     1      21.456  -4.733  16.789  1.00  0.00     0.120 A 
ATOM     16  C   UNL     1      22.641  -4.358  16.158  1.00  0.00     0.093 A 
ATOM     17  C   UNL     1      23.470  -3.378  16.714  1.00  0.00     0.131 A 
ENDROOT
BRANCH   6  18
ATOM     18  O   UNL     1      25.341   0.659  19.574  1.00  0.00    -0.507 OA
ATOM     19  H   UNL     1      25.409   0.818  18.579  1.00  0.00     0.293 HD
ENDBRANCH   6  18
BRANCH  17  20
ATOM     20  O   UNL     1      24.592  -2.991  15.980  1.00  0.00    -0.507 OA
ATOM     21  H   UNL     1      25.106  -2.137  16.152  1.00  0.00     0.293 HD
ENDBRANCH  17  20
BRANCH  15  22
ATOM     22  O   UNL     1      20.647  -5.708  16.208  1.00  0.00    -0.508 OA
ATOM     23  H   UNL     1      20.956  -6.243  15.405  1.00  0.00     0.293 HD
ENDBRANCH  15  22
TORSDOF 3
ENDMDL
