MODEL 1
REMARK VINA RESULT:    -3.012      0.000      0.000
REMARK INTER + INTRA:          -4.502
REMARK INTER:                  -4.068
REMARK INTRA:                  -0.434
REMARK UNBOUND:                -0.434
REMARK SMILES [NH3+]CCCC[C@@H]([NH3+])C(=O)[O-]
REMARK SMILES IDX 4 1 3 2 2 3 1 4 5 8 6 9 7 10 8 14 9 15 10 16
REMARK H PARENT 1 5 1 6 1 7 7 11 7 12 7 13
REMARK Flexibility Score: inf
ROOT
ATOM      1  C   UNL     1      26.666  34.112  52.962  1.00  0.00     0.012 C 
ENDROOT
BRANCH   1   2
ATOM      2  C   UNL     1      28.080  34.481  53.439  1.00  0.00     0.061 C 
BRANCH   2   3
ATOM      3  C   UNL     1      29.158  33.536  52.883  1.00  0.00     0.258 C 
BRANCH   3   4
ATOM      4  N   UNL     1      29.986  34.218  51.889  1.00  0.00    -0.358 N 
ATOM      5  H   UNL     1      30.125  35.217  52.162  1.00  0.00     0.344 HD
ATOM      6  H   UNL     1      29.505  34.184  50.961  1.00  0.00     0.344 HD
ATOM      7  H   UNL     1      30.913  33.741  51.806  1.00  0.00     0.344 HD
ENDBRANCH   3   4
ENDBRANCH   2   3
ENDBRANCH   1   2
BRANCH   1   8
ATOM      8  C   UNL     1      26.646  32.844  52.090  1.00  0.00     0.072 C 
BRANCH   8   9
ATOM      9  C   UNL     1      25.830  33.040  50.794  1.00  0.00     0.227 C 
BRANCH   9  10
ATOM     10  N   UNL     1      24.902  34.169  50.937  1.00  0.00    -0.350 N 
ATOM     11  H   UNL     1      24.230  34.179  50.136  1.00  0.00     0.345 HD
ATOM     12  H   UNL     1      24.364  34.094  51.832  1.00  0.00     0.345 HD
ATOM     13  H   UNL     1      25.434  35.070  50.929  1.00  0.00     0.345 HD
ENDBRANCH   9  10
BRANCH   9  14
ATOM     14  C   UNL     1      26.734  33.259  49.608  1.00  0.00     0.099 C 
ATOM     15  O   UNL     1      26.269  33.696  48.522  1.00  0.00    -0.544 OA
ATOM     16  O   UNL     1      28.093  32.991  49.713  1.00  0.00    -0.544 OA
ENDBRANCH   9  14
ENDBRANCH   8   9
ENDBRANCH   1   8
TORSDOF 7
ENDMDL
MODEL 2
REMARK VINA RESULT:    -2.985     18.506     19.814
REMARK INTER + INTRA:          -4.466
REMARK INTER:                  -4.386
REMARK INTRA:                  -0.080
REMARK UNBOUND:                -0.434
REMARK SMILES [NH3+]CCCC[C@@H]([NH3+])C(=O)[O-]
REMARK SMILES IDX 4 1 3 2 2 3 1 4 5 8 6 9 7 10 8 14 9 15 10 16
REMARK H PARENT 1 5 1 6 1 7 7 11 7 12 7 13
REMARK Flexibility Score: inf
ROOT
ATOM      1  C   UNL     1      17.176  17.842  47.108  1.00  0.00     0.012 C 
ENDROOT
BRANCH   1   2
ATOM      2  C   UNL     1      16.149  18.120  46.000  1.00  0.00     0.061 C 
BRANCH   2   3
ATOM      3  C   UNL     1      15.076  17.024  45.899  1.00  0.00     0.258 C 
BRANCH   3   4
ATOM      4  N   UNL     1      15.541  15.914  45.068  1.00  0.00    -0.358 N 
ATOM      5  H   UNL     1      15.132  15.987  44.109  1.00  0.00     0.344 HD
ATOM      6  H   UNL     1      15.235  15.012  45.500  1.00  0.00     0.344 HD
ATOM      7  H   UNL     1      16.585  15.922  45.010  1.00  0.00     0.344 HD
ENDBRANCH   3   4
ENDBRANCH   2   3
ENDBRANCH   1   2
BRANCH   1   8
ATOM      8  C   UNL     1      16.665  18.240  48.505  1.00  0.00     0.072 C 
BRANCH   8   9
ATOM      9  C   UNL     1      17.705  17.957  49.610  1.00  0.00     0.227 C 
BRANCH   9  10
ATOM     10  N   UNL     1      18.595  19.111  49.786  1.00  0.00    -0.350 N 
ATOM     11  H   UNL     1      19.339  19.101  49.052  1.00  0.00     0.345 HD
ATOM     12  H   UNL     1      18.058  20.006  49.716  1.00  0.00     0.345 HD
ATOM     13  H   UNL     1      19.060  19.061  50.722  1.00  0.00     0.345 HD
ENDBRANCH   9  10
BRANCH   9  14
ATOM     14  C   UNL     1      17.035  17.613  50.915  1.00  0.00     0.099 C 
ATOM     15  O   UNL     1      15.780  17.541  50.990  1.00  0.00    -0.544 OA
ATOM     16  O   UNL     1      17.804  17.361  52.044  1.00  0.00    -0.544 OA
ENDBRANCH   9  14
ENDBRANCH   8   9
ENDBRANCH   1   8
TORSDOF 7
ENDMDL
MODEL 3
REMARK VINA RESULT:    -2.981      9.218      9.972
REMARK INTER + INTRA:          -4.461
REMARK INTER:                  -4.380
REMARK INTRA:                  -0.081
REMARK UNBOUND:                -0.434
REMARK SMILES [NH3+]CCCC[C@@H]([NH3+])C(=O)[O-]
REMARK SMILES IDX 4 1 3 2 2 3 1 4 5 8 6 9 7 10 8 14 9 15 10 16
REMARK H PARENT 1 5 1 6 1 7 7 11 7 12 7 13
REMARK Flexibility Score: inf
ROOT
ATOM      1  C   UNL     1      20.452  29.386  56.342  1.00  0.00     0.012 C 
ENDROOT
BRANCH   1   2
ATOM      2  C   UNL     1      21.539  30.258  56.988  1.00  0.00     0.061 C 
BRANCH   2   3
ATOM      3  C   UNL     1      21.246  30.573  58.464  1.00  0.00     0.258 C 
BRANCH   3   4
ATOM      4  N   UNL     1      21.558  31.968  58.771  1.00  0.00    -0.358 N 
ATOM      5  H   UNL     1      22.568  32.063  59.023  1.00  0.00     0.344 HD
ATOM      6  H   UNL     1      20.976  32.279  59.582  1.00  0.00     0.344 HD
ATOM      7  H   UNL     1      21.340  32.575  57.948  1.00  0.00     0.344 HD
ENDBRANCH   3   4
ENDBRANCH   2   3
ENDBRANCH   1   2
BRANCH   1   8
ATOM      8  C   UNL     1      19.918  29.981  55.026  1.00  0.00     0.072 C 
BRANCH   8   9
ATOM      9  C   UNL     1      18.794  29.120  54.410  1.00  0.00     0.227 C 
BRANCH   9  10
ATOM     10  N   UNL     1      18.381  28.068  55.346  1.00  0.00    -0.350 N 
ATOM     11  H   UNL     1      17.342  28.083  55.462  1.00  0.00     0.345 HD
ATOM     12  H   UNL     1      18.671  27.125  54.994  1.00  0.00     0.345 HD
ATOM     13  H   UNL     1      18.817  28.234  56.283  1.00  0.00     0.345 HD
ENDBRANCH   9  10
BRANCH   9  14
ATOM     14  C   UNL     1      17.608  29.966  54.024  1.00  0.00     0.099 C 
ATOM     15  O   UNL     1      16.507  29.833  54.621  1.00  0.00    -0.544 OA
ATOM     16  O   UNL     1      17.729  30.910  53.012  1.00  0.00    -0.544 OA
ENDBRANCH   9  14
ENDBRANCH   8   9
ENDBRANCH   1   8
TORSDOF 7
ENDMDL
MODEL 4
REMARK VINA RESULT:    -2.971      3.322      5.383
REMARK INTER + INTRA:          -4.446
REMARK INTER:                  -4.351
REMARK INTRA:                  -0.095
REMARK UNBOUND:                -0.434
REMARK SMILES [NH3+]CCCC[C@@H]([NH3+])C(=O)[O-]
REMARK SMILES IDX 4 1 3 2 2 3 1 4 5 8 6 9 7 10 8 14 9 15 10 16
REMARK H PARENT 1 5 1 6 1 7 7 11 7 12 7 13
REMARK Flexibility Score: inf
ROOT
ATOM      1  C   UNL     1      27.932  33.674  52.582  1.00  0.00     0.012 C 
ENDROOT
BRANCH   1   2
ATOM      2  C   UNL     1      26.430  33.873  52.837  1.00  0.00     0.061 C 
BRANCH   2   3
ATOM      3  C   UNL     1      25.557  33.322  51.698  1.00  0.00     0.258 C 
BRANCH   3   4
ATOM      4  N   UNL     1      24.845  34.403  51.018  1.00  0.00    -0.358 N 
ATOM      5  H   UNL     1      23.814  34.233  51.053  1.00  0.00     0.344 HD
ATOM      6  H   UNL     1      25.149  34.437  50.018  1.00  0.00     0.344 HD
ATOM      7  H   UNL     1      25.068  35.320  51.468  1.00  0.00     0.344 HD
ENDBRANCH   3   4
ENDBRANCH   2   3
ENDBRANCH   1   2
BRANCH   1   8
ATOM      8  C   UNL     1      28.811  34.452  53.578  1.00  0.00     0.072 C 
BRANCH   8   9
ATOM      9  C   UNL     1      30.205  33.811  53.749  1.00  0.00     0.227 C 
BRANCH   9  10
ATOM     10  N   UNL     1      31.257  34.828  53.634  1.00  0.00    -0.350 N 
ATOM     11  H   UNL     1      30.830  35.757  53.417  1.00  0.00     0.345 HD
ATOM     12  H   UNL     1      31.800  34.902  54.526  1.00  0.00     0.345 HD
ATOM     13  H   UNL     1      31.909  34.579  52.854  1.00  0.00     0.345 HD
ENDBRANCH   9  10
BRANCH   9  14
ATOM     14  C   UNL     1      30.318  33.096  55.071  1.00  0.00     0.099 C 
ATOM     15  O   UNL     1      31.281  33.335  55.847  1.00  0.00    -0.544 OA
ATOM     16  O   UNL     1      29.348  32.175  55.446  1.00  0.00    -0.544 OA
ENDBRANCH   9  14
ENDBRANCH   8   9
ENDBRANCH   1   8
TORSDOF 7
ENDMDL
MODEL 5
REMARK VINA RESULT:    -2.948      3.703      5.207
REMARK INTER + INTRA:          -4.416
REMARK INTER:                  -3.867
REMARK INTRA:                  -0.549
REMARK UNBOUND:                -0.434
REMARK SMILES [NH3+]CCCC[C@@H]([NH3+])C(=O)[O-]
REMARK SMILES IDX 4 1 3 2 2 3 1 4 5 8 6 9 7 10 8 14 9 15 10 16
REMARK H PARENT 1 5 1 6 1 7 7 11 7 12 7 13
REMARK Flexibility Score: inf
ROOT
ATOM      1  C   UNL     1      29.509  33.672  51.802  1.00  0.00     0.012 C 
ENDROOT
BRANCH   1   2
ATOM      2  C   UNL     1      28.030  33.335  52.042  1.00  0.00     0.061 C 
BRANCH   2   3
ATOM      3  C   UNL     1      27.401  34.184  53.158  1.00  0.00     0.258 C 
BRANCH   3   4
ATOM      4  N   UNL     1      28.393  35.078  53.754  1.00  0.00    -0.358 N 
ATOM      5  H   UNL     1      29.228  34.532  54.066  1.00  0.00     0.344 HD
ATOM      6  H   UNL     1      27.970  35.555  54.583  1.00  0.00     0.344 HD
ATOM      7  H   UNL     1      28.685  35.805  53.060  1.00  0.00     0.344 HD
ENDBRANCH   3   4
ENDBRANCH   2   3
ENDBRANCH   1   2
BRANCH   1   8
ATOM      8  C   UNL     1      30.432  32.452  51.977  1.00  0.00     0.072 C 
BRANCH   8   9
ATOM      9  C   UNL     1      31.365  32.598  53.199  1.00  0.00     0.227 C 
BRANCH   9  10
ATOM     10  N   UNL     1      31.678  34.012  53.442  1.00  0.00    -0.350 N 
ATOM     11  H   UNL     1      32.322  34.097  54.261  1.00  0.00     0.345 HD
ATOM     12  H   UNL     1      32.135  34.439  52.602  1.00  0.00     0.345 HD
ATOM     13  H   UNL     1      30.800  34.537  53.660  1.00  0.00     0.345 HD
ENDBRANCH   9  10
BRANCH   9  14
ATOM     14  C   UNL     1      30.751  31.984  54.430  1.00  0.00     0.099 C 
ATOM     15  O   UNL     1      31.038  30.805  54.768  1.00  0.00    -0.544 OA
ATOM     16  O   UNL     1      29.870  32.724  55.210  1.00  0.00    -0.544 OA
ENDBRANCH   9  14
ENDBRANCH   8   9
ENDBRANCH   1   8
TORSDOF 7
ENDMDL
MODEL 6
REMARK VINA RESULT:    -2.945     17.621     18.529
REMARK INTER + INTRA:          -4.411
REMARK INTER:                  -4.263
REMARK INTRA:                  -0.149
REMARK UNBOUND:                -0.434
REMARK SMILES [NH3+]CCCC[C@@H]([NH3+])C(=O)[O-]
REMARK SMILES IDX 4 1 3 2 2 3 1 4 5 8 6 9 7 10 8 14 9 15 10 16
REMARK H PARENT 1 5 1 6 1 7 7 11 7 12 7 13
REMARK Flexibility Score: inf
ROOT
ATOM      1  C   UNL     1      22.179  18.754  43.022  1.00  0.00     0.012 C 
ENDROOT
BRANCH   1   2
ATOM      2  C   UNL     1      22.915  17.566  43.658  1.00  0.00     0.061 C 
BRANCH   2   3
ATOM      3  C   UNL     1      24.103  18.003  44.531  1.00  0.00     0.258 C 
BRANCH   3   4
ATOM      4  N   UNL     1      24.740  16.847  45.161  1.00  0.00    -0.358 N 
ATOM      5  H   UNL     1      25.626  16.609  44.661  1.00  0.00     0.344 HD
ATOM      6  H   UNL     1      24.091  16.029  45.110  1.00  0.00     0.344 HD
ATOM      7  H   UNL     1      24.944  17.052  46.166  1.00  0.00     0.344 HD
ENDBRANCH   3   4
ENDBRANCH   2   3
ENDBRANCH   1   2
BRANCH   1   8
ATOM      8  C   UNL     1      22.185  18.701  41.483  1.00  0.00     0.072 C 
BRANCH   8   9
ATOM      9  C   UNL     1      23.466  18.042  40.928  1.00  0.00     0.227 C 
BRANCH   9  10
ATOM     10  N   UNL     1      23.127  16.904  40.064  1.00  0.00    -0.350 N 
ATOM     11  H   UNL     1      23.719  16.080  40.314  1.00  0.00     0.345 HD
ATOM     12  H   UNL     1      22.118  16.645  40.174  1.00  0.00     0.345 HD
ATOM     13  H   UNL     1      23.313  17.149  39.064  1.00  0.00     0.345 HD
ENDBRANCH   9  10
BRANCH   9  14
ATOM     14  C   UNL     1      24.306  19.037  40.169  1.00  0.00     0.099 C 
ATOM     15  O   UNL     1      25.399  19.444  40.643  1.00  0.00    -0.544 OA
ATOM     16  O   UNL     1      23.881  19.501  38.930  1.00  0.00    -0.544 OA
ENDBRANCH   9  14
ENDBRANCH   8   9
ENDBRANCH   1   8
TORSDOF 7
ENDMDL
MODEL 7
REMARK VINA RESULT:    -2.924     17.508     18.237
REMARK INTER + INTRA:          -4.383
REMARK INTER:                  -4.134
REMARK INTRA:                  -0.249
REMARK UNBOUND:                -0.434
REMARK SMILES [NH3+]CCCC[C@@H]([NH3+])C(=O)[O-]
REMARK SMILES IDX 4 1 3 2 2 3 1 4 5 8 6 9 7 10 8 14 9 15 10 16
REMARK H PARENT 1 5 1 6 1 7 7 11 7 12 7 13
REMARK Flexibility Score: inf
ROOT
ATOM      1  C   UNL     1      25.338  19.700  42.664  1.00  0.00     0.012 C 
ENDROOT
BRANCH   1   2
ATOM      2  C   UNL     1      25.554  19.050  44.039  1.00  0.00     0.061 C 
BRANCH   2   3
ATOM      3  C   UNL     1      24.260  18.465  44.628  1.00  0.00     0.258 C 
BRANCH   3   4
ATOM      4  N   UNL     1      24.431  17.050  44.957  1.00  0.00    -0.358 N 
ATOM      5  H   UNL     1      25.429  16.769  44.827  1.00  0.00     0.344 HD
ATOM      6  H   UNL     1      23.831  16.476  44.320  1.00  0.00     0.344 HD
ATOM      7  H   UNL     1      24.138  16.873  45.945  1.00  0.00     0.344 HD
ENDBRANCH   3   4
ENDBRANCH   2   3
ENDBRANCH   1   2
BRANCH   1   8
ATOM      8  C   UNL     1      23.909  19.494  42.128  1.00  0.00     0.072 C 
BRANCH   8   9
ATOM      9  C   UNL     1      23.898  19.074  40.643  1.00  0.00     0.227 C 
BRANCH   9  10
ATOM     10  N   UNL     1      25.255  19.127  40.084  1.00  0.00    -0.350 N 
ATOM     11  H   UNL     1      25.620  18.157  39.947  1.00  0.00     0.345 HD
ATOM     12  H   UNL     1      25.256  19.625  39.163  1.00  0.00     0.345 HD
ATOM     13  H   UNL     1      25.893  19.626  40.745  1.00  0.00     0.345 HD
ENDBRANCH   9  10
BRANCH   9  14
ATOM     14  C   UNL     1      23.320  17.693  40.471  1.00  0.00     0.099 C 
ATOM     15  O   UNL     1      23.184  17.195  39.322  1.00  0.00    -0.544 OA
ATOM     16  O   UNL     1      22.944  16.954  41.586  1.00  0.00    -0.544 OA
ENDBRANCH   9  14
ENDBRANCH   8   9
ENDBRANCH   1   8
TORSDOF 7
ENDMDL
MODEL 8
REMARK VINA RESULT:    -2.909     16.894     18.029
REMARK INTER + INTRA:          -4.364
REMARK INTER:                  -3.939
REMARK INTRA:                  -0.425
REMARK UNBOUND:                -0.434
REMARK SMILES [NH3+]CCCC[C@@H]([NH3+])C(=O)[O-]
REMARK SMILES IDX 4 1 3 2 2 3 1 4 5 8 6 9 7 10 8 14 9 15 10 16
REMARK H PARENT 1 5 1 6 1 7 7 11 7 12 7 13
REMARK Flexibility Score: inf
ROOT
ATOM      1  C   UNL     1      23.013  17.233  42.376  1.00  0.00     0.012 C 
ENDROOT
BRANCH   1   2
ATOM      2  C   UNL     1      23.052  17.523  40.867  1.00  0.00     0.061 C 
BRANCH   2   3
ATOM      3  C   UNL     1      23.557  18.940  40.550  1.00  0.00     0.258 C 
BRANCH   3   4
ATOM      4  N   UNL     1      24.963  18.913  40.148  1.00  0.00    -0.358 N 
ATOM      5  H   UNL     1      25.274  19.871  39.866  1.00  0.00     0.344 HD
ATOM      6  H   UNL     1      25.075  18.267  39.334  1.00  0.00     0.344 HD
ATOM      7  H   UNL     1      25.556  18.566  40.937  1.00  0.00     0.344 HD
ENDBRANCH   3   4
ENDBRANCH   2   3
ENDBRANCH   1   2
BRANCH   1   8
ATOM      8  C   UNL     1      23.113  18.511  43.229  1.00  0.00     0.072 C 
BRANCH   8   9
ATOM      9  C   UNL     1      24.010  18.314  44.470  1.00  0.00     0.227 C 
BRANCH   9  10
ATOM     10  N   UNL     1      24.195  16.885  44.750  1.00  0.00    -0.350 N 
ATOM     11  H   UNL     1      25.206  16.634  44.658  1.00  0.00     0.345 HD
ATOM     12  H   UNL     1      23.872  16.653  45.718  1.00  0.00     0.345 HD
ATOM     13  H   UNL     1      23.653  16.315  44.060  1.00  0.00     0.345 HD
ENDBRANCH   9  10
BRANCH   9  14
ATOM     14  C   UNL     1      25.347  18.985  44.287  1.00  0.00     0.099 C 
ATOM     15  O   UNL     1      25.700  19.409  43.155  1.00  0.00    -0.544 OA
ATOM     16  O   UNL     1      26.195  19.151  45.376  1.00  0.00    -0.544 OA
ENDBRANCH   9  14
ENDBRANCH   8   9
ENDBRANCH   1   8
TORSDOF 7
ENDMDL
MODEL 9
REMARK VINA RESULT:    -2.909     17.743     18.964
REMARK INTER + INTRA:          -4.363
REMARK INTER:                  -4.199
REMARK INTRA:                  -0.164
REMARK UNBOUND:                -0.434
REMARK SMILES [NH3+]CCCC[C@@H]([NH3+])C(=O)[O-]
REMARK SMILES IDX 4 1 3 2 2 3 1 4 5 8 6 9 7 10 8 14 9 15 10 16
REMARK H PARENT 1 5 1 6 1 7 7 11 7 12 7 13
REMARK Flexibility Score: inf
ROOT
ATOM      1  C   UNL     1      23.460  18.176  41.641  1.00  0.00     0.012 C 
ENDROOT
BRANCH   1   2
ATOM      2  C   UNL     1      22.648  18.306  40.344  1.00  0.00     0.061 C 
BRANCH   2   3
ATOM      3  C   UNL     1      23.368  17.696  39.130  1.00  0.00     0.258 C 
BRANCH   3   4
ATOM      4  N   UNL     1      23.270  16.236  39.145  1.00  0.00    -0.358 N 
ATOM      5  H   UNL     1      22.293  15.945  39.376  1.00  0.00     0.344 HD
ATOM      6  H   UNL     1      23.918  15.857  39.873  1.00  0.00     0.344 HD
ATOM      7  H   UNL     1      23.545  15.848  38.214  1.00  0.00     0.344 HD
ENDBRANCH   3   4
ENDBRANCH   2   3
ENDBRANCH   1   2
BRANCH   1   8
ATOM      8  C   UNL     1      22.926  17.069  42.568  1.00  0.00     0.072 C 
BRANCH   8   9
ATOM      9  C   UNL     1      23.042  17.450  44.060  1.00  0.00     0.227 C 
BRANCH   9  10
ATOM     10  N   UNL     1      24.443  17.709  44.416  1.00  0.00    -0.350 N 
ATOM     11  H   UNL     1      24.488  18.394  45.204  1.00  0.00     0.345 HD
ATOM     12  H   UNL     1      24.920  16.823  44.707  1.00  0.00     0.345 HD
ATOM     13  H   UNL     1      24.948  18.119  43.597  1.00  0.00     0.345 HD
ENDBRANCH   9  10
BRANCH   9  14
ATOM     14  C   UNL     1      22.194  18.652  44.383  1.00  0.00     0.099 C 
ATOM     15  O   UNL     1      22.716  19.692  44.867  1.00  0.00    -0.544 OA
ATOM     16  O   UNL     1      20.827  18.624  44.136  1.00  0.00    -0.544 OA
ENDBRANCH   9  14
ENDBRANCH   8   9
ENDBRANCH   1   8
TORSDOF 7
ENDMDL
