MODEL 1
REMARK VINA RESULT:    35.915      0.000      0.000
REMARK INTER + INTRA:          49.700
REMARK INTER:                  50.612
REMARK INTRA:                  -0.912
REMARK UNBOUND:                -0.912
REMARK SMILES OCC1=C[C@@H](O)[C@@H]2C=CO[C@H](O[C@H]3O[C@H](CO)[C@@H](O)[C@H](O)[C@H]3O)[C@H]12
REMARK SMILES IDX 12 1 11 2 8 3 9 4 7 5 10 6 24 7 5 8 3 9 4 10 6 11 2 13 1 14
REMARK SMILES IDX 13 16 22 17 14 18 20 19 15 20 18 21 23 22 21 24 16 26 17 27
REMARK SMILES IDX 19 29
REMARK H PARENT 6 12 1 15 23 23 21 25 17 28 19 30
REMARK Flexibility Score: inf
ROOT
ATOM      1  O   UNL     1       9.963  73.087   4.844  1.00  0.00    -0.310 OA
ENDROOT
BRANCH   1   2
ATOM      2  C   UNL     1      10.284  74.338   5.428  1.00  0.00     0.316 C 
ATOM      3  C   UNL     1      11.410  76.923   5.659  1.00  0.00     0.018 C 
ATOM      4  C   UNL     1      12.202  75.856   5.532  1.00  0.00     0.186 C 
ATOM      5  C   UNL     1       9.926  76.877   5.337  1.00  0.00     0.061 C 
ATOM      6  O   UNL     1      11.665  74.607   5.218  1.00  0.00    -0.472 OA
ATOM      7  C   UNL     1       9.438  75.490   4.836  1.00  0.00     0.096 C 
ATOM      8  C   UNL     1       9.637  77.824   4.152  1.00  0.00     0.145 C 
ATOM      9  C   UNL     1       9.476  75.629   3.337  1.00  0.00    -0.036 C 
ATOM     10  C   UNL     1       9.557  76.909   2.977  1.00  0.00     0.007 C 
BRANCH   8  11
ATOM     11  O   UNL     1       8.424  78.516   4.327  1.00  0.00    -0.388 OA
ATOM     12  H   UNL     1       7.681  77.904   4.082  1.00  0.00     0.211 HD
ENDBRANCH   8  11
BRANCH   9  13
ATOM     13  C   UNL     1       9.245  74.491   2.370  1.00  0.00     0.187 C 
BRANCH  13  14
ATOM     14  O   UNL     1       9.274  74.919   1.034  1.00  0.00    -0.392 OA
ATOM     15  H   UNL     1       8.547  75.589   0.935  1.00  0.00     0.211 HD
ENDBRANCH  13  14
ENDBRANCH   9  13
ENDBRANCH   1   2
BRANCH   1  16
ATOM     16  C   UNL     1       9.909  72.036   5.804  1.00  0.00     0.286 C 
ATOM     17  C   UNL     1      11.207  71.197   5.793  1.00  0.00     0.202 C 
ATOM     18  O   UNL     1       8.782  71.206   5.558  1.00  0.00    -0.341 OA
ATOM     19  C   UNL     1      11.346  70.431   4.461  1.00  0.00     0.179 C 
ATOM     20  C   UNL     1       8.837  70.592   4.276  1.00  0.00     0.178 C 
ATOM     21  C   UNL     1      10.054  69.645   4.168  1.00  0.00     0.177 C 
BRANCH  17  22
ATOM     22  O   UNL     1      12.338  71.990   6.052  1.00  0.00    -0.385 OA
ATOM     23  H   UNL     1      12.694  72.308   5.182  1.00  0.00     0.211 HD
ENDBRANCH  17  22
BRANCH  19  24
ATOM     24  O   UNL     1      12.463  69.577   4.489  1.00  0.00    -0.387 OA
ATOM     25  H   UNL     1      12.624  69.321   5.435  1.00  0.00     0.211 HD
ENDBRANCH  19  24
BRANCH  20  26
ATOM     26  C   UNL     1       7.534  69.814   4.059  1.00  0.00     0.191 C 
BRANCH  26  27
ATOM     27  O   UNL     1       7.709  68.477   4.441  1.00  0.00    -0.394 OA
ATOM     28  H   UNL     1       8.025  68.499   5.381  1.00  0.00     0.210 HD
ENDBRANCH  26  27
ENDBRANCH  20  26
BRANCH  21  29
ATOM     29  O   UNL     1      10.118  69.101   2.875  1.00  0.00    -0.387 OA
ATOM     30  H   UNL     1       9.764  68.175   2.934  1.00  0.00     0.211 HD
ENDBRANCH  21  29
ENDBRANCH   1  16
TORSDOF 10
ENDMDL
