MODEL 1
REMARK VINA RESULT:    -3.018      0.000      0.000
REMARK INTER + INTRA:          -4.118
REMARK INTER:                  -3.635
REMARK INTRA:                  -0.483
REMARK UNBOUND:                -0.483
REMARK SMILES NC(=O)C[C@@H]([NH3+])C(=O)[O-]
REMARK SMILES IDX 4 1 5 2 6 3 7 7 8 8 9 9 2 10 3 11 1 12
REMARK H PARENT 6 4 6 5 6 6 1 13 1 14
REMARK Flexibility Score: inf
ROOT
ATOM      1  C   UNL     1     152.789 105.466  40.195  1.00  0.00     0.171 C 
ENDROOT
BRANCH   1   2
ATOM      2  C   UNL     1     154.044 104.726  40.701  1.00  0.00     0.237 C 
BRANCH   2   3
ATOM      3  N   UNL     1     154.263 105.003  42.125  1.00  0.00    -0.350 N 
ATOM      4  H   UNL     1     154.999 105.736  42.251  1.00  0.00     0.345 HD
ATOM      5  H   UNL     1     153.371 105.330  42.564  1.00  0.00     0.345 HD
ATOM      6  H   UNL     1     154.565 104.128  42.613  1.00  0.00     0.345 HD
ENDBRANCH   2   3
BRANCH   2   7
ATOM      7  C   UNL     1     153.919 103.241  40.477  1.00  0.00     0.100 C 
ATOM      8  O   UNL     1     154.923 102.567  40.125  1.00  0.00    -0.544 OA
ATOM      9  O   UNL     1     152.693 102.607  40.645  1.00  0.00    -0.544 OA
ENDBRANCH   2   7
ENDBRANCH   1   2
BRANCH   1  10
ATOM     10  C   UNL     1     151.842 105.780  41.319  1.00  0.00     0.223 C 
ATOM     11  O   UNL     1     151.895 106.906  41.885  1.00  0.00    -0.275 OA
ATOM     12  N   UNL     1     150.858 104.830  41.724  1.00  0.00    -0.369 N 
ATOM     13  H   UNL     1     150.787 103.901  41.254  1.00  0.00     0.159 HD
ATOM     14  H   UNL     1     150.192 105.058  42.496  1.00  0.00     0.159 HD
ENDBRANCH   1  10
TORSDOF 4
ENDMDL
MODEL 2
REMARK VINA RESULT:    -2.958      2.143      2.800
REMARK INTER + INTRA:          -4.046
REMARK INTER:                  -3.535
REMARK INTRA:                  -0.511
REMARK UNBOUND:                -0.483
REMARK SMILES NC(=O)C[C@@H]([NH3+])C(=O)[O-]
REMARK SMILES IDX 4 1 5 2 6 3 7 7 8 8 9 9 2 10 3 11 1 12
REMARK H PARENT 6 4 6 5 6 6 1 13 1 14
REMARK Flexibility Score: inf
ROOT
ATOM      1  C   UNL     1     154.132 104.707  39.661  1.00  0.00     0.171 C 
ENDROOT
BRANCH   1   2
ATOM      2  C   UNL     1     154.990 105.068  40.890  1.00  0.00     0.237 C 
BRANCH   2   3
ATOM      3  N   UNL     1     154.221 104.877  42.125  1.00  0.00    -0.350 N 
ATOM      4  H   UNL     1     154.812 105.076  42.965  1.00  0.00     0.345 HD
ATOM      5  H   UNL     1     153.391 105.514  42.129  1.00  0.00     0.345 HD
ATOM      6  H   UNL     1     153.874 103.891  42.177  1.00  0.00     0.345 HD
ENDBRANCH   2   3
BRANCH   2   7
ATOM      7  C   UNL     1     156.247 104.238  40.932  1.00  0.00     0.100 C 
ATOM      8  O   UNL     1     157.344 104.730  40.555  1.00  0.00    -0.544 OA
ATOM      9  O   UNL     1     156.204 102.921  41.374  1.00  0.00    -0.544 OA
ENDBRANCH   2   7
ENDBRANCH   1   2
BRANCH   1  10
ATOM     10  C   UNL     1     153.139 103.625  39.977  1.00  0.00     0.223 C 
ATOM     11  O   UNL     1     151.967 103.935  40.324  1.00  0.00    -0.275 OA
ATOM     12  N   UNL     1     153.499 102.250  39.851  1.00  0.00    -0.369 N 
ATOM     13  H   UNL     1     154.459 101.975  39.547  1.00  0.00     0.159 HD
ATOM     14  H   UNL     1     152.801 101.502  40.059  1.00  0.00     0.159 HD
ENDBRANCH   1  10
TORSDOF 4
ENDMDL
MODEL 3
REMARK VINA RESULT:    -2.925      2.163      3.412
REMARK INTER + INTRA:          -4.006
REMARK INTER:                  -3.514
REMARK INTRA:                  -0.492
REMARK UNBOUND:                -0.483
REMARK SMILES NC(=O)C[C@@H]([NH3+])C(=O)[O-]
REMARK SMILES IDX 4 1 5 2 6 3 7 7 8 8 9 9 2 10 3 11 1 12
REMARK H PARENT 6 4 6 5 6 6 1 13 1 14
REMARK Flexibility Score: inf
ROOT
ATOM      1  C   UNL     1     154.631 104.446  39.648  1.00  0.00     0.171 C 
ENDROOT
BRANCH   1   2
ATOM      2  C   UNL     1     153.558 103.484  39.100  1.00  0.00     0.237 C 
BRANCH   2   3
ATOM      3  N   UNL     1     153.641 102.185  39.776  1.00  0.00    -0.350 N 
ATOM      4  H   UNL     1     152.744 101.965  40.268  1.00  0.00     0.345 HD
ATOM      5  H   UNL     1     153.845 101.433  39.077  1.00  0.00     0.345 HD
ATOM      6  H   UNL     1     154.420 102.199  40.475  1.00  0.00     0.345 HD
ENDBRANCH   2   3
BRANCH   2   7
ATOM      7  C   UNL     1     152.178 104.066  39.267  1.00  0.00     0.100 C 
ATOM      8  O   UNL     1     151.613 104.043  40.393  1.00  0.00    -0.544 OA
ATOM      9  O   UNL     1     151.514 104.621  38.180  1.00  0.00    -0.544 OA
ENDBRANCH   2   7
ENDBRANCH   1   2
BRANCH   1  10
ATOM     10  C   UNL     1     154.932 104.173  41.095  1.00  0.00     0.223 C 
ATOM     11  O   UNL     1     155.860 103.376  41.400  1.00  0.00    -0.275 OA
ATOM     12  N   UNL     1     154.202 104.837  42.125  1.00  0.00    -0.369 N 
ATOM     13  H   UNL     1     153.443 105.515  41.890  1.00  0.00     0.159 HD
ATOM     14  H   UNL     1     154.424 104.655  43.129  1.00  0.00     0.159 HD
ENDBRANCH   1  10
TORSDOF 4
ENDMDL
MODEL 4
REMARK VINA RESULT:    -2.913      2.146      2.549
REMARK INTER + INTRA:          -3.992
REMARK INTER:                  -3.759
REMARK INTRA:                  -0.233
REMARK UNBOUND:                -0.483
REMARK SMILES NC(=O)C[C@@H]([NH3+])C(=O)[O-]
REMARK SMILES IDX 4 1 5 2 6 3 7 7 8 8 9 9 2 10 3 11 1 12
REMARK H PARENT 6 4 6 5 6 6 1 13 1 14
REMARK Flexibility Score: inf
ROOT
ATOM      1  C   UNL     1     153.210 104.413  41.031  1.00  0.00     0.171 C 
ENDROOT
BRANCH   1   2
ATOM      2  C   UNL     1     154.121 103.168  41.023  1.00  0.00     0.237 C 
BRANCH   2   3
ATOM      3  N   UNL     1     153.872 102.360  39.824  1.00  0.00    -0.350 N 
ATOM      4  H   UNL     1     154.631 101.652  39.690  1.00  0.00     0.345 HD
ATOM      5  H   UNL     1     152.953 101.869  39.911  1.00  0.00     0.345 HD
ATOM      6  H   UNL     1     153.831 102.980  38.981  1.00  0.00     0.345 HD
ENDBRANCH   2   3
BRANCH   2   7
ATOM      7  C   UNL     1     155.574 103.564  41.087  1.00  0.00     0.100 C 
ATOM      8  O   UNL     1     156.456 102.696  41.321  1.00  0.00    -0.544 OA
ATOM      9  O   UNL     1     155.948 104.889  40.902  1.00  0.00    -0.544 OA
ENDBRANCH   2   7
ENDBRANCH   1   2
BRANCH   1  10
ATOM     10  C   UNL     1     151.836 104.090  41.545  1.00  0.00     0.223 C 
ATOM     11  O   UNL     1     151.615 102.967  42.074  1.00  0.00    -0.275 OA
ATOM     12  N   UNL     1     150.789 105.056  41.474  1.00  0.00    -0.369 N 
ATOM     13  H   UNL     1     150.959 105.998  41.057  1.00  0.00     0.159 HD
ATOM     14  H   UNL     1     149.839 104.832  41.846  1.00  0.00     0.159 HD
ENDBRANCH   1  10
TORSDOF 4
ENDMDL
MODEL 5
REMARK VINA RESULT:    -2.907      2.166      2.719
REMARK INTER + INTRA:          -3.985
REMARK INTER:                  -3.526
REMARK INTRA:                  -0.459
REMARK UNBOUND:                -0.483
REMARK SMILES NC(=O)C[C@@H]([NH3+])C(=O)[O-]
REMARK SMILES IDX 4 1 5 2 6 3 7 7 8 8 9 9 2 10 3 11 1 12
REMARK H PARENT 6 4 6 5 6 6 1 13 1 14
REMARK Flexibility Score: inf
ROOT
ATOM      1  C   UNL     1     153.374 104.157  41.573  1.00  0.00     0.171 C 
ENDROOT
BRANCH   1   2
ATOM      2  C   UNL     1     153.989 103.680  40.242  1.00  0.00     0.237 C 
BRANCH   2   3
ATOM      3  N   UNL     1     153.470 102.355  39.884  1.00  0.00    -0.350 N 
ATOM      4  H   UNL     1     152.582 102.440  39.337  1.00  0.00     0.345 HD
ATOM      5  H   UNL     1     154.178 101.838  39.313  1.00  0.00     0.345 HD
ATOM      6  H   UNL     1     153.284 101.801  40.752  1.00  0.00     0.345 HD
ENDBRANCH   2   3
BRANCH   2   7
ATOM      7  C   UNL     1     153.705 104.662  39.135  1.00  0.00     0.100 C 
ATOM      8  O   UNL     1     154.040 104.396  37.951  1.00  0.00    -0.544 OA
ATOM      9  O   UNL     1     153.083 105.873  39.415  1.00  0.00    -0.544 OA
ENDBRANCH   2   7
ENDBRANCH   1   2
BRANCH   1  10
ATOM     10  C   UNL     1     151.943 103.719  41.710  1.00  0.00     0.223 C 
ATOM     11  O   UNL     1     151.683 102.557  42.125  1.00  0.00    -0.275 OA
ATOM     12  N   UNL     1     150.878 104.620  41.413  1.00  0.00    -0.369 N 
ATOM     13  H   UNL     1     151.075 105.592  41.087  1.00  0.00     0.159 HD
ATOM     14  H   UNL     1     149.885 104.316  41.523  1.00  0.00     0.159 HD
ENDBRANCH   1  10
TORSDOF 4
ENDMDL
MODEL 6
REMARK VINA RESULT:    -2.887      1.926      2.196
REMARK INTER + INTRA:          -3.960
REMARK INTER:                  -3.639
REMARK INTRA:                  -0.321
REMARK UNBOUND:                -0.483
REMARK SMILES NC(=O)C[C@@H]([NH3+])C(=O)[O-]
REMARK SMILES IDX 4 1 5 2 6 3 7 7 8 8 9 9 2 10 3 11 1 12
REMARK H PARENT 6 4 6 5 6 6 1 13 1 14
REMARK Flexibility Score: inf
ROOT
ATOM      1  C   UNL     1     152.033 105.678  41.420  1.00  0.00     0.171 C 
ENDROOT
BRANCH   1   2
ATOM      2  C   UNL     1     152.237 104.211  41.848  1.00  0.00     0.237 C 
BRANCH   2   3
ATOM      3  N   UNL     1     151.087 103.395  41.445  1.00  0.00    -0.350 N 
ATOM      4  H   UNL     1     150.432 103.254  42.249  1.00  0.00     0.345 HD
ATOM      5  H   UNL     1     150.575 103.865  40.662  1.00  0.00     0.345 HD
ATOM      6  H   UNL     1     151.416 102.462  41.104  1.00  0.00     0.345 HD
ENDBRANCH   2   3
BRANCH   2   7
ATOM      7  C   UNL     1     153.503 103.648  41.255  1.00  0.00     0.100 C 
ATOM      8  O   UNL     1     154.626 104.060  41.650  1.00  0.00    -0.544 OA
ATOM      9  O   UNL     1     153.441 102.680  40.259  1.00  0.00    -0.544 OA
ENDBRANCH   2   7
ENDBRANCH   1   2
BRANCH   1  10
ATOM     10  C   UNL     1     151.016 105.797  40.320  1.00  0.00     0.223 C 
ATOM     11  O   UNL     1     151.265 105.309  39.184  1.00  0.00    -0.275 OA
ATOM     12  N   UNL     1     149.757 106.422  40.561  1.00  0.00    -0.369 N 
ATOM     13  H   UNL     1     149.526 106.814  41.500  1.00  0.00     0.159 HD
ATOM     14  H   UNL     1     149.048 106.489  39.797  1.00  0.00     0.159 HD
ENDBRANCH   1  10
TORSDOF 4
ENDMDL
MODEL 7
REMARK VINA RESULT:    -2.864     17.351     17.949
REMARK INTER + INTRA:          -3.932
REMARK INTER:                  -3.610
REMARK INTRA:                  -0.322
REMARK UNBOUND:                -0.483
REMARK SMILES NC(=O)C[C@@H]([NH3+])C(=O)[O-]
REMARK SMILES IDX 4 1 5 2 6 3 7 7 8 8 9 9 2 10 3 11 1 12
REMARK H PARENT 6 4 6 5 6 6 1 13 1 14
REMARK Flexibility Score: inf
ROOT
ATOM      1  C   UNL     1     151.582 103.941  24.246  1.00  0.00     0.171 C 
ENDROOT
BRANCH   1   2
ATOM      2  C   UNL     1     150.256 103.656  23.512  1.00  0.00     0.237 C 
BRANCH   2   3
ATOM      3  N   UNL     1     150.492 103.502  22.072  1.00  0.00    -0.350 N 
ATOM      4  H   UNL     1     151.485 103.727  21.832  1.00  0.00     0.345 HD
ATOM      5  H   UNL     1     150.280 102.519  21.780  1.00  0.00     0.345 HD
ATOM      6  H   UNL     1     149.858 104.142  21.539  1.00  0.00     0.345 HD
ENDBRANCH   2   3
BRANCH   2   7
ATOM      7  C   UNL     1     149.592 102.420  24.061  1.00  0.00     0.100 C 
ATOM      8  O   UNL     1     148.643 101.878  23.433  1.00  0.00    -0.544 OA
ATOM      9  O   UNL     1     150.011 101.876  25.270  1.00  0.00    -0.544 OA
ENDBRANCH   2   7
ENDBRANCH   1   2
BRANCH   1  10
ATOM     10  C   UNL     1     152.769 103.512  23.431  1.00  0.00     0.223 C 
ATOM     11  O   UNL     1     152.884 102.307  23.081  1.00  0.00    -0.275 OA
ATOM     12  N   UNL     1     153.747 104.465  23.017  1.00  0.00    -0.369 N 
ATOM     13  H   UNL     1     153.657 105.471  23.281  1.00  0.00     0.159 HD
ATOM     14  H   UNL     1     154.563 104.166  22.439  1.00  0.00     0.159 HD
ENDBRANCH   1  10
TORSDOF 4
ENDMDL
MODEL 8
REMARK VINA RESULT:    -2.838      1.843      3.294
REMARK INTER + INTRA:          -3.901
REMARK INTER:                  -3.488
REMARK INTRA:                  -0.413
REMARK UNBOUND:                -0.483
REMARK SMILES NC(=O)C[C@@H]([NH3+])C(=O)[O-]
REMARK SMILES IDX 4 1 5 2 6 3 7 7 8 8 9 9 2 10 3 11 1 12
REMARK H PARENT 6 4 6 5 6 6 1 13 1 14
REMARK Flexibility Score: inf
ROOT
ATOM      1  C   UNL     1     154.238 103.787  41.692  1.00  0.00     0.171 C 
ENDROOT
BRANCH   1   2
ATOM      2  C   UNL     1     153.405 105.021  42.091  1.00  0.00     0.237 C 
BRANCH   2   3
ATOM      3  N   UNL     1     154.002 106.242  41.538  1.00  0.00    -0.350 N 
ATOM      4  H   UNL     1     153.538 106.507  40.638  1.00  0.00     0.345 HD
ATOM      5  H   UNL     1     153.902 107.028  42.222  1.00  0.00     0.345 HD
ATOM      6  H   UNL     1     155.022 106.091  41.364  1.00  0.00     0.345 HD
ENDBRANCH   2   3
BRANCH   2   7
ATOM      7  C   UNL     1     151.980 104.884  41.621  1.00  0.00     0.100 C 
ATOM      8  O   UNL     1     151.387 105.867  41.102  1.00  0.00    -0.544 OA
ATOM      9  O   UNL     1     151.306 103.678  41.768  1.00  0.00    -0.544 OA
ENDBRANCH   2   7
ENDBRANCH   1   2
BRANCH   1  10
ATOM     10  C   UNL     1     154.172 103.530  40.213  1.00  0.00     0.223 C 
ATOM     11  O   UNL     1     154.754 104.315  39.416  1.00  0.00    -0.275 OA
ATOM     12  N   UNL     1     153.490 102.384  39.705  1.00  0.00    -0.369 N 
ATOM     13  H   UNL     1     153.019 101.713  40.352  1.00  0.00     0.159 HD
ATOM     14  H   UNL     1     153.459 102.202  38.678  1.00  0.00     0.159 HD
ENDBRANCH   1  10
TORSDOF 4
ENDMDL
MODEL 9
REMARK VINA RESULT:    -2.819      1.528      2.698
REMARK INTER + INTRA:          -3.879
REMARK INTER:                  -3.469
REMARK INTRA:                  -0.409
REMARK UNBOUND:                -0.483
REMARK SMILES NC(=O)C[C@@H]([NH3+])C(=O)[O-]
REMARK SMILES IDX 4 1 5 2 6 3 7 7 8 8 9 9 2 10 3 11 1 12
REMARK H PARENT 6 4 6 5 6 6 1 13 1 14
REMARK Flexibility Score: inf
ROOT
ATOM      1  C   UNL     1     153.334 103.754  42.125  1.00  0.00     0.171 C 
ENDROOT
BRANCH   1   2
ATOM      2  C   UNL     1     152.306 103.168  41.136  1.00  0.00     0.237 C 
BRANCH   2   3
ATOM      3  N   UNL     1     150.988 103.776  41.349  1.00  0.00    -0.350 N 
ATOM      4  H   UNL     1     150.409 103.723  40.479  1.00  0.00     0.345 HD
ATOM      5  H   UNL     1     150.489 103.282  42.125  1.00  0.00     0.345 HD
ATOM      6  H   UNL     1     151.100 104.780  41.623  1.00  0.00     0.345 HD
ENDBRANCH   2   3
BRANCH   2   7
ATOM      7  C   UNL     1     152.748 103.380  39.711  1.00  0.00     0.100 C 
ATOM      8  O   UNL     1     151.940 103.835  38.858  1.00  0.00    -0.544 OA
ATOM      9  O   UNL     1     154.044 103.062  39.325  1.00  0.00    -0.544 OA
ENDBRANCH   2   7
ENDBRANCH   1   2
BRANCH   1  10
ATOM     10  C   UNL     1     153.619 105.201  41.835  1.00  0.00     0.223 C 
ATOM     11  O   UNL     1     152.730 106.067  42.055  1.00  0.00    -0.275 OA
ATOM     12  N   UNL     1     154.898 105.606  41.351  1.00  0.00    -0.369 N 
ATOM     13  H   UNL     1     155.652 104.903  41.181  1.00  0.00     0.159 HD
ATOM     14  H   UNL     1     155.095 106.614  41.164  1.00  0.00     0.159 HD
ENDBRANCH   1  10
TORSDOF 4
ENDMDL
