MODEL 1
REMARK VINA RESULT:    -2.117      0.000      0.000
REMARK INTER + INTRA:          -2.117
REMARK INTER:                  -2.117
REMARK INTRA:                   0.000
REMARK UNBOUND:                 0.000
REMARK SMILES CC(=O)[O-]
REMARK SMILES IDX 1 1 2 2 3 3 4 4
REMARK H PARENT
REMARK Flexibility Score: inf
ROOT
ATOM      1  C   UNL     1      30.993 -13.270  32.783  1.00  0.00     0.063 C 
ATOM      2  C   UNL     1      29.684 -12.972  32.135  1.00  0.00     0.038 C 
ATOM      3  O   UNL     1      28.881 -12.165  32.672  1.00  0.00    -0.550 OA
ATOM      4  O   UNL     1      29.323 -13.625  30.963  1.00  0.00    -0.550 OA
ENDROOT
TORSDOF 0
ENDMDL
MODEL 2
REMARK VINA RESULT:    -2.103     24.050     24.460
REMARK INTER + INTRA:          -2.103
REMARK INTER:                  -2.103
REMARK INTRA:                   0.000
REMARK UNBOUND:                 0.000
REMARK SMILES CC(=O)[O-]
REMARK SMILES IDX 1 1 2 2 3 3 4 4
REMARK H PARENT
REMARK Flexibility Score: inf
ROOT
ATOM      1  C   UNL     1      18.117  -0.125  13.583  1.00  0.00     0.063 C 
ATOM      2  C   UNL     1      18.002  -1.480  14.194  1.00  0.00     0.038 C 
ATOM      3  O   UNL     1      18.442  -2.488  13.582  1.00  0.00    -0.550 OA
ATOM      4  O   UNL     1      17.360  -1.641  15.415  1.00  0.00    -0.550 OA
ENDROOT
TORSDOF 0
ENDMDL
MODEL 3
REMARK VINA RESULT:    -2.047      1.689      1.938
REMARK INTER + INTRA:          -2.047
REMARK INTER:                  -2.047
REMARK INTRA:                   0.000
REMARK UNBOUND:                 0.000
REMARK SMILES CC(=O)[O-]
REMARK SMILES IDX 1 1 2 2 3 3 4 4
REMARK H PARENT
REMARK Flexibility Score: inf
ROOT
ATOM      1  C   UNL     1      29.209 -12.453  32.534  1.00  0.00     0.063 C 
ATOM      2  C   UNL     1      29.752 -13.296  31.431  1.00  0.00     0.038 C 
ATOM      3  O   UNL     1      28.974 -13.982  30.717  1.00  0.00    -0.550 OA
ATOM      4  O   UNL     1      31.123 -13.368  31.221  1.00  0.00    -0.550 OA
ENDROOT
TORSDOF 0
ENDMDL
MODEL 4
REMARK VINA RESULT:    -2.041      1.001      1.785
REMARK INTER + INTRA:          -2.041
REMARK INTER:                  -2.041
REMARK INTRA:                   0.000
REMARK UNBOUND:                 0.000
REMARK SMILES CC(=O)[O-]
REMARK SMILES IDX 1 1 2 2 3 3 4 4
REMARK H PARENT
REMARK Flexibility Score: inf
ROOT
ATOM      1  C   UNL     1      30.642 -13.369  31.410  1.00  0.00     0.063 C 
ATOM      2  C   UNL     1      29.268 -13.245  31.973  1.00  0.00     0.038 C 
ATOM      3  O   UNL     1      28.409 -14.137  31.746  1.00  0.00    -0.550 OA
ATOM      4  O   UNL     1      28.915 -12.120  32.707  1.00  0.00    -0.550 OA
ENDROOT
TORSDOF 0
ENDMDL
MODEL 5
REMARK VINA RESULT:    -2.029     24.034     24.318
REMARK INTER + INTRA:          -2.029
REMARK INTER:                  -2.029
REMARK INTRA:                   0.000
REMARK UNBOUND:                 0.000
REMARK SMILES CC(=O)[O-]
REMARK SMILES IDX 1 1 2 2 3 3 4 4
REMARK H PARENT
REMARK Flexibility Score: inf
ROOT
ATOM      1  C   UNL     1      16.912  -1.769  15.407  1.00  0.00     0.063 C 
ATOM      2  C   UNL     1      17.935  -1.487  14.359  1.00  0.00     0.038 C 
ATOM      3  O   UNL     1      18.405  -2.426  13.665  1.00  0.00    -0.550 OA
ATOM      4  O   UNL     1      18.410  -0.194  14.181  1.00  0.00    -0.550 OA
ENDROOT
TORSDOF 0
ENDMDL
MODEL 6
REMARK VINA RESULT:    -2.029     18.976     19.195
REMARK INTER + INTRA:          -2.029
REMARK INTER:                  -2.029
REMARK INTRA:                   0.000
REMARK UNBOUND:                 0.000
REMARK SMILES CC(=O)[O-]
REMARK SMILES IDX 1 1 2 2 3 3 4 4
REMARK H PARENT
REMARK Flexibility Score: inf
ROOT
ATOM      1  C   UNL     1      15.804  -5.820  20.724  1.00  0.00     0.063 C 
ATOM      2  C   UNL     1      17.000  -5.044  20.285  1.00  0.00     0.038 C 
ATOM      3  O   UNL     1      17.094  -3.819  20.560  1.00  0.00    -0.550 OA
ATOM      4  O   UNL     1      17.987  -5.659  19.527  1.00  0.00    -0.550 OA
ENDROOT
TORSDOF 0
ENDMDL
MODEL 7
REMARK VINA RESULT:    -1.993     23.862     24.220
REMARK INTER + INTRA:          -1.993
REMARK INTER:                  -1.993
REMARK INTRA:                   0.000
REMARK UNBOUND:                 0.000
REMARK SMILES CC(=O)[O-]
REMARK SMILES IDX 1 1 2 2 3 3 4 4
REMARK H PARENT
REMARK Flexibility Score: inf
ROOT
ATOM      1  C   UNL     1      18.095  -1.743  14.082  1.00  0.00     0.063 C 
ATOM      2  C   UNL     1      17.207  -1.259  15.178  1.00  0.00     0.038 C 
ATOM      3  O   UNL     1      16.621  -2.084  15.927  1.00  0.00    -0.550 OA
ATOM      4  O   UNL     1      16.982   0.101  15.342  1.00  0.00    -0.550 OA
ENDROOT
TORSDOF 0
ENDMDL
MODEL 8
REMARK VINA RESULT:    -1.925      7.619      8.225
REMARK INTER + INTRA:          -1.925
REMARK INTER:                  -1.925
REMARK INTRA:                   0.000
REMARK UNBOUND:                 0.000
REMARK SMILES CC(=O)[O-]
REMARK SMILES IDX 1 1 2 2 3 3 4 4
REMARK H PARENT
REMARK Flexibility Score: inf
ROOT
ATOM      1  C   UNL     1      22.810 -14.712  26.402  1.00  0.00     0.063 C 
ATOM      2  C   UNL     1      24.206 -14.259  26.667  1.00  0.00     0.038 C 
ATOM      3  O   UNL     1      25.180 -14.975  26.316  1.00  0.00    -0.550 OA
ATOM      4  O   UNL     1      24.434 -13.072  27.350  1.00  0.00    -0.550 OA
ENDROOT
TORSDOF 0
ENDMDL
MODEL 9
REMARK VINA RESULT:    -1.901      7.735      7.936
REMARK INTER + INTRA:          -1.901
REMARK INTER:                  -1.901
REMARK INTRA:                   0.000
REMARK UNBOUND:                 0.000
REMARK SMILES CC(=O)[O-]
REMARK SMILES IDX 1 1 2 2 3 3 4 4
REMARK H PARENT
REMARK Flexibility Score: inf
ROOT
ATOM      1  C   UNL     1      25.099 -15.327  26.376  1.00  0.00     0.063 C 
ATOM      2  C   UNL     1      24.239 -14.151  26.689  1.00  0.00     0.038 C 
ATOM      3  O   UNL     1      24.655 -12.984  26.463  1.00  0.00    -0.550 OA
ATOM      4  O   UNL     1      22.996 -14.336  27.280  1.00  0.00    -0.550 OA
ENDROOT
TORSDOF 0
ENDMDL
