MODEL 1
REMARK VINA RESULT:    -5.674      0.000      0.000
REMARK INTER + INTRA:          -5.674
REMARK INTER:                  -5.674
REMARK INTRA:                   0.000
REMARK UNBOUND:                 0.000
REMARK SMILES Cc1cc2cc3c(C)cc(=O)oc3c(C)c2o1
REMARK SMILES IDX 8 1 7 2 9 3 10 4 11 5 12 6 13 7 6 8 5 9 4 10 3 11 2 12 17 13
REMARK SMILES IDX 16 14 14 15 15 16 1 17
REMARK H PARENT
REMARK Flexibility Score: inf
ROOT
ATOM      1  C   UNL     1      34.138  12.125   5.270  1.00  0.00     0.045 C 
ATOM      2  C   UNL     1      34.394  10.933   4.383  1.00  0.00    -0.033 A 
ATOM      3  C   UNL     1      33.776  10.869   3.128  1.00  0.00     0.098 A 
ATOM      4  C   UNL     1      34.007   9.769   2.301  1.00  0.00     0.336 A 
ATOM      5  O   UNL     1      33.454   9.706   1.171  1.00  0.00    -0.246 OA
ATOM      6  O   UNL     1      34.807   8.786   2.694  1.00  0.00    -0.422 OA
ATOM      7  C   UNL     1      35.427   8.783   3.871  1.00  0.00     0.145 A 
ATOM      8  C   UNL     1      35.240   9.874   4.780  1.00  0.00     0.022 A 
ATOM      9  C   UNL     1      35.895   9.857   6.035  1.00  0.00     0.024 A 
ATOM     10  C   UNL     1      36.701   8.766   6.339  1.00  0.00     0.022 A 
ATOM     11  C   UNL     1      37.433   8.484   7.469  1.00  0.00     0.054 A 
ATOM     12  C   UNL     1      38.022   7.255   7.196  1.00  0.00     0.102 A 
ATOM     13  O   UNL     1      37.673   6.822   5.998  1.00  0.00    -0.461 OA
ATOM     14  C   UNL     1      36.879   7.724   5.470  1.00  0.00     0.140 A 
ATOM     15  C   UNL     1      36.266   7.696   4.214  1.00  0.00     0.036 A 
ATOM     16  C   UNL     1      36.450   6.529   3.286  1.00  0.00     0.052 C 
ATOM     17  C   UNL     1      38.912   6.501   8.124  1.00  0.00     0.087 C 
ENDROOT
TORSDOF 0
ENDMDL
MODEL 2
REMARK VINA RESULT:    -5.554     15.146     15.562
REMARK INTER + INTRA:          -5.554
REMARK INTER:                  -5.554
REMARK INTRA:                   0.000
REMARK UNBOUND:                 0.000
REMARK SMILES Cc1cc2cc3c(C)cc(=O)oc3c(C)c2o1
REMARK SMILES IDX 8 1 7 2 9 3 10 4 11 5 12 6 13 7 6 8 5 9 4 10 3 11 2 12 17 13
REMARK SMILES IDX 16 14 14 15 15 16 1 17
REMARK H PARENT
REMARK Flexibility Score: inf
ROOT
ATOM      1  C   UNL     1      40.459   7.045 -10.552  1.00  0.00     0.045 C 
ATOM      2  C   UNL     1      39.685   5.753 -10.469  1.00  0.00    -0.033 A 
ATOM      3  C   UNL     1      38.494   5.621 -11.194  1.00  0.00     0.098 A 
ATOM      4  C   UNL     1      37.771   4.430 -11.122  1.00  0.00     0.336 A 
ATOM      5  O   UNL     1      36.700   4.306 -11.771  1.00  0.00    -0.246 OA
ATOM      6  O   UNL     1      38.204   3.422 -10.375  1.00  0.00    -0.422 OA
ATOM      7  C   UNL     1      39.326   3.479  -9.662  1.00  0.00     0.145 A 
ATOM      8  C   UNL     1      40.124   4.667  -9.679  1.00  0.00     0.022 A 
ATOM      9  C   UNL     1      41.312   4.723  -8.909  1.00  0.00     0.024 A 
ATOM     10  C   UNL     1      41.657   3.605  -8.157  1.00  0.00     0.022 A 
ATOM     11  C   UNL     1      42.728   3.389  -7.321  1.00  0.00     0.054 A 
ATOM     12  C   UNL     1      42.533   2.097  -6.846  1.00  0.00     0.102 A 
ATOM     13  O   UNL     1      41.430   1.573  -7.348  1.00  0.00    -0.461 OA
ATOM     14  C   UNL     1      40.894   2.471  -8.141  1.00  0.00     0.140 A 
ATOM     15  C   UNL     1      39.720   2.359  -8.891  1.00  0.00     0.036 A 
ATOM     16  C   UNL     1      38.880   1.114  -8.838  1.00  0.00     0.052 C 
ATOM     17  C   UNL     1      43.425   1.390  -5.882  1.00  0.00     0.087 C 
ENDROOT
TORSDOF 0
ENDMDL
MODEL 3
REMARK VINA RESULT:    -5.515     15.014     15.468
REMARK INTER + INTRA:          -5.515
REMARK INTER:                  -5.515
REMARK INTRA:                   0.000
REMARK UNBOUND:                 0.000
REMARK SMILES Cc1cc2cc3c(C)cc(=O)oc3c(C)c2o1
REMARK SMILES IDX 8 1 7 2 9 3 10 4 11 5 12 6 13 7 6 8 5 9 4 10 3 11 2 12 17 13
REMARK SMILES IDX 16 14 14 15 15 16 1 17
REMARK H PARENT
REMARK Flexibility Score: inf
ROOT
ATOM      1  C   UNL     1      37.176   2.760  -9.888  1.00  0.00     0.045 C 
ATOM      2  C   UNL     1      38.246   3.813 -10.031  1.00  0.00    -0.033 A 
ATOM      3  C   UNL     1      38.029   4.896 -10.893  1.00  0.00     0.098 A 
ATOM      4  C   UNL     1      39.015   5.874 -11.032  1.00  0.00     0.336 A 
ATOM      5  O   UNL     1      38.826   6.849 -11.806  1.00  0.00    -0.246 OA
ATOM      6  O   UNL     1      40.152   5.787 -10.354  1.00  0.00    -0.422 OA
ATOM      7  C   UNL     1      40.422   4.789  -9.518  1.00  0.00     0.145 A 
ATOM      8  C   UNL     1      39.465   3.742  -9.321  1.00  0.00     0.022 A 
ATOM      9  C   UNL     1      39.765   2.677  -8.438  1.00  0.00     0.024 A 
ATOM     10  C   UNL     1      40.996   2.690  -7.790  1.00  0.00     0.022 A 
ATOM     11  C   UNL     1      41.548   1.795  -6.905  1.00  0.00     0.054 A 
ATOM     12  C   UNL     1      42.795   2.333  -6.608  1.00  0.00     0.102 A 
ATOM     13  O   UNL     1      42.987   3.462  -7.264  1.00  0.00    -0.461 OA
ATOM     14  C   UNL     1      41.910   3.691  -7.979  1.00  0.00     0.140 A 
ATOM     15  C   UNL     1      41.659   4.770  -8.830  1.00  0.00     0.036 A 
ATOM     16  C   UNL     1      42.688   5.844  -9.046  1.00  0.00     0.052 C 
ATOM     17  C   UNL     1      43.802   1.722  -5.693  1.00  0.00     0.087 C 
ENDROOT
TORSDOF 0
ENDMDL
MODEL 4
REMARK VINA RESULT:    -5.512      1.707      5.685
REMARK INTER + INTRA:          -5.512
REMARK INTER:                  -5.512
REMARK INTRA:                   0.000
REMARK UNBOUND:                 0.000
REMARK SMILES Cc1cc2cc3c(C)cc(=O)oc3c(C)c2o1
REMARK SMILES IDX 8 1 7 2 9 3 10 4 11 5 12 6 13 7 6 8 5 9 4 10 3 11 2 12 17 13
REMARK SMILES IDX 16 14 14 15 15 16 1 17
REMARK H PARENT
REMARK Flexibility Score: inf
ROOT
ATOM      1  C   UNL     1      34.831   5.053   6.257  1.00  0.00     0.045 C 
ATOM      2  C   UNL     1      35.918   6.092   6.377  1.00  0.00    -0.033 A 
ATOM      3  C   UNL     1      37.003   5.851   7.228  1.00  0.00     0.098 A 
ATOM      4  C   UNL     1      38.013   6.808   7.345  1.00  0.00     0.336 A 
ATOM      5  O   UNL     1      38.991   6.598   8.109  1.00  0.00    -0.246 OA
ATOM      6  O   UNL     1      37.952   7.941   6.656  1.00  0.00    -0.422 OA
ATOM      7  C   UNL     1      36.952   8.233   5.830  1.00  0.00     0.145 A 
ATOM      8  C   UNL     1      35.874   7.306   5.656  1.00  0.00     0.022 A 
ATOM      9  C   UNL     1      34.808   7.630   4.781  1.00  0.00     0.024 A 
ATOM     10  C   UNL     1      34.851   8.853   4.121  1.00  0.00     0.022 A 
ATOM     11  C   UNL     1      33.961   9.423   3.241  1.00  0.00     0.054 A 
ATOM     12  C   UNL     1      34.533  10.650   2.925  1.00  0.00     0.102 A 
ATOM     13  O   UNL     1      35.676  10.814   3.566  1.00  0.00    -0.461 OA
ATOM     14  C   UNL     1      35.880   9.738   4.289  1.00  0.00     0.140 A 
ATOM     15  C   UNL     1      36.962   9.463   5.129  1.00  0.00     0.036 A 
ATOM     16  C   UNL     1      38.069  10.461   5.322  1.00  0.00     0.052 C 
ATOM     17  C   UNL     1      33.942  11.666   2.008  1.00  0.00     0.087 C 
ENDROOT
TORSDOF 0
ENDMDL
MODEL 5
REMARK VINA RESULT:    -5.490      1.741      5.479
REMARK INTER + INTRA:          -5.490
REMARK INTER:                  -5.490
REMARK INTRA:                   0.000
REMARK UNBOUND:                 0.000
REMARK SMILES Cc1cc2cc3c(C)cc(=O)oc3c(C)c2o1
REMARK SMILES IDX 8 1 7 2 9 3 10 4 11 5 12 6 13 7 6 8 5 9 4 10 3 11 2 12 17 13
REMARK SMILES IDX 16 14 14 15 15 16 1 17
REMARK H PARENT
REMARK Flexibility Score: inf
ROOT
ATOM      1  C   UNL     1      39.267   8.085   7.319  1.00  0.00     0.045 C 
ATOM      2  C   UNL     1      37.978   7.332   7.104  1.00  0.00    -0.033 A 
ATOM      3  C   UNL     1      37.790   6.101   7.745  1.00  0.00     0.098 A 
ATOM      4  C   UNL     1      36.601   5.397   7.550  1.00  0.00     0.336 A 
ATOM      5  O   UNL     1      36.426   4.290   8.123  1.00  0.00    -0.246 OA
ATOM      6  O   UNL     1      35.648   5.886   6.765  1.00  0.00    -0.422 OA
ATOM      7  C   UNL     1      35.760   7.048   6.128  1.00  0.00     0.145 A 
ATOM      8  C   UNL     1      36.951   7.830   6.272  1.00  0.00     0.022 A 
ATOM      9  C   UNL     1      37.066   9.061   5.582  1.00  0.00     0.024 A 
ATOM     10  C   UNL     1      36.004   9.464   4.779  1.00  0.00     0.022 A 
ATOM     11  C   UNL     1      35.851  10.585   3.998  1.00  0.00     0.054 A 
ATOM     12  C   UNL     1      34.593  10.434   3.427  1.00  0.00     0.102 A 
ATOM     13  O   UNL     1      34.029   9.309   3.825  1.00  0.00    -0.461 OA
ATOM     14  C   UNL     1      34.867   8.715   4.642  1.00  0.00     0.140 A 
ATOM     15  C   UNL     1      34.697   7.500   5.310  1.00  0.00     0.036 A 
ATOM     16  C   UNL     1      33.453   6.678   5.124  1.00  0.00     0.052 C 
ATOM     17  C   UNL     1      33.958  11.390   2.475  1.00  0.00     0.087 C 
ENDROOT
TORSDOF 0
ENDMDL
MODEL 6
REMARK VINA RESULT:    -5.361     13.803     15.767
REMARK INTER + INTRA:          -5.361
REMARK INTER:                  -5.361
REMARK INTRA:                   0.000
REMARK UNBOUND:                 0.000
REMARK SMILES Cc1cc2cc3c(C)cc(=O)oc3c(C)c2o1
REMARK SMILES IDX 8 1 7 2 9 3 10 4 11 5 12 6 13 7 6 8 5 9 4 10 3 11 2 12 17 13
REMARK SMILES IDX 16 14 14 15 15 16 1 17
REMARK H PARENT
REMARK Flexibility Score: inf
ROOT
ATOM      1  C   UNL     1      43.004   5.205 -12.095  1.00  0.00     0.045 C 
ATOM      2  C   UNL     1      41.691   5.292 -11.359  1.00  0.00    -0.033 A 
ATOM      3  C   UNL     1      40.655   6.065 -11.898  1.00  0.00     0.098 A 
ATOM      4  C   UNL     1      39.437   6.153 -11.222  1.00  0.00     0.336 A 
ATOM      5  O   UNL     1      38.502   6.847 -11.702  1.00  0.00    -0.246 OA
ATOM      6  O   UNL     1      39.253   5.508 -10.077  1.00  0.00    -0.422 OA
ATOM      7  C   UNL     1      40.192   4.756  -9.510  1.00  0.00     0.145 A 
ATOM      8  C   UNL     1      41.472   4.617 -10.138  1.00  0.00     0.022 A 
ATOM      9  C   UNL     1      42.469   3.822  -9.522  1.00  0.00     0.024 A 
ATOM     10  C   UNL     1      42.161   3.203  -8.316  1.00  0.00     0.022 A 
ATOM     11  C   UNL     1      42.927   2.400  -7.504  1.00  0.00     0.054 A 
ATOM     12  C   UNL     1      42.088   2.091  -6.439  1.00  0.00     0.102 A 
ATOM     13  O   UNL     1      40.909   2.665  -6.589  1.00  0.00    -0.461 OA
ATOM     14  C   UNL     1      40.938   3.337  -7.717  1.00  0.00     0.140 A 
ATOM     15  C   UNL     1      39.915   4.098  -8.287  1.00  0.00     0.036 A 
ATOM     16  C   UNL     1      38.588   4.257  -7.600  1.00  0.00     0.052 C 
ATOM     17  C   UNL     1      42.458   1.248  -5.267  1.00  0.00     0.087 C 
ENDROOT
TORSDOF 0
ENDMDL
MODEL 7
REMARK VINA RESULT:    -5.336      1.193      5.248
REMARK INTER + INTRA:          -5.336
REMARK INTER:                  -5.336
REMARK INTRA:                   0.000
REMARK UNBOUND:                 0.000
REMARK SMILES Cc1cc2cc3c(C)cc(=O)oc3c(C)c2o1
REMARK SMILES IDX 8 1 7 2 9 3 10 4 11 5 12 6 13 7 6 8 5 9 4 10 3 11 2 12 17 13
REMARK SMILES IDX 16 14 14 15 15 16 1 17
REMARK H PARENT
REMARK Flexibility Score: inf
ROOT
ATOM      1  C   UNL     1      38.087  11.143   7.986  1.00  0.00     0.045 C 
ATOM      2  C   UNL     1      38.004   9.770   7.368  1.00  0.00    -0.033 A 
ATOM      3  C   UNL     1      38.762   8.727   7.914  1.00  0.00     0.098 A 
ATOM      4  C   UNL     1      38.692   7.453   7.347  1.00  0.00     0.336 A 
ATOM      5  O   UNL     1      39.371   6.512   7.834  1.00  0.00    -0.246 OA
ATOM      6  O   UNL     1      37.913   7.224   6.297  1.00  0.00    -0.422 OA
ATOM      7  C   UNL     1      37.167   8.168   5.729  1.00  0.00     0.145 A 
ATOM      8  C   UNL     1      37.185   9.502   6.249  1.00  0.00     0.022 A 
ATOM      9  C   UNL     1      36.395  10.503   5.632  1.00  0.00     0.024 A 
ATOM     10  C   UNL     1      35.626  10.144   4.530  1.00  0.00     0.022 A 
ATOM     11  C   UNL     1      34.791  10.899   3.741  1.00  0.00     0.054 A 
ATOM     12  C   UNL     1      34.311  10.000   2.795  1.00  0.00     0.102 A 
ATOM     13  O   UNL     1      34.818   8.797   2.990  1.00  0.00    -0.461 OA
ATOM     14  C   UNL     1      35.611   8.869   4.034  1.00  0.00     0.140 A 
ATOM     15  C   UNL     1      36.361   7.842   4.612  1.00  0.00     0.036 A 
ATOM     16  C   UNL     1      36.353   6.454   4.035  1.00  0.00     0.052 C 
ATOM     17  C   UNL     1      33.369  10.335   1.689  1.00  0.00     0.087 C 
ENDROOT
TORSDOF 0
ENDMDL
MODEL 8
REMARK VINA RESULT:    -5.049     14.205     15.466
REMARK INTER + INTRA:          -5.049
REMARK INTER:                  -5.049
REMARK INTRA:                   0.000
REMARK UNBOUND:                 0.000
REMARK SMILES Cc1cc2cc3c(C)cc(=O)oc3c(C)c2o1
REMARK SMILES IDX 8 1 7 2 9 3 10 4 11 5 12 6 13 7 6 8 5 9 4 10 3 11 2 12 17 13
REMARK SMILES IDX 16 14 14 15 15 16 1 17
REMARK H PARENT
REMARK Flexibility Score: inf
ROOT
ATOM      1  C   UNL     1      38.510   5.404  -8.138  1.00  0.00     0.045 C 
ATOM      2  C   UNL     1      39.754   5.102  -8.935  1.00  0.00    -0.033 A 
ATOM      3  C   UNL     1      39.944   5.733 -10.171  1.00  0.00     0.098 A 
ATOM      4  C   UNL     1      41.092   5.459 -10.916  1.00  0.00     0.336 A 
ATOM      5  O   UNL     1      41.268   6.022 -12.027  1.00  0.00    -0.246 OA
ATOM      6  O   UNL     1      42.003   4.607 -10.462  1.00  0.00    -0.422 OA
ATOM      7  C   UNL     1      41.887   3.975  -9.298  1.00  0.00     0.145 A 
ATOM      8  C   UNL     1      40.737   4.198  -8.474  1.00  0.00     0.022 A 
ATOM      9  C   UNL     1      40.616   3.513  -7.241  1.00  0.00     0.024 A 
ATOM     10  C   UNL     1      41.633   2.637  -6.876  1.00  0.00     0.022 A 
ATOM     11  C   UNL     1      41.770   1.842  -5.762  1.00  0.00     0.054 A 
ATOM     12  C   UNL     1      42.979   1.186  -5.957  1.00  0.00     0.102 A 
ATOM     13  O   UNL     1      43.530   1.548  -7.101  1.00  0.00    -0.461 OA
ATOM     14  C   UNL     1      42.731   2.424  -7.664  1.00  0.00     0.140 A 
ATOM     15  C   UNL     1      42.905   3.083  -8.883  1.00  0.00     0.036 A 
ATOM     16  C   UNL     1      44.104   2.813  -9.748  1.00  0.00     0.052 C 
ATOM     17  C   UNL     1      43.578   0.188  -5.025  1.00  0.00     0.087 C 
ENDROOT
TORSDOF 0
ENDMDL
MODEL 9
REMARK VINA RESULT:    -4.910     15.381     16.620
REMARK INTER + INTRA:          -4.910
REMARK INTER:                  -4.910
REMARK INTRA:                   0.000
REMARK UNBOUND:                 0.000
REMARK SMILES Cc1cc2cc3c(C)cc(=O)oc3c(C)c2o1
REMARK SMILES IDX 8 1 7 2 9 3 10 4 11 5 12 6 13 7 6 8 5 9 4 10 3 11 2 12 17 13
REMARK SMILES IDX 16 14 14 15 15 16 1 17
REMARK H PARENT
REMARK Flexibility Score: inf
ROOT
ATOM      1  C   UNL     1      42.047   3.237  -7.614  1.00  0.00     0.045 C 
ATOM      2  C   UNL     1      40.788   2.952  -8.393  1.00  0.00    -0.033 A 
ATOM      3  C   UNL     1      40.196   1.687  -8.298  1.00  0.00     0.098 A 
ATOM      4  C   UNL     1      39.031   1.415  -9.017  1.00  0.00     0.336 A 
ATOM      5  O   UNL     1      38.495   0.279  -8.936  1.00  0.00    -0.246 OA
ATOM      6  O   UNL     1      38.481   2.345  -9.788  1.00  0.00    -0.422 OA
ATOM      7  C   UNL     1      38.989   3.566  -9.923  1.00  0.00     0.145 A 
ATOM      8  C   UNL     1      40.185   3.925  -9.222  1.00  0.00     0.022 A 
ATOM      9  C   UNL     1      40.725   5.225  -9.380  1.00  0.00     0.024 A 
ATOM     10  C   UNL     1      40.064   6.111 -10.223  1.00  0.00     0.022 A 
ATOM     11  C   UNL     1      40.365   7.407 -10.568  1.00  0.00     0.054 A 
ATOM     12  C   UNL     1      39.351   7.770 -11.448  1.00  0.00     0.102 A 
ATOM     13  O   UNL     1      38.505   6.772 -11.627  1.00  0.00    -0.461 OA
ATOM     14  C   UNL     1      38.922   5.767 -10.893  1.00  0.00     0.140 A 
ATOM     15  C   UNL     1      38.340   4.503 -10.764  1.00  0.00     0.036 A 
ATOM     16  C   UNL     1      37.102   4.135 -11.530  1.00  0.00     0.052 C 
ATOM     17  C   UNL     1      39.231   9.093 -12.125  1.00  0.00     0.087 C 
ENDROOT
TORSDOF 0
ENDMDL
