MODEL 1
REMARK VINA RESULT:    -4.354      0.000      0.000
REMARK INTER + INTRA:          -6.591
REMARK INTER:                  -6.645
REMARK INTRA:                   0.054
REMARK UNBOUND:                 0.054
REMARK SMILES CC1=CCC[C@@H](C)C(=O)C[C@@H](C(C)C)C(=O)C1
REMARK SMILES IDX 8 1 9 2 6 3 7 4 5 5 4 6 3 7 2 8 1 9 10 11 11 12 15 13 16 14
REMARK SMILES IDX 17 15 12 17 13 18 14 19
REMARK H PARENT
REMARK Flexibility Score: 70.00
ROOT
ATOM      1  C   UNL     1     -14.688  13.792 -32.370  1.00  0.00     0.136 C 
ATOM      2  O   UNL     1     -14.769  13.210 -33.443  1.00  0.00    -0.299 OA
ENDROOT
BRANCH   1   3
ATOM      3  C   UNL     1     -15.887  13.832 -31.437  1.00  0.00     0.053 C 
ATOM      4  C   UNL     1     -15.738  14.902 -30.346  1.00  0.00     0.016 C 
BRANCH   3   5
ATOM      5  C   UNL     1     -16.253  12.448 -30.845  1.00  0.00     0.015 C 
BRANCH   5   6
ATOM      6  C   UNL     1     -15.106  11.519 -30.392  1.00  0.00     0.028 C 
BRANCH   6   7
ATOM      7  C   UNL     1     -14.649  11.623 -28.955  1.00  0.00    -0.028 C 
ATOM      8  C   UNL     1     -13.369  11.670 -28.512  1.00  0.00    -0.070 CG0
ATOM      9  C   UNL     1     -13.139  11.587 -27.023  1.00  0.00     0.039 C 
ATOM     10  G   UNL     1     -12.167  11.875 -29.413  1.00  0.00     0.000 G0
ENDBRANCH   6   7
ENDBRANCH   5   6
ENDBRANCH   3   5
ENDBRANCH   1   3
BRANCH   1  11
ATOM     11  C   UNL     1     -13.368  14.439 -31.999  1.00  0.00     0.087 C 
BRANCH  11  12
ATOM     12  C   UNL     1     -12.285  13.419 -31.561  1.00  0.00     0.066 C 
BRANCH  12  13
ATOM     13  C   UNL     1     -12.257  13.254 -30.050  1.00  0.00     0.140 C 
ATOM     14  O   UNL     1     -12.354  14.237 -29.332  1.00  0.00    -0.299 OA
BRANCH  13  15
ATOM     15  C   UNL     1     -12.164  11.885 -29.409  1.00  0.00     0.106 CG0
ATOM     16  G   UNL     1     -13.363  11.647 -28.513  1.00  0.00     0.000 G0
ENDBRANCH  13  15
ENDBRANCH  12  13
BRANCH  12  17
ATOM     17  C   UNL     1     -10.862  13.717 -32.140  1.00  0.00    -0.006 C 
ATOM     18  C   UNL     1     -10.369  15.160 -31.922  1.00  0.00     0.008 C 
ATOM     19  C   UNL     1     -10.781  13.369 -33.636  1.00  0.00     0.008 C 
ENDBRANCH  12  17
ENDBRANCH  11  12
ENDBRANCH   1  11
TORSDOF 1
ENDMDL
MODEL 2
REMARK VINA RESULT:    -4.223      1.723      4.099
REMARK INTER + INTRA:          -6.391
REMARK INTER:                  -6.674
REMARK INTRA:                   0.283
REMARK UNBOUND:                 0.054
REMARK SMILES CC1=CCC[C@@H](C)C(=O)C[C@@H](C(C)C)C(=O)C1
REMARK SMILES IDX 8 1 9 2 6 3 7 4 5 5 4 6 3 7 2 8 1 9 10 11 11 12 15 13 16 14
REMARK SMILES IDX 17 15 12 17 13 18 14 19
REMARK H PARENT
REMARK Flexibility Score: 70.00
ROOT
ATOM      1  C   UNL     1     -14.784  13.488 -32.075  1.00  0.00     0.136 C 
ATOM      2  O   UNL     1     -14.330  12.861 -33.023  1.00  0.00    -0.299 OA
ENDROOT
BRANCH   1   3
ATOM      3  C   UNL     1     -14.102  14.767 -31.617  1.00  0.00     0.053 C 
ATOM      4  C   UNL     1     -12.775  15.011 -32.350  1.00  0.00     0.016 C 
BRANCH   3   5
ATOM      5  C   UNL     1     -13.941  14.862 -30.080  1.00  0.00     0.015 C 
BRANCH   5   6
ATOM      6  C   UNL     1     -12.620  14.367 -29.451  1.00  0.00     0.028 C 
BRANCH   6   7
ATOM      7  C   UNL     1     -12.711  13.320 -28.364  1.00  0.00    -0.028 C 
ATOM      8  C   UNL     1     -13.115  12.035 -28.508  1.00  0.00    -0.070 CG0
ATOM      9  C   UNL     1     -13.306  11.216 -27.255  1.00  0.00     0.039 C 
ATOM     10  G   UNL     1     -13.313  11.353 -29.848  1.00  0.00     0.000 G0
ENDBRANCH   6   7
ENDBRANCH   5   6
ENDBRANCH   3   5
ENDBRANCH   1   3
BRANCH   1  11
ATOM     11  C   UNL     1     -16.039  12.969 -31.402  1.00  0.00     0.087 C 
BRANCH  11  12
ATOM     12  C   UNL     1     -15.772  12.327 -30.015  1.00  0.00     0.066 C 
BRANCH  12  13
ATOM     13  C   UNL     1     -14.803  11.161 -30.121  1.00  0.00     0.140 C 
ATOM     14  O   UNL     1     -15.211  10.066 -30.478  1.00  0.00    -0.299 OA
BRANCH  13  15
ATOM     15  C   UNL     1     -13.325  11.337 -29.843  1.00  0.00     0.106 CG0
ATOM     16  G   UNL     1     -13.127  12.029 -28.509  1.00  0.00     0.000 G0
ENDBRANCH  13  15
ENDBRANCH  12  13
BRANCH  12  17
ATOM     17  C   UNL     1     -17.072  11.936 -29.236  1.00  0.00    -0.006 C 
ATOM     18  C   UNL     1     -18.383  12.373 -29.916  1.00  0.00     0.008 C 
ATOM     19  C   UNL     1     -17.042  12.468 -27.793  1.00  0.00     0.008 C 
ENDBRANCH  12  17
ENDBRANCH  11  12
ENDBRANCH   1  11
TORSDOF 1
ENDMDL
MODEL 3
REMARK VINA RESULT:    -4.146      2.057      4.417
REMARK INTER + INTRA:          -6.274
REMARK INTER:                  -6.501
REMARK INTRA:                   0.227
REMARK UNBOUND:                 0.054
REMARK SMILES CC1=CCC[C@@H](C)C(=O)C[C@@H](C(C)C)C(=O)C1
REMARK SMILES IDX 8 1 9 2 6 3 7 4 5 5 4 6 3 7 2 8 1 9 10 11 11 12 15 13 16 14
REMARK SMILES IDX 17 15 12 17 13 18 14 19
REMARK H PARENT
REMARK Flexibility Score: 70.00
ROOT
ATOM      1  C   UNL     1     -12.596  12.623 -27.307  1.00  0.00     0.136 C 
ATOM      2  O   UNL     1     -12.540  13.721 -26.771  1.00  0.00    -0.299 OA
ENDROOT
BRANCH   1   3
ATOM      3  C   UNL     1     -12.689  11.368 -26.456  1.00  0.00     0.053 C 
ATOM      4  C   UNL     1     -11.527  10.399 -26.722  1.00  0.00     0.016 C 
BRANCH   3   5
ATOM      5  C   UNL     1     -14.064  10.662 -26.546  1.00  0.00     0.015 C 
BRANCH   5   6
ATOM      6  C   UNL     1     -15.316  11.528 -26.807  1.00  0.00     0.028 C 
BRANCH   6   7
ATOM      7  C   UNL     1     -16.290  11.050 -27.859  1.00  0.00    -0.028 C 
ATOM      8  C   UNL     1     -16.752  11.758 -28.918  1.00  0.00    -0.070 CG0
ATOM      9  C   UNL     1     -17.862  11.147 -29.739  1.00  0.00     0.039 C 
ATOM     10  G   UNL     1     -16.172  13.084 -29.370  1.00  0.00     0.000 G0
ENDBRANCH   6   7
ENDBRANCH   5   6
ENDBRANCH   3   5
ENDBRANCH   1   3
BRANCH   1  11
ATOM     11  C   UNL     1     -12.595  12.559 -28.822  1.00  0.00     0.087 C 
BRANCH  11  12
ATOM     12  C   UNL     1     -13.571  13.570 -29.481  1.00  0.00     0.066 C 
BRANCH  12  13
ATOM     13  C   UNL     1     -14.809  12.873 -30.021  1.00  0.00     0.140 C 
ATOM     14  O   UNL     1     -14.707  12.104 -30.966  1.00  0.00    -0.299 OA
BRANCH  13  15
ATOM     15  C   UNL     1     -16.167  13.071 -29.380  1.00  0.00     0.106 CG0
ATOM     16  G   UNL     1     -16.726  11.737 -28.925  1.00  0.00     0.000 G0
ENDBRANCH  13  15
ENDBRANCH  12  13
BRANCH  12  17
ATOM     17  C   UNL     1     -12.902  14.487 -30.557  1.00  0.00    -0.006 C 
ATOM     18  C   UNL     1     -13.887  15.138 -31.547  1.00  0.00     0.008 C 
ATOM     19  C   UNL     1     -11.814  13.733 -31.340  1.00  0.00     0.008 C 
ENDBRANCH  12  17
ENDBRANCH  11  12
ENDBRANCH   1  11
TORSDOF 1
ENDMDL
MODEL 4
REMARK VINA RESULT:    -4.122      2.047      4.583
REMARK INTER + INTRA:          -6.237
REMARK INTER:                  -6.387
REMARK INTRA:                   0.150
REMARK UNBOUND:                 0.054
REMARK SMILES CC1=CCC[C@@H](C)C(=O)C[C@@H](C(C)C)C(=O)C1
REMARK SMILES IDX 8 1 9 2 6 3 7 4 5 5 4 6 3 7 2 8 1 9 10 11 11 12 15 13 16 14
REMARK SMILES IDX 17 15 12 17 13 18 14 19
REMARK H PARENT
REMARK Flexibility Score: 70.00
ROOT
ATOM      1  C   UNL     1     -16.019  13.751 -30.155  1.00  0.00     0.136 C 
ATOM      2  O   UNL     1     -16.578  14.381 -29.268  1.00  0.00    -0.299 OA
ENDROOT
BRANCH   1   3
ATOM      3  C   UNL     1     -15.216  14.485 -31.216  1.00  0.00     0.053 C 
ATOM      4  C   UNL     1     -14.695  13.539 -32.308  1.00  0.00     0.016 C 
BRANCH   3   5
ATOM      5  C   UNL     1     -14.089  15.372 -30.631  1.00  0.00     0.015 C 
BRANCH   5   6
ATOM      6  C   UNL     1     -13.010  14.701 -29.754  1.00  0.00     0.028 C 
BRANCH   6   7
ATOM      7  C   UNL     1     -12.184  13.601 -30.381  1.00  0.00    -0.028 C 
ATOM      8  C   UNL     1     -12.010  12.345 -29.903  1.00  0.00    -0.070 CG0
ATOM      9  C   UNL     1     -10.995  11.467 -30.594  1.00  0.00     0.039 C 
ATOM     10  G   UNL     1     -12.823  11.748 -28.771  1.00  0.00     0.000 G0
ENDBRANCH   6   7
ENDBRANCH   5   6
ENDBRANCH   3   5
ENDBRANCH   1   3
BRANCH   1  11
ATOM     11  C   UNL     1     -16.131  12.239 -30.146  1.00  0.00     0.087 C 
BRANCH  11  12
ATOM     12  C   UNL     1     -15.444  11.579 -28.922  1.00  0.00     0.066 C 
BRANCH  12  13
ATOM     13  C   UNL     1     -14.059  11.062 -29.276  1.00  0.00     0.140 C 
ATOM     14  O   UNL     1     -13.944  10.105 -30.027  1.00  0.00    -0.299 OA
BRANCH  13  15
ATOM     15  C   UNL     1     -12.809  11.741 -28.758  1.00  0.00     0.106 CG0
ATOM     16  G   UNL     1     -12.015  12.321 -29.912  1.00  0.00     0.000 G0
ENDBRANCH  13  15
ENDBRANCH  12  13
BRANCH  12  17
ATOM     17  C   UNL     1     -16.313  10.483 -28.221  1.00  0.00    -0.006 C 
ATOM     18  C   UNL     1     -17.618  10.129 -28.959  1.00  0.00     0.008 C 
ATOM     19  C   UNL     1     -16.636  10.867 -26.767  1.00  0.00     0.008 C 
ENDBRANCH  12  17
ENDBRANCH  11  12
ENDBRANCH   1  11
TORSDOF 1
ENDMDL
MODEL 5
REMARK VINA RESULT:    -4.119      1.814      4.093
REMARK INTER + INTRA:          -6.232
REMARK INTER:                  -5.921
REMARK INTRA:                  -0.311
REMARK UNBOUND:                 0.054
REMARK SMILES CC1=CCC[C@@H](C)C(=O)C[C@@H](C(C)C)C(=O)C1
REMARK SMILES IDX 8 1 9 2 6 3 7 4 5 5 4 6 3 7 2 8 1 9 10 11 11 12 15 13 16 14
REMARK SMILES IDX 17 15 12 17 13 18 14 19
REMARK H PARENT
REMARK Flexibility Score: 70.00
ROOT
ATOM      1  C   UNL     1     -12.889  14.198 -29.529  1.00  0.00     0.136 C 
ATOM      2  O   UNL     1     -13.254  15.345 -29.310  1.00  0.00    -0.299 OA
ENDROOT
BRANCH   1   3
ATOM      3  C   UNL     1     -12.458  13.794 -30.929  1.00  0.00     0.053 C 
ATOM      4  C   UNL     1     -11.053  14.310 -31.274  1.00  0.00     0.016 C 
BRANCH   3   5
ATOM      5  C   UNL     1     -13.493  14.158 -32.022  1.00  0.00     0.015 C 
BRANCH   5   6
ATOM      6  C   UNL     1     -14.734  13.253 -32.185  1.00  0.00     0.028 C 
BRANCH   6   7
ATOM      7  C   UNL     1     -15.777  13.292 -31.092  1.00  0.00    -0.028 C 
ATOM      8  C   UNL     1     -16.066  12.304 -30.211  1.00  0.00    -0.070 CG0
ATOM      9  C   UNL     1     -17.272  12.489 -29.322  1.00  0.00     0.039 C 
ATOM     10  G   UNL     1     -15.212  11.067 -30.014  1.00  0.00     0.000 G0
ENDBRANCH   6   7
ENDBRANCH   5   6
ENDBRANCH   3   5
ENDBRANCH   1   3
BRANCH   1  11
ATOM     11  C   UNL     1     -12.861  13.218 -28.373  1.00  0.00     0.087 C 
BRANCH  11  12
ATOM     12  C   UNL     1     -12.938  11.735 -28.822  1.00  0.00     0.066 C 
BRANCH  12  13
ATOM     13  C   UNL     1     -14.361  11.206 -28.746  1.00  0.00     0.140 C 
ATOM     14  O   UNL     1     -14.849  10.937 -27.658  1.00  0.00    -0.299 OA
BRANCH  13  15
ATOM     15  C   UNL     1     -15.211  11.050 -29.989  1.00  0.00     0.106 CG0
ATOM     16  G   UNL     1     -16.054  12.292 -30.201  1.00  0.00     0.000 G0
ENDBRANCH  13  15
ENDBRANCH  12  13
BRANCH  12  17
ATOM     17  C   UNL     1     -11.926  10.795 -28.085  1.00  0.00    -0.006 C 
ATOM     18  C   UNL     1     -11.507  11.277 -26.684  1.00  0.00     0.008 C 
ATOM     19  C   UNL     1     -10.670  10.546 -28.937  1.00  0.00     0.008 C 
ENDBRANCH  12  17
ENDBRANCH  11  12
ENDBRANCH   1  11
TORSDOF 1
ENDMDL
MODEL 6
REMARK VINA RESULT:    -4.066      2.441      4.645
REMARK INTER + INTRA:          -6.151
REMARK INTER:                  -6.371
REMARK INTRA:                   0.219
REMARK UNBOUND:                 0.054
REMARK SMILES CC1=CCC[C@@H](C)C(=O)C[C@@H](C(C)C)C(=O)C1
REMARK SMILES IDX 8 1 9 2 6 3 7 4 5 5 4 6 3 7 2 8 1 9 10 11 11 12 15 13 16 14
REMARK SMILES IDX 17 15 12 17 13 18 14 19
REMARK H PARENT
REMARK Flexibility Score: 70.00
ROOT
ATOM      1  C   UNL     1     -14.154  14.009 -30.139  1.00  0.00     0.136 C 
ATOM      2  O   UNL     1     -14.457  15.190 -30.032  1.00  0.00    -0.299 OA
ENDROOT
BRANCH   1   3
ATOM      3  C   UNL     1     -13.947  13.403 -31.517  1.00  0.00     0.053 C 
ATOM      4  C   UNL     1     -12.912  14.181 -32.343  1.00  0.00     0.016 C 
BRANCH   3   5
ATOM      5  C   UNL     1     -15.266  13.184 -32.298  1.00  0.00     0.015 C 
BRANCH   5   6
ATOM      6  C   UNL     1     -16.542  13.893 -31.793  1.00  0.00     0.028 C 
BRANCH   6   7
ATOM      7  C   UNL     1     -17.672  13.024 -31.291  1.00  0.00    -0.028 C 
ATOM      8  C   UNL     1     -17.874  12.613 -30.016  1.00  0.00    -0.070 CG0
ATOM      9  C   UNL     1     -18.964  11.598 -29.770  1.00  0.00     0.039 C 
ATOM     10  G   UNL     1     -17.125  13.165 -28.818  1.00  0.00     0.000 G0
ENDBRANCH   6   7
ENDBRANCH   5   6
ENDBRANCH   3   5
ENDBRANCH   1   3
BRANCH   1  11
ATOM     11  C   UNL     1     -13.974  13.194 -28.874  1.00  0.00     0.087 C 
BRANCH  11  12
ATOM     12  C   UNL     1     -14.816  11.891 -28.857  1.00  0.00     0.066 C 
BRANCH  12  13
ATOM     13  C   UNL     1     -16.186  12.126 -28.241  1.00  0.00     0.140 C 
ATOM     14  O   UNL     1     -16.518  11.496 -27.247  1.00  0.00    -0.299 OA
BRANCH  13  15
ATOM     15  C   UNL     1     -17.135  13.163 -28.802  1.00  0.00     0.106 CG0
ATOM     16  G   UNL     1     -17.865  12.602 -30.007  1.00  0.00     0.000 G0
ENDBRANCH  13  15
ENDBRANCH  12  13
BRANCH  12  17
ATOM     17  C   UNL     1     -14.085  10.671 -28.206  1.00  0.00    -0.006 C 
ATOM     18  C   UNL     1     -13.462  10.958 -26.827  1.00  0.00     0.008 C 
ATOM     19  C   UNL     1     -13.011  10.095 -29.143  1.00  0.00     0.008 C 
ENDBRANCH  12  17
ENDBRANCH  11  12
ENDBRANCH   1  11
TORSDOF 1
ENDMDL
MODEL 7
REMARK VINA RESULT:    -4.062      1.622      3.834
REMARK INTER + INTRA:          -6.144
REMARK INTER:                  -6.510
REMARK INTRA:                   0.366
REMARK UNBOUND:                 0.054
REMARK SMILES CC1=CCC[C@@H](C)C(=O)C[C@@H](C(C)C)C(=O)C1
REMARK SMILES IDX 8 1 9 2 6 3 7 4 5 5 4 6 3 7 2 8 1 9 10 11 11 12 15 13 16 14
REMARK SMILES IDX 17 15 12 17 13 18 14 19
REMARK H PARENT
REMARK Flexibility Score: 70.00
ROOT
ATOM      1  C   UNL     1     -12.503  13.225 -28.699  1.00  0.00     0.136 C 
ATOM      2  O   UNL     1     -12.653  14.356 -28.255  1.00  0.00    -0.299 OA
ENDROOT
BRANCH   1   3
ATOM      3  C   UNL     1     -13.057  12.033 -27.937  1.00  0.00     0.053 C 
ATOM      4  C   UNL     1     -12.036  10.892 -27.822  1.00  0.00     0.016 C 
BRANCH   3   5
ATOM      5  C   UNL     1     -14.421  11.537 -28.478  1.00  0.00     0.015 C 
BRANCH   5   6
ATOM      6  C   UNL     1     -15.591  12.543 -28.546  1.00  0.00     0.028 C 
BRANCH   6   7
ATOM      7  C   UNL     1     -16.317  12.683 -29.865  1.00  0.00    -0.028 C 
ATOM      8  C   UNL     1     -16.069  13.597 -30.834  1.00  0.00    -0.070 CG0
ATOM      9  C   UNL     1     -17.037  13.673 -31.989  1.00  0.00     0.039 C 
ATOM     10  G   UNL     1     -14.844  14.489 -30.864  1.00  0.00     0.000 G0
ENDBRANCH   6   7
ENDBRANCH   5   6
ENDBRANCH   3   5
ENDBRANCH   1   3
BRANCH   1  11
ATOM     11  C   UNL     1     -11.779  13.060 -30.021  1.00  0.00     0.087 C 
BRANCH  11  12
ATOM     12  C   UNL     1     -12.234  14.076 -31.102  1.00  0.00     0.066 C 
BRANCH  12  13
ATOM     13  C   UNL     1     -13.663  13.810 -31.546  1.00  0.00     0.140 C 
ATOM     14  O   UNL     1     -13.882  12.979 -32.414  1.00  0.00    -0.299 OA
BRANCH  13  15
ATOM     15  C   UNL     1     -14.834  14.519 -30.897  1.00  0.00     0.106 CG0
ATOM     16  G   UNL     1     -16.041  13.603 -30.860  1.00  0.00     0.000 G0
ENDBRANCH  13  15
ENDBRANCH  12  13
BRANCH  12  17
ATOM     17  C   UNL     1     -11.257  14.187 -32.319  1.00  0.00    -0.006 C 
ATOM     18  C   UNL     1     -10.602  12.858 -32.740  1.00  0.00     0.008 C 
ATOM     19  C   UNL     1     -10.163  15.238 -32.066  1.00  0.00     0.008 C 
ENDBRANCH  12  17
ENDBRANCH  11  12
ENDBRANCH   1  11
TORSDOF 1
ENDMDL
MODEL 8
REMARK VINA RESULT:    -3.922      2.068      3.746
REMARK INTER + INTRA:          -5.931
REMARK INTER:                  -5.870
REMARK INTRA:                  -0.061
REMARK UNBOUND:                 0.054
REMARK SMILES CC1=CCC[C@@H](C)C(=O)C[C@@H](C(C)C)C(=O)C1
REMARK SMILES IDX 8 1 9 2 6 3 7 4 5 5 4 6 3 7 2 8 1 9 10 11 11 12 15 13 16 14
REMARK SMILES IDX 17 15 12 17 13 18 14 19
REMARK H PARENT
REMARK Flexibility Score: 70.00
ROOT
ATOM      1  C   UNL     1     -16.574  12.108 -28.579  1.00  0.00     0.136 C 
ATOM      2  O   UNL     1     -16.640  12.083 -27.358  1.00  0.00    -0.299 OA
ENDROOT
BRANCH   1   3
ATOM      3  C   UNL     1     -16.791  10.833 -29.376  1.00  0.00     0.053 C 
ATOM      4  C   UNL     1     -18.033  10.061 -28.909  1.00  0.00     0.016 C 
BRANCH   3   5
ATOM      5  C   UNL     1     -15.536   9.926 -29.441  1.00  0.00     0.015 C 
BRANCH   5   6
ATOM      6  C   UNL     1     -14.290  10.342 -28.629  1.00  0.00     0.028 C 
BRANCH   6   7
ATOM      7  C   UNL     1     -13.025  10.649 -29.397  1.00  0.00    -0.028 C 
ATOM      8  C   UNL     1     -12.484  11.872 -29.612  1.00  0.00    -0.070 CG0
ATOM      9  C   UNL     1     -11.315  11.964 -30.564  1.00  0.00     0.039 C 
ATOM     10  G   UNL     1     -12.930  13.134 -28.901  1.00  0.00     0.000 G0
ENDBRANCH   6   7
ENDBRANCH   5   6
ENDBRANCH   3   5
ENDBRANCH   1   3
BRANCH   1  11
ATOM     11  C   UNL     1     -16.298  13.435 -29.259  1.00  0.00     0.087 C 
BRANCH  11  12
ATOM     12  C   UNL     1     -15.142  13.369 -30.291  1.00  0.00     0.066 C 
BRANCH  12  13
ATOM     13  C   UNL     1     -13.863  13.969 -29.730  1.00  0.00     0.140 C 
ATOM     14  O   UNL     1     -13.605  15.145 -29.937  1.00  0.00    -0.299 OA
BRANCH  13  15
ATOM     15  C   UNL     1     -12.919  13.152 -28.873  1.00  0.00     0.106 CG0
ATOM     16  G   UNL     1     -12.507  11.893 -29.609  1.00  0.00     0.000 G0
ENDBRANCH  13  15
ENDBRANCH  12  13
BRANCH  12  17
ATOM     17  C   UNL     1     -15.504  13.970 -31.689  1.00  0.00    -0.006 C 
ATOM     18  C   UNL     1     -17.011  13.994 -32.006  1.00  0.00     0.008 C 
ATOM     19  C   UNL     1     -14.754  13.249 -32.821  1.00  0.00     0.008 C 
ENDBRANCH  12  17
ENDBRANCH  11  12
ENDBRANCH   1  11
TORSDOF 1
ENDMDL
MODEL 9
REMARK VINA RESULT:    -3.719      2.842      5.949
REMARK INTER + INTRA:          -5.621
REMARK INTER:                  -6.166
REMARK INTRA:                   0.545
REMARK UNBOUND:                 0.054
REMARK SMILES CC1=CCC[C@@H](C)C(=O)C[C@@H](C(C)C)C(=O)C1
REMARK SMILES IDX 8 1 9 2 6 3 7 4 5 5 4 6 3 7 2 8 1 9 10 11 11 12 15 13 16 14
REMARK SMILES IDX 17 15 12 17 13 18 14 19
REMARK H PARENT
REMARK Flexibility Score: 70.00
ROOT
ATOM      1  C   UNL     1     -15.605  10.767 -26.465  1.00  0.00     0.136 C 
ATOM      2  O   UNL     1     -16.079   9.999 -25.639  1.00  0.00    -0.299 OA
ENDROOT
BRANCH   1   3
ATOM      3  C   UNL     1     -14.119  10.717 -26.779  1.00  0.00     0.053 C 
ATOM      4  C   UNL     1     -13.303  10.104 -25.632  1.00  0.00     0.016 C 
BRANCH   3   5
ATOM      5  C   UNL     1     -13.541  12.080 -27.237  1.00  0.00     0.015 C 
BRANCH   5   6
ATOM      6  C   UNL     1     -13.058  12.215 -28.698  1.00  0.00     0.028 C 
BRANCH   6   7
ATOM      7  C   UNL     1     -13.257  13.550 -29.379  1.00  0.00    -0.028 C 
ATOM      8  C   UNL     1     -14.201  13.856 -30.302  1.00  0.00    -0.070 CG0
ATOM      9  C   UNL     1     -14.102  15.198 -30.987  1.00  0.00     0.039 C 
ATOM     10  G   UNL     1     -15.385  12.968 -30.631  1.00  0.00     0.000 G0
ENDBRANCH   6   7
ENDBRANCH   5   6
ENDBRANCH   3   5
ENDBRANCH   1   3
BRANCH   1  11
ATOM     11  C   UNL     1     -16.536  11.735 -27.168  1.00  0.00     0.087 C 
BRANCH  11  12
ATOM     12  C   UNL     1     -16.556  11.559 -28.709  1.00  0.00     0.066 C 
BRANCH  12  13
ATOM     13  C   UNL     1     -16.309  12.880 -29.421  1.00  0.00     0.140 C 
ATOM     14  O   UNL     1     -16.822  13.903 -28.993  1.00  0.00    -0.299 OA
BRANCH  13  15
ATOM     15  C   UNL     1     -15.396  12.967 -30.625  1.00  0.00     0.106 CG0
ATOM     16  G   UNL     1     -14.209  13.858 -30.314  1.00  0.00     0.000 G0
ENDBRANCH  13  15
ENDBRANCH  12  13
BRANCH  12  17
ATOM     17  C   UNL     1     -17.835  10.837 -29.249  1.00  0.00    -0.006 C 
ATOM     18  C   UNL     1     -18.835  11.758 -29.972  1.00  0.00     0.008 C 
ATOM     19  C   UNL     1     -18.561  10.071 -28.130  1.00  0.00     0.008 C 
ENDBRANCH  12  17
ENDBRANCH  11  12
ENDBRANCH   1  11
TORSDOF 1
ENDMDL
