MODEL 1
REMARK VINA RESULT:    -3.328      0.000      0.000
REMARK INTER + INTRA:          -4.471
REMARK INTER:                  -4.301
REMARK INTRA:                  -0.170
REMARK UNBOUND:                -0.170
REMARK SMILES CCCCCCC(=O)[O-]
REMARK SMILES IDX 5 1 6 2 7 3 8 4 9 5 4 6 3 7 2 8 1 9
REMARK H PARENT
REMARK Flexibility Score: inf
ROOT
ATOM      1  C   UNL     1      -2.892   8.456  -4.842  1.00  0.00     0.006 C 
ENDROOT
BRANCH   1   2
ATOM      2  C   UNL     1      -4.091   7.713  -4.239  1.00  0.00     0.053 C 
BRANCH   2   3
ATOM      3  C   UNL     1      -4.412   8.254  -2.881  1.00  0.00     0.041 C 
ATOM      4  O   UNL     1      -3.736   7.898  -1.881  1.00  0.00    -0.550 OA
ATOM      5  O   UNL     1      -5.489   9.115  -2.713  1.00  0.00    -0.550 OA
ENDBRANCH   2   3
ENDBRANCH   1   2
BRANCH   1   6
ATOM      6  C   UNL     1      -1.742   7.511  -5.230  1.00  0.00     0.000 C 
BRANCH   6   7
ATOM      7  C   UNL     1      -2.198   6.045  -5.349  1.00  0.00    -0.000 C 
BRANCH   7   8
ATOM      8  C   UNL     1      -1.362   5.250  -6.365  1.00  0.00    -0.003 C 
ATOM      9  C   UNL     1      -1.683   3.756  -6.358  1.00  0.00     0.004 C 
ENDBRANCH   7   8
ENDBRANCH   6   7
ENDBRANCH   1   6
TORSDOF 5
ENDMDL
MODEL 2
REMARK VINA RESULT:    -3.225      1.489      2.289
REMARK INTER + INTRA:          -4.338
REMARK INTER:                  -4.163
REMARK INTRA:                  -0.175
REMARK UNBOUND:                -0.170
REMARK SMILES CCCCCCC(=O)[O-]
REMARK SMILES IDX 5 1 6 2 7 3 8 4 9 5 4 6 3 7 2 8 1 9
REMARK H PARENT
REMARK Flexibility Score: inf
ROOT
ATOM      1  C   UNL     1      -2.300   6.062  -5.360  1.00  0.00     0.006 C 
ENDROOT
BRANCH   1   2
ATOM      2  C   UNL     1      -2.027   7.444  -4.752  1.00  0.00     0.053 C 
BRANCH   2   3
ATOM      3  C   UNL     1      -3.306   8.078  -4.303  1.00  0.00     0.041 C 
ATOM      4  O   UNL     1      -3.295   9.218  -3.768  1.00  0.00    -0.550 OA
ATOM      5  O   UNL     1      -4.505   7.389  -4.431  1.00  0.00    -0.550 OA
ENDBRANCH   2   3
ENDBRANCH   1   2
BRANCH   1   6
ATOM      6  C   UNL     1      -1.306   5.697  -6.475  1.00  0.00     0.000 C 
BRANCH   6   7
ATOM      7  C   UNL     1      -0.881   4.219  -6.426  1.00  0.00    -0.000 C 
BRANCH   7   8
ATOM      8  C   UNL     1      -1.879   3.345  -5.649  1.00  0.00    -0.003 C 
ATOM      9  C   UNL     1      -1.197   2.255  -4.823  1.00  0.00     0.004 C 
ENDBRANCH   7   8
ENDBRANCH   6   7
ENDBRANCH   1   6
TORSDOF 5
ENDMDL
MODEL 3
REMARK VINA RESULT:    -3.221      3.177      5.772
REMARK INTER + INTRA:          -4.332
REMARK INTER:                  -4.125
REMARK INTRA:                  -0.208
REMARK UNBOUND:                -0.170
REMARK SMILES CCCCCCC(=O)[O-]
REMARK SMILES IDX 5 1 6 2 7 3 8 4 9 5 4 6 3 7 2 8 1 9
REMARK H PARENT
REMARK Flexibility Score: inf
ROOT
ATOM      1  C   UNL     1      -4.770   8.235  -1.232  1.00  0.00     0.006 C 
ENDROOT
BRANCH   1   2
ATOM      2  C   UNL     1      -4.853   8.785  -2.662  1.00  0.00     0.053 C 
BRANCH   2   3
ATOM      3  C   UNL     1      -3.903   8.054  -3.558  1.00  0.00     0.041 C 
ATOM      4  O   UNL     1      -2.663   8.112  -3.348  1.00  0.00    -0.550 OA
ATOM      5  O   UNL     1      -4.384   7.349  -4.654  1.00  0.00    -0.550 OA
ENDBRANCH   2   3
ENDBRANCH   1   2
BRANCH   1   6
ATOM      6  C   UNL     1      -4.098   9.217  -0.258  1.00  0.00     0.000 C 
BRANCH   6   7
ATOM      7  C   UNL     1      -2.681   8.771   0.144  1.00  0.00    -0.000 C 
BRANCH   7   8
ATOM      8  C   UNL     1      -2.156   9.523   1.378  1.00  0.00    -0.003 C 
ATOM      9  C   UNL     1      -3.223  10.393   2.041  1.00  0.00     0.004 C 
ENDBRANCH   7   8
ENDBRANCH   6   7
ENDBRANCH   1   6
TORSDOF 5
ENDMDL
MODEL 4
REMARK VINA RESULT:    -3.166      3.913      6.121
REMARK INTER + INTRA:          -4.262
REMARK INTER:                  -4.090
REMARK INTRA:                  -0.172
REMARK UNBOUND:                -0.170
REMARK SMILES CCCCCCC(=O)[O-]
REMARK SMILES IDX 5 1 6 2 7 3 8 4 9 5 4 6 3 7 2 8 1 9
REMARK H PARENT
REMARK Flexibility Score: inf
ROOT
ATOM      1  C   UNL     1      -2.838   8.462  -0.351  1.00  0.00     0.006 C 
ENDROOT
BRANCH   1   2
ATOM      2  C   UNL     1      -2.985   8.139  -1.843  1.00  0.00     0.053 C 
BRANCH   2   3
ATOM      3  C   UNL     1      -4.431   8.102  -2.229  1.00  0.00     0.041 C 
ATOM      4  O   UNL     1      -5.323   8.290  -1.361  1.00  0.00    -0.550 OA
ATOM      5  O   UNL     1      -4.794   7.809  -3.537  1.00  0.00    -0.550 OA
ENDBRANCH   2   3
ENDBRANCH   1   2
BRANCH   1   6
ATOM      6  C   UNL     1      -1.431   8.152   0.187  1.00  0.00     0.000 C 
BRANCH   6   7
ATOM      7  C   UNL     1      -1.135   8.873   1.515  1.00  0.00    -0.000 C 
BRANCH   7   8
ATOM      8  C   UNL     1      -1.635  10.327   1.519  1.00  0.00    -0.003 C 
ATOM      9  C   UNL     1      -2.593  10.622   2.673  1.00  0.00     0.004 C 
ENDBRANCH   7   8
ENDBRANCH   6   7
ENDBRANCH   1   6
TORSDOF 5
ENDMDL
MODEL 5
REMARK VINA RESULT:    -3.158      2.792      4.699
REMARK INTER + INTRA:          -4.251
REMARK INTER:                  -3.901
REMARK INTRA:                  -0.349
REMARK UNBOUND:                -0.170
REMARK SMILES CCCCCCC(=O)[O-]
REMARK SMILES IDX 5 1 6 2 7 3 8 4 9 5 4 6 3 7 2 8 1 9
REMARK H PARENT
REMARK Flexibility Score: inf
ROOT
ATOM      1  C   UNL     1      -5.039   8.686  -2.699  1.00  0.00     0.006 C 
ENDROOT
BRANCH   1   2
ATOM      2  C   UNL     1      -4.646   7.763  -3.860  1.00  0.00     0.053 C 
BRANCH   2   3
ATOM      3  C   UNL     1      -3.255   8.068  -4.321  1.00  0.00     0.041 C 
ATOM      4  O   UNL     1      -2.543   7.164  -4.831  1.00  0.00    -0.550 OA
ATOM      5  O   UNL     1      -2.727   9.341  -4.142  1.00  0.00    -0.550 OA
ENDBRANCH   2   3
ENDBRANCH   1   2
BRANCH   1   6
ATOM      6  C   UNL     1      -4.665   8.105  -1.325  1.00  0.00     0.000 C 
BRANCH   6   7
ATOM      7  C   UNL     1      -4.016   9.149  -0.400  1.00  0.00    -0.000 C 
BRANCH   7   8
ATOM      8  C   UNL     1      -2.666   8.678   0.162  1.00  0.00    -0.003 C 
ATOM      9  C   UNL     1      -1.819   7.936  -0.871  1.00  0.00     0.004 C 
ENDBRANCH   7   8
ENDBRANCH   6   7
ENDBRANCH   1   6
TORSDOF 5
ENDMDL
MODEL 6
REMARK VINA RESULT:    -3.152      2.720      4.068
REMARK INTER + INTRA:          -4.244
REMARK INTER:                  -3.883
REMARK INTRA:                  -0.360
REMARK UNBOUND:                -0.170
REMARK SMILES CCCCCCC(=O)[O-]
REMARK SMILES IDX 5 1 6 2 7 3 8 4 9 5 4 6 3 7 2 8 1 9
REMARK H PARENT
REMARK Flexibility Score: inf
ROOT
ATOM      1  C   UNL     1      -4.831   8.117  -1.357  1.00  0.00     0.006 C 
ENDROOT
BRANCH   1   2
ATOM      2  C   UNL     1      -4.049   9.059  -0.432  1.00  0.00     0.053 C 
BRANCH   2   3
ATOM      3  C   UNL     1      -2.672   8.524  -0.187  1.00  0.00     0.041 C 
ATOM      4  O   UNL     1      -2.065   8.803   0.879  1.00  0.00    -0.550 OA
ATOM      5  O   UNL     1      -2.041   7.760  -1.160  1.00  0.00    -0.550 OA
ENDBRANCH   2   3
ENDBRANCH   1   2
BRANCH   1   6
ATOM      6  C   UNL     1      -4.971   8.668  -2.785  1.00  0.00     0.000 C 
BRANCH   6   7
ATOM      7  C   UNL     1      -4.629   7.619  -3.859  1.00  0.00    -0.000 C 
BRANCH   7   8
ATOM      8  C   UNL     1      -3.299   7.918  -4.570  1.00  0.00    -0.003 C 
ATOM      9  C   UNL     1      -2.762   9.315  -4.263  1.00  0.00     0.004 C 
ENDBRANCH   7   8
ENDBRANCH   6   7
ENDBRANCH   1   6
TORSDOF 5
ENDMDL
MODEL 7
REMARK VINA RESULT:    -3.110      2.282      2.936
REMARK INTER + INTRA:          -4.189
REMARK INTER:                  -3.853
REMARK INTRA:                  -0.337
REMARK UNBOUND:                -0.170
REMARK SMILES CCCCCCC(=O)[O-]
REMARK SMILES IDX 5 1 6 2 7 3 8 4 9 5 4 6 3 7 2 8 1 9
REMARK H PARENT
REMARK Flexibility Score: inf
ROOT
ATOM      1  C   UNL     1      -4.462   8.597  -3.013  1.00  0.00     0.006 C 
ENDROOT
BRANCH   1   2
ATOM      2  C   UNL     1      -4.857   8.135  -1.605  1.00  0.00     0.053 C 
BRANCH   2   3
ATOM      3  C   UNL     1      -3.896   8.671  -0.591  1.00  0.00     0.041 C 
ATOM      4  O   UNL     1      -2.717   8.232  -0.539  1.00  0.00    -0.550 OA
ATOM      5  O   UNL     1      -4.317   9.622   0.331  1.00  0.00    -0.550 OA
ENDBRANCH   2   3
ENDBRANCH   1   2
BRANCH   1   6
ATOM      6  C   UNL     1      -4.555   7.471  -4.056  1.00  0.00     0.000 C 
BRANCH   6   7
ATOM      7  C   UNL     1      -3.228   7.245  -4.801  1.00  0.00    -0.000 C 
BRANCH   7   8
ATOM      8  C   UNL     1      -2.053   7.991  -4.149  1.00  0.00    -0.003 C 
ATOM      9  C   UNL     1      -1.052   7.052  -3.478  1.00  0.00     0.004 C 
ENDBRANCH   7   8
ENDBRANCH   6   7
ENDBRANCH   1   6
TORSDOF 5
ENDMDL
MODEL 8
REMARK VINA RESULT:    -2.990     15.651     16.899
REMARK INTER + INTRA:          -4.034
REMARK INTER:                  -3.951
REMARK INTRA:                  -0.084
REMARK UNBOUND:                -0.170
REMARK SMILES CCCCCCC(=O)[O-]
REMARK SMILES IDX 5 1 6 2 7 3 8 4 9 5 4 6 3 7 2 8 1 9
REMARK H PARENT
REMARK Flexibility Score: inf
ROOT
ATOM      1  C   UNL     1     -20.425   8.404  -5.820  1.00  0.00     0.006 C 
ENDROOT
BRANCH   1   2
ATOM      2  C   UNL     1     -19.467   9.353  -5.087  1.00  0.00     0.053 C 
BRANCH   2   3
ATOM      3  C   UNL     1     -18.415   9.858  -6.023  1.00  0.00     0.041 C 
ATOM      4  O   UNL     1     -17.208   9.545  -5.849  1.00  0.00    -0.550 OA
ATOM      5  O   UNL     1     -18.761  10.716  -7.060  1.00  0.00    -0.550 OA
ENDBRANCH   2   3
ENDBRANCH   1   2
BRANCH   1   6
ATOM      6  C   UNL     1     -20.505   7.017  -5.162  1.00  0.00     0.000 C 
BRANCH   6   7
ATOM      7  C   UNL     1     -20.933   5.919  -6.152  1.00  0.00    -0.000 C 
BRANCH   7   8
ATOM      8  C   UNL     1     -20.058   4.660  -6.048  1.00  0.00    -0.003 C 
ATOM      9  C   UNL     1     -20.699   3.435  -6.700  1.00  0.00     0.004 C 
ENDBRANCH   7   8
ENDBRANCH   6   7
ENDBRANCH   1   6
TORSDOF 5
ENDMDL
MODEL 9
REMARK VINA RESULT:    -2.952      2.301      3.336
REMARK INTER + INTRA:          -3.984
REMARK INTER:                  -3.624
REMARK INTRA:                  -0.360
REMARK UNBOUND:                -0.170
REMARK SMILES CCCCCCC(=O)[O-]
REMARK SMILES IDX 5 1 6 2 7 3 8 4 9 5 4 6 3 7 2 8 1 9
REMARK H PARENT
REMARK Flexibility Score: inf
ROOT
ATOM      1  C   UNL     1      -1.999   8.120  -1.805  1.00  0.00     0.006 C 
ENDROOT
BRANCH   1   2
ATOM      2  C   UNL     1      -2.613   8.338  -0.416  1.00  0.00     0.053 C 
BRANCH   2   3
ATOM      3  C   UNL     1      -4.029   8.804  -0.540  1.00  0.00     0.041 C 
ATOM      4  O   UNL     1      -4.396   9.871   0.019  1.00  0.00    -0.550 OA
ATOM      5  O   UNL     1      -4.957   8.034  -1.230  1.00  0.00    -0.550 OA
ENDBRANCH   2   3
ENDBRANCH   1   2
BRANCH   1   6
ATOM      6  C   UNL     1      -2.093   9.368  -2.698  1.00  0.00     0.000 C 
BRANCH   6   7
ATOM      7  C   UNL     1      -2.439   9.024  -4.158  1.00  0.00    -0.000 C 
BRANCH   7   8
ATOM      8  C   UNL     1      -2.844   7.552  -4.335  1.00  0.00    -0.003 C 
ATOM      9  C   UNL     1      -4.344   7.371  -4.561  1.00  0.00     0.004 C 
ENDBRANCH   7   8
ENDBRANCH   6   7
ENDBRANCH   1   6
TORSDOF 5
ENDMDL
