MODEL 1
REMARK VINA RESULT:    36.763      0.000      0.000
REMARK INTER + INTRA:          45.538
REMARK INTER:                  45.360
REMARK INTRA:                   0.179
REMARK UNBOUND:                 0.179
REMARK SMILES O=c1c(O)c(-c2cc(O)c(O)c(O)c2)oc2cc(O)cc(O)c12
REMARK SMILES IDX 5 1 3 2 2 3 1 4 23 5 21 6 20 7 18 8 17 9 16 10 15 11 6 12
REMARK SMILES IDX 7 13 8 14 14 15 10 16 12 17 9 18 11 20 13 22 4 24 22 26
REMARK SMILES IDX 19 28
REMARK H PARENT 9 19 11 21 13 23 4 25 22 27 19 29
REMARK Flexibility Score: inf
ROOT
ATOM      1  C   UNL     1       2.338  -1.307   0.841  1.00  0.00     0.180 A 
ATOM      2  C   UNL     1       1.502  -0.840   1.871  1.00  0.00     0.208 A 
ATOM      3  C   UNL     1       0.110  -0.870   1.683  1.00  0.00     0.238 A 
ATOM      4  O   UNL     1      -0.635  -0.503   2.630  1.00  0.00    -0.285 OA
ATOM      5  C   UNL     1      -0.427  -1.350   0.465  1.00  0.00     0.111 A 
ATOM      6  C   UNL     1      -1.819  -1.388   0.153  1.00  0.00     0.134 A 
ATOM      7  C   UNL     1      -2.245  -2.005  -1.030  1.00  0.00     0.093 A 
ATOM      8  C   UNL     1      -1.324  -2.526  -1.942  1.00  0.00     0.123 A 
ATOM      9  C   UNL     1       0.040  -2.441  -1.673  1.00  0.00     0.094 A 
ATOM     10  C   UNL     1       0.493  -1.864  -0.485  1.00  0.00     0.146 A 
ATOM     11  O   UNL     1       1.802  -1.812  -0.263  1.00  0.00    -0.452 OA
ENDROOT
BRANCH   1  12
ATOM     12  C   UNL     1       3.814  -1.283   0.954  1.00  0.00     0.029 A 
ATOM     13  C   UNL     1       4.418  -1.611   2.176  1.00  0.00     0.062 A 
ATOM     14  C   UNL     1       5.811  -1.620   2.312  1.00  0.00     0.162 A 
ATOM     15  C   UNL     1       4.626  -0.995  -0.153  1.00  0.00     0.062 A 
ATOM     16  C   UNL     1       6.624  -1.305   1.198  1.00  0.00     0.200 A 
ATOM     17  C   UNL     1       6.021  -1.000  -0.031  1.00  0.00     0.162 A 
BRANCH  14  18
ATOM     18  O   UNL     1       6.340  -1.944   3.564  1.00  0.00    -0.504 OA
ATOM     19  H   UNL     1       6.453  -1.283   4.318  1.00  0.00     0.293 HD
ENDBRANCH  14  18
BRANCH  16  20
ATOM     20  O   UNL     1       8.019  -1.288   1.266  1.00  0.00    -0.502 OA
ATOM     21  H   UNL     1       8.542  -0.974   2.070  1.00  0.00     0.293 HD
ENDBRANCH  16  20
BRANCH  17  22
ATOM     22  O   UNL     1       6.822  -0.705  -1.134  1.00  0.00    -0.504 OA
ATOM     23  H   UNL     1       6.926   0.244  -1.476  1.00  0.00     0.293 HD
ENDBRANCH  17  22
ENDBRANCH   1  12
BRANCH   2  24
ATOM     24  O   UNL     1       2.052  -0.390   3.074  1.00  0.00    -0.502 OA
ATOM     25  H   UNL     1       1.756   0.470   3.519  1.00  0.00     0.293 HD
ENDBRANCH   2  24
BRANCH   6  26
ATOM     26  O   UNL     1      -2.815  -0.816   0.950  1.00  0.00    -0.507 OA
ATOM     27  H   UNL     1      -2.815   0.141   1.269  1.00  0.00     0.293 HD
ENDBRANCH   6  26
BRANCH   8  28
ATOM     28  O   UNL     1      -1.755  -3.124  -3.125  1.00  0.00    -0.508 OA
ATOM     29  H   UNL     1      -2.709  -3.025  -3.452  1.00  0.00     0.293 HD
ENDBRANCH   8  28
TORSDOF 7
ENDMDL
MODEL 2
REMARK VINA RESULT:    37.248      0.152      1.762
REMARK INTER + INTRA:          46.136
REMARK INTER:                  45.931
REMARK INTRA:                   0.205
REMARK UNBOUND:                 0.179
REMARK SMILES O=c1c(O)c(-c2cc(O)c(O)c(O)c2)oc2cc(O)cc(O)c12
REMARK SMILES IDX 5 1 3 2 2 3 1 4 23 5 21 6 20 7 18 8 17 9 16 10 15 11 6 12
REMARK SMILES IDX 7 13 8 14 14 15 10 16 12 17 9 18 11 20 13 22 4 24 22 26
REMARK SMILES IDX 19 28
REMARK H PARENT 9 19 11 21 13 23 4 25 22 27 19 29
REMARK Flexibility Score: inf
ROOT
ATOM      1  C   UNL     1       2.419  -1.294   0.806  1.00  0.00     0.180 A 
ATOM      2  C   UNL     1       1.591  -0.768   1.813  1.00  0.00     0.208 A 
ATOM      3  C   UNL     1       0.200  -0.764   1.618  1.00  0.00     0.238 A 
ATOM      4  O   UNL     1      -0.539  -0.343   2.546  1.00  0.00    -0.285 OA
ATOM      5  C   UNL     1      -0.344  -1.270   0.413  1.00  0.00     0.111 A 
ATOM      6  C   UNL     1      -1.735  -1.277   0.093  1.00  0.00     0.134 A 
ATOM      7  C   UNL     1      -2.172  -1.921  -1.072  1.00  0.00     0.093 A 
ATOM      8  C   UNL     1      -1.261  -2.499  -1.959  1.00  0.00     0.123 A 
ATOM      9  C   UNL     1       0.103  -2.445  -1.684  1.00  0.00     0.094 A 
ATOM     10  C   UNL     1       0.566  -1.842  -0.513  1.00  0.00     0.146 A 
ATOM     11  O   UNL     1       1.874  -1.821  -0.284  1.00  0.00    -0.452 OA
ENDROOT
BRANCH   1  12
ATOM     12  C   UNL     1       3.894  -1.310   0.928  1.00  0.00     0.029 A 
ATOM     13  C   UNL     1       4.683  -1.087  -0.210  1.00  0.00     0.062 A 
ATOM     14  C   UNL     1       6.080  -1.074  -0.128  1.00  0.00     0.162 A 
ATOM     15  C   UNL     1       4.523  -1.487   2.169  1.00  0.00     0.062 A 
ATOM     16  C   UNL     1       6.708  -1.277   1.124  1.00  0.00     0.200 A 
ATOM     17  C   UNL     1       5.920  -1.476   2.267  1.00  0.00     0.162 A 
BRANCH  14  18
ATOM     18  O   UNL     1       6.799  -0.859  -1.306  1.00  0.00    -0.504 OA
ATOM     19  H   UNL     1       6.804  -1.495  -2.090  1.00  0.00     0.293 HD
ENDBRANCH  14  18
BRANCH  16  20
ATOM     20  O   UNL     1       8.097  -1.283   1.276  1.00  0.00    -0.502 OA
ATOM     21  H   UNL     1       8.714  -1.928   0.806  1.00  0.00     0.293 HD
ENDBRANCH  16  20
BRANCH  17  22
ATOM     22  O   UNL     1       6.537  -1.660   3.503  1.00  0.00    -0.504 OA
ATOM     23  H   UNL     1       6.047  -2.082   4.284  1.00  0.00     0.293 HD
ENDBRANCH  17  22
ENDBRANCH   1  12
BRANCH   2  24
ATOM     24  O   UNL     1       2.147  -0.294   3.004  1.00  0.00    -0.502 OA
ATOM     25  H   UNL     1       2.819   0.462   3.027  1.00  0.00     0.293 HD
ENDBRANCH   2  24
BRANCH   6  26
ATOM     26  O   UNL     1      -2.718  -0.649   0.864  1.00  0.00    -0.507 OA
ATOM     27  H   UNL     1      -3.489  -0.120   0.488  1.00  0.00     0.293 HD
ENDBRANCH   6  26
BRANCH   8  28
ATOM     28  O   UNL     1      -1.704  -3.125  -3.124  1.00  0.00    -0.508 OA
ATOM     29  H   UNL     1      -1.409  -4.063  -3.367  1.00  0.00     0.293 HD
ENDBRANCH   8  28
TORSDOF 7
ENDMDL
