MODEL 1
REMARK VINA RESULT:    -3.891      0.000      0.000
REMARK INTER + INTRA:          -5.480
REMARK INTER:                  -5.256
REMARK INTRA:                  -0.224
REMARK UNBOUND:                -0.224
REMARK SMILES CCCCCCC=CC(=O)[O-]
REMARK SMILES IDX 5 1 6 2 7 3 8 4 9 5 10 6 11 7 4 8 3 9 2 10 1 11
REMARK H PARENT
REMARK Flexibility Score: inf
ROOT
ATOM      1  C   UNL     1     411.020 -85.378 114.088  1.00  0.00     0.004 C 
ENDROOT
BRANCH   1   2
ATOM      2  C   UNL     1     409.940 -85.765 115.109  1.00  0.00     0.027 C 
BRANCH   2   3
ATOM      3  C   UNL     1     408.577 -85.338 114.645  1.00  0.00    -0.025 C 
ATOM      4  C   UNL     1     407.493 -86.085 114.880  1.00  0.00     0.020 C 
BRANCH   4   5
ATOM      5  C   UNL     1     406.152 -85.674 114.444  1.00  0.00     0.064 C 
ATOM      6  O   UNL     1     405.528 -86.375 113.605  1.00  0.00    -0.545 OA
ATOM      7  O   UNL     1     405.559 -84.519 114.944  1.00  0.00    -0.545 OA
ENDBRANCH   4   5
ENDBRANCH   2   3
ENDBRANCH   1   2
BRANCH   1   8
ATOM      8  C   UNL     1     412.441 -85.469 114.668  1.00  0.00     0.000 C 
BRANCH   8   9
ATOM      9  C   UNL     1     412.467 -85.289 116.196  1.00  0.00    -0.000 C 
BRANCH   9  10
ATOM     10  C   UNL     1     413.496 -86.202 116.878  1.00  0.00    -0.003 C 
ATOM     11  C   UNL     1     414.247 -85.503 118.011  1.00  0.00     0.004 C 
ENDBRANCH   9  10
ENDBRANCH   8   9
ENDBRANCH   1   8
TORSDOF 6
ENDMDL
MODEL 2
REMARK VINA RESULT:    -3.782      3.829      6.574
REMARK INTER + INTRA:          -5.332
REMARK INTER:                  -5.109
REMARK INTRA:                  -0.223
REMARK UNBOUND:                -0.224
REMARK SMILES CCCCCCC=CC(=O)[O-]
REMARK SMILES IDX 5 1 6 2 7 3 8 4 9 5 10 6 11 7 4 8 3 9 2 10 1 11
REMARK H PARENT
REMARK Flexibility Score: inf
ROOT
ATOM      1  C   UNL     1     409.474 -85.060 114.910  1.00  0.00     0.004 C 
ENDROOT
BRANCH   1   2
ATOM      2  C   UNL     1     410.640 -85.421 113.976  1.00  0.00     0.027 C 
BRANCH   2   3
ATOM      3  C   UNL     1     411.945 -85.435 114.718  1.00  0.00    -0.025 C 
ATOM      4  C   UNL     1     411.990 -85.368 116.053  1.00  0.00     0.020 C 
BRANCH   4   5
ATOM      5  C   UNL     1     413.259 -85.396 116.793  1.00  0.00     0.064 C 
ATOM      6  O   UNL     1     413.814 -84.313 117.116  1.00  0.00    -0.545 OA
ATOM      7  O   UNL     1     413.859 -86.601 117.144  1.00  0.00    -0.545 OA
ENDBRANCH   4   5
ENDBRANCH   2   3
ENDBRANCH   1   2
BRANCH   1   8
ATOM      8  C   UNL     1     408.443 -86.193 115.032  1.00  0.00     0.000 C 
BRANCH   8   9
ATOM      9  C   UNL     1     407.003 -85.669 115.157  1.00  0.00    -0.000 C 
BRANCH   9  10
ATOM     10  C   UNL     1     406.122 -86.080 113.969  1.00  0.00    -0.003 C 
ATOM     11  C   UNL     1     404.668 -85.635 114.128  1.00  0.00     0.004 C 
ENDBRANCH   9  10
ENDBRANCH   8   9
ENDBRANCH   1   8
TORSDOF 6
ENDMDL
MODEL 3
REMARK VINA RESULT:    -3.668      3.522      6.665
REMARK INTER + INTRA:          -5.178
REMARK INTER:                  -4.917
REMARK INTRA:                  -0.262
REMARK UNBOUND:                -0.224
REMARK SMILES CCCCCCC=CC(=O)[O-]
REMARK SMILES IDX 5 1 6 2 7 3 8 4 9 5 10 6 11 7 4 8 3 9 2 10 1 11
REMARK H PARENT
REMARK Flexibility Score: inf
ROOT
ATOM      1  C   UNL     1     407.392 -85.259 114.504  1.00  0.00     0.004 C 
ENDROOT
BRANCH   1   2
ATOM      2  C   UNL     1     408.380 -86.324 115.005  1.00  0.00     0.027 C 
BRANCH   2   3
ATOM      3  C   UNL     1     409.746 -85.739 115.218  1.00  0.00    -0.025 C 
ATOM      4  C   UNL     1     410.656 -85.715 114.238  1.00  0.00     0.020 C 
BRANCH   4   5
ATOM      5  C   UNL     1     411.992 -85.133 114.427  1.00  0.00     0.064 C 
ATOM      6  O   UNL     1     412.470 -84.374 113.544  1.00  0.00    -0.545 OA
ATOM      7  O   UNL     1     412.739 -85.409 115.568  1.00  0.00    -0.545 OA
ENDBRANCH   4   5
ENDBRANCH   2   3
ENDBRANCH   1   2
BRANCH   1   8
ATOM      8  C   UNL     1     406.092 -85.227 115.323  1.00  0.00     0.000 C 
BRANCH   8   9
ATOM      9  C   UNL     1     404.838 -85.386 114.445  1.00  0.00    -0.000 C 
BRANCH   9  10
ATOM     10  C   UNL     1     404.985 -86.510 113.409  1.00  0.00    -0.003 C 
ATOM     11  C   UNL     1     404.320 -86.173 112.074  1.00  0.00     0.004 C 
ENDBRANCH   9  10
ENDBRANCH   8   9
ENDBRANCH   1   8
TORSDOF 6
ENDMDL
MODEL 4
REMARK VINA RESULT:    -3.600      1.567      2.182
REMARK INTER + INTRA:          -5.087
REMARK INTER:                  -4.754
REMARK INTRA:                  -0.334
REMARK UNBOUND:                -0.224
REMARK SMILES CCCCCCC=CC(=O)[O-]
REMARK SMILES IDX 5 1 6 2 7 3 8 4 9 5 10 6 11 7 4 8 3 9 2 10 1 11
REMARK H PARENT
REMARK Flexibility Score: inf
ROOT
ATOM      1  C   UNL     1     408.911 -84.359 114.655  1.00  0.00     0.004 C 
ENDROOT
BRANCH   1   2
ATOM      2  C   UNL     1     408.311 -85.730 115.001  1.00  0.00     0.027 C 
BRANCH   2   3
ATOM      3  C   UNL     1     406.810 -85.688 114.969  1.00  0.00    -0.025 C 
ATOM      4  C   UNL     1     406.122 -86.127 113.910  1.00  0.00     0.020 C 
BRANCH   4   5
ATOM      5  C   UNL     1     404.654 -86.106 113.869  1.00  0.00     0.064 C 
ATOM      6  O   UNL     1     404.043 -86.844 113.052  1.00  0.00    -0.545 OA
ATOM      7  O   UNL     1     403.925 -85.281 114.719  1.00  0.00    -0.545 OA
ENDBRANCH   4   5
ENDBRANCH   2   3
ENDBRANCH   1   2
BRANCH   1   8
ATOM      8  C   UNL     1     410.236 -84.472 113.885  1.00  0.00     0.000 C 
BRANCH   8   9
ATOM      9  C   UNL     1     411.009 -85.758 114.226  1.00  0.00    -0.000 C 
BRANCH   9  10
ATOM     10  C   UNL     1     412.429 -85.473 114.737  1.00  0.00    -0.003 C 
ATOM     11  C   UNL     1     412.485 -84.279 115.690  1.00  0.00     0.004 C 
ENDBRANCH   9  10
ENDBRANCH   8   9
ENDBRANCH   1   8
TORSDOF 6
ENDMDL
MODEL 5
REMARK VINA RESULT:    -3.565      3.538      6.125
REMARK INTER + INTRA:          -5.040
REMARK INTER:                  -4.697
REMARK INTRA:                  -0.343
REMARK UNBOUND:                -0.224
REMARK SMILES CCCCCCC=CC(=O)[O-]
REMARK SMILES IDX 5 1 6 2 7 3 8 4 9 5 10 6 11 7 4 8 3 9 2 10 1 11
REMARK H PARENT
REMARK Flexibility Score: inf
ROOT
ATOM      1  C   UNL     1     407.326 -85.221 114.364  1.00  0.00     0.004 C 
ENDROOT
BRANCH   1   2
ATOM      2  C   UNL     1     408.347 -86.194 114.974  1.00  0.00     0.027 C 
BRANCH   2   3
ATOM      3  C   UNL     1     409.692 -85.545 115.125  1.00  0.00    -0.025 C 
ATOM      4  C   UNL     1     410.655 -85.712 114.212  1.00  0.00     0.020 C 
BRANCH   4   5
ATOM      5  C   UNL     1     411.971 -85.072 114.340  1.00  0.00     0.064 C 
ATOM      6  O   UNL     1     412.690 -85.323 115.342  1.00  0.00    -0.545 OA
ATOM      7  O   UNL     1     412.436 -84.190 113.370  1.00  0.00    -0.545 OA
ENDBRANCH   4   5
ENDBRANCH   2   3
ENDBRANCH   1   2
BRANCH   1   8
ATOM      8  C   UNL     1     405.913 -85.820 114.284  1.00  0.00     0.000 C 
BRANCH   8   9
ATOM      9  C   UNL     1     404.898 -85.054 115.150  1.00  0.00    -0.000 C 
BRANCH   9  10
ATOM     10  C   UNL     1     405.558 -84.347 116.343  1.00  0.00    -0.003 C 
ATOM     11  C   UNL     1     405.514 -85.181 117.623  1.00  0.00     0.004 C 
ENDBRANCH   9  10
ENDBRANCH   8   9
ENDBRANCH   1   8
TORSDOF 6
ENDMDL
MODEL 6
REMARK VINA RESULT:    -3.131     12.020     13.511
REMARK INTER + INTRA:          -4.453
REMARK INTER:                  -3.814
REMARK INTRA:                  -0.639
REMARK UNBOUND:                -0.224
REMARK SMILES CCCCCCC=CC(=O)[O-]
REMARK SMILES IDX 5 1 6 2 7 3 8 4 9 5 10 6 11 7 4 8 3 9 2 10 1 11
REMARK H PARENT
REMARK Flexibility Score: inf
ROOT
ATOM      1  C   UNL     1     405.143 -94.843 108.740  1.00  0.00     0.004 C 
ENDROOT
BRANCH   1   2
ATOM      2  C   UNL     1     404.022 -93.791 108.764  1.00  0.00     0.027 C 
BRANCH   2   3
ATOM      3  C   UNL     1     403.973 -93.021 107.476  1.00  0.00    -0.025 C 
ATOM      4  C   UNL     1     404.998 -92.261 107.077  1.00  0.00     0.020 C 
BRANCH   4   5
ATOM      5  C   UNL     1     404.970 -91.513 105.813  1.00  0.00     0.064 C 
ATOM      6  O   UNL     1     404.227 -91.905 104.875  1.00  0.00    -0.545 OA
ATOM      7  O   UNL     1     405.753 -90.377 105.634  1.00  0.00    -0.545 OA
ENDBRANCH   4   5
ENDBRANCH   2   3
ENDBRANCH   1   2
BRANCH   1   8
ATOM      8  C   UNL     1     404.606 -96.274 108.584  1.00  0.00     0.000 C 
BRANCH   8   9
ATOM      9  C   UNL     1     404.232 -96.609 107.129  1.00  0.00    -0.000 C 
BRANCH   9  10
ATOM     10  C   UNL     1     405.261 -96.078 106.121  1.00  0.00    -0.003 C 
ATOM     11  C   UNL     1     404.612 -95.476 104.875  1.00  0.00     0.004 C 
ENDBRANCH   9  10
ENDBRANCH   8   9
ENDBRANCH   1   8
TORSDOF 6
ENDMDL
MODEL 7
REMARK VINA RESULT:    -3.117     11.611     13.244
REMARK INTER + INTRA:          -4.435
REMARK INTER:                  -3.714
REMARK INTRA:                  -0.721
REMARK UNBOUND:                -0.224
REMARK SMILES CCCCCCC=CC(=O)[O-]
REMARK SMILES IDX 5 1 6 2 7 3 8 4 9 5 10 6 11 7 4 8 3 9 2 10 1 11
REMARK H PARENT
REMARK Flexibility Score: inf
ROOT
ATOM      1  C   UNL     1     420.377 -89.475 120.782  1.00  0.00     0.004 C 
ENDROOT
BRANCH   1   2
ATOM      2  C   UNL     1     420.413 -88.419 121.898  1.00  0.00     0.027 C 
BRANCH   2   3
ATOM      3  C   UNL     1     420.402 -87.029 121.329  1.00  0.00    -0.025 C 
ATOM      4  C   UNL     1     420.359 -86.814 120.011  1.00  0.00     0.020 C 
BRANCH   4   5
ATOM      5  C   UNL     1     420.333 -85.460 119.440  1.00  0.00     0.064 C 
ATOM      6  O   UNL     1     421.381 -84.763 119.446  1.00  0.00    -0.545 OA
ATOM      7  O   UNL     1     419.166 -84.934 118.895  1.00  0.00    -0.545 OA
ENDBRANCH   4   5
ENDBRANCH   2   3
ENDBRANCH   1   2
BRANCH   1   8
ATOM      8  C   UNL     1     421.560 -90.453 120.855  1.00  0.00     0.000 C 
BRANCH   8   9
ATOM      9  C   UNL     1     422.893 -89.744 121.154  1.00  0.00    -0.000 C 
BRANCH   9  10
ATOM     10  C   UNL     1     423.664 -89.380 119.876  1.00  0.00    -0.003 C 
ATOM     11  C   UNL     1     423.849 -87.872 119.708  1.00  0.00     0.004 C 
ENDBRANCH   9  10
ENDBRANCH   8   9
ENDBRANCH   1   8
TORSDOF 6
ENDMDL
MODEL 8
REMARK VINA RESULT:    -3.093     13.557     14.897
REMARK INTER + INTRA:          -4.402
REMARK INTER:                  -3.895
REMARK INTRA:                  -0.507
REMARK UNBOUND:                -0.224
REMARK SMILES CCCCCCC=CC(=O)[O-]
REMARK SMILES IDX 5 1 6 2 7 3 8 4 9 5 10 6 11 7 4 8 3 9 2 10 1 11
REMARK H PARENT
REMARK Flexibility Score: inf
ROOT
ATOM      1  C   UNL     1     420.447 -87.444 120.568  1.00  0.00     0.004 C 
ENDROOT
BRANCH   1   2
ATOM      2  C   UNL     1     420.409 -88.932 120.948  1.00  0.00     0.027 C 
BRANCH   2   3
ATOM      3  C   UNL     1     421.784 -89.534 120.924  1.00  0.00    -0.025 C 
ATOM      4  C   UNL     1     421.967 -90.858 120.917  1.00  0.00     0.020 C 
BRANCH   4   5
ATOM      5  C   UNL     1     423.306 -91.461 120.878  1.00  0.00     0.064 C 
ATOM      6  O   UNL     1     423.943 -91.492 119.793  1.00  0.00    -0.545 OA
ATOM      7  O   UNL     1     423.882 -92.001 122.024  1.00  0.00    -0.545 OA
ENDBRANCH   4   5
ENDBRANCH   2   3
ENDBRANCH   1   2
BRANCH   1   8
ATOM      8  C   UNL     1     420.322 -86.518 121.788  1.00  0.00     0.000 C 
BRANCH   8   9
ATOM      9  C   UNL     1     420.048 -87.292 123.089  1.00  0.00    -0.000 C 
BRANCH   9  10
ATOM     10  C   UNL     1     421.074 -86.977 124.188  1.00  0.00    -0.003 C 
ATOM     11  C   UNL     1     422.517 -87.086 123.697  1.00  0.00     0.004 C 
ENDBRANCH   9  10
ENDBRANCH   8   9
ENDBRANCH   1   8
TORSDOF 6
ENDMDL
MODEL 9
REMARK VINA RESULT:    -3.083     12.422     13.533
REMARK INTER + INTRA:          -4.389
REMARK INTER:                  -4.270
REMARK INTRA:                  -0.118
REMARK UNBOUND:                -0.224
REMARK SMILES CCCCCCC=CC(=O)[O-]
REMARK SMILES IDX 5 1 6 2 7 3 8 4 9 5 10 6 11 7 4 8 3 9 2 10 1 11
REMARK H PARENT
REMARK Flexibility Score: inf
ROOT
ATOM      1  C   UNL     1     405.307 -93.946 106.981  1.00  0.00     0.004 C 
ENDROOT
BRANCH   1   2
ATOM      2  C   UNL     1     404.556 -93.902 105.642  1.00  0.00     0.027 C 
BRANCH   2   3
ATOM      3  C   UNL     1     404.579 -92.520 105.053  1.00  0.00    -0.025 C 
ATOM      4  C   UNL     1     405.028 -91.472 105.750  1.00  0.00     0.020 C 
BRANCH   4   5
ATOM      5  C   UNL     1     405.070 -90.117 105.183  1.00  0.00     0.064 C 
ATOM      6  O   UNL     1     403.994 -89.499 104.970  1.00  0.00    -0.545 OA
ATOM      7  O   UNL     1     406.281 -89.505 104.875  1.00  0.00    -0.545 OA
ENDBRANCH   4   5
ENDBRANCH   2   3
ENDBRANCH   1   2
BRANCH   1   8
ATOM      8  C   UNL     1     404.373 -94.200 108.174  1.00  0.00     0.000 C 
BRANCH   8   9
ATOM      9  C   UNL     1     403.909 -95.665 108.259  1.00  0.00    -0.000 C 
BRANCH   9  10
ATOM     10  C   UNL     1     404.859 -96.626 107.530  1.00  0.00    -0.003 C 
ATOM     11  C   UNL     1     404.195 -97.329 106.346  1.00  0.00     0.004 C 
ENDBRANCH   9  10
ENDBRANCH   8   9
ENDBRANCH   1   8
TORSDOF 6
ENDMDL
