MODEL 1
REMARK VINA RESULT:    -5.211      0.000      0.000
REMARK INTER + INTRA:         -11.974
REMARK INTER:                  -9.475
REMARK INTRA:                  -2.499
REMARK UNBOUND:                -2.499
REMARK SMILES CCCCCCCCCCCCCC[C@H](C)C(=O)[O-]
REMARK SMILES IDX 9 1 10 2 11 3 12 4 13 5 14 6 15 7 16 8 17 9 18 10 19 11 8 12
REMARK SMILES IDX 7 13 6 14 5 15 4 16 3 17 2 18 1 19
REMARK H PARENT
REMARK Flexibility Score: inf
ROOT
ATOM      1  C   UNL     1      34.007   6.459   8.146  1.00  0.00     0.000 C 
ENDROOT
BRANCH   1   2
ATOM      2  C   UNL     1      35.208   5.596   8.565  1.00  0.00     0.000 C 
BRANCH   2   3
ATOM      3  C   UNL     1      34.781   4.250   9.176  1.00  0.00     0.000 C 
BRANCH   3   4
ATOM      4  C   UNL     1      33.264   4.004   9.087  1.00  0.00     0.000 C 
BRANCH   4   5
ATOM      5  C   UNL     1      32.592   3.560  10.399  1.00  0.00     0.001 C 
BRANCH   5   6
ATOM      6  C   UNL     1      33.552   3.574  11.602  1.00  0.00     0.009 C 
BRANCH   6   7
ATOM      7  C   UNL     1      32.798   3.524  12.947  1.00  0.00     0.032 C 
ATOM      8  C   UNL     1      32.036   4.833  13.190  1.00  0.00     0.014 C 
BRANCH   7   9
ATOM      9  C   UNL     1      33.735   3.258  14.096  1.00  0.00     0.044 C 
ATOM     10  O   UNL     1      33.835   2.101  14.586  1.00  0.00    -0.550 OA
ATOM     11  O   UNL     1      34.499   4.292  14.620  1.00  0.00    -0.550 OA
ENDBRANCH   7   9
ENDBRANCH   6   7
ENDBRANCH   5   6
ENDBRANCH   4   5
ENDBRANCH   3   4
ENDBRANCH   2   3
ENDBRANCH   1   2
BRANCH   1  12
ATOM     12  C   UNL     1      33.891   7.755   8.969  1.00  0.00     0.000 C 
BRANCH  12  13
ATOM     13  C   UNL     1      33.424   7.498  10.411  1.00  0.00    -0.000 C 
BRANCH  13  14
ATOM     14  C   UNL     1      34.430   8.003  11.456  1.00  0.00    -0.000 C 
BRANCH  14  15
ATOM     15  C   UNL     1      34.819   6.883  12.429  1.00  0.00    -0.000 C 
BRANCH  15  16
ATOM     16  C   UNL     1      36.196   6.300  12.076  1.00  0.00    -0.000 C 
BRANCH  16  17
ATOM     17  C   UNL     1      37.014   7.217  11.148  1.00  0.00    -0.000 C 
BRANCH  17  18
ATOM     18  C   UNL     1      38.368   6.640  10.699  1.00  0.00    -0.003 C 
ATOM     19  C   UNL     1      39.485   6.875  11.715  1.00  0.00     0.004 C 
ENDBRANCH  17  18
ENDBRANCH  16  17
ENDBRANCH  15  16
ENDBRANCH  14  15
ENDBRANCH  13  14
ENDBRANCH  12  13
ENDBRANCH   1  12
TORSDOF 14
ENDMDL
MODEL 2
REMARK VINA RESULT:    -4.890      1.402      3.276
REMARK INTER + INTRA:         -11.392
REMARK INTER:                  -9.311
REMARK INTRA:                  -2.081
REMARK UNBOUND:                -2.499
REMARK SMILES CCCCCCCCCCCCCC[C@H](C)C(=O)[O-]
REMARK SMILES IDX 9 1 10 2 11 3 12 4 13 5 14 6 15 7 16 8 17 9 18 10 19 11 8 12
REMARK SMILES IDX 7 13 6 14 5 15 4 16 3 17 2 18 1 19
REMARK H PARENT
REMARK Flexibility Score: inf
ROOT
ATOM      1  C   UNL     1      36.055   4.499   9.127  1.00  0.00     0.000 C 
ENDROOT
BRANCH   1   2
ATOM      2  C   UNL     1      35.026   5.350   8.367  1.00  0.00     0.000 C 
BRANCH   2   3
ATOM      3  C   UNL     1      33.613   5.243   8.967  1.00  0.00     0.000 C 
BRANCH   3   4
ATOM      4  C   UNL     1      33.085   3.797   9.005  1.00  0.00     0.000 C 
BRANCH   4   5
ATOM      5  C   UNL     1      32.523   3.339  10.363  1.00  0.00     0.001 C 
BRANCH   5   6
ATOM      6  C   UNL     1      33.511   3.547  11.525  1.00  0.00     0.009 C 
BRANCH   6   7
ATOM      7  C   UNL     1      32.789   3.709  12.879  1.00  0.00     0.032 C 
ATOM      8  C   UNL     1      32.059   5.055  12.947  1.00  0.00     0.014 C 
BRANCH   7   9
ATOM      9  C   UNL     1      33.748   3.589  14.034  1.00  0.00     0.044 C 
ATOM     10  O   UNL     1      33.843   2.510  14.679  1.00  0.00    -0.550 OA
ATOM     11  O   UNL     1      34.539   4.672  14.393  1.00  0.00    -0.550 OA
ENDBRANCH   7   9
ENDBRANCH   6   7
ENDBRANCH   5   6
ENDBRANCH   4   5
ENDBRANCH   3   4
ENDBRANCH   2   3
ENDBRANCH   1   2
BRANCH   1  12
ATOM     12  C   UNL     1      36.645   5.229  10.348  1.00  0.00     0.000 C 
BRANCH  12  13
ATOM     13  C   UNL     1      36.891   6.723  10.080  1.00  0.00    -0.000 C 
BRANCH  13  14
ATOM     14  C   UNL     1      36.335   7.622  11.194  1.00  0.00    -0.000 C 
BRANCH  14  15
ATOM     15  C   UNL     1      35.034   7.046  11.766  1.00  0.00    -0.000 C 
BRANCH  15  16
ATOM     16  C   UNL     1      34.110   8.166  12.267  1.00  0.00    -0.000 C 
BRANCH  16  17
ATOM     17  C   UNL     1      32.801   8.268  11.464  1.00  0.00    -0.000 C 
BRANCH  17  18
ATOM     18  C   UNL     1      31.573   8.705  12.281  1.00  0.00    -0.003 C 
ATOM     19  C   UNL     1      31.258  10.194  12.138  1.00  0.00     0.004 C 
ENDBRANCH  17  18
ENDBRANCH  16  17
ENDBRANCH  15  16
ENDBRANCH  14  15
ENDBRANCH  13  14
ENDBRANCH  12  13
ENDBRANCH   1  12
TORSDOF 14
ENDMDL
MODEL 3
REMARK VINA RESULT:    -4.863      3.320      5.608
REMARK INTER + INTRA:         -11.342
REMARK INTER:                  -9.352
REMARK INTRA:                  -1.990
REMARK UNBOUND:                -2.499
REMARK SMILES CCCCCCCCCCCCCC[C@H](C)C(=O)[O-]
REMARK SMILES IDX 9 1 10 2 11 3 12 4 13 5 14 6 15 7 16 8 17 9 18 10 19 11 8 12
REMARK SMILES IDX 7 13 6 14 5 15 4 16 3 17 2 18 1 19
REMARK H PARENT
REMARK Flexibility Score: inf
ROOT
ATOM      1  C   UNL     1      35.197   6.020  13.384  1.00  0.00     0.000 C 
ENDROOT
BRANCH   1   2
ATOM      2  C   UNL     1      34.239   4.857  13.689  1.00  0.00     0.000 C 
BRANCH   2   3
ATOM      3  C   UNL     1      33.085   4.762  12.677  1.00  0.00     0.000 C 
BRANCH   3   4
ATOM      4  C   UNL     1      32.996   3.386  11.994  1.00  0.00     0.000 C 
BRANCH   4   5
ATOM      5  C   UNL     1      33.602   3.314  10.580  1.00  0.00     0.001 C 
BRANCH   5   6
ATOM      6  C   UNL     1      33.133   4.460   9.666  1.00  0.00     0.009 C 
BRANCH   6   7
ATOM      7  C   UNL     1      33.886   4.474   8.319  1.00  0.00     0.032 C 
ATOM      8  C   UNL     1      35.397   4.612   8.545  1.00  0.00     0.014 C 
BRANCH   7   9
ATOM      9  C   UNL     1      33.400   5.584   7.425  1.00  0.00     0.044 C 
ATOM     10  O   UNL     1      32.601   5.343   6.481  1.00  0.00    -0.550 OA
ATOM     11  O   UNL     1      33.830   6.886   7.642  1.00  0.00    -0.550 OA
ENDBRANCH   7   9
ENDBRANCH   6   7
ENDBRANCH   5   6
ENDBRANCH   4   5
ENDBRANCH   3   4
ENDBRANCH   2   3
ENDBRANCH   1   2
BRANCH   1  12
ATOM     12  C   UNL     1      35.819   5.925  11.979  1.00  0.00     0.000 C 
BRANCH  12  13
ATOM     13  C   UNL     1      35.552   7.177  11.129  1.00  0.00    -0.000 C 
BRANCH  13  14
ATOM     14  C   UNL     1      34.690   8.215  11.862  1.00  0.00    -0.000 C 
BRANCH  14  15
ATOM     15  C   UNL     1      33.247   8.197  11.341  1.00  0.00    -0.000 C 
BRANCH  15  16
ATOM     16  C   UNL     1      32.244   8.302  12.499  1.00  0.00    -0.000 C 
BRANCH  16  17
ATOM     17  C   UNL     1      31.002   9.139  12.142  1.00  0.00    -0.000 C 
BRANCH  17  18
ATOM     18  C   UNL     1      31.195  10.661  12.251  1.00  0.00    -0.003 C 
ATOM     19  C   UNL     1      29.893  11.444  12.082  1.00  0.00     0.004 C 
ENDBRANCH  17  18
ENDBRANCH  16  17
ENDBRANCH  15  16
ENDBRANCH  14  15
ENDBRANCH  13  14
ENDBRANCH  12  13
ENDBRANCH   1  12
TORSDOF 14
ENDMDL
MODEL 4
REMARK VINA RESULT:    -4.806      2.632      4.038
REMARK INTER + INTRA:         -11.238
REMARK INTER:                  -9.090
REMARK INTRA:                  -2.149
REMARK UNBOUND:                -2.499
REMARK SMILES CCCCCCCCCCCCCC[C@H](C)C(=O)[O-]
REMARK SMILES IDX 9 1 10 2 11 3 12 4 13 5 14 6 15 7 16 8 17 9 18 10 19 11 8 12
REMARK SMILES IDX 7 13 6 14 5 15 4 16 3 17 2 18 1 19
REMARK H PARENT
REMARK Flexibility Score: inf
ROOT
ATOM      1  C   UNL     1      31.766   5.829  12.215  1.00  0.00     0.000 C 
ENDROOT
BRANCH   1   2
ATOM      2  C   UNL     1      32.335   4.904  13.303  1.00  0.00     0.000 C 
BRANCH   2   3
ATOM      3  C   UNL     1      33.511   4.052  12.797  1.00  0.00     0.000 C 
BRANCH   3   4
ATOM      4  C   UNL     1      33.067   2.689  12.234  1.00  0.00     0.000 C 
BRANCH   4   5
ATOM      5  C   UNL     1      33.240   2.518  10.714  1.00  0.00     0.001 C 
BRANCH   5   6
ATOM      6  C   UNL     1      33.916   3.728  10.045  1.00  0.00     0.009 C 
BRANCH   6   7
ATOM      7  C   UNL     1      33.031   4.356   8.948  1.00  0.00     0.032 C 
ATOM      8  C   UNL     1      32.200   3.278   8.240  1.00  0.00     0.014 C 
BRANCH   7   9
ATOM      9  C   UNL     1      33.853   5.112   7.939  1.00  0.00     0.044 C 
ATOM     10  O   UNL     1      35.111   5.030   7.946  1.00  0.00    -0.550 OA
ATOM     11  O   UNL     1      33.224   5.903   6.987  1.00  0.00    -0.550 OA
ENDBRANCH   7   9
ENDBRANCH   6   7
ENDBRANCH   5   6
ENDBRANCH   4   5
ENDBRANCH   3   4
ENDBRANCH   2   3
ENDBRANCH   1   2
BRANCH   1  12
ATOM     12  C   UNL     1      31.887   7.320  12.581  1.00  0.00     0.000 C 
BRANCH  12  13
ATOM     13  C   UNL     1      32.585   8.143  11.487  1.00  0.00    -0.000 C 
BRANCH  13  14
ATOM     14  C   UNL     1      33.806   7.423  10.896  1.00  0.00    -0.000 C 
BRANCH  14  15
ATOM     15  C   UNL     1      35.073   7.742  11.700  1.00  0.00    -0.000 C 
BRANCH  15  16
ATOM     16  C   UNL     1      35.869   6.464  12.003  1.00  0.00    -0.000 C 
BRANCH  16  17
ATOM     17  C   UNL     1      36.772   6.029  10.835  1.00  0.00    -0.000 C 
BRANCH  17  18
ATOM     18  C   UNL     1      37.943   6.980  10.532  1.00  0.00    -0.003 C 
ATOM     19  C   UNL     1      39.156   6.741  11.431  1.00  0.00     0.004 C 
ENDBRANCH  17  18
ENDBRANCH  16  17
ENDBRANCH  15  16
ENDBRANCH  14  15
ENDBRANCH  13  14
ENDBRANCH  12  13
ENDBRANCH   1  12
TORSDOF 14
ENDMDL
MODEL 5
REMARK VINA RESULT:    -4.683      1.306      4.392
REMARK INTER + INTRA:         -11.015
REMARK INTER:                  -8.604
REMARK INTRA:                  -2.411
REMARK UNBOUND:                -2.499
REMARK SMILES CCCCCCCCCCCCCC[C@H](C)C(=O)[O-]
REMARK SMILES IDX 9 1 10 2 11 3 12 4 13 5 14 6 15 7 16 8 17 9 18 10 19 11 8 12
REMARK SMILES IDX 7 13 6 14 5 15 4 16 3 17 2 18 1 19
REMARK H PARENT
REMARK Flexibility Score: inf
ROOT
ATOM      1  C   UNL     1      35.797   6.581  11.684  1.00  0.00     0.000 C 
ENDROOT
BRANCH   1   2
ATOM      2  C   UNL     1      34.959   7.869  11.658  1.00  0.00     0.000 C 
BRANCH   2   3
ATOM      3  C   UNL     1      33.496   7.613  11.256  1.00  0.00     0.000 C 
BRANCH   3   4
ATOM      4  C   UNL     1      32.636   7.092  12.422  1.00  0.00     0.000 C 
BRANCH   4   5
ATOM      5  C   UNL     1      31.691   5.928  12.072  1.00  0.00     0.001 C 
BRANCH   5   6
ATOM      6  C   UNL     1      31.903   4.691  12.963  1.00  0.00     0.009 C 
BRANCH   6   7
ATOM      7  C   UNL     1      33.306   4.076  12.778  1.00  0.00     0.032 C 
ATOM      8  C   UNL     1      33.222   2.760  11.996  1.00  0.00     0.014 C 
BRANCH   7   9
ATOM      9  C   UNL     1      33.986   3.841  14.101  1.00  0.00     0.044 C 
ATOM     10  O   UNL     1      33.840   2.749  14.712  1.00  0.00    -0.550 OA
ATOM     11  O   UNL     1      34.786   4.833  14.654  1.00  0.00    -0.550 OA
ENDBRANCH   7   9
ENDBRANCH   6   7
ENDBRANCH   5   6
ENDBRANCH   4   5
ENDBRANCH   3   4
ENDBRANCH   2   3
ENDBRANCH   1   2
BRANCH   1  12
ATOM     12  C   UNL     1      36.551   6.336  10.364  1.00  0.00     0.000 C 
BRANCH  12  13
ATOM     13  C   UNL     1      36.649   4.843  10.009  1.00  0.00    -0.000 C 
BRANCH  13  14
ATOM     14  C   UNL     1      35.488   4.370   9.122  1.00  0.00    -0.000 C 
BRANCH  14  15
ATOM     15  C   UNL     1      35.027   5.488   8.179  1.00  0.00    -0.000 C 
BRANCH  15  16
ATOM     16  C   UNL     1      33.496   5.613   8.181  1.00  0.00    -0.000 C 
BRANCH  16  17
ATOM     17  C   UNL     1      32.797   4.404   8.829  1.00  0.00    -0.000 C 
BRANCH  17  18
ATOM     18  C   UNL     1      32.253   3.362   7.835  1.00  0.00    -0.003 C 
ATOM     19  C   UNL     1      31.773   3.981   6.523  1.00  0.00     0.004 C 
ENDBRANCH  17  18
ENDBRANCH  16  17
ENDBRANCH  15  16
ENDBRANCH  14  15
ENDBRANCH  13  14
ENDBRANCH  12  13
ENDBRANCH   1  12
TORSDOF 14
ENDMDL
MODEL 6
REMARK VINA RESULT:    -4.665      3.004      5.251
REMARK INTER + INTRA:         -10.982
REMARK INTER:                  -8.577
REMARK INTRA:                  -2.406
REMARK UNBOUND:                -2.499
REMARK SMILES CCCCCCCCCCCCCC[C@H](C)C(=O)[O-]
REMARK SMILES IDX 9 1 10 2 11 3 12 4 13 5 14 6 15 7 16 8 17 9 18 10 19 11 8 12
REMARK SMILES IDX 7 13 6 14 5 15 4 16 3 17 2 18 1 19
REMARK H PARENT
REMARK Flexibility Score: inf
ROOT
ATOM      1  C   UNL     1      33.036   4.540  13.368  1.00  0.00     0.000 C 
ENDROOT
BRANCH   1   2
ATOM      2  C   UNL     1      32.853   3.073  12.948  1.00  0.00     0.000 C 
BRANCH   2   3
ATOM      3  C   UNL     1      33.583   2.741  11.635  1.00  0.00     0.000 C 
BRANCH   3   4
ATOM      4  C   UNL     1      32.696   1.982  10.631  1.00  0.00     0.000 C 
BRANCH   4   5
ATOM      5  C   UNL     1      32.370   2.746   9.334  1.00  0.00     0.001 C 
BRANCH   5   6
ATOM      6  C   UNL     1      32.951   4.171   9.313  1.00  0.00     0.009 C 
BRANCH   6   7
ATOM      7  C   UNL     1      33.866   4.408   8.093  1.00  0.00     0.032 C 
ATOM      8  C   UNL     1      35.286   4.772   8.544  1.00  0.00     0.014 C 
BRANCH   7   9
ATOM      9  C   UNL     1      33.322   5.487   7.195  1.00  0.00     0.044 C 
ATOM     10  O   UNL     1      33.571   6.700   7.429  1.00  0.00    -0.550 OA
ATOM     11  O   UNL     1      32.544   5.147   6.096  1.00  0.00    -0.550 OA
ENDBRANCH   7   9
ENDBRANCH   6   7
ENDBRANCH   5   6
ENDBRANCH   4   5
ENDBRANCH   3   4
ENDBRANCH   2   3
ENDBRANCH   1   2
BRANCH   1  12
ATOM     12  C   UNL     1      34.353   4.782  14.127  1.00  0.00     0.000 C 
BRANCH  12  13
ATOM     13  C   UNL     1      35.155   5.964  13.557  1.00  0.00    -0.000 C 
BRANCH  13  14
ATOM     14  C   UNL     1      35.249   5.929  12.025  1.00  0.00    -0.000 C 
BRANCH  14  15
ATOM     15  C   UNL     1      35.725   7.278  11.473  1.00  0.00    -0.000 C 
BRANCH  15  16
ATOM     16  C   UNL     1      34.691   7.873  10.506  1.00  0.00    -0.000 C 
BRANCH  16  17
ATOM     17  C   UNL     1      33.246   7.469  10.851  1.00  0.00    -0.000 C 
BRANCH  17  18
ATOM     18  C   UNL     1      32.427   8.552  11.575  1.00  0.00    -0.003 C 
ATOM     19  C   UNL     1      32.168   8.224  13.046  1.00  0.00     0.004 C 
ENDBRANCH  17  18
ENDBRANCH  16  17
ENDBRANCH  15  16
ENDBRANCH  14  15
ENDBRANCH  13  14
ENDBRANCH  12  13
ENDBRANCH   1  12
TORSDOF 14
ENDMDL
MODEL 7
REMARK VINA RESULT:    -4.648      3.663      5.587
REMARK INTER + INTRA:         -10.951
REMARK INTER:                  -8.999
REMARK INTRA:                  -1.952
REMARK UNBOUND:                -2.499
REMARK SMILES CCCCCCCCCCCCCC[C@H](C)C(=O)[O-]
REMARK SMILES IDX 9 1 10 2 11 3 12 4 13 5 14 6 15 7 16 8 17 9 18 10 19 11 8 12
REMARK SMILES IDX 7 13 6 14 5 15 4 16 3 17 2 18 1 19
REMARK H PARENT
REMARK Flexibility Score: inf
ROOT
ATOM      1  C   UNL     1      36.611   7.331  11.195  1.00  0.00     0.000 C 
ENDROOT
BRANCH   1   2
ATOM      2  C   UNL     1      36.992   6.109  10.343  1.00  0.00     0.000 C 
BRANCH   2   3
ATOM      3  C   UNL     1      35.768   5.278   9.922  1.00  0.00     0.000 C 
BRANCH   3   4
ATOM      4  C   UNL     1      35.059   5.842   8.678  1.00  0.00     0.000 C 
BRANCH   4   5
ATOM      5  C   UNL     1      33.590   5.414   8.508  1.00  0.00     0.001 C 
BRANCH   5   6
ATOM      6  C   UNL     1      33.159   5.311   7.034  1.00  0.00     0.009 C 
BRANCH   6   7
ATOM      7  C   UNL     1      31.935   4.390   6.849  1.00  0.00     0.032 C 
ATOM      8  C   UNL     1      32.102   3.099   7.660  1.00  0.00     0.014 C 
BRANCH   7   9
ATOM      9  C   UNL     1      31.708   4.056   5.398  1.00  0.00     0.044 C 
ATOM     10  O   UNL     1      31.667   2.856   5.016  1.00  0.00    -0.550 OA
ATOM     11  O   UNL     1      31.538   5.077   4.472  1.00  0.00    -0.550 OA
ENDBRANCH   7   9
ENDBRANCH   6   7
ENDBRANCH   5   6
ENDBRANCH   4   5
ENDBRANCH   3   4
ENDBRANCH   2   3
ENDBRANCH   1   2
BRANCH   1  12
ATOM     12  C   UNL     1      35.373   7.079  12.075  1.00  0.00     0.000 C 
BRANCH  12  13
ATOM     13  C   UNL     1      34.286   8.149  11.885  1.00  0.00    -0.000 C 
BRANCH  13  14
ATOM     14  C   UNL     1      32.914   7.545  11.553  1.00  0.00    -0.000 C 
BRANCH  14  15
ATOM     15  C   UNL     1      32.542   6.444  12.555  1.00  0.00    -0.000 C 
BRANCH  15  16
ATOM     16  C   UNL     1      32.125   5.157  11.827  1.00  0.00    -0.000 C 
BRANCH  16  17
ATOM     17  C   UNL     1      33.009   3.950  12.189  1.00  0.00    -0.000 C 
BRANCH  17  18
ATOM     18  C   UNL     1      33.629   4.001  13.597  1.00  0.00    -0.003 C 
ATOM     19  C   UNL     1      33.602   2.650  14.312  1.00  0.00     0.004 C 
ENDBRANCH  17  18
ENDBRANCH  16  17
ENDBRANCH  15  16
ENDBRANCH  14  15
ENDBRANCH  13  14
ENDBRANCH  12  13
ENDBRANCH   1  12
TORSDOF 14
ENDMDL
MODEL 8
REMARK VINA RESULT:    -4.596      2.654      5.221
REMARK INTER + INTRA:         -10.856
REMARK INTER:                  -8.932
REMARK INTRA:                  -1.923
REMARK UNBOUND:                -2.499
REMARK SMILES CCCCCCCCCCCCCC[C@H](C)C(=O)[O-]
REMARK SMILES IDX 9 1 10 2 11 3 12 4 13 5 14 6 15 7 16 8 17 9 18 10 19 11 8 12
REMARK SMILES IDX 7 13 6 14 5 15 4 16 3 17 2 18 1 19
REMARK H PARENT
REMARK Flexibility Score: inf
ROOT
ATOM      1  C   UNL     1      33.140   2.795  10.177  1.00  0.00     0.000 C 
ENDROOT
BRANCH   1   2
ATOM      2  C   UNL     1      32.684   4.104   9.513  1.00  0.00     0.000 C 
BRANCH   2   3
ATOM      3  C   UNL     1      33.577   4.505   8.326  1.00  0.00     0.000 C 
BRANCH   3   4
ATOM      4  C   UNL     1      33.702   6.031   8.158  1.00  0.00     0.000 C 
BRANCH   4   5
ATOM      5  C   UNL     1      34.578   6.737   9.208  1.00  0.00     0.001 C 
BRANCH   5   6
ATOM      6  C   UNL     1      35.742   5.863   9.708  1.00  0.00     0.009 C 
BRANCH   6   7
ATOM      7  C   UNL     1      36.374   6.420  11.000  1.00  0.00     0.032 C 
ATOM      8  C   UNL     1      35.612   7.659  11.486  1.00  0.00     0.014 C 
BRANCH   7   9
ATOM      9  C   UNL     1      37.828   6.760  10.803  1.00  0.00     0.044 C 
ATOM     10  O   UNL     1      38.261   7.086   9.665  1.00  0.00    -0.550 OA
ATOM     11  O   UNL     1      38.701   6.719  11.882  1.00  0.00    -0.550 OA
ENDBRANCH   7   9
ENDBRANCH   6   7
ENDBRANCH   5   6
ENDBRANCH   4   5
ENDBRANCH   3   4
ENDBRANCH   2   3
ENDBRANCH   1   2
BRANCH   1  12
ATOM     12  C   UNL     1      33.193   2.895  11.713  1.00  0.00     0.000 C 
BRANCH  12  13
ATOM     13  C   UNL     1      33.490   4.321  12.202  1.00  0.00    -0.000 C 
BRANCH  13  14
ATOM     14  C   UNL     1      32.382   4.878  13.106  1.00  0.00    -0.000 C 
BRANCH  14  15
ATOM     15  C   UNL     1      31.491   5.864  12.340  1.00  0.00    -0.000 C 
BRANCH  15  16
ATOM     16  C   UNL     1      32.254   7.158  12.018  1.00  0.00    -0.000 C 
BRANCH  16  17
ATOM     17  C   UNL     1      31.621   8.404  12.662  1.00  0.00    -0.000 C 
BRANCH  17  18
ATOM     18  C   UNL     1      31.885   9.723  11.915  1.00  0.00    -0.003 C 
ATOM     19  C   UNL     1      30.909  10.835  12.300  1.00  0.00     0.004 C 
ENDBRANCH  17  18
ENDBRANCH  16  17
ENDBRANCH  15  16
ENDBRANCH  14  15
ENDBRANCH  13  14
ENDBRANCH  12  13
ENDBRANCH   1  12
TORSDOF 14
ENDMDL
MODEL 9
REMARK VINA RESULT:    -4.562      3.705      5.012
REMARK INTER + INTRA:         -10.794
REMARK INTER:                  -8.469
REMARK INTRA:                  -2.325
REMARK UNBOUND:                -2.499
REMARK SMILES CCCCCCCCCCCCCC[C@H](C)C(=O)[O-]
REMARK SMILES IDX 9 1 10 2 11 3 12 4 13 5 14 6 15 7 16 8 17 9 18 10 19 11 8 12
REMARK SMILES IDX 7 13 6 14 5 15 4 16 3 17 2 18 1 19
REMARK H PARENT
REMARK Flexibility Score: inf
ROOT
ATOM      1  C   UNL     1      32.576   4.247  10.915  1.00  0.00     0.000 C 
ENDROOT
BRANCH   1   2
ATOM      2  C   UNL     1      33.881   3.652  10.360  1.00  0.00     0.000 C 
BRANCH   2   3
ATOM      3  C   UNL     1      34.532   4.550   9.294  1.00  0.00     0.000 C 
BRANCH   3   4
ATOM      4  C   UNL     1      33.650   5.749   8.899  1.00  0.00     0.000 C 
BRANCH   4   5
ATOM      5  C   UNL     1      33.442   5.940   7.385  1.00  0.00     0.001 C 
BRANCH   5   6
ATOM      6  C   UNL     1      33.091   4.631   6.656  1.00  0.00     0.009 C 
BRANCH   6   7
ATOM      7  C   UNL     1      31.678   4.126   7.016  1.00  0.00     0.032 C 
ATOM      8  C   UNL     1      31.724   2.659   7.458  1.00  0.00     0.014 C 
BRANCH   7   9
ATOM      9  C   UNL     1      30.724   4.282   5.861  1.00  0.00     0.044 C 
ATOM     10  O   UNL     1      29.513   4.565   6.064  1.00  0.00    -0.550 OA
ATOM     11  O   UNL     1      31.179   4.117   4.560  1.00  0.00    -0.550 OA
ENDBRANCH   7   9
ENDBRANCH   6   7
ENDBRANCH   5   6
ENDBRANCH   4   5
ENDBRANCH   3   4
ENDBRANCH   2   3
ENDBRANCH   1   2
BRANCH   1  12
ATOM     12  C   UNL     1      32.549   4.286  12.454  1.00  0.00     0.000 C 
BRANCH  12  13
ATOM     13  C   UNL     1      33.264   5.520  13.027  1.00  0.00    -0.000 C 
BRANCH  13  14
ATOM     14  C   UNL     1      32.753   6.834  12.419  1.00  0.00    -0.000 C 
BRANCH  14  15
ATOM     15  C   UNL     1      33.915   7.680  11.885  1.00  0.00    -0.000 C 
BRANCH  15  16
ATOM     16  C   UNL     1      35.256   6.953  12.071  1.00  0.00    -0.000 C 
BRANCH  16  17
ATOM     17  C   UNL     1      36.363   7.492  11.148  1.00  0.00    -0.000 C 
BRANCH  17  18
ATOM     18  C   UNL     1      37.380   6.438  10.674  1.00  0.00    -0.003 C 
ATOM     19  C   UNL     1      38.805   6.726  11.145  1.00  0.00     0.004 C 
ENDBRANCH  17  18
ENDBRANCH  16  17
ENDBRANCH  15  16
ENDBRANCH  14  15
ENDBRANCH  13  14
ENDBRANCH  12  13
ENDBRANCH   1  12
TORSDOF 14
ENDMDL
