MODEL 1
REMARK VINA RESULT:    -3.367      0.000      0.000
REMARK INTER + INTRA:          -4.763
REMARK INTER:                  -4.352
REMARK INTRA:                  -0.412
REMARK UNBOUND:                -0.412
REMARK SMILES CCCCCCC(=O)[O-]
REMARK SMILES IDX 5 1 6 2 7 3 8 4 9 5 4 6 3 7 2 8 1 9
REMARK H PARENT
REMARK Flexibility Score: inf
ROOT
ATOM      1  C   UNL     1      28.936 -23.093  25.420  1.00  0.00     0.006 C 
ENDROOT
BRANCH   1   2
ATOM      2  C   UNL     1      27.623 -22.516  25.963  1.00  0.00     0.053 C 
BRANCH   2   3
ATOM      3  C   UNL     1      27.607 -21.018  25.904  1.00  0.00     0.041 C 
ATOM      4  O   UNL     1      26.513 -20.397  25.870  1.00  0.00    -0.550 OA
ATOM      5  O   UNL     1      28.802 -20.308  25.921  1.00  0.00    -0.550 OA
ENDBRANCH   2   3
ENDBRANCH   1   2
BRANCH   1   6
ATOM      6  C   UNL     1      28.815 -23.534  23.954  1.00  0.00     0.000 C 
BRANCH   6   7
ATOM      7  C   UNL     1      29.556 -22.566  23.025  1.00  0.00    -0.000 C 
BRANCH   7   8
ATOM      8  C   UNL     1      28.579 -21.611  22.330  1.00  0.00    -0.003 C 
ATOM      9  C   UNL     1      29.080 -20.171  22.385  1.00  0.00     0.004 C 
ENDBRANCH   7   8
ENDBRANCH   6   7
ENDBRANCH   1   6
TORSDOF 5
ENDMDL
MODEL 2
REMARK VINA RESULT:    -3.272      2.055      3.617
REMARK INTER + INTRA:          -4.640
REMARK INTER:                  -4.327
REMARK INTRA:                  -0.313
REMARK UNBOUND:                -0.412
REMARK SMILES CCCCCCC(=O)[O-]
REMARK SMILES IDX 5 1 6 2 7 3 8 4 9 5 4 6 3 7 2 8 1 9
REMARK H PARENT
REMARK Flexibility Score: inf
ROOT
ATOM      1  C   UNL     1      29.405 -23.034  23.083  1.00  0.00     0.006 C 
ENDROOT
BRANCH   1   2
ATOM      2  C   UNL     1      28.625 -21.894  22.417  1.00  0.00     0.053 C 
BRANCH   2   3
ATOM      3  C   UNL     1      29.502 -20.714  22.130  1.00  0.00     0.041 C 
ATOM      4  O   UNL     1      29.208 -19.579  22.589  1.00  0.00    -0.550 OA
ATOM      5  O   UNL     1      30.662 -20.874  21.381  1.00  0.00    -0.550 OA
ENDBRANCH   2   3
ENDBRANCH   1   2
BRANCH   1   6
ATOM      6  C   UNL     1      28.710 -23.553  24.350  1.00  0.00     0.000 C 
BRANCH   6   7
ATOM      7  C   UNL     1      28.895 -22.577  25.518  1.00  0.00    -0.000 C 
BRANCH   7   8
ATOM      8  C   UNL     1      27.542 -22.151  26.099  1.00  0.00    -0.003 C 
ATOM      9  C   UNL     1      27.169 -20.740  25.654  1.00  0.00     0.004 C 
ENDBRANCH   7   8
ENDBRANCH   6   7
ENDBRANCH   1   6
TORSDOF 5
ENDMDL
MODEL 3
REMARK VINA RESULT:    -3.197      1.522      2.710
REMARK INTER + INTRA:          -4.543
REMARK INTER:                  -4.166
REMARK INTRA:                  -0.377
REMARK UNBOUND:                -0.412
REMARK SMILES CCCCCCC(=O)[O-]
REMARK SMILES IDX 5 1 6 2 7 3 8 4 9 5 4 6 3 7 2 8 1 9
REMARK H PARENT
REMARK Flexibility Score: inf
ROOT
ATOM      1  C   UNL     1      29.054 -20.609  24.395  1.00  0.00     0.006 C 
ENDROOT
BRANCH   1   2
ATOM      2  C   UNL     1      27.862 -20.800  25.341  1.00  0.00     0.053 C 
BRANCH   2   3
ATOM      3  C   UNL     1      28.074 -21.950  26.278  1.00  0.00     0.041 C 
ATOM      4  O   UNL     1      28.917 -21.862  27.209  1.00  0.00    -0.550 OA
ATOM      5  O   UNL     1      27.317 -23.108  26.142  1.00  0.00    -0.550 OA
ENDBRANCH   2   3
ENDBRANCH   1   2
BRANCH   1   6
ATOM      6  C   UNL     1      28.679 -20.866  22.928  1.00  0.00     0.000 C 
BRANCH   6   7
ATOM      7  C   UNL     1      28.645 -22.369  22.624  1.00  0.00    -0.000 C 
BRANCH   7   8
ATOM      8  C   UNL     1      29.843 -23.086  23.257  1.00  0.00    -0.003 C 
ATOM      9  C   UNL     1      29.470 -24.499  23.698  1.00  0.00     0.004 C 
ENDBRANCH   7   8
ENDBRANCH   6   7
ENDBRANCH   1   6
TORSDOF 5
ENDMDL
MODEL 4
REMARK VINA RESULT:    -3.157      2.404      4.066
REMARK INTER + INTRA:          -4.491
REMARK INTER:                  -4.068
REMARK INTRA:                  -0.423
REMARK UNBOUND:                -0.412
REMARK SMILES CCCCCCC(=O)[O-]
REMARK SMILES IDX 5 1 6 2 7 3 8 4 9 5 4 6 3 7 2 8 1 9
REMARK H PARENT
REMARK Flexibility Score: inf
ROOT
ATOM      1  C   UNL     1      28.785 -20.759  23.214  1.00  0.00     0.006 C 
ENDROOT
BRANCH   1   2
ATOM      2  C   UNL     1      28.717 -22.196  22.681  1.00  0.00     0.053 C 
BRANCH   2   3
ATOM      3  C   UNL     1      29.814 -23.050  23.243  1.00  0.00     0.041 C 
ATOM      4  O   UNL     1      29.536 -24.068  23.929  1.00  0.00    -0.550 OA
ATOM      5  O   UNL     1      31.142 -22.738  22.981  1.00  0.00    -0.550 OA
ENDBRANCH   2   3
ENDBRANCH   1   2
BRANCH   1   6
ATOM      6  C   UNL     1      28.875 -20.711  24.746  1.00  0.00     0.000 C 
BRANCH   6   7
ATOM      7  C   UNL     1      27.493 -20.898  25.385  1.00  0.00    -0.000 C 
BRANCH   7   8
ATOM      8  C   UNL     1      27.408 -22.234  26.131  1.00  0.00    -0.003 C 
ATOM      9  C   UNL     1      28.661 -22.481  26.966  1.00  0.00     0.004 C 
ENDBRANCH   7   8
ENDBRANCH   6   7
ENDBRANCH   1   6
TORSDOF 5
ENDMDL
MODEL 5
REMARK VINA RESULT:    -3.154      1.220      1.677
REMARK INTER + INTRA:          -4.487
REMARK INTER:                  -4.148
REMARK INTRA:                  -0.339
REMARK UNBOUND:                -0.412
REMARK SMILES CCCCCCC(=O)[O-]
REMARK SMILES IDX 5 1 6 2 7 3 8 4 9 5 4 6 3 7 2 8 1 9
REMARK H PARENT
REMARK Flexibility Score: inf
ROOT
ATOM      1  C   UNL     1      27.887 -22.210  26.345  1.00  0.00     0.006 C 
ENDROOT
BRANCH   1   2
ATOM      2  C   UNL     1      27.348 -20.895  25.767  1.00  0.00     0.053 C 
BRANCH   2   3
ATOM      3  C   UNL     1      28.267 -19.745  26.049  1.00  0.00     0.041 C 
ATOM      4  O   UNL     1      28.445 -19.351  27.231  1.00  0.00    -0.550 OA
ATOM      5  O   UNL     1      28.954 -19.132  25.007  1.00  0.00    -0.550 OA
ENDBRANCH   2   3
ENDBRANCH   1   2
BRANCH   1   6
ATOM      6  C   UNL     1      28.141 -23.263  25.257  1.00  0.00     0.000 C 
BRANCH   6   7
ATOM      7  C   UNL     1      29.396 -22.923  24.444  1.00  0.00    -0.000 C 
BRANCH   7   8
ATOM      8  C   UNL     1      29.099 -22.939  22.940  1.00  0.00    -0.003 C 
ATOM      9  C   UNL     1      28.719 -21.549  22.438  1.00  0.00     0.004 C 
ENDBRANCH   7   8
ENDBRANCH   6   7
ENDBRANCH   1   6
TORSDOF 5
ENDMDL
MODEL 6
REMARK VINA RESULT:    -3.154      2.596      3.986
REMARK INTER + INTRA:          -4.487
REMARK INTER:                  -4.185
REMARK INTRA:                  -0.302
REMARK UNBOUND:                -0.412
REMARK SMILES CCCCCCC(=O)[O-]
REMARK SMILES IDX 5 1 6 2 7 3 8 4 9 5 4 6 3 7 2 8 1 9
REMARK H PARENT
REMARK Flexibility Score: inf
ROOT
ATOM      1  C   UNL     1      28.528 -20.928  23.803  1.00  0.00     0.006 C 
ENDROOT
BRANCH   1   2
ATOM      2  C   UNL     1      28.671 -20.889  22.276  1.00  0.00     0.053 C 
BRANCH   2   3
ATOM      3  C   UNL     1      29.908 -20.156  21.852  1.00  0.00     0.041 C 
ATOM      4  O   UNL     1      30.847 -20.773  21.286  1.00  0.00    -0.550 OA
ATOM      5  O   UNL     1      30.008 -18.785  22.054  1.00  0.00    -0.550 OA
ENDBRANCH   2   3
ENDBRANCH   1   2
BRANCH   1   6
ATOM      6  C   UNL     1      29.400 -22.019  24.442  1.00  0.00     0.000 C 
BRANCH   6   7
ATOM      7  C   UNL     1      28.545 -23.202  24.911  1.00  0.00    -0.000 C 
BRANCH   7   8
ATOM      8  C   UNL     1      28.816 -24.449  24.062  1.00  0.00    -0.003 C 
ATOM      9  C   UNL     1      30.025 -24.246  23.154  1.00  0.00     0.004 C 
ENDBRANCH   7   8
ENDBRANCH   6   7
ENDBRANCH   1   6
TORSDOF 5
ENDMDL
MODEL 7
REMARK VINA RESULT:    -3.134      1.303      1.796
REMARK INTER + INTRA:          -4.462
REMARK INTER:                  -4.205
REMARK INTRA:                  -0.257
REMARK UNBOUND:                -0.412
REMARK SMILES CCCCCCC(=O)[O-]
REMARK SMILES IDX 5 1 6 2 7 3 8 4 9 5 4 6 3 7 2 8 1 9
REMARK H PARENT
REMARK Flexibility Score: inf
ROOT
ATOM      1  C   UNL     1      29.405 -22.520  24.024  1.00  0.00     0.006 C 
ENDROOT
BRANCH   1   2
ATOM      2  C   UNL     1      28.709 -23.350  25.110  1.00  0.00     0.053 C 
BRANCH   2   3
ATOM      3  C   UNL     1      28.183 -22.488  26.217  1.00  0.00     0.041 C 
ATOM      4  O   UNL     1      27.282 -21.639  25.986  1.00  0.00    -0.550 OA
ATOM      5  O   UNL     1      28.664 -22.645  27.512  1.00  0.00    -0.550 OA
ENDBRANCH   2   3
ENDBRANCH   1   2
BRANCH   1   6
ATOM      6  C   UNL     1      28.662 -22.581  22.681  1.00  0.00     0.000 C 
BRANCH   6   7
ATOM      7  C   UNL     1      28.653 -21.210  21.994  1.00  0.00    -0.000 C 
BRANCH   7   8
ATOM      8  C   UNL     1      29.127 -20.111  22.952  1.00  0.00    -0.003 C 
ATOM      9  C   UNL     1      29.553 -18.860  22.190  1.00  0.00     0.004 C 
ENDBRANCH   7   8
ENDBRANCH   6   7
ENDBRANCH   1   6
TORSDOF 5
ENDMDL
MODEL 8
REMARK VINA RESULT:    -3.109      2.880      3.448
REMARK INTER + INTRA:          -4.430
REMARK INTER:                  -4.127
REMARK INTRA:                  -0.302
REMARK UNBOUND:                -0.412
REMARK SMILES CCCCCCC(=O)[O-]
REMARK SMILES IDX 5 1 6 2 7 3 8 4 9 5 4 6 3 7 2 8 1 9
REMARK H PARENT
REMARK Flexibility Score: inf
ROOT
ATOM      1  C   UNL     1      29.395 -21.844  24.524  1.00  0.00     0.006 C 
ENDROOT
BRANCH   1   2
ATOM      2  C   UNL     1      28.785 -23.243  24.674  1.00  0.00     0.053 C 
BRANCH   2   3
ATOM      3  C   UNL     1      29.510 -24.258  23.843  1.00  0.00     0.041 C 
ATOM      4  O   UNL     1      29.187 -25.473  23.902  1.00  0.00    -0.550 OA
ATOM      5  O   UNL     1      30.519 -23.855  22.977  1.00  0.00    -0.550 OA
ENDBRANCH   2   3
ENDBRANCH   1   2
BRANCH   1   6
ATOM      6  C   UNL     1      28.467 -20.884  23.765  1.00  0.00     0.000 C 
BRANCH   6   7
ATOM      7  C   UNL     1      28.778 -20.890  22.263  1.00  0.00    -0.000 C 
BRANCH   7   8
ATOM      8  C   UNL     1      29.954 -19.962  21.940  1.00  0.00    -0.003 C 
ATOM      9  C   UNL     1      31.122 -20.738  21.339  1.00  0.00     0.004 C 
ENDBRANCH   7   8
ENDBRANCH   6   7
ENDBRANCH   1   6
TORSDOF 5
ENDMDL
MODEL 9
REMARK VINA RESULT:    -3.024      2.519      3.889
REMARK INTER + INTRA:          -4.320
REMARK INTER:                  -3.998
REMARK INTRA:                  -0.322
REMARK UNBOUND:                -0.412
REMARK SMILES CCCCCCC(=O)[O-]
REMARK SMILES IDX 5 1 6 2 7 3 8 4 9 5 4 6 3 7 2 8 1 9
REMARK H PARENT
REMARK Flexibility Score: inf
ROOT
ATOM      1  C   UNL     1      27.713 -22.657  25.949  1.00  0.00     0.006 C 
ENDROOT
BRANCH   1   2
ATOM      2  C   UNL     1      29.090 -22.821  25.292  1.00  0.00     0.053 C 
BRANCH   2   3
ATOM      3  C   UNL     1      29.016 -23.651  24.046  1.00  0.00     0.041 C 
ATOM      4  O   UNL     1      28.740 -23.113  22.942  1.00  0.00    -0.550 OA
ATOM      5  O   UNL     1      29.284 -25.013  24.101  1.00  0.00    -0.550 OA
ENDBRANCH   2   3
ENDBRANCH   1   2
BRANCH   1   6
ATOM      6  C   UNL     1      27.162 -21.232  25.799  1.00  0.00     0.000 C 
BRANCH   6   7
ATOM      7  C   UNL     1      28.247 -20.273  25.295  1.00  0.00    -0.000 C 
BRANCH   7   8
ATOM      8  C   UNL     1      28.392 -19.066  26.230  1.00  0.00    -0.003 C 
ATOM      9  C   UNL     1      29.041 -19.467  27.551  1.00  0.00     0.004 C 
ENDBRANCH   7   8
ENDBRANCH   6   7
ENDBRANCH   1   6
TORSDOF 5
ENDMDL
