MODEL 1
REMARK VINA RESULT:    -3.787      0.000      0.000
REMARK INTER + INTRA:          -6.055
REMARK INTER:                  -5.336
REMARK INTRA:                  -0.719
REMARK UNBOUND:                -0.719
REMARK SMILES C=CCCCCCCC(=O)[O-]
REMARK SMILES IDX 6 1 7 2 8 3 9 4 10 5 11 6 5 7 4 8 3 9 2 10 1 11
REMARK H PARENT
REMARK Flexibility Score: inf
ROOT
ATOM      1  C   UNL     1       2.184  -4.472  -6.188  1.00  0.00     0.000 C 
ENDROOT
BRANCH   1   2
ATOM      2  C   UNL     1       2.260  -4.842  -7.677  1.00  0.00     0.006 C 
BRANCH   2   3
ATOM      3  C   UNL     1       0.896  -4.767  -8.377  1.00  0.00     0.053 C 
BRANCH   3   4
ATOM      4  C   UNL     1       0.492  -6.117  -8.879  1.00  0.00     0.041 C 
ATOM      5  O   UNL     1       1.330  -6.851  -9.468  1.00  0.00    -0.550 OA
ATOM      6  O   UNL     1      -0.796  -6.586  -8.655  1.00  0.00    -0.550 OA
ENDBRANCH   3   4
ENDBRANCH   2   3
ENDBRANCH   1   2
BRANCH   1   7
ATOM      7  C   UNL     1       1.155  -3.362  -5.908  1.00  0.00     0.000 C 
BRANCH   7   8
ATOM      8  C   UNL     1       1.700  -1.954  -6.211  1.00  0.00     0.004 C 
BRANCH   8   9
ATOM      9  C   UNL     1       0.782  -1.096  -7.095  1.00  0.00     0.027 C 
BRANCH   9  10
ATOM     10  C   UNL     1       1.255  -1.059  -8.523  1.00  0.00    -0.035 C 
ATOM     11  C   UNL     1       2.515  -1.350  -8.857  1.00  0.00     0.004 C 
ENDBRANCH   9  10
ENDBRANCH   8   9
ENDBRANCH   7   8
ENDBRANCH   1   7
TORSDOF 7
ENDMDL
MODEL 2
REMARK VINA RESULT:    -3.762      1.394      2.060
REMARK INTER + INTRA:          -6.020
REMARK INTER:                  -5.418
REMARK INTRA:                  -0.602
REMARK UNBOUND:                -0.719
REMARK SMILES C=CCCCCCCC(=O)[O-]
REMARK SMILES IDX 6 1 7 2 8 3 9 4 10 5 11 6 5 7 4 8 3 9 2 10 1 11
REMARK H PARENT
REMARK Flexibility Score: inf
ROOT
ATOM      1  C   UNL     1       2.529  -2.577  -6.589  1.00  0.00     0.000 C 
ENDROOT
BRANCH   1   2
ATOM      2  C   UNL     1       2.258  -4.015  -6.118  1.00  0.00     0.006 C 
BRANCH   2   3
ATOM      3  C   UNL     1       0.906  -4.553  -6.605  1.00  0.00     0.053 C 
BRANCH   3   4
ATOM      4  C   UNL     1       1.010  -5.018  -8.023  1.00  0.00     0.041 C 
ATOM      5  O   UNL     1       1.986  -5.727  -8.387  1.00  0.00    -0.550 OA
ATOM      6  O   UNL     1       0.006  -4.711  -8.933  1.00  0.00    -0.550 OA
ENDBRANCH   3   4
ENDBRANCH   2   3
ENDBRANCH   1   2
BRANCH   1   7
ATOM      7  C   UNL     1       1.548  -1.561  -5.978  1.00  0.00     0.000 C 
BRANCH   7   8
ATOM      8  C   UNL     1       0.706  -0.833  -7.042  1.00  0.00     0.004 C 
BRANCH   8   9
ATOM      9  C   UNL     1       0.931  -1.331  -8.478  1.00  0.00     0.027 C 
BRANCH   9  10
ATOM     10  C   UNL     1      -0.231  -0.999  -9.374  1.00  0.00    -0.035 C 
ATOM     11  C   UNL     1      -1.395  -0.561  -8.886  1.00  0.00     0.004 C 
ENDBRANCH   9  10
ENDBRANCH   8   9
ENDBRANCH   7   8
ENDBRANCH   1   7
TORSDOF 7
ENDMDL
MODEL 3
REMARK VINA RESULT:    -3.740      2.800      4.914
REMARK INTER + INTRA:          -5.989
REMARK INTER:                  -5.519
REMARK INTRA:                  -0.470
REMARK UNBOUND:                -0.719
REMARK SMILES C=CCCCCCCC(=O)[O-]
REMARK SMILES IDX 6 1 7 2 8 3 9 4 10 5 11 6 5 7 4 8 3 9 2 10 1 11
REMARK H PARENT
REMARK Flexibility Score: inf
ROOT
ATOM      1  C   UNL     1       2.104  -4.615  -6.441  1.00  0.00     0.000 C 
ENDROOT
BRANCH   1   2
ATOM      2  C   UNL     1       1.231  -3.459  -5.929  1.00  0.00     0.006 C 
BRANCH   2   3
ATOM      3  C   UNL     1       1.984  -2.121  -5.887  1.00  0.00     0.053 C 
BRANCH   3   4
ATOM      4  C   UNL     1       1.549  -1.243  -7.017  1.00  0.00     0.041 C 
ATOM      5  O   UNL     1       0.528  -0.514  -6.896  1.00  0.00    -0.550 OA
ATOM      6  O   UNL     1       2.297  -1.191  -8.186  1.00  0.00    -0.550 OA
ENDBRANCH   3   4
ENDBRANCH   2   3
ENDBRANCH   1   2
BRANCH   1   7
ATOM      7  C   UNL     1       1.883  -4.905  -7.936  1.00  0.00     0.000 C 
BRANCH   7   8
ATOM      8  C   UNL     1       0.511  -4.421  -8.439  1.00  0.00     0.004 C 
BRANCH   8   9
ATOM      9  C   UNL     1      -0.140  -5.339  -9.485  1.00  0.00     0.027 C 
BRANCH   9  10
ATOM     10  C   UNL     1      -0.441  -6.702  -8.922  1.00  0.00    -0.035 C 
ATOM     11  C   UNL     1      -1.689  -7.173  -8.842  1.00  0.00     0.004 C 
ENDBRANCH   9  10
ENDBRANCH   8   9
ENDBRANCH   7   8
ENDBRANCH   1   7
TORSDOF 7
ENDMDL
MODEL 4
REMARK VINA RESULT:    -3.738      2.118      3.654
REMARK INTER + INTRA:          -5.987
REMARK INTER:                  -5.300
REMARK INTRA:                  -0.687
REMARK UNBOUND:                -0.719
REMARK SMILES C=CCCCCCCC(=O)[O-]
REMARK SMILES IDX 6 1 7 2 8 3 9 4 10 5 11 6 5 7 4 8 3 9 2 10 1 11
REMARK H PARENT
REMARK Flexibility Score: inf
ROOT
ATOM      1  C   UNL     1       0.884  -1.079  -7.007  1.00  0.00     0.000 C 
ENDROOT
BRANCH   1   2
ATOM      2  C   UNL     1       1.876  -1.781  -6.066  1.00  0.00     0.006 C 
BRANCH   2   3
ATOM      3  C   UNL     1       2.620  -2.938  -6.748  1.00  0.00     0.053 C 
BRANCH   3   4
ATOM      4  C   UNL     1       2.107  -4.252  -6.252  1.00  0.00     0.041 C 
ATOM      5  O   UNL     1       2.910  -5.181  -5.970  1.00  0.00    -0.550 OA
ATOM      6  O   UNL     1       0.744  -4.437  -6.054  1.00  0.00    -0.550 OA
ENDBRANCH   3   4
ENDBRANCH   2   3
ENDBRANCH   1   2
BRANCH   1   7
ATOM      7  C   UNL     1       1.099  -1.461  -8.482  1.00  0.00     0.000 C 
BRANCH   7   8
ATOM      8  C   UNL     1      -0.194  -1.373  -9.314  1.00  0.00     0.004 C 
BRANCH   8   9
ATOM      9  C   UNL     1      -0.835  -2.733  -9.634  1.00  0.00     0.027 C 
BRANCH   9  10
ATOM     10  C   UNL     1       0.156  -3.859  -9.518  1.00  0.00    -0.035 C 
ATOM     11  C   UNL     1      -0.233  -5.129  -9.373  1.00  0.00     0.004 C 
ENDBRANCH   9  10
ENDBRANCH   8   9
ENDBRANCH   7   8
ENDBRANCH   1   7
TORSDOF 7
ENDMDL
MODEL 5
REMARK VINA RESULT:    -3.731      2.709      4.432
REMARK INTER + INTRA:          -5.977
REMARK INTER:                  -5.402
REMARK INTRA:                  -0.575
REMARK UNBOUND:                -0.719
REMARK SMILES C=CCCCCCCC(=O)[O-]
REMARK SMILES IDX 6 1 7 2 8 3 9 4 10 5 11 6 5 7 4 8 3 9 2 10 1 11
REMARK H PARENT
REMARK Flexibility Score: inf
ROOT
ATOM      1  C   UNL     1       1.260  -3.160  -5.679  1.00  0.00     0.000 C 
ENDROOT
BRANCH   1   2
ATOM      2  C   UNL     1       1.777  -1.964  -6.496  1.00  0.00     0.006 C 
BRANCH   2   3
ATOM      3  C   UNL     1       0.642  -1.099  -7.062  1.00  0.00     0.053 C 
BRANCH   3   4
ATOM      4  C   UNL     1       0.842  -0.871  -8.526  1.00  0.00     0.041 C 
ATOM      5  O   UNL     1       0.907  -1.849  -9.318  1.00  0.00    -0.550 OA
ATOM      6  O   UNL     1       0.909   0.424  -9.027  1.00  0.00    -0.550 OA
ENDBRANCH   3   4
ENDBRANCH   2   3
ENDBRANCH   1   2
BRANCH   1   7
ATOM      7  C   UNL     1       1.914  -4.488  -6.099  1.00  0.00     0.000 C 
BRANCH   7   8
ATOM      8  C   UNL     1       2.577  -4.412  -7.487  1.00  0.00     0.004 C 
BRANCH   8   9
ATOM      9  C   UNL     1       1.854  -5.216  -8.579  1.00  0.00     0.027 C 
BRANCH   9  10
ATOM     10  C   UNL     1       0.391  -5.389  -8.270  1.00  0.00    -0.035 C 
ATOM     11  C   UNL     1      -0.362  -6.293  -8.903  1.00  0.00     0.004 C 
ENDBRANCH   9  10
ENDBRANCH   8   9
ENDBRANCH   7   8
ENDBRANCH   1   7
TORSDOF 7
ENDMDL
MODEL 6
REMARK VINA RESULT:    -3.694      1.544      2.770
REMARK INTER + INTRA:          -5.924
REMARK INTER:                  -5.036
REMARK INTRA:                  -0.887
REMARK UNBOUND:                -0.719
REMARK SMILES C=CCCCCCCC(=O)[O-]
REMARK SMILES IDX 6 1 7 2 8 3 9 4 10 5 11 6 5 7 4 8 3 9 2 10 1 11
REMARK H PARENT
REMARK Flexibility Score: inf
ROOT
ATOM      1  C   UNL     1       1.442  -1.135  -6.288  1.00  0.00     0.000 C 
ENDROOT
BRANCH   1   2
ATOM      2  C   UNL     1       2.079  -2.489  -5.939  1.00  0.00     0.006 C 
BRANCH   2   3
ATOM      3  C   UNL     1       1.100  -3.662  -6.095  1.00  0.00     0.053 C 
BRANCH   3   4
ATOM      4  C   UNL     1       1.697  -4.727  -6.959  1.00  0.00     0.041 C 
ATOM      5  O   UNL     1       2.834  -5.198  -6.690  1.00  0.00    -0.550 OA
ATOM      6  O   UNL     1       0.979  -5.236  -8.034  1.00  0.00    -0.550 OA
ENDBRANCH   3   4
ENDBRANCH   2   3
ENDBRANCH   1   2
BRANCH   1   7
ATOM      7  C   UNL     1       0.506  -1.220  -7.507  1.00  0.00     0.000 C 
BRANCH   7   8
ATOM      8  C   UNL     1       1.221  -0.892  -8.831  1.00  0.00     0.004 C 
BRANCH   8   9
ATOM      9  C   UNL     1       1.633  -2.124  -9.651  1.00  0.00     0.027 C 
BRANCH   9  10
ATOM     10  C   UNL     1       3.102  -2.422  -9.515  1.00  0.00    -0.035 C 
ATOM     11  C   UNL     1       3.968  -1.509  -9.064  1.00  0.00     0.004 C 
ENDBRANCH   9  10
ENDBRANCH   8   9
ENDBRANCH   7   8
ENDBRANCH   1   7
TORSDOF 7
ENDMDL
MODEL 7
REMARK VINA RESULT:    -3.647      2.922      4.432
REMARK INTER + INTRA:          -5.858
REMARK INTER:                  -5.224
REMARK INTRA:                  -0.634
REMARK UNBOUND:                -0.719
REMARK SMILES C=CCCCCCCC(=O)[O-]
REMARK SMILES IDX 6 1 7 2 8 3 9 4 10 5 11 6 5 7 4 8 3 9 2 10 1 11
REMARK H PARENT
REMARK Flexibility Score: inf
ROOT
ATOM      1  C   UNL     1       1.907  -4.426  -5.983  1.00  0.00     0.000 C 
ENDROOT
BRANCH   1   2
ATOM      2  C   UNL     1       2.632  -3.155  -6.455  1.00  0.00     0.006 C 
BRANCH   2   3
ATOM      3  C   UNL     1       1.945  -1.869  -5.974  1.00  0.00     0.053 C 
BRANCH   3   4
ATOM      4  C   UNL     1       1.392  -1.109  -7.137  1.00  0.00     0.041 C 
ATOM      5  O   UNL     1       0.328  -0.444  -7.011  1.00  0.00    -0.550 OA
ATOM      6  O   UNL     1       2.074  -1.092  -8.347  1.00  0.00    -0.550 OA
ENDBRANCH   3   4
ENDBRANCH   2   3
ENDBRANCH   1   2
BRANCH   1   7
ATOM      7  C   UNL     1       0.743  -4.819  -6.908  1.00  0.00     0.000 C 
BRANCH   7   8
ATOM      8  C   UNL     1       1.046  -4.551  -8.394  1.00  0.00     0.004 C 
BRANCH   8   9
ATOM      9  C   UNL     1       1.381  -5.810  -9.209  1.00  0.00     0.027 C 
BRANCH   9  10
ATOM     10  C   UNL     1       2.759  -5.738  -9.809  1.00  0.00    -0.035 C 
ATOM     11  C   UNL     1       3.510  -4.637  -9.722  1.00  0.00     0.004 C 
ENDBRANCH   9  10
ENDBRANCH   8   9
ENDBRANCH   7   8
ENDBRANCH   1   7
TORSDOF 7
ENDMDL
MODEL 8
REMARK VINA RESULT:    -3.624      2.956      3.940
REMARK INTER + INTRA:          -5.826
REMARK INTER:                  -4.970
REMARK INTRA:                  -0.856
REMARK UNBOUND:                -0.719
REMARK SMILES C=CCCCCCCC(=O)[O-]
REMARK SMILES IDX 6 1 7 2 8 3 9 4 10 5 11 6 5 7 4 8 3 9 2 10 1 11
REMARK H PARENT
REMARK Flexibility Score: inf
ROOT
ATOM      1  C   UNL     1       0.676  -4.964  -7.654  1.00  0.00     0.000 C 
ENDROOT
BRANCH   1   2
ATOM      2  C   UNL     1       1.648  -4.434  -6.587  1.00  0.00     0.006 C 
BRANCH   2   3
ATOM      3  C   UNL     1       1.134  -3.162  -5.899  1.00  0.00     0.053 C 
BRANCH   3   4
ATOM      4  C   UNL     1       1.893  -1.966  -6.380  1.00  0.00     0.041 C 
ATOM      5  O   UNL     1       2.865  -2.108  -7.169  1.00  0.00    -0.550 OA
ATOM      6  O   UNL     1       1.498  -0.690  -5.997  1.00  0.00    -0.550 OA
ENDBRANCH   3   4
ENDBRANCH   2   3
ENDBRANCH   1   2
BRANCH   1   7
ATOM      7  C   UNL     1       1.277  -4.927  -9.070  1.00  0.00     0.000 C 
BRANCH   7   8
ATOM      8  C   UNL     1       1.060  -3.574  -9.774  1.00  0.00     0.004 C 
BRANCH   8   9
ATOM      9  C   UNL     1      -0.262  -2.878  -9.415  1.00  0.00     0.027 C 
BRANCH   9  10
ATOM     10  C   UNL     1      -0.125  -1.380  -9.417  1.00  0.00    -0.035 C 
ATOM     11  C   UNL     1      -0.906  -0.598  -8.667  1.00  0.00     0.004 C 
ENDBRANCH   9  10
ENDBRANCH   8   9
ENDBRANCH   7   8
ENDBRANCH   1   7
TORSDOF 7
ENDMDL
MODEL 9
REMARK VINA RESULT:    -3.570      1.908      2.567
REMARK INTER + INTRA:          -5.749
REMARK INTER:                  -5.028
REMARK INTRA:                  -0.722
REMARK UNBOUND:                -0.719
REMARK SMILES C=CCCCCCCC(=O)[O-]
REMARK SMILES IDX 6 1 7 2 8 3 9 4 10 5 11 6 5 7 4 8 3 9 2 10 1 11
REMARK H PARENT
REMARK Flexibility Score: inf
ROOT
ATOM      1  C   UNL     1       0.757  -4.833  -7.194  1.00  0.00     0.000 C 
ENDROOT
BRANCH   1   2
ATOM      2  C   UNL     1       1.277  -5.301  -8.563  1.00  0.00     0.006 C 
BRANCH   2   3
ATOM      3  C   UNL     1       2.166  -4.254  -9.248  1.00  0.00     0.053 C 
BRANCH   3   4
ATOM      4  C   UNL     1       3.534  -4.809  -9.488  1.00  0.00     0.041 C 
ATOM      5  O   UNL     1       4.431  -4.085  -9.998  1.00  0.00    -0.550 OA
ATOM      6  O   UNL     1       3.835  -6.110  -9.106  1.00  0.00    -0.550 OA
ENDBRANCH   3   4
ENDBRANCH   2   3
ENDBRANCH   1   2
BRANCH   1   7
ATOM      7  C   UNL     1       1.888  -4.364  -6.262  1.00  0.00     0.000 C 
BRANCH   7   8
ATOM      8  C   UNL     1       1.583  -3.012  -5.591  1.00  0.00     0.004 C 
BRANCH   8   9
ATOM      9  C   UNL     1       1.953  -1.785  -6.439  1.00  0.00     0.027 C 
BRANCH   9  10
ATOM     10  C   UNL     1       0.733  -1.037  -6.903  1.00  0.00    -0.035 C 
ATOM     11  C   UNL     1       0.270  -1.147  -8.151  1.00  0.00     0.004 C 
ENDBRANCH   9  10
ENDBRANCH   8   9
ENDBRANCH   7   8
ENDBRANCH   1   7
TORSDOF 7
ENDMDL
