MODEL 1
REMARK VINA RESULT:     4.154      0.000      0.000
REMARK INTER + INTRA:           5.515
REMARK INTER:                   5.004
REMARK INTRA:                   0.511
REMARK UNBOUND:                 0.511
REMARK SMILES O=c1c(O)c(-c2ccc(O)c(O)c2)oc2cc(O)cc(O)c12
REMARK SMILES IDX 5 1 3 2 2 3 1 4 22 5 20 6 19 7 17 8 16 9 15 10 14 11 6 12
REMARK SMILES IDX 7 13 8 14 9 15 13 16 11 17 10 18 12 20 4 22 21 24 18 26
REMARK H PARENT 10 19 12 21 4 23 21 25 18 27
REMARK Flexibility Score: inf
ROOT
ATOM      1  C   UNL     1      27.086  18.299  35.676  1.00  0.00     0.180 A 
ATOM      2  C   UNL     1      28.237  17.670  36.182  1.00  0.00     0.208 A 
ATOM      3  C   UNL     1      29.468  17.884  35.542  1.00  0.00     0.238 A 
ATOM      4  O   UNL     1      30.502  17.361  36.032  1.00  0.00    -0.285 OA
ATOM      5  C   UNL     1      29.531  18.711  34.394  1.00  0.00     0.111 A 
ATOM      6  C   UNL     1      30.718  18.966  33.643  1.00  0.00     0.134 A 
ATOM      7  C   UNL     1      30.690  19.903  32.603  1.00  0.00     0.093 A 
ATOM      8  C   UNL     1      29.505  20.546  32.246  1.00  0.00     0.123 A 
ATOM      9  C   UNL     1      28.326  20.261  32.936  1.00  0.00     0.094 A 
ATOM     10  C   UNL     1      28.331  19.357  34.001  1.00  0.00     0.146 A 
ATOM     11  O   UNL     1      27.190  19.121  34.637  1.00  0.00    -0.452 OA
ENDROOT
BRANCH   1  12
ATOM     12  C   UNL     1      25.750  18.102  36.281  1.00  0.00     0.025 A 
ATOM     13  C   UNL     1      25.569  17.098  37.245  1.00  0.00     0.016 A 
ATOM     14  C   UNL     1      24.321  16.908  37.845  1.00  0.00     0.051 A 
ATOM     15  C   UNL     1      23.241  17.728  37.503  1.00  0.00     0.157 A 
ATOM     16  C   UNL     1      24.668  18.938  35.954  1.00  0.00     0.062 A 
ATOM     17  C   UNL     1      23.415  18.751  36.556  1.00  0.00     0.158 A 
BRANCH  15  18
ATOM     18  O   UNL     1      22.007  17.514  38.116  1.00  0.00    -0.504 OA
ATOM     19  H   UNL     1      21.862  17.679  39.105  1.00  0.00     0.293 HD
ENDBRANCH  15  18
BRANCH  17  20
ATOM     20  O   UNL     1      22.345  19.581  36.222  1.00  0.00    -0.504 OA
ATOM     21  H   UNL     1      22.284  20.533  36.566  1.00  0.00     0.293 HD
ENDBRANCH  17  20
ENDBRANCH   1  12
BRANCH   2  22
ATOM     22  O   UNL     1      28.155  16.875  37.329  1.00  0.00    -0.502 OA
ATOM     23  H   UNL     1      28.889  16.850  38.026  1.00  0.00     0.293 HD
ENDBRANCH   2  22
BRANCH   6  24
ATOM     24  O   UNL     1      31.934  18.308  33.858  1.00  0.00    -0.507 OA
ATOM     25  H   UNL     1      32.071  17.313  33.773  1.00  0.00     0.293 HD
ENDBRANCH   6  24
BRANCH   8  26
ATOM     26  O   UNL     1      29.511  21.462  31.196  1.00  0.00    -0.508 OA
ATOM     27  H   UNL     1      30.373  21.868  30.851  1.00  0.00     0.293 HD
ENDBRANCH   8  26
TORSDOF 6
ENDMDL
