MODEL 1
REMARK VINA RESULT:    -5.403      0.000      0.000
REMARK INTER + INTRA:          -8.050
REMARK INTER:                  -8.245
REMARK INTRA:                   0.195
REMARK UNBOUND:                 0.195
REMARK SMILES CC1=CCC[C@@H](C)C(=O)C[C@H](C(C)C)C(=O)C1
REMARK SMILES IDX 8 1 9 2 6 3 7 4 5 5 4 6 3 7 2 8 1 9 10 11 11 12 15 13 16 14
REMARK SMILES IDX 17 15 12 17 13 18 14 19
REMARK H PARENT
REMARK Flexibility Score: 70.00
ROOT
ATOM      1  C   UNL     1      -3.528 -11.617  28.617  1.00  0.00     0.136 C 
ATOM      2  O   UNL     1      -3.239 -10.548  29.136  1.00  0.00    -0.299 OA
ENDROOT
BRANCH   1   3
ATOM      3  C   UNL     1      -2.578 -12.170  27.560  1.00  0.00     0.053 C 
ATOM      4  C   UNL     1      -3.009 -11.723  26.152  1.00  0.00     0.016 C 
BRANCH   3   5
ATOM      5  C   UNL     1      -2.194 -13.679  27.630  1.00  0.00     0.015 C 
BRANCH   5   6
ATOM      6  C   UNL     1      -1.086 -14.150  28.599  1.00  0.00     0.028 C 
BRANCH   6   7
ATOM      7  C   UNL     1      -0.581 -13.091  29.544  1.00  0.00    -0.028 C 
ATOM      8  C   UNL     1      -1.050 -12.867  30.794  1.00  0.00    -0.070 CG0
ATOM      9  C   UNL     1      -0.411 -11.763  31.598  1.00  0.00     0.039 C 
ATOM     10  G   UNL     1      -2.151 -13.691  31.439  1.00  0.00     0.000 G0
ENDBRANCH   6   7
ENDBRANCH   5   6
ENDBRANCH   3   5
ENDBRANCH   1   3
BRANCH   1  11
ATOM     11  C   UNL     1      -4.769 -12.319  29.125  1.00  0.00     0.087 C 
BRANCH  11  12
ATOM     12  C   UNL     1      -4.432 -13.513  30.056  1.00  0.00     0.066 C 
BRANCH  12  13
ATOM     13  C   UNL     1      -3.522 -13.087  31.205  1.00  0.00     0.140 C 
ATOM     14  O   UNL     1      -3.905 -12.197  31.952  1.00  0.00    -0.299 OA
BRANCH  13  15
ATOM     15  C   UNL     1      -2.159 -13.694  31.455  1.00  0.00     0.106 CG0
ATOM     16  G   UNL     1      -1.059 -12.862  30.818  1.00  0.00     0.000 G0
ENDBRANCH  13  15
ENDBRANCH  12  13
BRANCH  12  17
ATOM     17  C   UNL     1      -5.705 -14.275  30.546  1.00  0.00    -0.006 C 
ATOM     18  C   UNL     1      -6.255 -15.229  29.469  1.00  0.00     0.008 C 
ATOM     19  C   UNL     1      -5.415 -15.087  31.823  1.00  0.00     0.008 C 
ENDBRANCH  12  17
ENDBRANCH  11  12
ENDBRANCH   1  11
TORSDOF 1
ENDMDL
MODEL 2
REMARK VINA RESULT:    -5.098      1.774      3.513
REMARK INTER + INTRA:          -7.584
REMARK INTER:                  -7.918
REMARK INTRA:                   0.334
REMARK UNBOUND:                 0.195
REMARK SMILES CC1=CCC[C@@H](C)C(=O)C[C@H](C(C)C)C(=O)C1
REMARK SMILES IDX 8 1 9 2 6 3 7 4 5 5 4 6 3 7 2 8 1 9 10 11 11 12 15 13 16 14
REMARK SMILES IDX 17 15 12 17 13 18 14 19
REMARK H PARENT
REMARK Flexibility Score: 70.00
ROOT
ATOM      1  C   UNL     1      -1.765 -11.630  30.897  1.00  0.00     0.136 C 
ATOM      2  O   UNL     1      -1.383 -10.682  30.225  1.00  0.00    -0.299 OA
ENDROOT
BRANCH   1   3
ATOM      3  C   UNL     1      -0.827 -12.824  31.033  1.00  0.00     0.053 C 
ATOM      4  C   UNL     1       0.427 -12.442  31.839  1.00  0.00     0.016 C 
BRANCH   3   5
ATOM      5  C   UNL     1      -0.501 -13.656  29.756  1.00  0.00     0.015 C 
BRANCH   5   6
ATOM      6  C   UNL     1      -1.610 -13.945  28.719  1.00  0.00     0.028 C 
BRANCH   6   7
ATOM      7  C   UNL     1      -1.774 -12.888  27.658  1.00  0.00    -0.028 C 
ATOM      8  C   UNL     1      -2.926 -12.237  27.371  1.00  0.00    -0.070 CG0
ATOM      9  C   UNL     1      -2.895 -11.199  26.278  1.00  0.00     0.039 C 
ATOM     10  G   UNL     1      -4.230 -12.470  28.114  1.00  0.00     0.000 G0
ENDBRANCH   6   7
ENDBRANCH   5   6
ENDBRANCH   3   5
ENDBRANCH   1   3
BRANCH   1  11
ATOM     11  C   UNL     1      -3.107 -11.493  31.582  1.00  0.00     0.087 C 
BRANCH  11  12
ATOM     12  C   UNL     1      -4.251 -12.168  30.781  1.00  0.00     0.066 C 
BRANCH  12  13
ATOM     13  C   UNL     1      -4.344 -11.611  29.362  1.00  0.00     0.140 C 
ATOM     14  O   UNL     1      -4.535 -10.411  29.219  1.00  0.00    -0.299 OA
BRANCH  13  15
ATOM     15  C   UNL     1      -4.236 -12.471  28.123  1.00  0.00     0.106 CG0
ATOM     16  G   UNL     1      -2.929 -12.225  27.391  1.00  0.00     0.000 G0
ENDBRANCH  13  15
ENDBRANCH  12  13
BRANCH  12  17
ATOM     17  C   UNL     1      -4.172 -13.728  30.811  1.00  0.00    -0.006 C 
ATOM     18  C   UNL     1      -4.037 -14.269  32.247  1.00  0.00     0.008 C 
ATOM     19  C   UNL     1      -5.413 -14.364  30.158  1.00  0.00     0.008 C 
ENDBRANCH  12  17
ENDBRANCH  11  12
ENDBRANCH   1  11
TORSDOF 1
ENDMDL
MODEL 3
REMARK VINA RESULT:    -4.686      1.636      4.007
REMARK INTER + INTRA:          -6.956
REMARK INTER:                  -7.069
REMARK INTRA:                   0.113
REMARK UNBOUND:                 0.195
REMARK SMILES CC1=CCC[C@@H](C)C(=O)C[C@H](C(C)C)C(=O)C1
REMARK SMILES IDX 8 1 9 2 6 3 7 4 5 5 4 6 3 7 2 8 1 9 10 11 11 12 15 13 16 14
REMARK SMILES IDX 17 15 12 17 13 18 14 19
REMARK H PARENT
REMARK Flexibility Score: 70.00
ROOT
ATOM      1  C   UNL     1      -5.055 -13.827  28.873  1.00  0.00     0.136 C 
ATOM      2  O   UNL     1      -5.720 -12.874  28.491  1.00  0.00    -0.299 OA
ENDROOT
BRANCH   1   3
ATOM      3  C   UNL     1      -5.753 -14.881  29.724  1.00  0.00     0.053 C 
ATOM      4  C   UNL     1      -7.146 -15.206  29.154  1.00  0.00     0.016 C 
BRANCH   3   5
ATOM      5  C   UNL     1      -5.756 -14.697  31.271  1.00  0.00     0.015 C 
BRANCH   5   6
ATOM      6  C   UNL     1      -4.439 -14.376  32.014  1.00  0.00     0.028 C 
BRANCH   6   7
ATOM      7  C   UNL     1      -4.107 -12.910  32.104  1.00  0.00    -0.028 C 
ATOM      8  C   UNL     1      -2.943 -12.344  31.706  1.00  0.00    -0.070 CG0
ATOM      9  C   UNL     1      -2.794 -10.852  31.868  1.00  0.00     0.039 C 
ATOM     10  G   UNL     1      -1.801 -13.123  31.076  1.00  0.00     0.000 G0
ENDBRANCH   6   7
ENDBRANCH   5   6
ENDBRANCH   3   5
ENDBRANCH   1   3
BRANCH   1  11
ATOM     11  C   UNL     1      -3.618 -13.897  28.405  1.00  0.00     0.087 C 
BRANCH  11  12
ATOM     12  C   UNL     1      -2.845 -12.579  28.673  1.00  0.00     0.066 C 
BRANCH  12  13
ATOM     13  C   UNL     1      -1.650 -12.809  29.595  1.00  0.00     0.140 C 
ATOM     14  O   UNL     1      -0.526 -12.756  29.116  1.00  0.00    -0.299 OA
BRANCH  13  15
ATOM     15  C   UNL     1      -1.786 -13.123  31.068  1.00  0.00     0.106 CG0
ATOM     16  G   UNL     1      -2.931 -12.347  31.695  1.00  0.00     0.000 G0
ENDBRANCH  13  15
ENDBRANCH  12  13
BRANCH  12  17
ATOM     17  C   UNL     1      -2.455 -11.829  27.358  1.00  0.00    -0.006 C 
ATOM     18  C   UNL     1      -3.163 -12.422  26.126  1.00  0.00     0.008 C 
ATOM     19  C   UNL     1      -2.793 -10.329  27.449  1.00  0.00     0.008 C 
ENDBRANCH  12  17
ENDBRANCH  11  12
ENDBRANCH   1  11
TORSDOF 1
ENDMDL
MODEL 4
REMARK VINA RESULT:    -4.647      1.824      2.390
REMARK INTER + INTRA:          -6.897
REMARK INTER:                  -7.438
REMARK INTRA:                   0.541
REMARK UNBOUND:                 0.195
REMARK SMILES CC1=CCC[C@@H](C)C(=O)C[C@H](C(C)C)C(=O)C1
REMARK SMILES IDX 8 1 9 2 6 3 7 4 5 5 4 6 3 7 2 8 1 9 10 11 11 12 15 13 16 14
REMARK SMILES IDX 17 15 12 17 13 18 14 19
REMARK H PARENT
REMARK Flexibility Score: 70.00
ROOT
ATOM      1  C   UNL     1      -4.078 -13.450  27.584  1.00  0.00     0.136 C 
ATOM      2  O   UNL     1      -4.469 -14.369  26.879  1.00  0.00    -0.299 OA
ENDROOT
BRANCH   1   3
ATOM      3  C   UNL     1      -2.797 -12.736  27.169  1.00  0.00     0.053 C 
ATOM      4  C   UNL     1      -1.585 -13.308  27.926  1.00  0.00     0.016 C 
BRANCH   3   5
ATOM      5  C   UNL     1      -2.804 -11.178  27.118  1.00  0.00     0.015 C 
BRANCH   5   6
ATOM      6  C   UNL     1      -3.337 -10.368  28.321  1.00  0.00     0.028 C 
BRANCH   6   7
ATOM      7  C   UNL     1      -2.401 -10.299  29.499  1.00  0.00    -0.028 C 
ATOM      8  C   UNL     1      -2.663 -10.777  30.739  1.00  0.00    -0.070 CG0
ATOM      9  C   UNL     1      -1.596 -10.624  31.793  1.00  0.00     0.039 C 
ATOM     10  G   UNL     1      -3.953 -11.490  31.109  1.00  0.00     0.000 G0
ENDBRANCH   6   7
ENDBRANCH   5   6
ENDBRANCH   3   5
ENDBRANCH   1   3
BRANCH   1  11
ATOM     11  C   UNL     1      -4.944 -13.069  28.765  1.00  0.00     0.087 C 
BRANCH  11  12
ATOM     12  C   UNL     1      -4.577 -13.861  30.047  1.00  0.00     0.066 C 
BRANCH  12  13
ATOM     13  C   UNL     1      -3.790 -12.998  31.031  1.00  0.00     0.140 C 
ATOM     14  O   UNL     1      -3.010 -13.551  31.794  1.00  0.00    -0.299 OA
BRANCH  13  15
ATOM     15  C   UNL     1      -3.942 -11.497  31.127  1.00  0.00     0.106 CG0
ATOM     16  G   UNL     1      -2.659 -10.785  30.735  1.00  0.00     0.000 G0
ENDBRANCH  13  15
ENDBRANCH  12  13
BRANCH  12  17
ATOM     17  C   UNL     1      -5.814 -14.551  30.707  1.00  0.00    -0.006 C 
ATOM     18  C   UNL     1      -6.575 -15.443  29.709  1.00  0.00     0.008 C 
ATOM     19  C   UNL     1      -5.397 -15.406  31.918  1.00  0.00     0.008 C 
ENDBRANCH  12  17
ENDBRANCH  11  12
ENDBRANCH   1  11
TORSDOF 1
ENDMDL
MODEL 5
REMARK VINA RESULT:    -4.600      1.963      3.772
REMARK INTER + INTRA:          -6.825
REMARK INTER:                  -7.539
REMARK INTRA:                   0.714
REMARK UNBOUND:                 0.195
REMARK SMILES CC1=CCC[C@@H](C)C(=O)C[C@H](C(C)C)C(=O)C1
REMARK SMILES IDX 8 1 9 2 6 3 7 4 5 5 4 6 3 7 2 8 1 9 10 11 11 12 15 13 16 14
REMARK SMILES IDX 17 15 12 17 13 18 14 19
REMARK H PARENT
REMARK Flexibility Score: 70.00
ROOT
ATOM      1  C   UNL     1      -2.111 -13.436  28.111  1.00  0.00     0.136 C 
ATOM      2  O   UNL     1      -1.402 -14.430  28.182  1.00  0.00    -0.299 OA
ENDROOT
BRANCH   1   3
ATOM      3  C   UNL     1      -3.270 -13.462  27.120  1.00  0.00     0.053 C 
ATOM      4  C   UNL     1      -3.409 -12.105  26.408  1.00  0.00     0.016 C 
BRANCH   3   5
ATOM      5  C   UNL     1      -4.635 -14.043  27.597  1.00  0.00     0.015 C 
BRANCH   5   6
ATOM      6  C   UNL     1      -5.272 -13.538  28.912  1.00  0.00     0.028 C 
BRANCH   6   7
ATOM      7  C   UNL     1      -5.407 -14.582  29.989  1.00  0.00    -0.028 C 
ATOM      8  C   UNL     1      -5.027 -14.431  31.280  1.00  0.00    -0.070 CG0
ATOM      9  C   UNL     1      -5.250 -15.589  32.220  1.00  0.00     0.039 C 
ATOM     10  G   UNL     1      -4.427 -13.151  31.835  1.00  0.00     0.000 G0
ENDBRANCH   6   7
ENDBRANCH   5   6
ENDBRANCH   3   5
ENDBRANCH   1   3
BRANCH   1  11
ATOM     11  C   UNL     1      -1.807 -12.302  29.065  1.00  0.00     0.087 C 
BRANCH  11  12
ATOM     12  C   UNL     1      -3.033 -11.917  29.935  1.00  0.00     0.066 C 
BRANCH  12  13
ATOM     13  C   UNL     1      -3.113 -12.770  31.198  1.00  0.00     0.140 C 
ATOM     14  O   UNL     1      -2.072 -13.192  31.682  1.00  0.00    -0.299 OA
BRANCH  13  15
ATOM     15  C   UNL     1      -4.416 -13.142  31.869  1.00  0.00     0.106 CG0
ATOM     16  G   UNL     1      -5.001 -14.411  31.275  1.00  0.00     0.000 G0
ENDBRANCH  13  15
ENDBRANCH  12  13
BRANCH  12  17
ATOM     17  C   UNL     1      -3.103 -10.385  30.237  1.00  0.00    -0.006 C 
ATOM     18  C   UNL     1      -4.555  -9.876  30.288  1.00  0.00     0.008 C 
ATOM     19  C   UNL     1      -2.412 -10.046  31.571  1.00  0.00     0.008 C 
ENDBRANCH  12  17
ENDBRANCH  11  12
ENDBRANCH   1  11
TORSDOF 1
ENDMDL
MODEL 6
REMARK VINA RESULT:    -4.538      2.224      4.047
REMARK INTER + INTRA:          -6.730
REMARK INTER:                  -7.153
REMARK INTRA:                   0.423
REMARK UNBOUND:                 0.195
REMARK SMILES CC1=CCC[C@@H](C)C(=O)C[C@H](C(C)C)C(=O)C1
REMARK SMILES IDX 8 1 9 2 6 3 7 4 5 5 4 6 3 7 2 8 1 9 10 11 11 12 15 13 16 14
REMARK SMILES IDX 17 15 12 17 13 18 14 19
REMARK H PARENT
REMARK Flexibility Score: 70.00
ROOT
ATOM      1  C   UNL     1      -1.329 -13.471  29.738  1.00  0.00     0.136 C 
ATOM      2  O   UNL     1      -0.240 -13.196  29.255  1.00  0.00    -0.299 OA
ENDROOT
BRANCH   1   3
ATOM      3  C   UNL     1      -1.493 -13.315  31.246  1.00  0.00     0.053 C 
ATOM      4  C   UNL     1      -2.886 -13.792  31.695  1.00  0.00     0.016 C 
BRANCH   3   5
ATOM      5  C   UNL     1      -1.073 -11.963  31.897  1.00  0.00     0.015 C 
BRANCH   5   6
ATOM      6  C   UNL     1      -1.425 -10.628  31.202  1.00  0.00     0.028 C 
BRANCH   6   7
ATOM      7  C   UNL     1      -2.901 -10.347  31.085  1.00  0.00    -0.028 C 
ATOM      8  C   UNL     1      -3.569 -10.135  29.926  1.00  0.00    -0.070 CG0
ATOM      9  C   UNL     1      -5.052  -9.877  30.006  1.00  0.00     0.039 C 
ATOM     10  G   UNL     1      -2.913 -10.182  28.557  1.00  0.00     0.000 G0
ENDBRANCH   6   7
ENDBRANCH   5   6
ENDBRANCH   3   5
ENDBRANCH   1   3
BRANCH   1  11
ATOM     11  C   UNL     1      -2.428 -13.876  28.780  1.00  0.00     0.087 C 
BRANCH  11  12
ATOM     12  C   UNL     1      -3.541 -12.801  28.670  1.00  0.00     0.066 C 
BRANCH  12  13
ATOM     13  C   UNL     1      -3.055 -11.568  27.912  1.00  0.00     0.140 C 
ATOM     14  O   UNL     1      -2.759 -11.689  26.732  1.00  0.00    -0.299 OA
BRANCH  13  15
ATOM     15  C   UNL     1      -2.898 -10.207  28.554  1.00  0.00     0.106 CG0
ATOM     16  G   UNL     1      -3.582 -10.153  29.909  1.00  0.00     0.000 G0
ENDBRANCH  13  15
ENDBRANCH  12  13
BRANCH  12  17
ATOM     17  C   UNL     1      -4.878 -13.372  28.096  1.00  0.00    -0.006 C 
ATOM     18  C   UNL     1      -4.631 -14.391  26.969  1.00  0.00     0.008 C 
ATOM     19  C   UNL     1      -5.716 -14.047  29.198  1.00  0.00     0.008 C 
ENDBRANCH  12  17
ENDBRANCH  11  12
ENDBRANCH   1  11
TORSDOF 1
ENDMDL
MODEL 7
REMARK VINA RESULT:    -4.500      1.706      3.764
REMARK INTER + INTRA:          -6.672
REMARK INTER:                  -7.310
REMARK INTRA:                   0.638
REMARK UNBOUND:                 0.195
REMARK SMILES CC1=CCC[C@@H](C)C(=O)C[C@H](C(C)C)C(=O)C1
REMARK SMILES IDX 8 1 9 2 6 3 7 4 5 5 4 6 3 7 2 8 1 9 10 11 11 12 15 13 16 14
REMARK SMILES IDX 17 15 12 17 13 18 14 19
REMARK H PARENT
REMARK Flexibility Score: 70.00
ROOT
ATOM      1  C   UNL     1      -4.371 -12.673  28.585  1.00  0.00     0.136 C 
ATOM      2  O   UNL     1      -5.161 -11.748  28.709  1.00  0.00    -0.299 OA
ENDROOT
BRANCH   1   3
ATOM      3  C   UNL     1      -4.804 -14.045  29.087  1.00  0.00     0.053 C 
ATOM      4  C   UNL     1      -6.033 -14.547  28.309  1.00  0.00     0.016 C 
BRANCH   3   5
ATOM      5  C   UNL     1      -4.927 -14.263  30.626  1.00  0.00     0.015 C 
BRANCH   5   6
ATOM      6  C   UNL     1      -3.891 -13.629  31.581  1.00  0.00     0.028 C 
BRANCH   6   7
ATOM      7  C   UNL     1      -4.289 -12.290  32.146  1.00  0.00    -0.028 C 
ATOM      8  C   UNL     1      -3.561 -11.152  32.056  1.00  0.00    -0.070 CG0
ATOM      9  C   UNL     1      -4.128  -9.902  32.678  1.00  0.00     0.039 C 
ATOM     10  G   UNL     1      -2.228 -11.064  31.332  1.00  0.00     0.000 G0
ENDBRANCH   6   7
ENDBRANCH   5   6
ENDBRANCH   3   5
ENDBRANCH   1   3
BRANCH   1  11
ATOM     11  C   UNL     1      -3.064 -12.375  27.883  1.00  0.00     0.087 C 
BRANCH  11  12
ATOM     12  C   UNL     1      -1.927 -12.020  28.877  1.00  0.00     0.066 C 
BRANCH  12  13
ATOM     13  C   UNL     1      -2.361 -10.934  29.859  1.00  0.00     0.140 C 
ATOM     14  O   UNL     1      -2.840  -9.902  29.410  1.00  0.00    -0.299 OA
BRANCH  13  15
ATOM     15  C   UNL     1      -2.208 -11.059  31.358  1.00  0.00     0.106 CG0
ATOM     16  G   UNL     1      -3.559 -11.147  32.046  1.00  0.00     0.000 G0
ENDBRANCH  13  15
ENDBRANCH  12  13
BRANCH  12  17
ATOM     17  C   UNL     1      -1.335 -13.277  29.593  1.00  0.00    -0.006 C 
ATOM     18  C   UNL     1      -0.966 -14.387  28.593  1.00  0.00     0.008 C 
ATOM     19  C   UNL     1      -0.084 -12.915  30.415  1.00  0.00     0.008 C 
ENDBRANCH  12  17
ENDBRANCH  11  12
ENDBRANCH   1  11
TORSDOF 1
ENDMDL
MODEL 8
REMARK VINA RESULT:    -4.369      1.800      4.120
REMARK INTER + INTRA:          -6.473
REMARK INTER:                  -6.478
REMARK INTRA:                   0.005
REMARK UNBOUND:                 0.195
REMARK SMILES CC1=CCC[C@@H](C)C(=O)C[C@H](C(C)C)C(=O)C1
REMARK SMILES IDX 8 1 9 2 6 3 7 4 5 5 4 6 3 7 2 8 1 9 10 11 11 12 15 13 16 14
REMARK SMILES IDX 17 15 12 17 13 18 14 19
REMARK H PARENT
REMARK Flexibility Score: 70.00
ROOT
ATOM      1  C   UNL     1      -4.565 -13.883  30.455  1.00  0.00     0.136 C 
ATOM      2  O   UNL     1      -5.675 -14.396  30.432  1.00  0.00    -0.299 OA
ENDROOT
BRANCH   1   3
ATOM      3  C   UNL     1      -4.117 -13.226  31.756  1.00  0.00     0.053 C 
ATOM      4  C   UNL     1      -4.656 -14.001  32.972  1.00  0.00     0.016 C 
BRANCH   3   5
ATOM      5  C   UNL     1      -4.279 -11.682  31.897  1.00  0.00     0.015 C 
BRANCH   5   6
ATOM      6  C   UNL     1      -3.031 -10.770  31.887  1.00  0.00     0.028 C 
BRANCH   6   7
ATOM      7  C   UNL     1      -1.720 -11.493  32.055  1.00  0.00    -0.028 C 
ATOM      8  C   UNL     1      -0.846 -11.773  31.060  1.00  0.00    -0.070 CG0
ATOM      9  C   UNL     1       0.424 -12.500  31.422  1.00  0.00     0.039 C 
ATOM     10  G   UNL     1      -1.060 -11.363  29.613  1.00  0.00     0.000 G0
ENDBRANCH   6   7
ENDBRANCH   5   6
ENDBRANCH   3   5
ENDBRANCH   1   3
BRANCH   1  11
ATOM     11  C   UNL     1      -3.718 -14.012  29.208  1.00  0.00     0.087 C 
BRANCH  11  12
ATOM     12  C   UNL     1      -3.233 -12.637  28.679  1.00  0.00     0.066 C 
BRANCH  12  13
ATOM     13  C   UNL     1      -1.720 -12.485  28.821  1.00  0.00     0.140 C 
ATOM     14  O   UNL     1      -1.000 -13.316  28.286  1.00  0.00    -0.299 OA
BRANCH  13  15
ATOM     15  C   UNL     1      -1.067 -11.373  29.609  1.00  0.00     0.106 CG0
ATOM     16  G   UNL     1      -0.861 -11.772  31.060  1.00  0.00     0.000 G0
ENDBRANCH  13  15
ENDBRANCH  12  13
BRANCH  12  17
ATOM     17  C   UNL     1      -3.736 -12.335  27.231  1.00  0.00    -0.006 C 
ATOM     18  C   UNL     1      -2.780 -11.392  26.476  1.00  0.00     0.008 C 
ATOM     19  C   UNL     1      -3.901 -13.630  26.414  1.00  0.00     0.008 C 
ENDBRANCH  12  17
ENDBRANCH  11  12
ENDBRANCH   1  11
TORSDOF 1
ENDMDL
MODEL 9
REMARK VINA RESULT:    -4.256      1.631      2.190
REMARK INTER + INTRA:          -6.300
REMARK INTER:                  -6.987
REMARK INTRA:                   0.688
REMARK UNBOUND:                 0.195
REMARK SMILES CC1=CCC[C@@H](C)C(=O)C[C@H](C(C)C)C(=O)C1
REMARK SMILES IDX 8 1 9 2 6 3 7 4 5 5 4 6 3 7 2 8 1 9 10 11 11 12 15 13 16 14
REMARK SMILES IDX 17 15 12 17 13 18 14 19
REMARK H PARENT
REMARK Flexibility Score: 70.00
ROOT
ATOM      1  C   UNL     1      -3.637 -12.483  28.117  1.00  0.00     0.136 C 
ATOM      2  O   UNL     1      -2.917 -13.409  27.772  1.00  0.00    -0.299 OA
ENDROOT
BRANCH   1   3
ATOM      3  C   UNL     1      -3.486 -11.158  27.378  1.00  0.00     0.053 C 
ATOM      4  C   UNL     1      -2.977 -11.388  25.944  1.00  0.00     0.016 C 
BRANCH   3   5
ATOM      5  C   UNL     1      -2.755  -9.988  28.103  1.00  0.00     0.015 C 
BRANCH   5   6
ATOM      6  C   UNL     1      -2.802  -9.884  29.645  1.00  0.00     0.028 C 
BRANCH   6   7
ATOM      7  C   UNL     1      -1.741 -10.675  30.363  1.00  0.00    -0.028 C 
ATOM      8  C   UNL     1      -1.970 -11.631  31.294  1.00  0.00    -0.070 CG0
ATOM      9  C   UNL     1      -0.776 -12.324  31.901  1.00  0.00     0.039 C 
ATOM     10  G   UNL     1      -3.359 -12.066  31.727  1.00  0.00     0.000 G0
ENDBRANCH   6   7
ENDBRANCH   5   6
ENDBRANCH   3   5
ENDBRANCH   1   3
BRANCH   1  11
ATOM     11  C   UNL     1      -4.654 -12.765  29.201  1.00  0.00     0.087 C 
BRANCH  11  12
ATOM     12  C   UNL     1      -4.254 -13.974  30.086  1.00  0.00     0.066 C 
BRANCH  12  13
ATOM     13  C   UNL     1      -3.622 -13.521  31.400  1.00  0.00     0.140 C 
ATOM     14  O   UNL     1      -3.332 -14.372  32.230  1.00  0.00    -0.299 OA
BRANCH  13  15
ATOM     15  C   UNL     1      -3.357 -12.072  31.738  1.00  0.00     0.106 CG0
ATOM     16  G   UNL     1      -1.971 -11.643  31.289  1.00  0.00     0.000 G0
ENDBRANCH  13  15
ENDBRANCH  12  13
BRANCH  12  17
ATOM     17  C   UNL     1      -5.428 -14.983  30.299  1.00  0.00    -0.006 C 
ATOM     18  C   UNL     1      -6.028 -14.876  31.713  1.00  0.00     0.008 C 
ATOM     19  C   UNL     1      -6.550 -14.762  29.267  1.00  0.00     0.008 C 
ENDBRANCH  12  17
ENDBRANCH  11  12
ENDBRANCH   1  11
TORSDOF 1
ENDMDL
