MODEL 1
REMARK VINA RESULT:    -2.882      0.000      0.000
REMARK INTER + INTRA:          -3.712
REMARK INTER:                  -3.556
REMARK INTRA:                  -0.156
REMARK UNBOUND:                -0.156
REMARK SMILES CCCCCC(=O)[O-]
REMARK SMILES IDX 4 1 5 2 6 3 7 4 8 5 3 6 2 7 1 8
REMARK H PARENT
REMARK Flexibility Score: inf
ROOT
ATOM      1  C   UNL     1     -96.900 -26.703  83.296  1.00  0.00     0.006 C 
ENDROOT
BRANCH   1   2
ATOM      2  C   UNL     1     -96.133 -27.230  82.073  1.00  0.00     0.053 C 
BRANCH   2   3
ATOM      3  C   UNL     1     -97.002 -28.061  81.179  1.00  0.00     0.041 C 
ATOM      4  O   UNL     1     -96.585 -28.422  80.048  1.00  0.00    -0.550 OA
ATOM      5  O   UNL     1     -98.286 -28.406  81.582  1.00  0.00    -0.550 OA
ENDBRANCH   2   3
ENDBRANCH   1   2
BRANCH   1   6
ATOM      6  C   UNL     1     -96.448 -27.311  84.637  1.00  0.00     0.000 C 
BRANCH   6   7
ATOM      7  C   UNL     1     -96.845 -28.788  84.784  1.00  0.00    -0.003 C 
ATOM      8  C   UNL     1     -95.781 -29.569  85.548  1.00  0.00     0.004 C 
ENDBRANCH   6   7
ENDBRANCH   1   6
TORSDOF 4
ENDMDL
MODEL 2
REMARK VINA RESULT:    -2.866      1.108      1.399
REMARK INTER + INTRA:          -3.692
REMARK INTER:                  -3.577
REMARK INTRA:                  -0.115
REMARK UNBOUND:                -0.156
REMARK SMILES CCCCCC(=O)[O-]
REMARK SMILES IDX 4 1 5 2 6 3 7 4 8 5 3 6 2 7 1 8
REMARK H PARENT
REMARK Flexibility Score: inf
ROOT
ATOM      1  C   UNL     1     -96.467 -26.753  83.442  1.00  0.00     0.006 C 
ENDROOT
BRANCH   1   2
ATOM      2  C   UNL     1     -96.564 -27.776  82.300  1.00  0.00     0.053 C 
BRANCH   2   3
ATOM      3  C   UNL     1     -96.136 -27.195  80.986  1.00  0.00     0.041 C 
ATOM      4  O   UNL     1     -95.260 -26.292  80.949  1.00  0.00    -0.550 OA
ATOM      5  O   UNL     1     -96.730 -27.628  79.808  1.00  0.00    -0.550 OA
ENDBRANCH   2   3
ENDBRANCH   1   2
BRANCH   1   6
ATOM      6  C   UNL     1     -96.489 -27.374  84.852  1.00  0.00     0.000 C 
BRANCH   6   7
ATOM      7  C   UNL     1     -96.789 -28.880  84.832  1.00  0.00    -0.003 C 
ATOM      8  C   UNL     1     -95.773 -29.653  85.668  1.00  0.00     0.004 C 
ENDBRANCH   6   7
ENDBRANCH   1   6
TORSDOF 4
ENDMDL
MODEL 3
REMARK VINA RESULT:    -2.860      0.523      1.209
REMARK INTER + INTRA:          -3.684
REMARK INTER:                  -3.529
REMARK INTRA:                  -0.155
REMARK UNBOUND:                -0.156
REMARK SMILES CCCCCC(=O)[O-]
REMARK SMILES IDX 4 1 5 2 6 3 7 4 8 5 3 6 2 7 1 8
REMARK H PARENT
REMARK Flexibility Score: inf
ROOT
ATOM      1  C   UNL     1     -96.980 -26.641  83.400  1.00  0.00     0.006 C 
ENDROOT
BRANCH   1   2
ATOM      2  C   UNL     1     -96.019 -26.821  82.214  1.00  0.00     0.053 C 
BRANCH   2   3
ATOM      3  C   UNL     1     -96.628 -27.638  81.115  1.00  0.00     0.041 C 
ATOM      4  O   UNL     1     -97.553 -28.452  81.369  1.00  0.00    -0.550 OA
ATOM      5  O   UNL     1     -96.149 -27.522  79.816  1.00  0.00    -0.550 OA
ENDBRANCH   2   3
ENDBRANCH   1   2
BRANCH   1   6
ATOM      6  C   UNL     1     -96.508 -27.310  84.705  1.00  0.00     0.000 C 
BRANCH   6   7
ATOM      7  C   UNL     1     -96.846 -28.807  84.761  1.00  0.00    -0.003 C 
ATOM      8  C   UNL     1     -95.796 -29.577  85.557  1.00  0.00     0.004 C 
ENDBRANCH   6   7
ENDBRANCH   1   6
TORSDOF 4
ENDMDL
MODEL 4
REMARK VINA RESULT:    -2.820      3.134      3.571
REMARK INTER + INTRA:          -3.636
REMARK INTER:                  -3.512
REMARK INTRA:                  -0.124
REMARK UNBOUND:                -0.156
REMARK SMILES CCCCCC(=O)[O-]
REMARK SMILES IDX 4 1 5 2 6 3 7 4 8 5 3 6 2 7 1 8
REMARK H PARENT
REMARK Flexibility Score: inf
ROOT
ATOM      1  C   UNL     1     -96.991 -26.632  83.258  1.00  0.00     0.006 C 
ENDROOT
BRANCH   1   2
ATOM      2  C   UNL     1     -98.496 -26.364  83.421  1.00  0.00     0.053 C 
BRANCH   2   3
ATOM      3  C   UNL     1     -98.780 -25.427  84.555  1.00  0.00     0.041 C 
ATOM      4  O   UNL     1     -98.612 -25.802  85.744  1.00  0.00    -0.550 OA
ATOM      5  O   UNL     1     -99.265 -24.151  84.297  1.00  0.00    -0.550 OA
ENDBRANCH   2   3
ENDBRANCH   1   2
BRANCH   1   6
ATOM      6  C   UNL     1     -96.553 -28.052  83.662  1.00  0.00     0.000 C 
BRANCH   6   7
ATOM      7  C   UNL     1     -96.174 -28.157  85.147  1.00  0.00    -0.003 C 
ATOM      8  C   UNL     1     -95.864 -29.600  85.533  1.00  0.00     0.004 C 
ENDBRANCH   6   7
ENDBRANCH   1   6
TORSDOF 4
ENDMDL
MODEL 5
REMARK VINA RESULT:    -2.815     13.848     14.753
REMARK INTER + INTRA:          -3.630
REMARK INTER:                  -3.428
REMARK INTRA:                  -0.201
REMARK UNBOUND:                -0.156
REMARK SMILES CCCCCC(=O)[O-]
REMARK SMILES IDX 4 1 5 2 6 3 7 4 8 5 3 6 2 7 1 8
REMARK H PARENT
REMARK Flexibility Score: inf
ROOT
ATOM      1  C   UNL     1     -97.273 -40.259  87.990  1.00  0.00     0.006 C 
ENDROOT
BRANCH   1   2
ATOM      2  C   UNL     1     -97.750 -41.577  87.359  1.00  0.00     0.053 C 
BRANCH   2   3
ATOM      3  C   UNL     1     -96.667 -42.613  87.334  1.00  0.00     0.041 C 
ATOM      4  O   UNL     1     -95.462 -42.272  87.459  1.00  0.00    -0.550 OA
ATOM      5  O   UNL     1     -96.989 -43.950  87.138  1.00  0.00    -0.550 OA
ENDBRANCH   2   3
ENDBRANCH   1   2
BRANCH   1   6
ATOM      6  C   UNL     1     -98.006 -39.879  89.291  1.00  0.00     0.000 C 
BRANCH   6   7
ATOM      7  C   UNL     1     -97.946 -40.988  90.352  1.00  0.00    -0.003 C 
ATOM      8  C   UNL     1     -96.517 -41.198  90.845  1.00  0.00     0.004 C 
ENDBRANCH   6   7
ENDBRANCH   1   6
TORSDOF 4
ENDMDL
MODEL 6
REMARK VINA RESULT:    -2.794     14.024     15.093
REMARK INTER + INTRA:          -3.603
REMARK INTER:                  -3.341
REMARK INTRA:                  -0.262
REMARK UNBOUND:                -0.156
REMARK SMILES CCCCCC(=O)[O-]
REMARK SMILES IDX 4 1 5 2 6 3 7 4 8 5 3 6 2 7 1 8
REMARK H PARENT
REMARK Flexibility Score: inf
ROOT
ATOM      1  C   UNL     1     -97.241 -40.764  87.493  1.00  0.00     0.006 C 
ENDROOT
BRANCH   1   2
ATOM      2  C   UNL     1     -97.280 -39.962  88.804  1.00  0.00     0.053 C 
BRANCH   2   3
ATOM      3  C   UNL     1     -97.469 -40.845  89.999  1.00  0.00     0.041 C 
ATOM      4  O   UNL     1     -98.586 -41.381  90.220  1.00  0.00    -0.550 OA
ATOM      5  O   UNL     1     -96.420 -41.047  90.887  1.00  0.00    -0.550 OA
ENDBRANCH   2   3
ENDBRANCH   1   2
BRANCH   1   6
ATOM      6  C   UNL     1     -96.257 -41.949  87.506  1.00  0.00     0.000 C 
BRANCH   6   7
ATOM      7  C   UNL     1     -96.952 -43.301  87.287  1.00  0.00    -0.003 C 
ATOM      8  C   UNL     1     -98.414 -43.109  86.893  1.00  0.00     0.004 C 
ENDBRANCH   6   7
ENDBRANCH   1   6
TORSDOF 4
ENDMDL
MODEL 7
REMARK VINA RESULT:    -2.784     14.094     15.088
REMARK INTER + INTRA:          -3.591
REMARK INTER:                  -3.361
REMARK INTRA:                  -0.230
REMARK UNBOUND:                -0.156
REMARK SMILES CCCCCC(=O)[O-]
REMARK SMILES IDX 4 1 5 2 6 3 7 4 8 5 3 6 2 7 1 8
REMARK H PARENT
REMARK Flexibility Score: inf
ROOT
ATOM      1  C   UNL     1     -97.971 -39.790  89.176  1.00  0.00     0.006 C 
ENDROOT
BRANCH   1   2
ATOM      2  C   UNL     1     -98.343 -41.015  90.027  1.00  0.00     0.053 C 
BRANCH   2   3
ATOM      3  C   UNL     1     -97.426 -41.183  91.201  1.00  0.00     0.041 C 
ATOM      4  O   UNL     1     -96.258 -41.621  91.034  1.00  0.00    -0.550 OA
ATOM      5  O   UNL     1     -97.876 -40.890  92.482  1.00  0.00    -0.550 OA
ENDBRANCH   2   3
ENDBRANCH   1   2
BRANCH   1   6
ATOM      6  C   UNL     1     -97.169 -40.123  87.904  1.00  0.00     0.000 C 
BRANCH   6   7
ATOM      7  C   UNL     1     -97.341 -41.583  87.459  1.00  0.00    -0.003 C 
ATOM      8  C   UNL     1     -96.012 -42.331  87.505  1.00  0.00     0.004 C 
ENDBRANCH   6   7
ENDBRANCH   1   6
TORSDOF 4
ENDMDL
MODEL 8
REMARK VINA RESULT:    -2.744      2.264      2.638
REMARK INTER + INTRA:          -3.541
REMARK INTER:                  -3.267
REMARK INTRA:                  -0.274
REMARK UNBOUND:                -0.156
REMARK SMILES CCCCCC(=O)[O-]
REMARK SMILES IDX 4 1 5 2 6 3 7 4 8 5 3 6 2 7 1 8
REMARK H PARENT
REMARK Flexibility Score: inf
ROOT
ATOM      1  C   UNL     1     -96.867 -28.116  82.886  1.00  0.00     0.006 C 
ENDROOT
BRANCH   1   2
ATOM      2  C   UNL     1     -98.290 -28.000  82.317  1.00  0.00     0.053 C 
BRANCH   2   3
ATOM      3  C   UNL     1     -99.328 -27.989  83.397  1.00  0.00     0.041 C 
ATOM      4  O   UNL     1     -99.544 -29.025  84.079  1.00  0.00    -0.550 OA
ATOM      5  O   UNL     1    -100.082 -26.845  83.626  1.00  0.00    -0.550 OA
ENDBRANCH   2   3
ENDBRANCH   1   2
BRANCH   1   6
ATOM      6  C   UNL     1     -96.534 -27.077  83.974  1.00  0.00     0.000 C 
BRANCH   6   7
ATOM      7  C   UNL     1     -96.205 -27.721  85.329  1.00  0.00    -0.003 C 
ATOM      8  C   UNL     1     -96.091 -29.237  85.203  1.00  0.00     0.004 C 
ENDBRANCH   6   7
ENDBRANCH   1   6
TORSDOF 4
ENDMDL
MODEL 9
REMARK VINA RESULT:    -2.735      2.811      4.369
REMARK INTER + INTRA:          -3.531
REMARK INTER:                  -3.475
REMARK INTRA:                  -0.056
REMARK UNBOUND:                -0.156
REMARK SMILES CCCCCC(=O)[O-]
REMARK SMILES IDX 4 1 5 2 6 3 7 4 8 5 3 6 2 7 1 8
REMARK H PARENT
REMARK Flexibility Score: inf
ROOT
ATOM      1  C   UNL     1     -96.566 -26.945  83.242  1.00  0.00     0.006 C 
ENDROOT
BRANCH   1   2
ATOM      2  C   UNL     1     -96.867 -28.342  83.807  1.00  0.00     0.053 C 
BRANCH   2   3
ATOM      3  C   UNL     1     -96.216 -28.562  85.139  1.00  0.00     0.041 C 
ATOM      4  O   UNL     1     -95.910 -27.580  85.864  1.00  0.00    -0.550 OA
ATOM      5  O   UNL     1     -95.915 -29.851  85.561  1.00  0.00    -0.550 OA
ENDBRANCH   2   3
ENDBRANCH   1   2
BRANCH   1   6
ATOM      6  C   UNL     1     -95.999 -26.950  81.809  1.00  0.00     0.000 C 
BRANCH   6   7
ATOM      7  C   UNL     1     -95.528 -25.562  81.352  1.00  0.00    -0.003 C 
ATOM      8  C   UNL     1     -94.078 -25.605  80.877  1.00  0.00     0.004 C 
ENDBRANCH   6   7
ENDBRANCH   1   6
TORSDOF 4
ENDMDL
