MODEL 1
REMARK VINA RESULT:    -4.223      0.000      0.000
REMARK INTER + INTRA:         -12.567
REMARK INTER:                  -9.161
REMARK INTRA:                  -3.406
REMARK UNBOUND:                -3.406
REMARK SMILES CCCCCCCCCCCCCCCCCCCCCC(=O)[O-]
REMARK SMILES IDX 12 1 11 2 10 3 9 4 8 5 7 6 6 7 5 8 4 9 3 10 2 11 1 12 13 13
REMARK SMILES IDX 14 14 15 15 16 16 17 17 18 18 19 19 20 20 21 21 22 22 23 23
REMARK SMILES IDX 24 24
REMARK H PARENT
REMARK Flexibility Score: inf
ROOT
ATOM      1  C   UNL     1      36.679  31.421  20.531  1.00  0.00     0.000 C 
ENDROOT
BRANCH   1   2
ATOM      2  C   UNL     1      36.610  29.882  20.435  1.00  0.00     0.000 C 
BRANCH   2   3
ATOM      3  C   UNL     1      35.709  29.321  19.314  1.00  0.00     0.000 C 
BRANCH   3   4
ATOM      4  C   UNL     1      34.664  30.318  18.764  1.00  0.00    -0.000 C 
BRANCH   4   5
ATOM      5  C   UNL     1      33.233  29.751  18.708  1.00  0.00    -0.000 C 
BRANCH   5   6
ATOM      6  C   UNL     1      32.966  28.573  19.663  1.00  0.00    -0.000 C 
BRANCH   6   7
ATOM      7  C   UNL     1      32.342  28.957  21.021  1.00  0.00    -0.000 C 
BRANCH   7   8
ATOM      8  C   UNL     1      33.323  28.996  22.208  1.00  0.00    -0.000 C 
BRANCH   8   9
ATOM      9  C   UNL     1      33.682  30.429  22.639  1.00  0.00    -0.000 C 
BRANCH   9  10
ATOM     10  C   UNL     1      32.822  31.490  21.931  1.00  0.00    -0.000 C 
BRANCH  10  11
ATOM     11  C   UNL     1      33.272  32.923  22.248  1.00  0.00    -0.003 C 
ATOM     12  C   UNL     1      33.730  33.646  20.984  1.00  0.00     0.004 C 
ENDBRANCH  10  11
ENDBRANCH   9  10
ENDBRANCH   8   9
ENDBRANCH   7   8
ENDBRANCH   6   7
ENDBRANCH   5   6
ENDBRANCH   4   5
ENDBRANCH   3   4
ENDBRANCH   2   3
ENDBRANCH   1   2
BRANCH   1  13
ATOM     13  C   UNL     1      37.264  31.973  21.843  1.00  0.00     0.000 C 
BRANCH  13  14
ATOM     14  C   UNL     1      37.718  30.867  22.807  1.00  0.00     0.000 C 
BRANCH  14  15
ATOM     15  C   UNL     1      37.302  31.195  24.248  1.00  0.00     0.000 C 
BRANCH  15  16
ATOM     16  C   UNL     1      36.040  32.070  24.320  1.00  0.00     0.000 C 
BRANCH  16  17
ATOM     17  C   UNL     1      35.645  32.419  25.766  1.00  0.00     0.000 C 
BRANCH  17  18
ATOM     18  C   UNL     1      34.344  33.235  25.840  1.00  0.00     0.000 C 
BRANCH  18  19
ATOM     19  C   UNL     1      34.573  34.737  25.596  1.00  0.00     0.000 C 
BRANCH  19  20
ATOM     20  C   UNL     1      35.826  35.271  26.314  1.00  0.00     0.006 C 
BRANCH  20  21
ATOM     21  C   UNL     1      35.531  36.054  27.603  1.00  0.00     0.053 C 
BRANCH  21  22
ATOM     22  C   UNL     1      36.179  35.430  28.801  1.00  0.00     0.041 C 
ATOM     23  O   UNL     1      36.919  34.421  28.667  1.00  0.00    -0.550 OA
ATOM     24  O   UNL     1      35.938  35.944  30.069  1.00  0.00    -0.550 OA
ENDBRANCH  21  22
ENDBRANCH  20  21
ENDBRANCH  19  20
ENDBRANCH  18  19
ENDBRANCH  17  18
ENDBRANCH  16  17
ENDBRANCH  15  16
ENDBRANCH  14  15
ENDBRANCH  13  14
ENDBRANCH   1  13
TORSDOF 20
ENDMDL
MODEL 2
REMARK VINA RESULT:    -4.196      1.335      2.921
REMARK INTER + INTRA:         -12.508
REMARK INTER:                  -8.861
REMARK INTRA:                  -3.647
REMARK UNBOUND:                -3.406
REMARK SMILES CCCCCCCCCCCCCCCCCCCCCC(=O)[O-]
REMARK SMILES IDX 12 1 11 2 10 3 9 4 8 5 7 6 6 7 5 8 4 9 3 10 2 11 1 12 13 13
REMARK SMILES IDX 14 14 15 15 16 16 17 17 18 18 19 19 20 20 21 21 22 22 23 23
REMARK SMILES IDX 24 24
REMARK H PARENT
REMARK Flexibility Score: inf
ROOT
ATOM      1  C   UNL     1      36.316  32.930  22.049  1.00  0.00     0.000 C 
ENDROOT
BRANCH   1   2
ATOM      2  C   UNL     1      35.708  31.616  21.513  1.00  0.00     0.000 C 
BRANCH   2   3
ATOM      3  C   UNL     1      35.549  30.482  22.546  1.00  0.00     0.000 C 
BRANCH   3   4
ATOM      4  C   UNL     1      34.088  30.050  22.813  1.00  0.00    -0.000 C 
BRANCH   4   5
ATOM      5  C   UNL     1      33.078  30.608  21.792  1.00  0.00    -0.000 C 
BRANCH   5   6
ATOM      6  C   UNL     1      32.226  29.542  21.078  1.00  0.00    -0.000 C 
BRANCH   6   7
ATOM      7  C   UNL     1      33.010  28.580  20.161  1.00  0.00    -0.000 C 
BRANCH   7   8
ATOM      8  C   UNL     1      33.063  28.984  18.676  1.00  0.00    -0.000 C 
BRANCH   8   9
ATOM      9  C   UNL     1      34.490  29.297  18.192  1.00  0.00    -0.000 C 
BRANCH   9  10
ATOM     10  C   UNL     1      34.833  30.792  18.297  1.00  0.00    -0.000 C 
BRANCH  10  11
ATOM     11  C   UNL     1      33.588  31.690  18.240  1.00  0.00    -0.003 C 
ATOM     12  C   UNL     1      33.949  33.145  18.523  1.00  0.00     0.004 C 
ENDBRANCH  10  11
ENDBRANCH   9  10
ENDBRANCH   8   9
ENDBRANCH   7   8
ENDBRANCH   6   7
ENDBRANCH   5   6
ENDBRANCH   4   5
ENDBRANCH   3   4
ENDBRANCH   2   3
ENDBRANCH   1   2
BRANCH   1  13
ATOM     13  C   UNL     1      35.458  34.189  21.834  1.00  0.00     0.000 C 
BRANCH  13  14
ATOM     14  C   UNL     1      34.097  34.112  22.542  1.00  0.00     0.000 C 
BRANCH  14  15
ATOM     15  C   UNL     1      34.275  34.104  24.067  1.00  0.00     0.000 C 
BRANCH  15  16
ATOM     16  C   UNL     1      33.555  32.925  24.745  1.00  0.00     0.000 C 
BRANCH  16  17
ATOM     17  C   UNL     1      34.402  32.275  25.853  1.00  0.00     0.000 C 
BRANCH  17  18
ATOM     18  C   UNL     1      35.911  32.456  25.623  1.00  0.00     0.000 C 
BRANCH  18  19
ATOM     19  C   UNL     1      36.625  33.070  26.841  1.00  0.00     0.000 C 
BRANCH  19  20
ATOM     20  C   UNL     1      36.814  34.593  26.713  1.00  0.00     0.006 C 
BRANCH  20  21
ATOM     21  C   UNL     1      35.748  35.425  27.443  1.00  0.00     0.053 C 
BRANCH  21  22
ATOM     22  C   UNL     1      36.239  35.934  28.764  1.00  0.00     0.041 C 
ATOM     23  O   UNL     1      37.175  35.341  29.363  1.00  0.00    -0.550 OA
ATOM     24  O   UNL     1      35.640  37.042  29.349  1.00  0.00    -0.550 OA
ENDBRANCH  21  22
ENDBRANCH  20  21
ENDBRANCH  19  20
ENDBRANCH  18  19
ENDBRANCH  17  18
ENDBRANCH  16  17
ENDBRANCH  15  16
ENDBRANCH  14  15
ENDBRANCH  13  14
ENDBRANCH   1  13
TORSDOF 20
ENDMDL
MODEL 3
REMARK VINA RESULT:    -4.168      2.266      5.288
REMARK INTER + INTRA:         -12.447
REMARK INTER:                  -9.202
REMARK INTRA:                  -3.245
REMARK UNBOUND:                -3.406
REMARK SMILES CCCCCCCCCCCCCCCCCCCCCC(=O)[O-]
REMARK SMILES IDX 12 1 11 2 10 3 9 4 8 5 7 6 6 7 5 8 4 9 3 10 2 11 1 12 13 13
REMARK SMILES IDX 14 14 15 15 16 16 17 17 18 18 19 19 20 20 21 21 22 22 23 23
REMARK SMILES IDX 24 24
REMARK H PARENT
REMARK Flexibility Score: inf
ROOT
ATOM      1  C   UNL     1      34.419  35.524  23.699  1.00  0.00     0.000 C 
ENDROOT
BRANCH   1   2
ATOM      2  C   UNL     1      34.038  34.270  22.883  1.00  0.00     0.000 C 
BRANCH   2   3
ATOM      3  C   UNL     1      33.396  33.119  23.686  1.00  0.00     0.000 C 
BRANCH   3   4
ATOM      4  C   UNL     1      33.708  33.133  25.200  1.00  0.00    -0.000 C 
BRANCH   4   5
ATOM      5  C   UNL     1      34.702  32.042  25.641  1.00  0.00    -0.000 C 
BRANCH   5   6
ATOM      6  C   UNL     1      36.187  32.435  25.527  1.00  0.00    -0.000 C 
BRANCH   6   7
ATOM      7  C   UNL     1      37.025  31.566  24.566  1.00  0.00    -0.000 C 
BRANCH   7   8
ATOM      8  C   UNL     1      36.787  31.826  23.067  1.00  0.00    -0.000 C 
BRANCH   8   9
ATOM      9  C   UNL     1      36.598  30.531  22.259  1.00  0.00    -0.000 C 
BRANCH   9  10
ATOM     10  C   UNL     1      35.187  30.414  21.656  1.00  0.00    -0.000 C 
BRANCH  10  11
ATOM     11  C   UNL     1      34.157  29.881  22.662  1.00  0.00    -0.003 C 
ATOM     12  C   UNL     1      33.032  29.135  21.950  1.00  0.00     0.004 C 
ENDBRANCH  10  11
ENDBRANCH   9  10
ENDBRANCH   8   9
ENDBRANCH   7   8
ENDBRANCH   6   7
ENDBRANCH   5   6
ENDBRANCH   4   5
ENDBRANCH   3   4
ENDBRANCH   2   3
ENDBRANCH   1   2
BRANCH   1  13
ATOM     13  C   UNL     1      35.923  35.847  23.746  1.00  0.00     0.000 C 
BRANCH  13  14
ATOM     14  C   UNL     1      36.447  36.043  25.176  1.00  0.00     0.000 C 
BRANCH  14  15
ATOM     15  C   UNL     1      35.300  36.393  26.135  1.00  0.00     0.000 C 
BRANCH  15  16
ATOM     16  C   UNL     1      35.298  35.525  27.404  1.00  0.00     0.000 C 
BRANCH  16  17
ATOM     17  C   UNL     1      35.237  36.363  28.693  1.00  0.00     0.000 C 
BRANCH  17  18
ATOM     18  C   UNL     1      36.413  36.073  29.640  1.00  0.00     0.000 C 
BRANCH  18  19
ATOM     19  C   UNL     1      37.751  35.924  28.894  1.00  0.00     0.000 C 
BRANCH  19  20
ATOM     20  C   UNL     1      38.651  37.166  29.036  1.00  0.00     0.006 C 
BRANCH  20  21
ATOM     21  C   UNL     1      38.051  38.285  29.901  1.00  0.00     0.053 C 
BRANCH  21  22
ATOM     22  C   UNL     1      37.783  39.527  29.106  1.00  0.00     0.041 C 
ATOM     23  O   UNL     1      37.366  39.443  27.920  1.00  0.00    -0.550 OA
ATOM     24  O   UNL     1      38.026  40.776  29.663  1.00  0.00    -0.550 OA
ENDBRANCH  21  22
ENDBRANCH  20  21
ENDBRANCH  19  20
ENDBRANCH  18  19
ENDBRANCH  17  18
ENDBRANCH  16  17
ENDBRANCH  15  16
ENDBRANCH  14  15
ENDBRANCH  13  14
ENDBRANCH   1  13
TORSDOF 20
ENDMDL
MODEL 4
REMARK VINA RESULT:    -4.127      2.849      5.949
REMARK INTER + INTRA:         -12.358
REMARK INTER:                  -9.105
REMARK INTRA:                  -3.253
REMARK UNBOUND:                -3.406
REMARK SMILES CCCCCCCCCCCCCCCCCCCCCC(=O)[O-]
REMARK SMILES IDX 12 1 11 2 10 3 9 4 8 5 7 6 6 7 5 8 4 9 3 10 2 11 1 12 13 13
REMARK SMILES IDX 14 14 15 15 16 16 17 17 18 18 19 19 20 20 21 21 22 22 23 23
REMARK SMILES IDX 24 24
REMARK H PARENT
REMARK Flexibility Score: inf
ROOT
ATOM      1  C   UNL     1      37.977  35.867  25.257  1.00  0.00     0.000 C 
ENDROOT
BRANCH   1   2
ATOM      2  C   UNL     1      36.991  37.033  25.490  1.00  0.00     0.000 C 
BRANCH   2   3
ATOM      3  C   UNL     1      35.505  36.639  25.608  1.00  0.00     0.000 C 
BRANCH   3   4
ATOM      4  C   UNL     1      34.650  36.959  24.360  1.00  0.00    -0.000 C 
BRANCH   4   5
ATOM      5  C   UNL     1      34.155  35.708  23.609  1.00  0.00    -0.000 C 
BRANCH   5   6
ATOM      6  C   UNL     1      34.824  34.389  24.037  1.00  0.00    -0.000 C 
BRANCH   6   7
ATOM      7  C   UNL     1      33.936  33.442  24.870  1.00  0.00    -0.000 C 
BRANCH   7   8
ATOM      8  C   UNL     1      34.510  32.030  25.095  1.00  0.00    -0.000 C 
BRANCH   8   9
ATOM      9  C   UNL     1      35.757  31.750  24.240  1.00  0.00    -0.000 C 
BRANCH   9  10
ATOM     10  C   UNL     1      35.412  31.105  22.887  1.00  0.00    -0.000 C 
BRANCH  10  11
ATOM     11  C   UNL     1      34.075  30.349  22.916  1.00  0.00    -0.003 C 
ATOM     12  C   UNL     1      33.083  30.951  21.925  1.00  0.00     0.004 C 
ENDBRANCH  10  11
ENDBRANCH   9  10
ENDBRANCH   8   9
ENDBRANCH   7   8
ENDBRANCH   6   7
ENDBRANCH   5   6
ENDBRANCH   4   5
ENDBRANCH   3   4
ENDBRANCH   2   3
ENDBRANCH   1   2
BRANCH   1  13
ATOM     13  C   UNL     1      38.453  35.142  26.528  1.00  0.00     0.000 C 
BRANCH  13  14
ATOM     14  C   UNL     1      37.742  33.800  26.752  1.00  0.00     0.000 C 
BRANCH  14  15
ATOM     15  C   UNL     1      36.583  33.955  27.747  1.00  0.00     0.000 C 
BRANCH  15  16
ATOM     16  C   UNL     1      36.951  34.827  28.959  1.00  0.00     0.000 C 
BRANCH  16  17
ATOM     17  C   UNL     1      35.846  35.838  29.316  1.00  0.00     0.000 C 
BRANCH  17  18
ATOM     18  C   UNL     1      36.313  37.295  29.171  1.00  0.00     0.000 C 
BRANCH  18  19
ATOM     19  C   UNL     1      37.780  37.491  29.594  1.00  0.00     0.000 C 
BRANCH  19  20
ATOM     20  C   UNL     1      38.574  38.360  28.601  1.00  0.00     0.006 C 
BRANCH  20  21
ATOM     21  C   UNL     1      39.521  39.372  29.265  1.00  0.00     0.053 C 
BRANCH  21  22
ATOM     22  C   UNL     1      38.856  40.114  30.385  1.00  0.00     0.041 C 
ATOM     23  O   UNL     1      39.210  39.912  31.576  1.00  0.00    -0.550 OA
ATOM     24  O   UNL     1      37.822  41.001  30.114  1.00  0.00    -0.550 OA
ENDBRANCH  21  22
ENDBRANCH  20  21
ENDBRANCH  19  20
ENDBRANCH  18  19
ENDBRANCH  17  18
ENDBRANCH  16  17
ENDBRANCH  15  16
ENDBRANCH  14  15
ENDBRANCH  13  14
ENDBRANCH   1  13
TORSDOF 20
ENDMDL
MODEL 5
REMARK VINA RESULT:    -4.103      1.889      3.933
REMARK INTER + INTRA:         -12.306
REMARK INTER:                  -9.786
REMARK INTRA:                  -2.520
REMARK UNBOUND:                -3.406
REMARK SMILES CCCCCCCCCCCCCCCCCCCCCC(=O)[O-]
REMARK SMILES IDX 12 1 11 2 10 3 9 4 8 5 7 6 6 7 5 8 4 9 3 10 2 11 1 12 13 13
REMARK SMILES IDX 14 14 15 15 16 16 17 17 18 18 19 19 20 20 21 21 22 22 23 23
REMARK SMILES IDX 24 24
REMARK H PARENT
REMARK Flexibility Score: inf
ROOT
ATOM      1  C   UNL     1      34.476  31.166  23.629  1.00  0.00     0.000 C 
ENDROOT
BRANCH   1   2
ATOM      2  C   UNL     1      33.409  31.907  22.794  1.00  0.00     0.000 C 
BRANCH   2   3
ATOM      3  C   UNL     1      32.603  31.033  21.811  1.00  0.00     0.000 C 
BRANCH   3   4
ATOM      4  C   UNL     1      32.939  29.524  21.862  1.00  0.00    -0.000 C 
BRANCH   4   5
ATOM      5  C   UNL     1      32.871  28.825  20.490  1.00  0.00    -0.000 C 
BRANCH   5   6
ATOM      6  C   UNL     1      32.752  29.777  19.285  1.00  0.00    -0.000 C 
BRANCH   6   7
ATOM      7  C   UNL     1      33.695  29.464  18.105  1.00  0.00    -0.000 C 
BRANCH   7   8
ATOM      8  C   UNL     1      35.118  30.040  18.230  1.00  0.00    -0.000 C 
BRANCH   8   9
ATOM      9  C   UNL     1      35.163  31.352  19.031  1.00  0.00    -0.000 C 
BRANCH   9  10
ATOM     10  C   UNL     1      36.068  31.254  20.271  1.00  0.00    -0.000 C 
BRANCH  10  11
ATOM     11  C   UNL     1      36.481  29.809  20.589  1.00  0.00    -0.003 C 
ATOM     12  C   UNL     1      37.420  29.760  21.791  1.00  0.00     0.004 C 
ENDBRANCH  10  11
ENDBRANCH   9  10
ENDBRANCH   8   9
ENDBRANCH   7   8
ENDBRANCH   6   7
ENDBRANCH   5   6
ENDBRANCH   4   5
ENDBRANCH   3   4
ENDBRANCH   2   3
ENDBRANCH   1   2
BRANCH   1  13
ATOM     13  C   UNL     1      34.590  31.613  25.097  1.00  0.00     0.000 C 
BRANCH  13  14
ATOM     14  C   UNL     1      33.920  32.969  25.363  1.00  0.00     0.000 C 
BRANCH  14  15
ATOM     15  C   UNL     1      34.973  34.063  25.592  1.00  0.00     0.000 C 
BRANCH  15  16
ATOM     16  C   UNL     1      36.292  33.512  26.158  1.00  0.00     0.000 C 
BRANCH  16  17
ATOM     17  C   UNL     1      36.567  33.996  27.593  1.00  0.00     0.000 C 
BRANCH  17  18
ATOM     18  C   UNL     1      35.973  35.387  27.868  1.00  0.00     0.000 C 
BRANCH  18  19
ATOM     19  C   UNL     1      35.805  35.672  29.371  1.00  0.00     0.000 C 
BRANCH  19  20
ATOM     20  C   UNL     1      36.360  37.048  29.781  1.00  0.00     0.006 C 
BRANCH  20  21
ATOM     21  C   UNL     1      37.311  37.678  28.751  1.00  0.00     0.053 C 
BRANCH  21  22
ATOM     22  C   UNL     1      37.779  39.037  29.175  1.00  0.00     0.041 C 
ATOM     23  O   UNL     1      37.479  40.052  28.492  1.00  0.00    -0.550 OA
ATOM     24  O   UNL     1      38.575  39.178  30.304  1.00  0.00    -0.550 OA
ENDBRANCH  21  22
ENDBRANCH  20  21
ENDBRANCH  19  20
ENDBRANCH  18  19
ENDBRANCH  17  18
ENDBRANCH  16  17
ENDBRANCH  15  16
ENDBRANCH  14  15
ENDBRANCH  13  14
ENDBRANCH   1  13
TORSDOF 20
ENDMDL
MODEL 6
REMARK VINA RESULT:    -4.072      3.940      8.012
REMARK INTER + INTRA:         -12.239
REMARK INTER:                  -8.913
REMARK INTRA:                  -3.326
REMARK UNBOUND:                -3.406
REMARK SMILES CCCCCCCCCCCCCCCCCCCCCC(=O)[O-]
REMARK SMILES IDX 12 1 11 2 10 3 9 4 8 5 7 6 6 7 5 8 4 9 3 10 2 11 1 12 13 13
REMARK SMILES IDX 14 14 15 15 16 16 17 17 18 18 19 19 20 20 21 21 22 22 23 23
REMARK SMILES IDX 24 24
REMARK H PARENT
REMARK Flexibility Score: inf
ROOT
ATOM      1  C   UNL     1      38.042  32.860  24.459  1.00  0.00     0.000 C 
ENDROOT
BRANCH   1   2
ATOM      2  C   UNL     1      38.025  32.434  25.942  1.00  0.00     0.000 C 
BRANCH   2   3
ATOM      3  C   UNL     1      36.825  32.937  26.770  1.00  0.00     0.000 C 
BRANCH   3   4
ATOM      4  C   UNL     1      35.445  32.725  26.104  1.00  0.00    -0.000 C 
BRANCH   4   5
ATOM      5  C   UNL     1      34.637  34.024  25.921  1.00  0.00    -0.000 C 
BRANCH   5   6
ATOM      6  C   UNL     1      34.788  34.690  24.541  1.00  0.00    -0.000 C 
BRANCH   6   7
ATOM      7  C   UNL     1      35.744  35.900  24.496  1.00  0.00    -0.000 C 
BRANCH   7   8
ATOM      8  C   UNL     1      36.014  36.576  25.854  1.00  0.00    -0.000 C 
BRANCH   8   9
ATOM      9  C   UNL     1      37.492  36.505  26.272  1.00  0.00    -0.000 C 
BRANCH   9  10
ATOM     10  C   UNL     1      37.667  36.371  27.795  1.00  0.00    -0.000 C 
BRANCH  10  11
ATOM     11  C   UNL     1      36.424  36.822  28.575  1.00  0.00    -0.003 C 
ATOM     12  C   UNL     1      35.867  35.683  29.425  1.00  0.00     0.004 C 
ENDBRANCH  10  11
ENDBRANCH   9  10
ENDBRANCH   8   9
ENDBRANCH   7   8
ENDBRANCH   6   7
ENDBRANCH   5   6
ENDBRANCH   4   5
ENDBRANCH   3   4
ENDBRANCH   2   3
ENDBRANCH   1   2
BRANCH   1  13
ATOM     13  C   UNL     1      38.189  31.712  23.445  1.00  0.00     0.000 C 
BRANCH  13  14
ATOM     14  C   UNL     1      37.247  30.535  23.735  1.00  0.00     0.000 C 
BRANCH  14  15
ATOM     15  C   UNL     1      36.131  30.456  22.683  1.00  0.00     0.000 C 
BRANCH  15  16
ATOM     16  C   UNL     1      34.724  30.500  23.302  1.00  0.00     0.000 C 
BRANCH  16  17
ATOM     17  C   UNL     1      33.835  31.585  22.670  1.00  0.00     0.000 C 
BRANCH  17  18
ATOM     18  C   UNL     1      32.723  30.995  21.788  1.00  0.00     0.000 C 
BRANCH  18  19
ATOM     19  C   UNL     1      32.669  29.458  21.854  1.00  0.00     0.000 C 
BRANCH  19  20
ATOM     20  C   UNL     1      32.853  28.797  20.476  1.00  0.00     0.006 C 
BRANCH  20  21
ATOM     21  C   UNL     1      34.082  29.293  19.697  1.00  0.00     0.053 C 
BRANCH  21  22
ATOM     22  C   UNL     1      33.698  29.997  18.431  1.00  0.00     0.041 C 
ATOM     23  O   UNL     1      32.504  30.346  18.237  1.00  0.00    -0.550 OA
ATOM     24  O   UNL     1      34.653  30.237  17.452  1.00  0.00    -0.550 OA
ENDBRANCH  21  22
ENDBRANCH  20  21
ENDBRANCH  19  20
ENDBRANCH  18  19
ENDBRANCH  17  18
ENDBRANCH  16  17
ENDBRANCH  15  16
ENDBRANCH  14  15
ENDBRANCH  13  14
ENDBRANCH   1  13
TORSDOF 20
ENDMDL
MODEL 7
REMARK VINA RESULT:    -4.064      3.138      6.241
REMARK INTER + INTRA:         -12.221
REMARK INTER:                  -9.528
REMARK INTRA:                  -2.694
REMARK UNBOUND:                -3.406
REMARK SMILES CCCCCCCCCCCCCCCCCCCCCC(=O)[O-]
REMARK SMILES IDX 12 1 11 2 10 3 9 4 8 5 7 6 6 7 5 8 4 9 3 10 2 11 1 12 13 13
REMARK SMILES IDX 14 14 15 15 16 16 17 17 18 18 19 19 20 20 21 21 22 22 23 23
REMARK SMILES IDX 24 24
REMARK H PARENT
REMARK Flexibility Score: inf
ROOT
ATOM      1  C   UNL     1      37.235  35.218  25.737  1.00  0.00     0.000 C 
ENDROOT
BRANCH   1   2
ATOM      2  C   UNL     1      37.773  34.127  26.687  1.00  0.00     0.000 C 
BRANCH   2   3
ATOM      3  C   UNL     1      37.338  32.683  26.363  1.00  0.00     0.000 C 
BRANCH   3   4
ATOM      4  C   UNL     1      36.564  32.523  25.033  1.00  0.00    -0.000 C 
BRANCH   4   5
ATOM      5  C   UNL     1      35.185  31.854  25.193  1.00  0.00    -0.000 C 
BRANCH   5   6
ATOM      6  C   UNL     1      33.993  32.829  25.216  1.00  0.00    -0.000 C 
BRANCH   6   7
ATOM      7  C   UNL     1      34.042  33.953  24.161  1.00  0.00    -0.000 C 
BRANCH   7   8
ATOM      8  C   UNL     1      33.916  33.489  22.699  1.00  0.00    -0.000 C 
BRANCH   8   9
ATOM      9  C   UNL     1      32.953  32.301  22.530  1.00  0.00    -0.000 C 
BRANCH   9  10
ATOM     10  C   UNL     1      33.519  31.212  21.602  1.00  0.00    -0.000 C 
BRANCH  10  11
ATOM     11  C   UNL     1      33.364  29.800  22.185  1.00  0.00    -0.003 C 
ATOM     12  C   UNL     1      32.420  28.956  21.333  1.00  0.00     0.004 C 
ENDBRANCH  10  11
ENDBRANCH   9  10
ENDBRANCH   8   9
ENDBRANCH   7   8
ENDBRANCH   6   7
ENDBRANCH   5   6
ENDBRANCH   4   5
ENDBRANCH   3   4
ENDBRANCH   2   3
ENDBRANCH   1   2
BRANCH   1  13
ATOM     13  C   UNL     1      36.319  36.268  26.391  1.00  0.00     0.000 C 
BRANCH  13  14
ATOM     14  C   UNL     1      35.279  35.649  27.335  1.00  0.00     0.000 C 
BRANCH  14  15
ATOM     15  C   UNL     1      35.164  36.464  28.631  1.00  0.00     0.000 C 
BRANCH  15  16
ATOM     16  C   UNL     1      36.490  36.542  29.407  1.00  0.00     0.000 C 
BRANCH  16  17
ATOM     17  C   UNL     1      37.123  37.943  29.353  1.00  0.00     0.000 C 
BRANCH  17  18
ATOM     18  C   UNL     1      38.647  37.907  29.554  1.00  0.00     0.000 C 
BRANCH  18  19
ATOM     19  C   UNL     1      39.238  36.501  29.350  1.00  0.00     0.000 C 
BRANCH  19  20
ATOM     20  C   UNL     1      40.086  36.392  28.069  1.00  0.00     0.006 C 
BRANCH  20  21
ATOM     21  C   UNL     1      41.491  35.810  28.289  1.00  0.00     0.053 C 
BRANCH  21  22
ATOM     22  C   UNL     1      42.535  36.881  28.382  1.00  0.00     0.041 C 
ATOM     23  O   UNL     1      43.699  36.599  28.769  1.00  0.00    -0.550 OA
ATOM     24  O   UNL     1      42.212  38.196  28.072  1.00  0.00    -0.550 OA
ENDBRANCH  21  22
ENDBRANCH  20  21
ENDBRANCH  19  20
ENDBRANCH  18  19
ENDBRANCH  17  18
ENDBRANCH  16  17
ENDBRANCH  15  16
ENDBRANCH  14  15
ENDBRANCH  13  14
ENDBRANCH   1  13
TORSDOF 20
ENDMDL
MODEL 8
REMARK VINA RESULT:    -4.041      1.771      4.209
REMARK INTER + INTRA:         -12.170
REMARK INTER:                  -9.097
REMARK INTRA:                  -3.073
REMARK UNBOUND:                -3.406
REMARK SMILES CCCCCCCCCCCCCCCCCCCCCC(=O)[O-]
REMARK SMILES IDX 12 1 11 2 10 3 9 4 8 5 7 6 6 7 5 8 4 9 3 10 2 11 1 12 13 13
REMARK SMILES IDX 14 14 15 15 16 16 17 17 18 18 19 19 20 20 21 21 22 22 23 23
REMARK SMILES IDX 24 24
REMARK H PARENT
REMARK Flexibility Score: inf
ROOT
ATOM      1  C   UNL     1      33.864  33.775  22.103  1.00  0.00     0.000 C 
ENDROOT
BRANCH   1   2
ATOM      2  C   UNL     1      33.149  32.663  22.900  1.00  0.00     0.000 C 
BRANCH   2   3
ATOM      3  C   UNL     1      33.975  32.009  24.026  1.00  0.00     0.000 C 
BRANCH   3   4
ATOM      4  C   UNL     1      34.881  30.842  23.570  1.00  0.00    -0.000 C 
BRANCH   4   5
ATOM      5  C   UNL     1      36.384  31.181  23.581  1.00  0.00    -0.000 C 
BRANCH   5   6
ATOM      6  C   UNL     1      37.120  30.902  22.257  1.00  0.00    -0.000 C 
BRANCH   6   7
ATOM      7  C   UNL     1      36.246  30.306  21.134  1.00  0.00    -0.000 C 
BRANCH   7   8
ATOM      8  C   UNL     1      35.749  31.315  20.082  1.00  0.00    -0.000 C 
BRANCH   8   9
ATOM      9  C   UNL     1      34.667  30.730  19.158  1.00  0.00    -0.000 C 
BRANCH   9  10
ATOM     10  C   UNL     1      33.298  30.618  19.850  1.00  0.00    -0.000 C 
BRANCH  10  11
ATOM     11  C   UNL     1      32.903  29.165  20.146  1.00  0.00    -0.003 C 
ATOM     12  C   UNL     1      32.389  29.017  21.576  1.00  0.00     0.004 C 
ENDBRANCH  10  11
ENDBRANCH   9  10
ENDBRANCH   8   9
ENDBRANCH   7   8
ENDBRANCH   6   7
ENDBRANCH   5   6
ENDBRANCH   4   5
ENDBRANCH   3   4
ENDBRANCH   2   3
ENDBRANCH   1   2
BRANCH   1  13
ATOM     13  C   UNL     1      34.946  34.549  22.878  1.00  0.00     0.000 C 
BRANCH  13  14
ATOM     14  C   UNL     1      34.361  35.607  23.825  1.00  0.00     0.000 C 
BRANCH  14  15
ATOM     15  C   UNL     1      35.285  35.830  25.031  1.00  0.00     0.000 C 
BRANCH  15  16
ATOM     16  C   UNL     1      35.005  34.853  26.185  1.00  0.00     0.000 C 
BRANCH  16  17
ATOM     17  C   UNL     1      36.116  33.800  26.349  1.00  0.00     0.000 C 
BRANCH  17  18
ATOM     18  C   UNL     1      36.729  33.807  27.759  1.00  0.00     0.000 C 
BRANCH  18  19
ATOM     19  C   UNL     1      37.348  35.167  28.128  1.00  0.00     0.000 C 
BRANCH  19  20
ATOM     20  C   UNL     1      36.808  35.725  29.458  1.00  0.00     0.006 C 
BRANCH  20  21
ATOM     21  C   UNL     1      36.271  37.162  29.368  1.00  0.00     0.053 C 
BRANCH  21  22
ATOM     22  C   UNL     1      37.363  38.156  29.113  1.00  0.00     0.041 C 
ATOM     23  O   UNL     1      37.418  38.769  28.015  1.00  0.00    -0.550 OA
ATOM     24  O   UNL     1      38.340  38.378  30.076  1.00  0.00    -0.550 OA
ENDBRANCH  21  22
ENDBRANCH  20  21
ENDBRANCH  19  20
ENDBRANCH  18  19
ENDBRANCH  17  18
ENDBRANCH  16  17
ENDBRANCH  15  16
ENDBRANCH  14  15
ENDBRANCH  13  14
ENDBRANCH   1  13
TORSDOF 20
ENDMDL
MODEL 9
REMARK VINA RESULT:    -4.033      3.291      7.954
REMARK INTER + INTRA:         -12.154
REMARK INTER:                  -8.206
REMARK INTRA:                  -3.948
REMARK UNBOUND:                -3.406
REMARK SMILES CCCCCCCCCCCCCCCCCCCCCC(=O)[O-]
REMARK SMILES IDX 12 1 11 2 10 3 9 4 8 5 7 6 6 7 5 8 4 9 3 10 2 11 1 12 13 13
REMARK SMILES IDX 14 14 15 15 16 16 17 17 18 18 19 19 20 20 21 21 22 22 23 23
REMARK SMILES IDX 24 24
REMARK H PARENT
REMARK Flexibility Score: inf
ROOT
ATOM      1  C   UNL     1      38.787  35.386  24.927  1.00  0.00     0.000 C 
ENDROOT
BRANCH   1   2
ATOM      2  C   UNL     1      37.805  36.552  24.677  1.00  0.00     0.000 C 
BRANCH   2   3
ATOM      3  C   UNL     1      36.448  36.163  24.056  1.00  0.00     0.000 C 
BRANCH   3   4
ATOM      4  C   UNL     1      35.250  36.216  25.033  1.00  0.00    -0.000 C 
BRANCH   4   5
ATOM      5  C   UNL     1      35.623  36.700  26.448  1.00  0.00    -0.000 C 
BRANCH   5   6
ATOM      6  C   UNL     1      35.110  35.808  27.593  1.00  0.00    -0.000 C 
BRANCH   6   7
ATOM      7  C   UNL     1      35.583  36.213  29.004  1.00  0.00    -0.000 C 
BRANCH   7   8
ATOM      8  C   UNL     1      36.993  35.726  29.390  1.00  0.00    -0.000 C 
BRANCH   8   9
ATOM      9  C   UNL     1      38.040  36.852  29.372  1.00  0.00    -0.000 C 
BRANCH   9  10
ATOM     10  C   UNL     1      37.400  38.251  29.339  1.00  0.00    -0.000 C 
BRANCH  10  11
ATOM     11  C   UNL     1      37.806  39.059  28.098  1.00  0.00    -0.003 C 
ATOM     12  C   UNL     1      39.106  38.527  27.500  1.00  0.00     0.004 C 
ENDBRANCH  10  11
ENDBRANCH   9  10
ENDBRANCH   8   9
ENDBRANCH   7   8
ENDBRANCH   6   7
ENDBRANCH   5   6
ENDBRANCH   4   5
ENDBRANCH   3   4
ENDBRANCH   2   3
ENDBRANCH   1   2
BRANCH   1  13
ATOM     13  C   UNL     1      38.822  34.852  26.369  1.00  0.00     0.000 C 
BRANCH  13  14
ATOM     14  C   UNL     1      38.040  33.542  26.541  1.00  0.00     0.000 C 
BRANCH  14  15
ATOM     15  C   UNL     1      37.767  32.887  25.180  1.00  0.00     0.000 C 
BRANCH  15  16
ATOM     16  C   UNL     1      36.528  31.976  25.194  1.00  0.00     0.000 C 
BRANCH  16  17
ATOM     17  C   UNL     1      35.345  32.600  25.954  1.00  0.00     0.000 C 
BRANCH  17  18
ATOM     18  C   UNL     1      34.002  32.374  25.241  1.00  0.00     0.000 C 
BRANCH  18  19
ATOM     19  C   UNL     1      33.902  33.142  23.911  1.00  0.00     0.000 C 
BRANCH  19  20
ATOM     20  C   UNL     1      33.203  32.328  22.806  1.00  0.00     0.006 C 
BRANCH  20  21
ATOM     21  C   UNL     1      33.756  30.905  22.625  1.00  0.00     0.053 C 
BRANCH  21  22
ATOM     22  C   UNL     1      35.042  30.896  21.855  1.00  0.00     0.041 C 
ATOM     23  O   UNL     1      35.168  31.608  20.825  1.00  0.00    -0.550 OA
ATOM     24  O   UNL     1      36.087  30.074  22.257  1.00  0.00    -0.550 OA
ENDBRANCH  21  22
ENDBRANCH  20  21
ENDBRANCH  19  20
ENDBRANCH  18  19
ENDBRANCH  17  18
ENDBRANCH  16  17
ENDBRANCH  15  16
ENDBRANCH  14  15
ENDBRANCH  13  14
ENDBRANCH   1  13
TORSDOF 20
ENDMDL
