MODEL 1
REMARK VINA RESULT:    -3.087      0.000      0.000
REMARK INTER + INTRA:          -3.454
REMARK INTER:                  -3.447
REMARK INTRA:                  -0.006
REMARK UNBOUND:                -0.006
REMARK SMILES CCCC(=O)[O-]
REMARK SMILES IDX 3 1 4 2 5 3 6 4 2 5 1 6
REMARK H PARENT
REMARK Flexibility Score: inf
ROOT
ATOM      1  C   UNL     1     -10.627  -5.667  -8.502  1.00  0.00     0.052 C 
ENDROOT
BRANCH   1   2
ATOM      2  C   UNL     1     -10.298  -6.261  -7.169  1.00  0.00     0.041 C 
ATOM      3  O   UNL     1      -9.250  -5.915  -6.563  1.00  0.00    -0.550 OA
ATOM      4  O   UNL     1     -11.121  -7.236  -6.619  1.00  0.00    -0.550 OA
ENDBRANCH   1   2
BRANCH   1   5
ATOM      5  C   UNL     1     -10.742  -4.144  -8.397  1.00  0.00     0.003 C 
ATOM      6  C   UNL     1     -11.377  -3.552  -9.651  1.00  0.00     0.004 C 
ENDBRANCH   1   5
TORSDOF 2
ENDMDL
MODEL 2
REMARK VINA RESULT:    -3.070      0.163      1.325
REMARK INTER + INTRA:          -3.435
REMARK INTER:                  -3.429
REMARK INTRA:                  -0.005
REMARK UNBOUND:                -0.006
REMARK SMILES CCCC(=O)[O-]
REMARK SMILES IDX 3 1 4 2 5 3 6 4 2 5 1 6
REMARK H PARENT
REMARK Flexibility Score: inf
ROOT
ATOM      1  C   UNL     1     -10.440  -5.594  -8.574  1.00  0.00     0.052 C 
ENDROOT
BRANCH   1   2
ATOM      2  C   UNL     1     -10.228  -6.258  -7.250  1.00  0.00     0.041 C 
ATOM      3  O   UNL     1     -11.078  -7.075  -6.808  1.00  0.00    -0.550 OA
ATOM      4  O   UNL     1      -9.117  -5.937  -6.481  1.00  0.00    -0.550 OA
ENDBRANCH   1   2
BRANCH   1   5
ATOM      5  C   UNL     1     -10.758  -4.108  -8.384  1.00  0.00     0.003 C 
ATOM      6  C   UNL     1     -11.479  -3.539  -9.602  1.00  0.00     0.004 C 
ENDBRANCH   1   5
TORSDOF 2
ENDMDL
MODEL 3
REMARK VINA RESULT:    -3.016      1.884      2.091
REMARK INTER + INTRA:          -3.375
REMARK INTER:                  -3.367
REMARK INTRA:                  -0.008
REMARK UNBOUND:                -0.006
REMARK SMILES CCCC(=O)[O-]
REMARK SMILES IDX 3 1 4 2 5 3 6 4 2 5 1 6
REMARK H PARENT
REMARK Flexibility Score: inf
ROOT
ATOM      1  C   UNL     1     -10.889  -3.890  -7.958  1.00  0.00     0.052 C 
ENDROOT
BRANCH   1   2
ATOM      2  C   UNL     1     -11.528  -4.484  -6.743  1.00  0.00     0.041 C 
ATOM      3  O   UNL     1     -10.854  -5.205  -5.961  1.00  0.00    -0.550 OA
ATOM      4  O   UNL     1     -12.881  -4.284  -6.500  1.00  0.00    -0.550 OA
ENDBRANCH   1   2
BRANCH   1   5
ATOM      5  C   UNL     1     -10.649  -4.967  -9.020  1.00  0.00     0.003 C 
ATOM      6  C   UNL     1     -11.013  -4.459 -10.412  1.00  0.00     0.004 C 
ENDBRANCH   1   5
TORSDOF 2
ENDMDL
MODEL 4
REMARK VINA RESULT:    -2.999      2.168      3.347
REMARK INTER + INTRA:          -3.355
REMARK INTER:                  -3.317
REMARK INTRA:                  -0.038
REMARK UNBOUND:                -0.006
REMARK SMILES CCCC(=O)[O-]
REMARK SMILES IDX 3 1 4 2 5 3 6 4 2 5 1 6
REMARK H PARENT
REMARK Flexibility Score: inf
ROOT
ATOM      1  C   UNL     1     -10.360  -6.076  -7.946  1.00  0.00     0.052 C 
ENDROOT
BRANCH   1   2
ATOM      2  C   UNL     1     -10.558  -4.710  -8.523  1.00  0.00     0.041 C 
ATOM      3  O   UNL     1     -10.682  -3.713  -7.763  1.00  0.00    -0.550 OA
ATOM      4  O   UNL     1     -10.658  -4.543  -9.898  1.00  0.00    -0.550 OA
ENDBRANCH   1   2
BRANCH   1   5
ATOM      5  C   UNL     1      -9.459  -6.011  -6.710  1.00  0.00     0.003 C 
ATOM      6  C   UNL     1     -10.180  -6.542  -5.475  1.00  0.00     0.004 C 
ENDBRANCH   1   5
TORSDOF 2
ENDMDL
MODEL 5
REMARK VINA RESULT:    -2.987      1.353      2.069
REMARK INTER + INTRA:          -3.342
REMARK INTER:                  -3.290
REMARK INTRA:                  -0.052
REMARK UNBOUND:                -0.006
REMARK SMILES CCCC(=O)[O-]
REMARK SMILES IDX 3 1 4 2 5 3 6 4 2 5 1 6
REMARK H PARENT
REMARK Flexibility Score: inf
ROOT
ATOM      1  C   UNL     1      -9.665  -5.912  -6.821  1.00  0.00     0.052 C 
ENDROOT
BRANCH   1   2
ATOM      2  C   UNL     1     -10.658  -6.120  -5.721  1.00  0.00     0.041 C 
ATOM      3  O   UNL     1     -11.282  -7.210  -5.628  1.00  0.00    -0.550 OA
ATOM      4  O   UNL     1     -10.933  -5.091  -4.829  1.00  0.00    -0.550 OA
ENDBRANCH   1   2
BRANCH   1   5
ATOM      5  C   UNL     1     -10.380  -5.660  -8.150  1.00  0.00     0.003 C 
ATOM      6  C   UNL     1     -10.763  -4.190  -8.299  1.00  0.00     0.004 C 
ENDBRANCH   1   5
TORSDOF 2
ENDMDL
MODEL 6
REMARK VINA RESULT:    -2.918     10.824     12.215
REMARK INTER + INTRA:          -3.265
REMARK INTER:                  -3.227
REMARK INTRA:                  -0.038
REMARK UNBOUND:                -0.006
REMARK SMILES CCCC(=O)[O-]
REMARK SMILES IDX 3 1 4 2 5 3 6 4 2 5 1 6
REMARK H PARENT
REMARK Flexibility Score: inf
ROOT
ATOM      1  C   UNL     1      -2.497 -12.255  -3.475  1.00  0.00     0.052 C 
ENDROOT
BRANCH   1   2
ATOM      2  C   UNL     1      -2.279 -12.074  -4.944  1.00  0.00     0.041 C 
ATOM      3  O   UNL     1      -2.943 -11.215  -5.583  1.00  0.00    -0.550 OA
ATOM      4  O   UNL     1      -1.379 -12.888  -5.620  1.00  0.00    -0.550 OA
ENDBRANCH   1   2
BRANCH   1   5
ATOM      5  C   UNL     1      -2.242 -13.709  -3.070  1.00  0.00     0.003 C 
ATOM      6  C   UNL     1      -1.057 -13.815  -2.115  1.00  0.00     0.004 C 
ENDBRANCH   1   5
TORSDOF 2
ENDMDL
MODEL 7
REMARK VINA RESULT:    -2.906      3.140      3.791
REMARK INTER + INTRA:          -3.252
REMARK INTER:                  -3.215
REMARK INTRA:                  -0.037
REMARK UNBOUND:                -0.006
REMARK SMILES CCCC(=O)[O-]
REMARK SMILES IDX 3 1 4 2 5 3 6 4 2 5 1 6
REMARK H PARENT
REMARK Flexibility Score: inf
ROOT
ATOM      1  C   UNL     1     -11.705  -6.566  -5.472  1.00  0.00     0.052 C 
ENDROOT
BRANCH   1   2
ATOM      2  C   UNL     1     -12.588  -5.389  -5.202  1.00  0.00     0.041 C 
ATOM      3  O   UNL     1     -13.078  -5.215  -4.055  1.00  0.00    -0.550 OA
ATOM      4  O   UNL     1     -12.913  -4.513  -6.229  1.00  0.00    -0.550 OA
ENDBRANCH   1   2
BRANCH   1   5
ATOM      5  C   UNL     1     -10.234  -6.188  -5.275  1.00  0.00     0.003 C 
ATOM      6  C   UNL     1      -9.522  -6.026  -6.615  1.00  0.00     0.004 C 
ENDBRANCH   1   5
TORSDOF 2
ENDMDL
MODEL 8
REMARK VINA RESULT:    -2.892      2.815      3.224
REMARK INTER + INTRA:          -3.237
REMARK INTER:                  -3.192
REMARK INTRA:                  -0.045
REMARK UNBOUND:                -0.006
REMARK SMILES CCCC(=O)[O-]
REMARK SMILES IDX 3 1 4 2 5 3 6 4 2 5 1 6
REMARK H PARENT
REMARK Flexibility Score: inf
ROOT
ATOM      1  C   UNL     1     -10.606  -4.378  -7.718  1.00  0.00     0.052 C 
ENDROOT
BRANCH   1   2
ATOM      2  C   UNL     1     -11.034  -4.354  -9.151  1.00  0.00     0.041 C 
ATOM      3  O   UNL     1     -11.303  -3.259  -9.714  1.00  0.00    -0.550 OA
ATOM      4  O   UNL     1     -11.185  -5.543  -9.852  1.00  0.00    -0.550 OA
ENDBRANCH   1   2
BRANCH   1   5
ATOM      5  C   UNL     1     -11.609  -3.618  -6.845  1.00  0.00     0.003 C 
ATOM      6  C   UNL     1     -12.674  -4.557  -6.286  1.00  0.00     0.004 C 
ENDBRANCH   1   5
TORSDOF 2
ENDMDL
MODEL 9
REMARK VINA RESULT:    -2.875      2.029      2.758
REMARK INTER + INTRA:          -3.217
REMARK INTER:                  -3.149
REMARK INTRA:                  -0.068
REMARK UNBOUND:                -0.006
REMARK SMILES CCCC(=O)[O-]
REMARK SMILES IDX 3 1 4 2 5 3 6 4 2 5 1 6
REMARK H PARENT
REMARK Flexibility Score: inf
ROOT
ATOM      1  C   UNL     1     -11.113  -4.051  -7.079  1.00  0.00     0.052 C 
ENDROOT
BRANCH   1   2
ATOM      2  C   UNL     1     -10.405  -5.315  -7.452  1.00  0.00     0.041 C 
ATOM      3  O   UNL     1     -10.760  -5.963  -8.472  1.00  0.00    -0.550 OA
ATOM      4  O   UNL     1      -9.387  -5.807  -6.645  1.00  0.00    -0.550 OA
ENDBRANCH   1   2
BRANCH   1   5
ATOM      5  C   UNL     1     -12.561  -4.345  -6.678  1.00  0.00     0.003 C 
ATOM      6  C   UNL     1     -12.627  -5.046  -5.325  1.00  0.00     0.004 C 
ENDBRANCH   1   5
TORSDOF 2
ENDMDL
