MODEL 1
REMARK VINA RESULT:    -3.444      0.000      0.000
REMARK INTER + INTRA:          -4.152
REMARK INTER:                  -4.149
REMARK INTRA:                  -0.002
REMARK UNBOUND:                -0.002
REMARK SMILES OCC(O)CO
REMARK SMILES IDX 3 1 5 2 6 3 2 5 1 6 4 8
REMARK H PARENT 6 4 1 7 4 9
REMARK Flexibility Score: inf
ROOT
ATOM      1  C   UNL     1      15.917   0.323 -24.942  1.00  0.00     0.165 C 
ENDROOT
BRANCH   1   2
ATOM      2  C   UNL     1      16.776   0.667 -23.710  1.00  0.00     0.190 C 
BRANCH   2   3
ATOM      3  O   UNL     1      16.527  -0.228 -22.660  1.00  0.00    -0.394 OA
ATOM      4  H   UNL     1      15.560  -0.450 -22.699  1.00  0.00     0.210 HD
ENDBRANCH   2   3
ENDBRANCH   1   2
BRANCH   1   5
ATOM      5  C   UNL     1      16.157   1.285 -26.117  1.00  0.00     0.190 C 
BRANCH   5   6
ATOM      6  O   UNL     1      15.181   2.292 -26.140  1.00  0.00    -0.394 OA
ATOM      7  H   UNL     1      15.081   2.555 -27.092  1.00  0.00     0.210 HD
ENDBRANCH   5   6
ENDBRANCH   1   5
BRANCH   1   8
ATOM      8  O   UNL     1      16.131  -1.009 -25.340  1.00  0.00    -0.388 OA
ATOM      9  H   UNL     1      15.465  -1.576 -24.870  1.00  0.00     0.211 HD
ENDBRANCH   1   8
TORSDOF 5
ENDMDL
MODEL 2
REMARK VINA RESULT:    -3.427      1.811      2.608
REMARK INTER + INTRA:          -4.131
REMARK INTER:                  -3.918
REMARK INTRA:                  -0.213
REMARK UNBOUND:                -0.002
REMARK SMILES OCC(O)CO
REMARK SMILES IDX 3 1 5 2 6 3 2 5 1 6 4 8
REMARK H PARENT 6 4 1 7 4 9
REMARK Flexibility Score: inf
ROOT
ATOM      1  C   UNL     1      16.185   1.702 -25.323  1.00  0.00     0.165 C 
ENDROOT
BRANCH   1   2
ATOM      2  C   UNL     1      15.857   0.210 -25.122  1.00  0.00     0.190 C 
BRANCH   2   3
ATOM      3  O   UNL     1      15.769  -0.453 -26.355  1.00  0.00    -0.394 OA
ATOM      4  H   UNL     1      15.031  -0.021 -26.858  1.00  0.00     0.210 HD
ENDBRANCH   2   3
ENDBRANCH   1   2
BRANCH   1   5
ATOM      5  C   UNL     1      17.514   1.921 -26.065  1.00  0.00     0.190 C 
BRANCH   5   6
ATOM      6  O   UNL     1      17.311   1.935 -27.452  1.00  0.00    -0.394 OA
ATOM      7  H   UNL     1      17.879   1.209 -27.820  1.00  0.00     0.210 HD
ENDBRANCH   5   6
ENDBRANCH   1   5
BRANCH   1   8
ATOM      8  O   UNL     1      15.133   2.357 -25.988  1.00  0.00    -0.388 OA
ATOM      9  H   UNL     1      14.413   2.524 -25.324  1.00  0.00     0.211 HD
ENDBRANCH   1   8
TORSDOF 5
ENDMDL
MODEL 3
REMARK VINA RESULT:    -3.420      1.691      2.824
REMARK INTER + INTRA:          -4.122
REMARK INTER:                  -3.907
REMARK INTRA:                  -0.216
REMARK UNBOUND:                -0.002
REMARK SMILES OCC(O)CO
REMARK SMILES IDX 3 1 5 2 6 3 2 5 1 6 4 8
REMARK H PARENT 6 4 1 7 4 9
REMARK Flexibility Score: inf
ROOT
ATOM      1  C   UNL     1      17.032  -0.318 -24.822  1.00  0.00     0.165 C 
ENDROOT
BRANCH   1   2
ATOM      2  C   UNL     1      16.534   0.509 -23.621  1.00  0.00     0.190 C 
BRANCH   2   3
ATOM      3  O   UNL     1      16.710  -0.194 -22.421  1.00  0.00    -0.394 OA
ATOM      4  H   UNL     1      16.113  -0.986 -22.465  1.00  0.00     0.210 HD
ENDBRANCH   2   3
ENDBRANCH   1   2
BRANCH   1   5
ATOM      5  C   UNL     1      17.905  -1.510 -24.397  1.00  0.00     0.190 C 
BRANCH   5   6
ATOM      6  O   UNL     1      17.116  -2.645 -24.165  1.00  0.00    -0.394 OA
ATOM      7  H   UNL     1      17.656  -3.421 -24.467  1.00  0.00     0.210 HD
ENDBRANCH   5   6
ENDBRANCH   1   5
BRANCH   1   8
ATOM      8  O   UNL     1      15.950  -0.751 -25.610  1.00  0.00    -0.388 OA
ATOM      9  H   UNL     1      15.476   0.055 -25.942  1.00  0.00     0.211 HD
ENDBRANCH   1   8
TORSDOF 5
ENDMDL
MODEL 4
REMARK VINA RESULT:    -3.406      1.481      2.471
REMARK INTER + INTRA:          -4.105
REMARK INTER:                  -3.890
REMARK INTRA:                  -0.215
REMARK UNBOUND:                -0.002
REMARK SMILES OCC(O)CO
REMARK SMILES IDX 3 1 5 2 6 3 2 5 1 6 4 8
REMARK H PARENT 6 4 1 7 4 9
REMARK Flexibility Score: inf
ROOT
ATOM      1  C   UNL     1      17.127  -0.112 -23.889  1.00  0.00     0.165 C 
ENDROOT
BRANCH   1   2
ATOM      2  C   UNL     1      17.891  -1.375 -24.332  1.00  0.00     0.190 C 
BRANCH   2   3
ATOM      3  O   UNL     1      17.104  -2.522 -24.159  1.00  0.00    -0.394 OA
ATOM      4  H   UNL     1      16.940  -2.893 -25.065  1.00  0.00     0.210 HD
ENDBRANCH   2   3
ENDBRANCH   1   2
BRANCH   1   5
ATOM      5  C   UNL     1      16.004   0.272 -24.866  1.00  0.00     0.190 C 
BRANCH   5   6
ATOM      6  O   UNL     1      15.928  -0.647 -25.921  1.00  0.00    -0.394 OA
ATOM      7  H   UNL     1      16.379  -1.472 -25.600  1.00  0.00     0.210 HD
ENDBRANCH   5   6
ENDBRANCH   1   5
BRANCH   1   8
ATOM      8  O   UNL     1      16.620  -0.270 -22.587  1.00  0.00    -0.388 OA
ATOM      9  H   UNL     1      17.136   0.329 -21.986  1.00  0.00     0.211 HD
ENDBRANCH   1   8
TORSDOF 5
ENDMDL
MODEL 5
REMARK VINA RESULT:    -3.340      8.087      9.263
REMARK INTER + INTRA:          -4.026
REMARK INTER:                  -4.023
REMARK INTRA:                  -0.003
REMARK UNBOUND:                -0.002
REMARK SMILES OCC(O)CO
REMARK SMILES IDX 3 1 5 2 6 3 2 5 1 6 4 8
REMARK H PARENT 6 4 1 7 4 9
REMARK Flexibility Score: inf
ROOT
ATOM      1  C   UNL     1      18.564   0.983 -15.818  1.00  0.00     0.165 C 
ENDROOT
BRANCH   1   2
ATOM      2  C   UNL     1      19.365  -0.328 -15.938  1.00  0.00     0.190 C 
BRANCH   2   3
ATOM      3  O   UNL     1      19.882  -0.714 -14.693  1.00  0.00    -0.394 OA
ATOM      4  H   UNL     1      19.801   0.073 -14.094  1.00  0.00     0.210 HD
ENDBRANCH   2   3
ENDBRANCH   1   2
BRANCH   1   5
ATOM      5  C   UNL     1      18.095   1.516 -17.182  1.00  0.00     0.190 C 
BRANCH   5   6
ATOM      6  O   UNL     1      16.774   1.979 -17.105  1.00  0.00    -0.394 OA
ATOM      7  H   UNL     1      16.830   2.970 -17.095  1.00  0.00     0.210 HD
ENDBRANCH   5   6
ENDBRANCH   1   5
BRANCH   1   8
ATOM      8  O   UNL     1      17.472   0.820 -14.946  1.00  0.00    -0.388 OA
ATOM      9  H   UNL     1      17.377   1.658 -14.421  1.00  0.00     0.211 HD
ENDBRANCH   1   8
TORSDOF 5
ENDMDL
MODEL 6
REMARK VINA RESULT:    -3.324      1.233      3.050
REMARK INTER + INTRA:          -4.007
REMARK INTER:                  -4.004
REMARK INTRA:                  -0.003
REMARK UNBOUND:                -0.002
REMARK SMILES OCC(O)CO
REMARK SMILES IDX 3 1 5 2 6 3 2 5 1 6 4 8
REMARK H PARENT 6 4 1 7 4 9
REMARK Flexibility Score: inf
ROOT
ATOM      1  C   UNL     1      16.143   0.476 -25.554  1.00  0.00     0.165 C 
ENDROOT
BRANCH   1   2
ATOM      2  C   UNL     1      16.274   2.009 -25.471  1.00  0.00     0.190 C 
BRANCH   2   3
ATOM      3  O   UNL     1      15.087   2.635 -25.876  1.00  0.00    -0.394 OA
ATOM      4  H   UNL     1      15.305   3.159 -26.689  1.00  0.00     0.210 HD
ENDBRANCH   2   3
ENDBRANCH   1   2
BRANCH   1   5
ATOM      5  C   UNL     1      16.381  -0.212 -24.199  1.00  0.00     0.190 C 
BRANCH   5   6
ATOM      6  O   UNL     1      16.728  -1.558 -24.381  1.00  0.00    -0.394 OA
ATOM      7  H   UNL     1      17.091  -1.868 -23.510  1.00  0.00     0.210 HD
ENDBRANCH   5   6
ENDBRANCH   1   5
BRANCH   1   8
ATOM      8  O   UNL     1      14.892   0.111 -26.083  1.00  0.00    -0.388 OA
ATOM      9  H   UNL     1      14.201   0.336 -25.406  1.00  0.00     0.211 HD
ENDBRANCH   1   8
TORSDOF 5
ENDMDL
MODEL 7
REMARK VINA RESULT:    -3.313      1.966      2.674
REMARK INTER + INTRA:          -3.994
REMARK INTER:                  -3.770
REMARK INTRA:                  -0.224
REMARK UNBOUND:                -0.002
REMARK SMILES OCC(O)CO
REMARK SMILES IDX 3 1 5 2 6 3 2 5 1 6 4 8
REMARK H PARENT 6 4 1 7 4 9
REMARK Flexibility Score: inf
ROOT
ATOM      1  C   UNL     1      16.439   0.372 -25.782  1.00  0.00     0.165 C 
ENDROOT
BRANCH   1   2
ATOM      2  C   UNL     1      17.579   0.443 -26.816  1.00  0.00     0.190 C 
BRANCH   2   3
ATOM      3  O   UNL     1      17.540   1.654 -27.522  1.00  0.00    -0.394 OA
ATOM      4  H   UNL     1      18.205   2.254 -27.096  1.00  0.00     0.210 HD
ENDBRANCH   2   3
ENDBRANCH   1   2
BRANCH   1   5
ATOM      5  C   UNL     1      16.081   1.750 -25.201  1.00  0.00     0.190 C 
BRANCH   5   6
ATOM      6  O   UNL     1      15.155   2.409 -26.022  1.00  0.00    -0.394 OA
ATOM      7  H   UNL     1      15.559   3.289 -26.240  1.00  0.00     0.210 HD
ENDBRANCH   5   6
ENDBRANCH   1   5
BRANCH   1   8
ATOM      8  O   UNL     1      15.303  -0.243 -26.337  1.00  0.00    -0.388 OA
ATOM      9  H   UNL     1      15.205  -1.136 -25.915  1.00  0.00     0.211 HD
ENDBRANCH   1   8
TORSDOF 5
ENDMDL
MODEL 8
REMARK VINA RESULT:    -3.303      1.544      2.533
REMARK INTER + INTRA:          -3.981
REMARK INTER:                  -3.762
REMARK INTRA:                  -0.219
REMARK UNBOUND:                -0.002
REMARK SMILES OCC(O)CO
REMARK SMILES IDX 3 1 5 2 6 3 2 5 1 6 4 8
REMARK H PARENT 6 4 1 7 4 9
REMARK Flexibility Score: inf
ROOT
ATOM      1  C   UNL     1      16.142   0.180 -26.111  1.00  0.00     0.165 C 
ENDROOT
BRANCH   1   2
ATOM      2  C   UNL     1      15.907   1.489 -25.332  1.00  0.00     0.190 C 
BRANCH   2   3
ATOM      3  O   UNL     1      15.195   2.413 -26.110  1.00  0.00    -0.394 OA
ATOM      4  H   UNL     1      15.127   3.244 -25.572  1.00  0.00     0.210 HD
ENDBRANCH   2   3
ENDBRANCH   1   2
BRANCH   1   5
ATOM      5  C   UNL     1      17.467   0.187 -26.891  1.00  0.00     0.190 C 
BRANCH   5   6
ATOM      6  O   UNL     1      17.705   1.449 -27.454  1.00  0.00    -0.394 OA
ATOM      7  H   UNL     1      17.506   2.110 -26.740  1.00  0.00     0.210 HD
ENDBRANCH   5   6
ENDBRANCH   1   5
BRANCH   1   8
ATOM      8  O   UNL     1      16.079  -0.929 -25.249  1.00  0.00    -0.388 OA
ATOM      9  H   UNL     1      15.211  -1.384 -25.405  1.00  0.00     0.211 HD
ENDBRANCH   1   8
TORSDOF 5
ENDMDL
MODEL 9
REMARK VINA RESULT:    -3.225     14.967     15.578
REMARK INTER + INTRA:          -3.888
REMARK INTER:                  -3.699
REMARK INTRA:                  -0.189
REMARK UNBOUND:                -0.002
REMARK SMILES OCC(O)CO
REMARK SMILES IDX 3 1 5 2 6 3 2 5 1 6 4 8
REMARK H PARENT 6 4 1 7 4 9
REMARK Flexibility Score: inf
ROOT
ATOM      1  C   UNL     1      26.044 -12.298 -24.810  1.00  0.00     0.165 C 
ENDROOT
BRANCH   1   2
ATOM      2  C   UNL     1      24.542 -12.632 -24.895  1.00  0.00     0.190 C 
BRANCH   2   3
ATOM      3  O   UNL     1      23.761 -11.520 -24.550  1.00  0.00    -0.394 OA
ATOM      4  H   UNL     1      22.817 -11.769 -24.727  1.00  0.00     0.210 HD
ENDBRANCH   2   3
ENDBRANCH   1   2
BRANCH   1   5
ATOM      5  C   UNL     1      26.395 -10.973 -25.507  1.00  0.00     0.190 C 
BRANCH   5   6
ATOM      6  O   UNL     1      26.469  -9.928 -24.576  1.00  0.00    -0.394 OA
ATOM      7  H   UNL     1      26.094 -10.287 -23.729  1.00  0.00     0.210 HD
ENDBRANCH   5   6
ENDBRANCH   1   5
BRANCH   1   8
ATOM      8  O   UNL     1      26.474 -12.284 -23.471  1.00  0.00    -0.388 OA
ATOM      9  H   UNL     1      25.669 -12.211 -22.895  1.00  0.00     0.211 HD
ENDBRANCH   1   8
TORSDOF 5
ENDMDL
