MODEL 1
REMARK VINA RESULT:    -5.666      0.000      0.000
REMARK INTER + INTRA:         -12.904
REMARK INTER:                 -10.635
REMARK INTRA:                  -2.269
REMARK UNBOUND:                -2.269
REMARK SMILES CCCCCCCCC=CCCCCCCCC(=O)[O-]
REMARK SMILES IDX 10 1 9 2 11 3 12 4 13 5 14 6 15 7 16 8 17 9 18 10 19 11
REMARK SMILES IDX 20 12 8 13 7 14 6 15 5 16 4 17 3 18 2 19 1 20
REMARK H PARENT
REMARK Flexibility Score: inf
ROOT
ATOM      1  C   UNL     1     -41.632  14.562  -1.512  1.00  0.00    -0.031 C 
ATOM      2  C   UNL     1     -40.351  14.311  -1.834  1.00  0.00    -0.031 C 
ENDROOT
BRANCH   1   3
ATOM      3  C   UNL     1     -42.809  13.718  -1.939  1.00  0.00     0.027 C 
BRANCH   3   4
ATOM      4  C   UNL     1     -44.141  14.259  -1.391  1.00  0.00     0.004 C 
BRANCH   4   5
ATOM      5  C   UNL     1     -44.725  13.445  -0.222  1.00  0.00     0.000 C 
BRANCH   5   6
ATOM      6  C   UNL     1     -43.886  12.203   0.119  1.00  0.00     0.000 C 
BRANCH   6   7
ATOM      7  C   UNL     1     -43.181  12.373   1.472  1.00  0.00     0.000 C 
BRANCH   7   8
ATOM      8  C   UNL     1     -41.649  12.276   1.363  1.00  0.00     0.006 C 
BRANCH   8   9
ATOM      9  C   UNL     1     -40.887  13.121   2.396  1.00  0.00     0.053 C 
BRANCH   9  10
ATOM     10  C   UNL     1     -39.566  13.592   1.872  1.00  0.00     0.041 C 
ATOM     11  O   UNL     1     -39.407  14.798   1.546  1.00  0.00    -0.550 OA
ATOM     12  O   UNL     1     -38.519  12.693   1.715  1.00  0.00    -0.550 OA
ENDBRANCH   9  10
ENDBRANCH   8   9
ENDBRANCH   7   8
ENDBRANCH   6   7
ENDBRANCH   5   6
ENDBRANCH   4   5
ENDBRANCH   3   4
ENDBRANCH   1   3
BRANCH   2  13
ATOM     13  C   UNL     1     -39.873  13.092  -2.585  1.00  0.00     0.027 C 
BRANCH  13  14
ATOM     14  C   UNL     1     -39.298  13.448  -3.967  1.00  0.00     0.004 C 
BRANCH  14  15
ATOM     15  C   UNL     1     -37.879  12.906  -4.222  1.00  0.00     0.000 C 
BRANCH  15  16
ATOM     16  C   UNL     1     -36.909  13.986  -4.722  1.00  0.00     0.000 C 
BRANCH  16  17
ATOM     17  C   UNL     1     -36.046  14.524  -3.575  1.00  0.00    -0.000 C 
BRANCH  17  18
ATOM     18  C   UNL     1     -36.727  15.717  -2.887  1.00  0.00    -0.000 C 
BRANCH  18  19
ATOM     19  C   UNL     1     -36.830  15.542  -1.364  1.00  0.00    -0.003 C 
ATOM     20  C   UNL     1     -36.630  14.092  -0.921  1.00  0.00     0.004 C 
ENDBRANCH  18  19
ENDBRANCH  17  18
ENDBRANCH  16  17
ENDBRANCH  15  16
ENDBRANCH  14  15
ENDBRANCH  13  14
ENDBRANCH   2  13
TORSDOF 15
ENDMDL
MODEL 2
REMARK VINA RESULT:    -5.661      1.190      2.489
REMARK INTER + INTRA:         -12.895
REMARK INTER:                 -10.299
REMARK INTRA:                  -2.596
REMARK UNBOUND:                -2.269
REMARK SMILES CCCCCCCCC=CCCCCCCCC(=O)[O-]
REMARK SMILES IDX 10 1 9 2 11 3 12 4 13 5 14 6 15 7 16 8 17 9 18 10 19 11
REMARK SMILES IDX 20 12 8 13 7 14 6 15 5 16 4 17 3 18 2 19 1 20
REMARK H PARENT
REMARK Flexibility Score: inf
ROOT
ATOM      1  C   UNL     1     -41.345  13.007  -1.814  1.00  0.00    -0.031 C 
ATOM      2  C   UNL     1     -40.219  13.157  -1.094  1.00  0.00    -0.031 C 
ENDROOT
BRANCH   1   3
ATOM      3  C   UNL     1     -42.198  14.142  -2.327  1.00  0.00     0.027 C 
BRANCH   3   4
ATOM      4  C   UNL     1     -43.407  14.419  -1.416  1.00  0.00     0.004 C 
BRANCH   4   5
ATOM      5  C   UNL     1     -44.357  13.220  -1.241  1.00  0.00     0.000 C 
BRANCH   5   6
ATOM      6  C   UNL     1     -44.617  12.873   0.233  1.00  0.00     0.000 C 
BRANCH   6   7
ATOM      7  C   UNL     1     -44.047  11.490   0.579  1.00  0.00     0.000 C 
BRANCH   7   8
ATOM      8  C   UNL     1     -42.687  11.566   1.296  1.00  0.00     0.006 C 
BRANCH   8   9
ATOM      9  C   UNL     1     -42.397  12.923   1.956  1.00  0.00     0.053 C 
BRANCH   9  10
ATOM     10  C   UNL     1     -41.004  12.995   2.501  1.00  0.00     0.041 C 
ATOM     11  O   UNL     1     -40.124  12.189   2.100  1.00  0.00    -0.550 OA
ATOM     12  O   UNL     1     -40.685  13.934   3.474  1.00  0.00    -0.550 OA
ENDBRANCH   9  10
ENDBRANCH   8   9
ENDBRANCH   7   8
ENDBRANCH   6   7
ENDBRANCH   5   6
ENDBRANCH   4   5
ENDBRANCH   3   4
ENDBRANCH   1   3
BRANCH   2  13
ATOM     13  C   UNL     1     -39.570  14.482  -0.774  1.00  0.00     0.027 C 
BRANCH  13  14
ATOM     14  C   UNL     1     -38.056  14.346  -0.539  1.00  0.00     0.004 C 
BRANCH  14  15
ATOM     15  C   UNL     1     -37.227  15.542  -1.043  1.00  0.00     0.000 C 
BRANCH  15  16
ATOM     16  C   UNL     1     -36.568  15.281  -2.406  1.00  0.00     0.000 C 
BRANCH  16  17
ATOM     17  C   UNL     1     -36.517  13.780  -2.713  1.00  0.00    -0.000 C 
BRANCH  17  18
ATOM     18  C   UNL     1     -36.957  13.498  -4.157  1.00  0.00    -0.000 C 
BRANCH  18  19
ATOM     19  C   UNL     1     -38.465  13.226  -4.274  1.00  0.00    -0.003 C 
ATOM     20  C   UNL     1     -39.263  14.471  -4.660  1.00  0.00     0.004 C 
ENDBRANCH  18  19
ENDBRANCH  17  18
ENDBRANCH  16  17
ENDBRANCH  15  16
ENDBRANCH  14  15
ENDBRANCH  13  14
ENDBRANCH   2  13
TORSDOF 15
ENDMDL
MODEL 3
REMARK VINA RESULT:    -5.539      2.336      4.259
REMARK INTER + INTRA:         -12.664
REMARK INTER:                 -10.295
REMARK INTRA:                  -2.369
REMARK UNBOUND:                -2.269
REMARK SMILES CCCCCCCCC=CCCCCCCCC(=O)[O-]
REMARK SMILES IDX 10 1 9 2 11 3 12 4 13 5 14 6 15 7 16 8 17 9 18 10 19 11
REMARK SMILES IDX 20 12 8 13 7 14 6 15 5 16 4 17 3 18 2 19 1 20
REMARK H PARENT
REMARK Flexibility Score: inf
ROOT
ATOM      1  C   UNL     1     -38.376  14.766   0.071  1.00  0.00    -0.031 C 
ATOM      2  C   UNL     1     -37.712  15.521  -0.823  1.00  0.00    -0.031 C 
ENDROOT
BRANCH   1   3
ATOM      3  C   UNL     1     -38.123  13.298   0.315  1.00  0.00     0.027 C 
BRANCH   3   4
ATOM      4  C   UNL     1     -38.843  12.786   1.575  1.00  0.00     0.004 C 
BRANCH   4   5
ATOM      5  C   UNL     1     -39.866  13.773   2.167  1.00  0.00     0.000 C 
BRANCH   5   6
ATOM      6  C   UNL     1     -41.203  13.106   2.525  1.00  0.00     0.000 C 
BRANCH   6   7
ATOM      7  C   UNL     1     -41.734  12.276   1.347  1.00  0.00     0.000 C 
BRANCH   7   8
ATOM      8  C   UNL     1     -43.224  12.537   1.057  1.00  0.00     0.006 C 
BRANCH   8   9
ATOM      9  C   UNL     1     -43.952  11.362   0.387  1.00  0.00     0.053 C 
BRANCH   9  10
ATOM     10  C   UNL     1     -43.957  11.482  -1.105  1.00  0.00     0.041 C 
ATOM     11  O   UNL     1     -44.089  12.610  -1.650  1.00  0.00    -0.550 OA
ATOM     12  O   UNL     1     -43.845  10.345  -1.895  1.00  0.00    -0.550 OA
ENDBRANCH   9  10
ENDBRANCH   8   9
ENDBRANCH   7   8
ENDBRANCH   6   7
ENDBRANCH   5   6
ENDBRANCH   4   5
ENDBRANCH   3   4
ENDBRANCH   1   3
BRANCH   2  13
ATOM     13  C   UNL     1     -36.540  15.050  -1.649  1.00  0.00     0.027 C 
BRANCH  13  14
ATOM     14  C   UNL     1     -36.534  15.670  -3.057  1.00  0.00     0.004 C 
BRANCH  14  15
ATOM     15  C   UNL     1     -36.787  14.662  -4.194  1.00  0.00     0.000 C 
BRANCH  15  16
ATOM     16  C   UNL     1     -37.082  13.245  -3.683  1.00  0.00     0.000 C 
BRANCH  16  17
ATOM     17  C   UNL     1     -38.509  12.816  -4.043  1.00  0.00    -0.000 C 
BRANCH  17  18
ATOM     18  C   UNL     1     -39.485  13.997  -3.929  1.00  0.00    -0.000 C 
BRANCH  18  19
ATOM     19  C   UNL     1     -40.469  13.841  -2.760  1.00  0.00    -0.003 C 
ATOM     20  C   UNL     1     -40.457  12.435  -2.161  1.00  0.00     0.004 C 
ENDBRANCH  18  19
ENDBRANCH  17  18
ENDBRANCH  16  17
ENDBRANCH  15  16
ENDBRANCH  14  15
ENDBRANCH  13  14
ENDBRANCH   2  13
TORSDOF 15
ENDMDL
MODEL 4
REMARK VINA RESULT:    -5.528     10.561     12.375
REMARK INTER + INTRA:         -12.644
REMARK INTER:                 -10.260
REMARK INTRA:                  -2.384
REMARK UNBOUND:                -2.269
REMARK SMILES CCCCCCCCC=CCCCCCCCC(=O)[O-]
REMARK SMILES IDX 10 1 9 2 11 3 12 4 13 5 14 6 15 7 16 8 17 9 18 10 19 11
REMARK SMILES IDX 20 12 8 13 7 14 6 15 5 16 4 17 3 18 2 19 1 20
REMARK H PARENT
REMARK Flexibility Score: inf
ROOT
ATOM      1  C   UNL     1     -42.407  22.836  -0.933  1.00  0.00    -0.031 C 
ATOM      2  C   UNL     1     -43.501  23.256  -0.272  1.00  0.00    -0.031 C 
ENDROOT
BRANCH   1   3
ATOM      3  C   UNL     1     -41.250  23.718  -1.334  1.00  0.00     0.027 C 
BRANCH   3   4
ATOM      4  C   UNL     1     -41.492  24.420  -2.681  1.00  0.00     0.004 C 
BRANCH   4   5
ATOM      5  C   UNL     1     -41.825  23.466  -3.843  1.00  0.00     0.000 C 
BRANCH   5   6
ATOM      6  C   UNL     1     -43.097  23.870  -4.603  1.00  0.00     0.000 C 
BRANCH   6   7
ATOM      7  C   UNL     1     -43.837  24.999  -3.872  1.00  0.00     0.000 C 
BRANCH   7   8
ATOM      8  C   UNL     1     -45.300  24.644  -3.549  1.00  0.00     0.006 C 
BRANCH   8   9
ATOM      9  C   UNL     1     -45.590  23.135  -3.510  1.00  0.00     0.053 C 
BRANCH   9  10
ATOM     10  C   UNL     1     -46.562  22.723  -4.573  1.00  0.00     0.041 C 
ATOM     11  O   UNL     1     -46.979  23.566  -5.411  1.00  0.00    -0.550 OA
ATOM     12  O   UNL     1     -47.029  21.416  -4.619  1.00  0.00    -0.550 OA
ENDBRANCH   9  10
ENDBRANCH   8   9
ENDBRANCH   7   8
ENDBRANCH   6   7
ENDBRANCH   5   6
ENDBRANCH   4   5
ENDBRANCH   3   4
ENDBRANCH   1   3
BRANCH   2  13
ATOM     13  C   UNL     1     -43.698  24.652   0.267  1.00  0.00     0.027 C 
BRANCH  13  14
ATOM     14  C   UNL     1     -42.913  24.889   1.569  1.00  0.00     0.004 C 
BRANCH  14  15
ATOM     15  C   UNL     1     -41.854  26.004   1.476  1.00  0.00     0.000 C 
BRANCH  15  16
ATOM     16  C   UNL     1     -40.450  25.531   1.879  1.00  0.00     0.000 C 
BRANCH  16  17
ATOM     17  C   UNL     1     -39.375  26.489   1.354  1.00  0.00    -0.000 C 
BRANCH  17  18
ATOM     18  C   UNL     1     -38.212  25.716   0.715  1.00  0.00    -0.000 C 
BRANCH  18  19
ATOM     19  C   UNL     1     -38.032  26.043  -0.775  1.00  0.00    -0.003 C 
ATOM     20  C   UNL     1     -38.856  27.251  -1.219  1.00  0.00     0.004 C 
ENDBRANCH  18  19
ENDBRANCH  17  18
ENDBRANCH  16  17
ENDBRANCH  15  16
ENDBRANCH  14  15
ENDBRANCH  13  14
ENDBRANCH   2  13
TORSDOF 15
ENDMDL
MODEL 5
REMARK VINA RESULT:    -5.513      1.886      4.986
REMARK INTER + INTRA:         -12.617
REMARK INTER:                 -10.380
REMARK INTRA:                  -2.237
REMARK UNBOUND:                -2.269
REMARK SMILES CCCCCCCCC=CCCCCCCCC(=O)[O-]
REMARK SMILES IDX 10 1 9 2 11 3 12 4 13 5 14 6 15 7 16 8 17 9 18 10 19 11
REMARK SMILES IDX 20 12 8 13 7 14 6 15 5 16 4 17 3 18 2 19 1 20
REMARK H PARENT
REMARK Flexibility Score: inf
ROOT
ATOM      1  C   UNL     1     -43.251  11.602   1.374  1.00  0.00    -0.031 C 
ATOM      2  C   UNL     1     -44.330  11.991   0.671  1.00  0.00    -0.031 C 
ENDROOT
BRANCH   1   3
ATOM      3  C   UNL     1     -42.025  12.450   1.611  1.00  0.00     0.027 C 
BRANCH   3   4
ATOM      4  C   UNL     1     -40.764  11.840   0.974  1.00  0.00     0.004 C 
BRANCH   4   5
ATOM      5  C   UNL     1     -39.442  12.450   1.473  1.00  0.00     0.000 C 
BRANCH   5   6
ATOM      6  C   UNL     1     -39.591  13.910   1.926  1.00  0.00     0.000 C 
BRANCH   6   7
ATOM      7  C   UNL     1     -39.271  14.876   0.776  1.00  0.00     0.000 C 
BRANCH   7   8
ATOM      8  C   UNL     1     -38.085  14.405  -0.086  1.00  0.00     0.006 C 
BRANCH   8   9
ATOM      9  C   UNL     1     -37.349  15.537  -0.820  1.00  0.00     0.053 C 
BRANCH   9  10
ATOM     10  C   UNL     1     -36.602  15.036  -2.017  1.00  0.00     0.041 C 
ATOM     11  O   UNL     1     -36.348  15.812  -2.977  1.00  0.00    -0.550 OA
ATOM     12  O   UNL     1     -36.211  13.705  -2.087  1.00  0.00    -0.550 OA
ENDBRANCH   9  10
ENDBRANCH   8   9
ENDBRANCH   7   8
ENDBRANCH   6   7
ENDBRANCH   5   6
ENDBRANCH   4   5
ENDBRANCH   3   4
ENDBRANCH   1   3
BRANCH   2  13
ATOM     13  C   UNL     1     -44.533  13.372   0.096  1.00  0.00     0.027 C 
BRANCH  13  14
ATOM     14  C   UNL     1     -44.409  13.387  -1.437  1.00  0.00     0.004 C 
BRANCH  14  15
ATOM     15  C   UNL     1     -43.029  12.953  -1.966  1.00  0.00     0.000 C 
BRANCH  15  16
ATOM     16  C   UNL     1     -41.937  14.005  -1.723  1.00  0.00     0.000 C 
BRANCH  16  17
ATOM     17  C   UNL     1     -41.741  14.890  -2.959  1.00  0.00    -0.000 C 
BRANCH  17  18
ATOM     18  C   UNL     1     -40.335  14.706  -3.551  1.00  0.00    -0.000 C 
BRANCH  18  19
ATOM     19  C   UNL     1     -39.712  13.350  -3.185  1.00  0.00    -0.003 C 
ATOM     20  C   UNL     1     -38.717  12.854  -4.234  1.00  0.00     0.004 C 
ENDBRANCH  18  19
ENDBRANCH  17  18
ENDBRANCH  16  17
ENDBRANCH  15  16
ENDBRANCH  14  15
ENDBRANCH  13  14
ENDBRANCH   2  13
TORSDOF 15
ENDMDL
MODEL 6
REMARK VINA RESULT:    -5.507      2.246      6.223
REMARK INTER + INTRA:         -12.605
REMARK INTER:                 -10.409
REMARK INTRA:                  -2.196
REMARK UNBOUND:                -2.269
REMARK SMILES CCCCCCCCC=CCCCCCCCC(=O)[O-]
REMARK SMILES IDX 10 1 9 2 11 3 12 4 13 5 14 6 15 7 16 8 17 9 18 10 19 11
REMARK SMILES IDX 20 12 8 13 7 14 6 15 5 16 4 17 3 18 2 19 1 20
REMARK H PARENT
REMARK Flexibility Score: inf
ROOT
ATOM      1  C   UNL     1     -42.617  13.391  -1.977  1.00  0.00    -0.031 C 
ATOM      2  C   UNL     1     -43.873  13.050  -1.639  1.00  0.00    -0.031 C 
ENDROOT
BRANCH   1   3
ATOM      3  C   UNL     1     -41.814  14.486  -1.317  1.00  0.00     0.027 C 
BRANCH   3   4
ATOM      4  C   UNL     1     -40.301  14.308  -1.533  1.00  0.00     0.004 C 
BRANCH   4   5
ATOM      5  C   UNL     1     -39.427  15.315  -0.763  1.00  0.00     0.000 C 
BRANCH   5   6
ATOM      6  C   UNL     1     -38.002  14.800  -0.510  1.00  0.00     0.000 C 
BRANCH   6   7
ATOM      7  C   UNL     1     -37.102  15.057  -1.728  1.00  0.00     0.000 C 
BRANCH   7   8
ATOM      8  C   UNL     1     -36.506  13.764  -2.314  1.00  0.00     0.006 C 
BRANCH   8   9
ATOM      9  C   UNL     1     -36.505  13.709  -3.850  1.00  0.00     0.053 C 
BRANCH   9  10
ATOM     10  C   UNL     1     -37.888  13.572  -4.407  1.00  0.00     0.041 C 
ATOM     11  O   UNL     1     -38.597  12.575  -4.106  1.00  0.00    -0.550 OA
ATOM     12  O   UNL     1     -38.384  14.530  -5.282  1.00  0.00    -0.550 OA
ENDBRANCH   9  10
ENDBRANCH   8   9
ENDBRANCH   7   8
ENDBRANCH   6   7
ENDBRANCH   5   6
ENDBRANCH   4   5
ENDBRANCH   3   4
ENDBRANCH   1   3
BRANCH   2  13
ATOM     13  C   UNL     1     -44.643  13.633  -0.478  1.00  0.00     0.027 C 
BRANCH  13  14
ATOM     14  C   UNL     1     -44.803  12.630   0.677  1.00  0.00     0.004 C 
BRANCH  14  15
ATOM     15  C   UNL     1     -43.727  11.529   0.713  1.00  0.00     0.000 C 
BRANCH  15  16
ATOM     16  C   UNL     1     -42.581  11.844   1.685  1.00  0.00     0.000 C 
BRANCH  16  17
ATOM     17  C   UNL     1     -41.225  11.794   0.972  1.00  0.00    -0.000 C 
BRANCH  17  18
ATOM     18  C   UNL     1     -40.144  12.512   1.793  1.00  0.00    -0.000 C 
BRANCH  18  19
ATOM     19  C   UNL     1     -40.733  13.494   2.818  1.00  0.00    -0.003 C 
ATOM     20  C   UNL     1     -39.904  14.770   2.960  1.00  0.00     0.004 C 
ENDBRANCH  18  19
ENDBRANCH  17  18
ENDBRANCH  16  17
ENDBRANCH  15  16
ENDBRANCH  14  15
ENDBRANCH  13  14
ENDBRANCH   2  13
TORSDOF 15
ENDMDL
MODEL 7
REMARK VINA RESULT:    -5.478      2.684      6.457
REMARK INTER + INTRA:         -12.550
REMARK INTER:                 -10.352
REMARK INTRA:                  -2.198
REMARK UNBOUND:                -2.269
REMARK SMILES CCCCCCCCC=CCCCCCCCC(=O)[O-]
REMARK SMILES IDX 10 1 9 2 11 3 12 4 13 5 14 6 15 7 16 8 17 9 18 10 19 11
REMARK SMILES IDX 20 12 8 13 7 14 6 15 5 16 4 17 3 18 2 19 1 20
REMARK H PARENT
REMARK Flexibility Score: inf
ROOT
ATOM      1  C   UNL     1     -39.473  14.751   1.539  1.00  0.00    -0.031 C 
ATOM      2  C   UNL     1     -39.815  13.588   2.121  1.00  0.00    -0.031 C 
ENDROOT
BRANCH   1   3
ATOM      3  C   UNL     1     -38.854  14.880   0.168  1.00  0.00     0.027 C 
BRANCH   3   4
ATOM      4  C   UNL     1     -39.892  15.253  -0.906  1.00  0.00     0.004 C 
BRANCH   4   5
ATOM      5  C   UNL     1     -39.315  15.392  -2.326  1.00  0.00     0.000 C 
BRANCH   5   6
ATOM      6  C   UNL     1     -39.919  14.387  -3.319  1.00  0.00     0.000 C 
BRANCH   6   7
ATOM      7  C   UNL     1     -38.988  13.181  -3.512  1.00  0.00     0.000 C 
BRANCH   7   8
ATOM      8  C   UNL     1     -37.958  13.396  -4.636  1.00  0.00     0.006 C 
BRANCH   8   9
ATOM      9  C   UNL     1     -36.508  13.535  -4.147  1.00  0.00     0.053 C 
BRANCH   9  10
ATOM     10  C   UNL     1     -35.920  14.864  -4.507  1.00  0.00     0.041 C 
ATOM     11  O   UNL     1     -36.264  15.901  -3.879  1.00  0.00    -0.550 OA
ATOM     12  O   UNL     1     -35.013  14.963  -5.555  1.00  0.00    -0.550 OA
ENDBRANCH   9  10
ENDBRANCH   8   9
ENDBRANCH   7   8
ENDBRANCH   6   7
ENDBRANCH   5   6
ENDBRANCH   4   5
ENDBRANCH   3   4
ENDBRANCH   1   3
BRANCH   2  13
ATOM     13  C   UNL     1     -39.733  12.235   1.456  1.00  0.00     0.027 C 
BRANCH  13  14
ATOM     14  C   UNL     1     -41.028  11.876   0.707  1.00  0.00     0.004 C 
BRANCH  14  15
ATOM     15  C   UNL     1     -40.815  11.452  -0.759  1.00  0.00     0.000 C 
BRANCH  15  16
ATOM     16  C   UNL     1     -42.098  11.539  -1.598  1.00  0.00     0.000 C 
BRANCH  16  17
ATOM     17  C   UNL     1     -42.724  12.935  -1.502  1.00  0.00    -0.000 C 
BRANCH  17  18
ATOM     18  C   UNL     1     -44.257  12.847  -1.436  1.00  0.00    -0.000 C 
BRANCH  18  19
ATOM     19  C   UNL     1     -44.820  13.347  -0.097  1.00  0.00    -0.003 C 
ATOM     20  C   UNL     1     -44.682  12.317   1.024  1.00  0.00     0.004 C 
ENDBRANCH  18  19
ENDBRANCH  17  18
ENDBRANCH  16  17
ENDBRANCH  15  16
ENDBRANCH  14  15
ENDBRANCH  13  14
ENDBRANCH   2  13
TORSDOF 15
ENDMDL
MODEL 8
REMARK VINA RESULT:    -5.471      2.347      6.534
REMARK INTER + INTRA:         -12.537
REMARK INTER:                 -10.203
REMARK INTRA:                  -2.334
REMARK UNBOUND:                -2.269
REMARK SMILES CCCCCCCCC=CCCCCCCCC(=O)[O-]
REMARK SMILES IDX 10 1 9 2 11 3 12 4 13 5 14 6 15 7 16 8 17 9 18 10 19 11
REMARK SMILES IDX 20 12 8 13 7 14 6 15 5 16 4 17 3 18 2 19 1 20
REMARK H PARENT
REMARK Flexibility Score: inf
ROOT
ATOM      1  C   UNL     1     -38.893  13.311   0.697  1.00  0.00    -0.031 C 
ATOM      2  C   UNL     1     -39.661  12.644   1.577  1.00  0.00    -0.031 C 
ENDROOT
BRANCH   1   3
ATOM      3  C   UNL     1     -38.882  14.811   0.526  1.00  0.00     0.027 C 
BRANCH   3   4
ATOM      4  C   UNL     1     -39.409  15.242  -0.854  1.00  0.00     0.004 C 
BRANCH   4   5
ATOM      5  C   UNL     1     -40.807  14.698  -1.198  1.00  0.00     0.000 C 
BRANCH   5   6
ATOM      6  C   UNL     1     -40.875  14.067  -2.598  1.00  0.00     0.000 C 
BRANCH   6   7
ATOM      7  C   UNL     1     -39.938  12.855  -2.699  1.00  0.00     0.000 C 
BRANCH   7   8
ATOM      8  C   UNL     1     -38.978  12.942  -3.900  1.00  0.00     0.006 C 
BRANCH   8   9
ATOM      9  C   UNL     1     -37.595  13.521  -3.563  1.00  0.00     0.053 C 
BRANCH   9  10
ATOM     10  C   UNL     1     -37.460  14.945  -4.007  1.00  0.00     0.041 C 
ATOM     11  O   UNL     1     -36.482  15.638  -3.622  1.00  0.00    -0.550 OA
ATOM     12  O   UNL     1     -38.431  15.515  -4.821  1.00  0.00    -0.550 OA
ENDBRANCH   9  10
ENDBRANCH   8   9
ENDBRANCH   7   8
ENDBRANCH   6   7
ENDBRANCH   5   6
ENDBRANCH   4   5
ENDBRANCH   3   4
ENDBRANCH   1   3
BRANCH   2  13
ATOM     13  C   UNL     1     -40.556  13.292   2.605  1.00  0.00     0.027 C 
BRANCH  13  14
ATOM     14  C   UNL     1     -42.044  13.002   2.345  1.00  0.00     0.004 C 
BRANCH  14  15
ATOM     15  C   UNL     1     -42.314  12.139   1.099  1.00  0.00     0.000 C 
BRANCH  15  16
ATOM     16  C   UNL     1     -43.719  11.520   1.092  1.00  0.00     0.000 C 
BRANCH  16  17
ATOM     17  C   UNL     1     -44.754  12.510   0.546  1.00  0.00    -0.000 C 
BRANCH  17  18
ATOM     18  C   UNL     1     -44.221  13.231  -0.702  1.00  0.00    -0.000 C 
BRANCH  18  19
ATOM     19  C   UNL     1     -44.846  14.621  -0.893  1.00  0.00    -0.003 C 
ATOM     20  C   UNL     1     -44.449  15.272  -2.218  1.00  0.00     0.004 C 
ENDBRANCH  18  19
ENDBRANCH  17  18
ENDBRANCH  16  17
ENDBRANCH  15  16
ENDBRANCH  14  15
ENDBRANCH  13  14
ENDBRANCH   2  13
TORSDOF 15
ENDMDL
MODEL 9
REMARK VINA RESULT:    -5.455      2.440      3.889
REMARK INTER + INTRA:         -12.507
REMARK INTER:                 -10.353
REMARK INTRA:                  -2.155
REMARK UNBOUND:                -2.269
REMARK SMILES CCCCCCCCC=CCCCCCCCC(=O)[O-]
REMARK SMILES IDX 10 1 9 2 11 3 12 4 13 5 14 6 15 7 16 8 17 9 18 10 19 11
REMARK SMILES IDX 20 12 8 13 7 14 6 15 5 16 4 17 3 18 2 19 1 20
REMARK H PARENT
REMARK Flexibility Score: inf
ROOT
ATOM      1  C   UNL     1     -39.589  14.687  -0.266  1.00  0.00    -0.031 C 
ATOM      2  C   UNL     1     -40.450  14.345  -1.241  1.00  0.00    -0.031 C 
ENDROOT
BRANCH   1   3
ATOM      3  C   UNL     1     -38.521  13.782   0.298  1.00  0.00     0.027 C 
BRANCH   3   4
ATOM      4  C   UNL     1     -38.987  13.057   1.572  1.00  0.00     0.004 C 
BRANCH   4   5
ATOM      5  C   UNL     1     -40.018  13.839   2.407  1.00  0.00     0.000 C 
BRANCH   5   6
ATOM      6  C   UNL     1     -41.268  13.011   2.742  1.00  0.00     0.000 C 
BRANCH   6   7
ATOM      7  C   UNL     1     -41.719  12.183   1.530  1.00  0.00     0.000 C 
BRANCH   7   8
ATOM      8  C   UNL     1     -43.102  12.604   1.001  1.00  0.00     0.006 C 
BRANCH   8   9
ATOM      9  C   UNL     1     -43.907  11.463   0.359  1.00  0.00     0.053 C 
BRANCH   9  10
ATOM     10  C   UNL     1     -43.895  11.541  -1.136  1.00  0.00     0.041 C 
ATOM     11  O   UNL     1     -43.933  12.660  -1.713  1.00  0.00    -0.550 OA
ATOM     12  O   UNL     1     -43.873  10.376  -1.893  1.00  0.00    -0.550 OA
ENDBRANCH   9  10
ENDBRANCH   8   9
ENDBRANCH   7   8
ENDBRANCH   6   7
ENDBRANCH   5   6
ENDBRANCH   4   5
ENDBRANCH   3   4
ENDBRANCH   1   3
BRANCH   2  13
ATOM     13  C   UNL     1     -40.419  13.039  -1.999  1.00  0.00     0.027 C 
BRANCH  13  14
ATOM     14  C   UNL     1     -39.451  13.084  -3.194  1.00  0.00     0.004 C 
BRANCH  14  15
ATOM     15  C   UNL     1     -39.328  14.468  -3.858  1.00  0.00     0.000 C 
BRANCH  15  16
ATOM     16  C   UNL     1     -37.942  15.101  -3.668  1.00  0.00     0.000 C 
BRANCH  16  17
ATOM     17  C   UNL     1     -36.922  14.059  -3.195  1.00  0.00    -0.000 C 
BRANCH  17  18
ATOM     18  C   UNL     1     -35.798  13.879  -4.227  1.00  0.00    -0.000 C 
BRANCH  18  19
ATOM     19  C   UNL     1     -35.747  15.024  -5.250  1.00  0.00    -0.003 C 
ATOM     20  C   UNL     1     -34.621  16.019  -4.970  1.00  0.00     0.004 C 
ENDBRANCH  18  19
ENDBRANCH  17  18
ENDBRANCH  16  17
ENDBRANCH  15  16
ENDBRANCH  14  15
ENDBRANCH  13  14
ENDBRANCH   2  13
TORSDOF 15
ENDMDL
