MODEL 1
REMARK VINA RESULT:    -3.298      0.000      0.000
REMARK INTER + INTRA:          -5.076
REMARK INTER:                  -4.455
REMARK INTRA:                  -0.621
REMARK UNBOUND:                -0.621
REMARK SMILES CCCCCCC=CC(=O)[O-]
REMARK SMILES IDX 5 1 6 2 7 3 8 4 9 5 10 6 11 7 4 8 3 9 2 10 1 11
REMARK H PARENT
REMARK Flexibility Score: inf
ROOT
ATOM      1  C   UNL     1     171.114 186.453  32.709  1.00  0.00     0.004 C 
ENDROOT
BRANCH   1   2
ATOM      2  C   UNL     1     171.301 185.658  31.406  1.00  0.00     0.027 C 
BRANCH   2   3
ATOM      3  C   UNL     1     170.012 185.560  30.642  1.00  0.00    -0.025 C 
ATOM      4  C   UNL     1     168.830 185.545  31.265  1.00  0.00     0.020 C 
BRANCH   4   5
ATOM      5  C   UNL     1     167.560 185.462  30.530  1.00  0.00     0.064 C 
ATOM      6  O   UNL     1     166.574 184.884  31.056  1.00  0.00    -0.545 OA
ATOM      7  O   UNL     1     167.430 186.015  29.260  1.00  0.00    -0.545 OA
ENDBRANCH   4   5
ENDBRANCH   2   3
ENDBRANCH   1   2
BRANCH   1   8
ATOM      8  C   UNL     1     171.547 185.661  33.952  1.00  0.00     0.000 C 
BRANCH   8   9
ATOM      9  C   UNL     1     172.240 184.337  33.598  1.00  0.00    -0.000 C 
BRANCH   9  10
ATOM     10  C   UNL     1     171.501 183.147  34.219  1.00  0.00    -0.003 C 
ATOM     11  C   UNL     1     170.897 182.249  33.143  1.00  0.00     0.004 C 
ENDBRANCH   9  10
ENDBRANCH   8   9
ENDBRANCH   1   8
TORSDOF 6
ENDMDL
MODEL 2
REMARK VINA RESULT:    -3.232      1.077      1.795
REMARK INTER + INTRA:          -4.986
REMARK INTER:                  -4.497
REMARK INTRA:                  -0.489
REMARK UNBOUND:                -0.621
REMARK SMILES CCCCCCC=CC(=O)[O-]
REMARK SMILES IDX 5 1 6 2 7 3 8 4 9 5 10 6 11 7 4 8 3 9 2 10 1 11
REMARK H PARENT
REMARK Flexibility Score: inf
ROOT
ATOM      1  C   UNL     1     171.591 186.188  32.802  1.00  0.00     0.004 C 
ENDROOT
BRANCH   1   2
ATOM      2  C   UNL     1     170.577 187.344  32.813  1.00  0.00     0.027 C 
BRANCH   2   3
ATOM      3  C   UNL     1     169.259 186.913  32.237  1.00  0.00    -0.025 C 
ATOM      4  C   UNL     1     169.191 186.088  31.188  1.00  0.00     0.020 C 
BRANCH   4   5
ATOM      5  C   UNL     1     167.908 185.646  30.622  1.00  0.00     0.064 C 
ATOM      6  O   UNL     1     167.589 185.998  29.457  1.00  0.00    -0.545 OA
ATOM      7  O   UNL     1     167.040 184.844  31.355  1.00  0.00    -0.545 OA
ENDBRANCH   4   5
ENDBRANCH   2   3
ENDBRANCH   1   2
BRANCH   1   8
ATOM      8  C   UNL     1     171.495 185.306  34.057  1.00  0.00     0.000 C 
BRANCH   8   9
ATOM      9  C   UNL     1     171.499 183.806  33.727  1.00  0.00    -0.000 C 
BRANCH   9  10
ATOM     10  C   UNL     1     172.224 183.537  32.404  1.00  0.00    -0.003 C 
ATOM     11  C   UNL     1     173.658 183.074  32.645  1.00  0.00     0.004 C 
ENDBRANCH   9  10
ENDBRANCH   8   9
ENDBRANCH   1   8
TORSDOF 6
ENDMDL
MODEL 3
REMARK VINA RESULT:    -3.203      3.220      4.690
REMARK INTER + INTRA:          -4.947
REMARK INTER:                  -4.298
REMARK INTRA:                  -0.648
REMARK UNBOUND:                -0.621
REMARK SMILES CCCCCCC=CC(=O)[O-]
REMARK SMILES IDX 5 1 6 2 7 3 8 4 9 5 10 6 11 7 4 8 3 9 2 10 1 11
REMARK H PARENT
REMARK Flexibility Score: inf
ROOT
ATOM      1  C   UNL     1     169.978 187.031  33.794  1.00  0.00     0.004 C 
ENDROOT
BRANCH   1   2
ATOM      2  C   UNL     1     171.205 186.875  32.881  1.00  0.00     0.027 C 
BRANCH   2   3
ATOM      3  C   UNL     1     171.920 185.583  33.152  1.00  0.00    -0.025 C 
ATOM      4  C   UNL     1     171.822 184.543  32.318  1.00  0.00     0.020 C 
BRANCH   4   5
ATOM      5  C   UNL     1     172.526 183.276  32.562  1.00  0.00     0.064 C 
ATOM      6  O   UNL     1     171.899 182.298  33.046  1.00  0.00    -0.545 OA
ATOM      7  O   UNL     1     173.879 183.140  32.266  1.00  0.00    -0.545 OA
ENDBRANCH   4   5
ENDBRANCH   2   3
ENDBRANCH   1   2
BRANCH   1   8
ATOM      8  C   UNL     1     168.655 187.025  33.013  1.00  0.00     0.000 C 
BRANCH   8   9
ATOM      9  C   UNL     1     168.179 185.606  32.667  1.00  0.00    -0.000 C 
BRANCH   9  10
ATOM     10  C   UNL     1     167.736 185.517  31.203  1.00  0.00    -0.003 C 
ATOM     11  C   UNL     1     168.920 185.691  30.256  1.00  0.00     0.004 C 
ENDBRANCH   9  10
ENDBRANCH   8   9
ENDBRANCH   1   8
TORSDOF 6
ENDMDL
MODEL 4
REMARK VINA RESULT:    -3.154     21.038     22.232
REMARK INTER + INTRA:          -4.881
REMARK INTER:                  -4.108
REMARK INTRA:                  -0.773
REMARK UNBOUND:                -0.621
REMARK SMILES CCCCCCC=CC(=O)[O-]
REMARK SMILES IDX 5 1 6 2 7 3 8 4 9 5 10 6 11 7 4 8 3 9 2 10 1 11
REMARK H PARENT
REMARK Flexibility Score: inf
ROOT
ATOM      1  C   UNL     1     164.703 170.333  17.121  1.00  0.00     0.004 C 
ENDROOT
BRANCH   1   2
ATOM      2  C   UNL     1     164.261 168.937  17.587  1.00  0.00     0.027 C 
BRANCH   2   3
ATOM      3  C   UNL     1     163.042 169.019  18.460  1.00  0.00    -0.025 C 
ATOM      4  C   UNL     1     162.578 170.192  18.903  1.00  0.00     0.020 C 
BRANCH   4   5
ATOM      5  C   UNL     1     161.378 170.289  19.748  1.00  0.00     0.064 C 
ATOM      6  O   UNL     1     160.276 170.602  19.228  1.00  0.00    -0.545 OA
ATOM      7  O   UNL     1     161.443 170.040  21.115  1.00  0.00    -0.545 OA
ENDBRANCH   4   5
ENDBRANCH   2   3
ENDBRANCH   1   2
BRANCH   1   8
ATOM      8  C   UNL     1     164.833 170.433  15.593  1.00  0.00     0.000 C 
BRANCH   8   9
ATOM      9  C   UNL     1     163.481 170.314  14.875  1.00  0.00    -0.000 C 
BRANCH   9  10
ATOM     10  C   UNL     1     162.505 171.390  15.362  1.00  0.00    -0.003 C 
ATOM     11  C   UNL     1     161.101 170.821  15.545  1.00  0.00     0.004 C 
ENDBRANCH   9  10
ENDBRANCH   8   9
ENDBRANCH   1   8
TORSDOF 6
ENDMDL
MODEL 5
REMARK VINA RESULT:    -3.121      3.169      4.895
REMARK INTER + INTRA:          -4.837
REMARK INTER:                  -4.093
REMARK INTRA:                  -0.744
REMARK UNBOUND:                -0.621
REMARK SMILES CCCCCCC=CC(=O)[O-]
REMARK SMILES IDX 5 1 6 2 7 3 8 4 9 5 10 6 11 7 4 8 3 9 2 10 1 11
REMARK H PARENT
REMARK Flexibility Score: inf
ROOT
ATOM      1  C   UNL     1     168.161 185.754  30.410  1.00  0.00     0.004 C 
ENDROOT
BRANCH   1   2
ATOM      2  C   UNL     1     169.648 185.396  30.255  1.00  0.00     0.027 C 
BRANCH   2   3
ATOM      3  C   UNL     1     170.228 184.918  31.555  1.00  0.00    -0.025 C 
ATOM      4  C   UNL     1     171.404 185.369  32.002  1.00  0.00     0.020 C 
BRANCH   4   5
ATOM      5  C   UNL     1     171.979 184.921  33.279  1.00  0.00     0.064 C 
ATOM      6  O   UNL     1     171.594 185.449  34.354  1.00  0.00    -0.545 OA
ATOM      7  O   UNL     1     172.945 183.920  33.318  1.00  0.00    -0.545 OA
ENDBRANCH   4   5
ENDBRANCH   2   3
ENDBRANCH   1   2
BRANCH   1   8
ATOM      8  C   UNL     1     167.947 187.087  31.143  1.00  0.00     0.000 C 
BRANCH   8   9
ATOM      9  C   UNL     1     167.331 186.903  32.538  1.00  0.00    -0.000 C 
BRANCH   9  10
ATOM     10  C   UNL     1     168.310 187.342  33.632  1.00  0.00    -0.003 C 
ATOM     11  C   UNL     1     169.384 188.271  33.072  1.00  0.00     0.004 C 
ENDBRANCH   9  10
ENDBRANCH   8   9
ENDBRANCH   1   8
TORSDOF 6
ENDMDL
MODEL 6
REMARK VINA RESULT:    -3.076     19.841     21.378
REMARK INTER + INTRA:          -4.776
REMARK INTER:                  -4.401
REMARK INTRA:                  -0.375
REMARK UNBOUND:                -0.621
REMARK SMILES CCCCCCC=CC(=O)[O-]
REMARK SMILES IDX 5 1 6 2 7 3 8 4 9 5 10 6 11 7 4 8 3 9 2 10 1 11
REMARK H PARENT
REMARK Flexibility Score: inf
ROOT
ATOM      1  C   UNL     1     163.213 168.999  18.654  1.00  0.00     0.004 C 
ENDROOT
BRANCH   1   2
ATOM      2  C   UNL     1     162.051 169.961  18.362  1.00  0.00     0.027 C 
BRANCH   2   3
ATOM      3  C   UNL     1     161.681 170.751  19.584  1.00  0.00    -0.025 C 
ATOM      4  C   UNL     1     160.433 171.186  19.783  1.00  0.00     0.020 C 
BRANCH   4   5
ATOM      5  C   UNL     1     160.053 171.949  20.981  1.00  0.00     0.064 C 
ATOM      6  O   UNL     1     160.308 171.483  22.122  1.00  0.00    -0.545 OA
ATOM      7  O   UNL     1     159.415 173.180  20.873  1.00  0.00    -0.545 OA
ENDBRANCH   4   5
ENDBRANCH   2   3
ENDBRANCH   1   2
BRANCH   1   8
ATOM      8  C   UNL     1     164.191 168.877  17.476  1.00  0.00     0.000 C 
BRANCH   8   9
ATOM      9  C   UNL     1     164.811 170.226  17.080  1.00  0.00    -0.000 C 
BRANCH   9  10
ATOM     10  C   UNL     1     164.869 170.376  15.556  1.00  0.00    -0.003 C 
ATOM     11  C   UNL     1     163.471 170.520  14.961  1.00  0.00     0.004 C 
ENDBRANCH   9  10
ENDBRANCH   8   9
ENDBRANCH   1   8
TORSDOF 6
ENDMDL
MODEL 7
REMARK VINA RESULT:    -3.052     18.892     20.565
REMARK INTER + INTRA:          -4.742
REMARK INTER:                  -4.576
REMARK INTRA:                  -0.166
REMARK UNBOUND:                -0.621
REMARK SMILES CCCCCCC=CC(=O)[O-]
REMARK SMILES IDX 5 1 6 2 7 3 8 4 9 5 10 6 11 7 4 8 3 9 2 10 1 11
REMARK H PARENT
REMARK Flexibility Score: inf
ROOT
ATOM      1  C   UNL     1     161.901 170.246  19.402  1.00  0.00     0.004 C 
ENDROOT
BRANCH   1   2
ATOM      2  C   UNL     1     160.480 170.818  19.531  1.00  0.00     0.027 C 
BRANCH   2   3
ATOM      3  C   UNL     1     160.407 171.845  20.624  1.00  0.00    -0.025 C 
ATOM      4  C   UNL     1     159.391 172.710  20.703  1.00  0.00     0.020 C 
BRANCH   4   5
ATOM      5  C   UNL     1     159.299 173.712  21.774  1.00  0.00     0.064 C 
ATOM      6  O   UNL     1     159.834 173.481  22.890  1.00  0.00    -0.545 OA
ATOM      7  O   UNL     1     158.629 174.915  21.574  1.00  0.00    -0.545 OA
ENDBRANCH   4   5
ENDBRANCH   2   3
ENDBRANCH   1   2
BRANCH   1   8
ATOM      8  C   UNL     1     162.287 169.944  17.945  1.00  0.00     0.000 C 
BRANCH   8   9
ATOM      9  C   UNL     1     163.257 170.983  17.363  1.00  0.00    -0.000 C 
BRANCH   9  10
ATOM     10  C   UNL     1     164.523 170.309  16.825  1.00  0.00    -0.003 C 
ATOM     11  C   UNL     1     164.718 170.605  15.340  1.00  0.00     0.004 C 
ENDBRANCH   9  10
ENDBRANCH   8   9
ENDBRANCH   1   8
TORSDOF 6
ENDMDL
MODEL 8
REMARK VINA RESULT:    -3.037     19.649     21.256
REMARK INTER + INTRA:          -4.723
REMARK INTER:                  -4.414
REMARK INTRA:                  -0.310
REMARK UNBOUND:                -0.621
REMARK SMILES CCCCCCC=CC(=O)[O-]
REMARK SMILES IDX 5 1 6 2 7 3 8 4 9 5 10 6 11 7 4 8 3 9 2 10 1 11
REMARK H PARENT
REMARK Flexibility Score: inf
ROOT
ATOM      1  C   UNL     1     161.757 170.345  17.581  1.00  0.00     0.004 C 
ENDROOT
BRANCH   1   2
ATOM      2  C   UNL     1     161.762 169.655  18.955  1.00  0.00     0.027 C 
BRANCH   2   3
ATOM      3  C   UNL     1     161.455 170.634  20.053  1.00  0.00    -0.025 C 
ATOM      4  C   UNL     1     160.307 171.317  20.078  1.00  0.00     0.020 C 
BRANCH   4   5
ATOM      5  C   UNL     1     159.987 172.267  21.153  1.00  0.00     0.064 C 
ATOM      6  O   UNL     1     159.758 173.472  20.870  1.00  0.00    -0.545 OA
ATOM      7  O   UNL     1     159.932 171.856  22.481  1.00  0.00    -0.545 OA
ENDBRANCH   4   5
ENDBRANCH   2   3
ENDBRANCH   1   2
BRANCH   1   8
ATOM      8  C   UNL     1     163.102 171.008  17.248  1.00  0.00     0.000 C 
BRANCH   8   9
ATOM      9  C   UNL     1     163.464 170.896  15.760  1.00  0.00    -0.000 C 
BRANCH   9  10
ATOM     10  C   UNL     1     164.862 170.295  15.579  1.00  0.00    -0.003 C 
ATOM     11  C   UNL     1     165.076 169.104  16.509  1.00  0.00     0.004 C 
ENDBRANCH   9  10
ENDBRANCH   8   9
ENDBRANCH   1   8
TORSDOF 6
ENDMDL
MODEL 9
REMARK VINA RESULT:    -2.974      2.260      3.738
REMARK INTER + INTRA:          -4.637
REMARK INTER:                  -4.249
REMARK INTRA:                  -0.389
REMARK UNBOUND:                -0.621
REMARK SMILES CCCCCCC=CC(=O)[O-]
REMARK SMILES IDX 5 1 6 2 7 3 8 4 9 5 10 6 11 7 4 8 3 9 2 10 1 11
REMARK H PARENT
REMARK Flexibility Score: inf
ROOT
ATOM      1  C   UNL     1     168.358 186.397  31.392  1.00  0.00     0.004 C 
ENDROOT
BRANCH   1   2
ATOM      2  C   UNL     1     167.262 185.672  32.190  1.00  0.00     0.027 C 
BRANCH   2   3
ATOM      3  C   UNL     1     166.558 184.653  31.341  1.00  0.00    -0.025 C 
ATOM      4  C   UNL     1     165.707 183.770  31.872  1.00  0.00     0.020 C 
BRANCH   4   5
ATOM      5  C   UNL     1     165.001 182.774  31.052  1.00  0.00     0.064 C 
ATOM      6  O   UNL     1     164.951 181.576  31.433  1.00  0.00    -0.545 OA
ATOM      7  O   UNL     1     164.385 183.137  29.858  1.00  0.00    -0.545 OA
ENDBRANCH   4   5
ENDBRANCH   2   3
ENDBRANCH   1   2
BRANCH   1   8
ATOM      8  C   UNL     1     169.254 185.428  30.605  1.00  0.00     0.000 C 
BRANCH   8   9
ATOM      9  C   UNL     1     170.563 185.103  31.340  1.00  0.00    -0.000 C 
BRANCH   9  10
ATOM     10  C   UNL     1     171.136 186.352  32.017  1.00  0.00    -0.003 C 
ATOM     11  C   UNL     1     171.685 186.026  33.403  1.00  0.00     0.004 C 
ENDBRANCH   9  10
ENDBRANCH   8   9
ENDBRANCH   1   8
TORSDOF 6
ENDMDL
