MODEL 1
REMARK VINA RESULT:    -1.516      0.000      0.000
REMARK INTER + INTRA:          -1.516
REMARK INTER:                  -1.516
REMARK INTRA:                   0.000
REMARK UNBOUND:                 0.000
REMARK SMILES CC(=O)[O-]
REMARK SMILES IDX 1 1 2 2 3 3 4 4
REMARK H PARENT
REMARK Flexibility Score: inf
ROOT
ATOM      1  C   UNL     1     -27.072  59.575  38.555  1.00  0.00     0.063 C 
ATOM      2  C   UNL     1     -28.298  58.945  37.987  1.00  0.00     0.038 C 
ATOM      3  O   UNL     1     -28.719  57.852  38.448  1.00  0.00    -0.550 OA
ATOM      4  O   UNL     1     -29.011  59.589  36.984  1.00  0.00    -0.550 OA
ENDROOT
TORSDOF 0
ENDMDL
MODEL 2
REMARK VINA RESULT:    -1.495      1.391      2.015
REMARK INTER + INTRA:          -1.495
REMARK INTER:                  -1.495
REMARK INTRA:                   0.000
REMARK UNBOUND:                 0.000
REMARK SMILES CC(=O)[O-]
REMARK SMILES IDX 1 1 2 2 3 3 4 4
REMARK H PARENT
REMARK Flexibility Score: inf
ROOT
ATOM      1  C   UNL     1     -28.180  57.461  38.169  1.00  0.00     0.063 C 
ATOM      2  C   UNL     1     -28.182  58.941  37.991  1.00  0.00     0.038 C 
ATOM      3  O   UNL     1     -28.928  59.472  37.126  1.00  0.00    -0.550 OA
ATOM      4  O   UNL     1     -27.403  59.742  38.815  1.00  0.00    -0.550 OA
ENDROOT
TORSDOF 0
ENDMDL
MODEL 3
REMARK VINA RESULT:    -1.484      8.521      9.054
REMARK INTER + INTRA:          -1.484
REMARK INTER:                  -1.484
REMARK INTRA:                   0.000
REMARK UNBOUND:                 0.000
REMARK SMILES CC(=O)[O-]
REMARK SMILES IDX 1 1 2 2 3 3 4 4
REMARK H PARENT
REMARK Flexibility Score: inf
ROOT
ATOM      1  C   UNL     1     -26.859  53.284  44.793  1.00  0.00     0.063 C 
ATOM      2  C   UNL     1     -26.510  54.538  45.519  1.00  0.00     0.038 C 
ATOM      3  O   UNL     1     -26.511  54.560  46.779  1.00  0.00    -0.550 OA
ATOM      4  O   UNL     1     -26.130  55.670  44.811  1.00  0.00    -0.550 OA
ENDROOT
TORSDOF 0
ENDMDL
MODEL 4
REMARK VINA RESULT:    -1.470      2.490      2.924
REMARK INTER + INTRA:          -1.470
REMARK INTER:                  -1.470
REMARK INTRA:                   0.000
REMARK UNBOUND:                 0.000
REMARK SMILES CC(=O)[O-]
REMARK SMILES IDX 1 1 2 2 3 3 4 4
REMARK H PARENT
REMARK Flexibility Score: inf
ROOT
ATOM      1  C   UNL     1     -28.444  57.937  38.268  1.00  0.00     0.063 C 
ATOM      2  C   UNL     1     -27.332  57.038  37.846  1.00  0.00     0.038 C 
ATOM      3  O   UNL     1     -27.339  56.522  36.697  1.00  0.00    -0.550 OA
ATOM      4  O   UNL     1     -26.259  56.811  38.697  1.00  0.00    -0.550 OA
ENDROOT
TORSDOF 0
ENDMDL
MODEL 5
REMARK VINA RESULT:    -1.459      8.429      9.085
REMARK INTER + INTRA:          -1.459
REMARK INTER:                  -1.459
REMARK INTRA:                   0.000
REMARK UNBOUND:                 0.000
REMARK SMILES CC(=O)[O-]
REMARK SMILES IDX 1 1 2 2 3 3 4 4
REMARK H PARENT
REMARK Flexibility Score: inf
ROOT
ATOM      1  C   UNL     1     -27.151  52.737  44.515  1.00  0.00     0.063 C 
ATOM      2  C   UNL     1     -26.518  53.999  44.995  1.00  0.00     0.038 C 
ATOM      3  O   UNL     1     -26.037  54.818  44.168  1.00  0.00    -0.550 OA
ATOM      4  O   UNL     1     -26.505  54.300  46.350  1.00  0.00    -0.550 OA
ENDROOT
TORSDOF 0
ENDMDL
MODEL 6
REMARK VINA RESULT:    -1.447      8.595      8.911
REMARK INTER + INTRA:          -1.447
REMARK INTER:                  -1.447
REMARK INTRA:                   0.000
REMARK UNBOUND:                 0.000
REMARK SMILES CC(=O)[O-]
REMARK SMILES IDX 1 1 2 2 3 3 4 4
REMARK H PARENT
REMARK Flexibility Score: inf
ROOT
ATOM      1  C   UNL     1     -25.731  54.120  43.710  1.00  0.00     0.063 C 
ATOM      2  C   UNL     1     -26.625  53.647  44.806  1.00  0.00     0.038 C 
ATOM      3  O   UNL     1     -26.598  54.212  45.931  1.00  0.00    -0.550 OA
ATOM      4  O   UNL     1     -27.527  52.618  44.572  1.00  0.00    -0.550 OA
ENDROOT
TORSDOF 0
ENDMDL
MODEL 7
REMARK VINA RESULT:    -1.444      1.702      2.037
REMARK INTER + INTRA:          -1.444
REMARK INTER:                  -1.444
REMARK INTRA:                   0.000
REMARK UNBOUND:                 0.000
REMARK SMILES CC(=O)[O-]
REMARK SMILES IDX 1 1 2 2 3 3 4 4
REMARK H PARENT
REMARK Flexibility Score: inf
ROOT
ATOM      1  C   UNL     1     -28.625  59.421  37.352  1.00  0.00     0.063 C 
ATOM      2  C   UNL     1     -27.983  58.312  38.114  1.00  0.00     0.038 C 
ATOM      3  O   UNL     1     -26.755  58.363  38.389  1.00  0.00    -0.550 OA
ATOM      4  O   UNL     1     -28.748  57.246  38.569  1.00  0.00    -0.550 OA
ENDROOT
TORSDOF 0
ENDMDL
MODEL 8
REMARK VINA RESULT:    -1.410      8.526      9.039
REMARK INTER + INTRA:          -1.410
REMARK INTER:                  -1.410
REMARK INTRA:                   0.000
REMARK UNBOUND:                 0.000
REMARK SMILES CC(=O)[O-]
REMARK SMILES IDX 1 1 2 2 3 3 4 4
REMARK H PARENT
REMARK Flexibility Score: inf
ROOT
ATOM      1  C   UNL     1     -26.140  53.364  42.804  1.00  0.00     0.063 C 
ATOM      2  C   UNL     1     -26.711  52.334  43.718  1.00  0.00     0.038 C 
ATOM      3  O   UNL     1     -27.544  52.665  44.602  1.00  0.00    -0.550 OA
ATOM      4  O   UNL     1     -26.368  50.998  43.561  1.00  0.00    -0.550 OA
ENDROOT
TORSDOF 0
ENDMDL
MODEL 9
REMARK VINA RESULT:    -1.351      8.506      8.935
REMARK INTER + INTRA:          -1.351
REMARK INTER:                  -1.351
REMARK INTRA:                   0.000
REMARK UNBOUND:                 0.000
REMARK SMILES CC(=O)[O-]
REMARK SMILES IDX 1 1 2 2 3 3 4 4
REMARK H PARENT
REMARK Flexibility Score: inf
ROOT
ATOM      1  C   UNL     1     -28.065  49.953  34.405  1.00  0.00     0.063 C 
ATOM      2  C   UNL     1     -28.676  51.246  33.984  1.00  0.00     0.038 C 
ATOM      3  O   UNL     1     -27.992  52.303  34.001  1.00  0.00    -0.550 OA
ATOM      4  O   UNL     1     -29.984  51.279  33.519  1.00  0.00    -0.550 OA
ENDROOT
TORSDOF 0
ENDMDL
