MODEL 1
REMARK VINA RESULT:    -4.386      0.000      0.000
REMARK INTER + INTRA:          -6.244
REMARK INTER:                  -5.925
REMARK INTRA:                  -0.320
REMARK UNBOUND:                -0.320
REMARK SMILES CCCCCCCC(=O)[O-]
REMARK SMILES IDX 5 1 6 2 7 3 8 4 9 5 10 6 4 7 3 8 2 9 1 10
REMARK H PARENT
REMARK Flexibility Score: inf
ROOT
ATOM      1  C   UNL     1      18.488  23.588   7.002  1.00  0.00     0.000 C 
ENDROOT
BRANCH   1   2
ATOM      2  C   UNL     1      19.703  23.721   7.929  1.00  0.00     0.006 C 
BRANCH   2   3
ATOM      3  C   UNL     1      20.891  22.914   7.398  1.00  0.00     0.053 C 
BRANCH   3   4
ATOM      4  C   UNL     1      21.672  22.326   8.530  1.00  0.00     0.041 C 
ATOM      5  O   UNL     1      21.697  22.901   9.649  1.00  0.00    -0.550 OA
ATOM      6  O   UNL     1      22.412  21.167   8.335  1.00  0.00    -0.550 OA
ENDBRANCH   3   4
ENDBRANCH   2   3
ENDBRANCH   1   2
BRANCH   1   7
ATOM      7  C   UNL     1      17.370  24.556   7.417  1.00  0.00     0.000 C 
BRANCH   7   8
ATOM      8  C   UNL     1      17.593  25.136   8.830  1.00  0.00    -0.000 C 
BRANCH   8   9
ATOM      9  C   UNL     1      17.614  26.672   8.869  1.00  0.00    -0.003 C 
ATOM     10  C   UNL     1      19.027  27.253   8.863  1.00  0.00     0.004 C 
ENDBRANCH   8   9
ENDBRANCH   7   8
ENDBRANCH   1   7
TORSDOF 6
ENDMDL
MODEL 2
REMARK VINA RESULT:    -4.382      2.422      4.378
REMARK INTER + INTRA:          -6.238
REMARK INTER:                  -5.816
REMARK INTRA:                  -0.422
REMARK UNBOUND:                -0.320
REMARK SMILES CCCCCCCC(=O)[O-]
REMARK SMILES IDX 5 1 6 2 7 3 8 4 9 5 10 6 4 7 3 8 2 9 1 10
REMARK H PARENT
REMARK Flexibility Score: inf
ROOT
ATOM      1  C   UNL     1      18.256  23.436   7.856  1.00  0.00     0.000 C 
ENDROOT
BRANCH   1   2
ATOM      2  C   UNL     1      17.415  24.688   7.575  1.00  0.00     0.006 C 
BRANCH   2   3
ATOM      3  C   UNL     1      17.231  25.523   8.846  1.00  0.00     0.053 C 
BRANCH   3   4
ATOM      4  C   UNL     1      18.516  26.185   9.228  1.00  0.00     0.041 C 
ATOM      5  O   UNL     1      19.127  25.829  10.270  1.00  0.00    -0.550 OA
ATOM      6  O   UNL     1      19.016  27.228   8.460  1.00  0.00    -0.550 OA
ENDBRANCH   3   4
ENDBRANCH   2   3
ENDBRANCH   1   2
BRANCH   1   7
ATOM      7  C   UNL     1      19.089  23.044   6.627  1.00  0.00     0.000 C 
BRANCH   7   8
ATOM      8  C   UNL     1      20.569  22.783   6.983  1.00  0.00    -0.000 C 
BRANCH   8   9
ATOM      9  C   UNL     1      21.062  23.591   8.194  1.00  0.00    -0.003 C 
ATOM     10  C   UNL     1      21.634  22.714   9.307  1.00  0.00     0.004 C 
ENDBRANCH   8   9
ENDBRANCH   7   8
ENDBRANCH   1   7
TORSDOF 6
ENDMDL
MODEL 3
REMARK VINA RESULT:    -4.374      1.814      1.977
REMARK INTER + INTRA:          -6.228
REMARK INTER:                  -5.823
REMARK INTRA:                  -0.404
REMARK UNBOUND:                -0.320
REMARK SMILES CCCCCCCC(=O)[O-]
REMARK SMILES IDX 5 1 6 2 7 3 8 4 9 5 10 6 4 7 3 8 2 9 1 10
REMARK H PARENT
REMARK Flexibility Score: inf
ROOT
ATOM      1  C   UNL     1      18.966  23.696   7.441  1.00  0.00     0.000 C 
ENDROOT
BRANCH   1   2
ATOM      2  C   UNL     1      20.381  23.522   8.005  1.00  0.00     0.006 C 
BRANCH   2   3
ATOM      3  C   UNL     1      20.586  22.105   8.548  1.00  0.00     0.053 C 
BRANCH   3   4
ATOM      4  C   UNL     1      19.541  21.779   9.567  1.00  0.00     0.041 C 
ATOM      5  O   UNL     1      19.547  22.353  10.688  1.00  0.00    -0.550 OA
ATOM      6  O   UNL     1      18.588  20.805   9.298  1.00  0.00    -0.550 OA
ENDBRANCH   3   4
ENDBRANCH   2   3
ENDBRANCH   1   2
BRANCH   1   7
ATOM      7  C   UNL     1      18.252  24.886   8.100  1.00  0.00     0.000 C 
BRANCH   7   8
ATOM      8  C   UNL     1      19.131  25.580   9.162  1.00  0.00    -0.000 C 
BRANCH   8   9
ATOM      9  C   UNL     1      18.944  27.104   9.217  1.00  0.00    -0.003 C 
ATOM     10  C   UNL     1      17.517  27.545   8.892  1.00  0.00     0.004 C 
ENDBRANCH   8   9
ENDBRANCH   7   8
ENDBRANCH   1   7
TORSDOF 6
ENDMDL
MODEL 4
REMARK VINA RESULT:    -4.363      3.157      4.981
REMARK INTER + INTRA:          -6.213
REMARK INTER:                  -5.879
REMARK INTRA:                  -0.334
REMARK UNBOUND:                -0.320
REMARK SMILES CCCCCCCC(=O)[O-]
REMARK SMILES IDX 5 1 6 2 7 3 8 4 9 5 10 6 4 7 3 8 2 9 1 10
REMARK H PARENT
REMARK Flexibility Score: inf
ROOT
ATOM      1  C   UNL     1      20.308  23.197  10.315  1.00  0.00     0.000 C 
ENDROOT
BRANCH   1   2
ATOM      2  C   UNL     1      19.311  24.072   9.544  1.00  0.00     0.006 C 
BRANCH   2   3
ATOM      3  C   UNL     1      19.111  25.421  10.240  1.00  0.00     0.053 C 
BRANCH   3   4
ATOM      4  C   UNL     1      18.608  26.441   9.268  1.00  0.00     0.041 C 
ATOM      5  O   UNL     1      19.164  27.567   9.186  1.00  0.00    -0.550 OA
ATOM      6  O   UNL     1      17.493  26.166   8.488  1.00  0.00    -0.550 OA
ENDBRANCH   3   4
ENDBRANCH   2   3
ENDBRANCH   1   2
BRANCH   1   7
ATOM      7  C   UNL     1      21.461  22.744   9.407  1.00  0.00     0.000 C 
BRANCH   7   8
ATOM      8  C   UNL     1      21.381  23.376   8.001  1.00  0.00    -0.000 C 
BRANCH   8   9
ATOM      9  C   UNL     1      21.207  22.346   6.873  1.00  0.00    -0.003 C 
ATOM     10  C   UNL     1      19.855  22.450   6.169  1.00  0.00     0.004 C 
ENDBRANCH   8   9
ENDBRANCH   7   8
ENDBRANCH   1   7
TORSDOF 6
ENDMDL
MODEL 5
REMARK VINA RESULT:    -4.320      3.272      4.969
REMARK INTER + INTRA:          -6.155
REMARK INTER:                  -5.697
REMARK INTRA:                  -0.458
REMARK UNBOUND:                -0.320
REMARK SMILES CCCCCCCC(=O)[O-]
REMARK SMILES IDX 5 1 6 2 7 3 8 4 9 5 10 6 4 7 3 8 2 9 1 10
REMARK H PARENT
REMARK Flexibility Score: inf
ROOT
ATOM      1  C   UNL     1      19.149  23.921   7.977  1.00  0.00     0.000 C 
ENDROOT
BRANCH   1   2
ATOM      2  C   UNL     1      17.893  24.796   8.076  1.00  0.00     0.006 C 
BRANCH   2   3
ATOM      3  C   UNL     1      17.867  25.573   9.396  1.00  0.00     0.053 C 
BRANCH   3   4
ATOM      4  C   UNL     1      18.039  27.038   9.144  1.00  0.00     0.041 C 
ATOM      5  O   UNL     1      17.034  27.794   9.094  1.00  0.00    -0.550 OA
ATOM      6  O   UNL     1      19.306  27.559   8.916  1.00  0.00    -0.550 OA
ENDBRANCH   3   4
ENDBRANCH   2   3
ENDBRANCH   1   2
BRANCH   1   7
ATOM      7  C   UNL     1      20.025  24.069   9.231  1.00  0.00     0.000 C 
BRANCH   7   8
ATOM      8  C   UNL     1      20.336  22.708   9.890  1.00  0.00    -0.000 C 
BRANCH   8   9
ATOM      9  C   UNL     1      19.111  21.786  10.006  1.00  0.00    -0.003 C 
ATOM     10  C   UNL     1      18.427  21.868  11.370  1.00  0.00     0.004 C 
ENDBRANCH   8   9
ENDBRANCH   7   8
ENDBRANCH   1   7
TORSDOF 6
ENDMDL
MODEL 6
REMARK VINA RESULT:    -4.314      2.833      4.638
REMARK INTER + INTRA:          -6.147
REMARK INTER:                  -5.739
REMARK INTRA:                  -0.408
REMARK UNBOUND:                -0.320
REMARK SMILES CCCCCCCC(=O)[O-]
REMARK SMILES IDX 5 1 6 2 7 3 8 4 9 5 10 6 4 7 3 8 2 9 1 10
REMARK H PARENT
REMARK Flexibility Score: inf
ROOT
ATOM      1  C   UNL     1      21.375  22.955   9.339  1.00  0.00     0.000 C 
ENDROOT
BRANCH   1   2
ATOM      2  C   UNL     1      20.311  23.212  10.413  1.00  0.00     0.006 C 
BRANCH   2   3
ATOM      3  C   UNL     1      18.927  23.394   9.784  1.00  0.00     0.053 C 
BRANCH   3   4
ATOM      4  C   UNL     1      18.348  24.719  10.168  1.00  0.00     0.041 C 
ATOM      5  O   UNL     1      17.113  24.832  10.385  1.00  0.00    -0.550 OA
ATOM      6  O   UNL     1      19.165  25.839  10.239  1.00  0.00    -0.550 OA
ENDBRANCH   3   4
ENDBRANCH   2   3
ENDBRANCH   1   2
BRANCH   1   7
ATOM      7  C   UNL     1      20.868  23.373   7.950  1.00  0.00     0.000 C 
BRANCH   7   8
ATOM      8  C   UNL     1      21.297  22.380   6.849  1.00  0.00    -0.000 C 
BRANCH   8   9
ATOM      9  C   UNL     1      20.166  22.018   5.872  1.00  0.00    -0.003 C 
ATOM     10  C   UNL     1      18.890  22.824   6.107  1.00  0.00     0.004 C 
ENDBRANCH   8   9
ENDBRANCH   7   8
ENDBRANCH   1   7
TORSDOF 6
ENDMDL
MODEL 7
REMARK VINA RESULT:    -4.263      2.701      3.859
REMARK INTER + INTRA:          -6.078
REMARK INTER:                  -5.537
REMARK INTRA:                  -0.541
REMARK UNBOUND:                -0.320
REMARK SMILES CCCCCCCC(=O)[O-]
REMARK SMILES IDX 5 1 6 2 7 3 8 4 9 5 10 6 4 7 3 8 2 9 1 10
REMARK H PARENT
REMARK Flexibility Score: inf
ROOT
ATOM      1  C   UNL     1      21.378  23.295   7.980  1.00  0.00     0.000 C 
ENDROOT
BRANCH   1   2
ATOM      2  C   UNL     1      21.533  22.708   9.389  1.00  0.00     0.006 C 
BRANCH   2   3
ATOM      3  C   UNL     1      20.588  23.397  10.378  1.00  0.00     0.053 C 
BRANCH   3   4
ATOM      4  C   UNL     1      19.214  22.814  10.281  1.00  0.00     0.041 C 
ATOM      5  O   UNL     1      18.202  23.558  10.369  1.00  0.00    -0.550 OA
ATOM      6  O   UNL     1      19.050  21.442  10.143  1.00  0.00    -0.550 OA
ENDBRANCH   3   4
ENDBRANCH   2   3
ENDBRANCH   1   2
BRANCH   1   7
ATOM      7  C   UNL     1      21.220  22.181   6.933  1.00  0.00     0.000 C 
BRANCH   7   8
ATOM      8  C   UNL     1      20.010  22.419   6.005  1.00  0.00    -0.000 C 
BRANCH   8   9
ATOM      9  C   UNL     1      18.654  22.316   6.722  1.00  0.00    -0.003 C 
ATOM     10  C   UNL     1      17.809  23.582   6.591  1.00  0.00     0.004 C 
ENDBRANCH   8   9
ENDBRANCH   7   8
ENDBRANCH   1   7
TORSDOF 6
ENDMDL
MODEL 8
REMARK VINA RESULT:    -4.257      1.542      1.849
REMARK INTER + INTRA:          -6.070
REMARK INTER:                  -5.821
REMARK INTRA:                  -0.249
REMARK UNBOUND:                -0.320
REMARK SMILES CCCCCCCC(=O)[O-]
REMARK SMILES IDX 5 1 6 2 7 3 8 4 9 5 10 6 4 7 3 8 2 9 1 10
REMARK H PARENT
REMARK Flexibility Score: inf
ROOT
ATOM      1  C   UNL     1      17.868  23.908   7.089  1.00  0.00     0.000 C 
ENDROOT
BRANCH   1   2
ATOM      2  C   UNL     1      19.334  23.468   7.181  1.00  0.00     0.006 C 
BRANCH   2   3
ATOM      3  C   UNL     1      19.666  22.430   6.105  1.00  0.00     0.053 C 
BRANCH   3   4
ATOM      4  C   UNL     1      21.094  21.999   6.215  1.00  0.00     0.041 C 
ATOM      5  O   UNL     1      21.759  22.268   7.250  1.00  0.00    -0.550 OA
ATOM      6  O   UNL     1      21.705  21.342   5.155  1.00  0.00    -0.550 OA
ENDBRANCH   3   4
ENDBRANCH   2   3
ENDBRANCH   1   2
BRANCH   1   7
ATOM      7  C   UNL     1      17.547  24.981   8.140  1.00  0.00     0.000 C 
BRANCH   7   8
ATOM      8  C   UNL     1      18.822  25.578   8.774  1.00  0.00    -0.000 C 
BRANCH   8   9
ATOM      9  C   UNL     1      18.813  27.113   8.847  1.00  0.00    -0.003 C 
ATOM     10  C   UNL     1      17.404  27.702   8.889  1.00  0.00     0.004 C 
ENDBRANCH   8   9
ENDBRANCH   7   8
ENDBRANCH   1   7
TORSDOF 6
ENDMDL
MODEL 9
REMARK VINA RESULT:    -4.174      1.860      2.395
REMARK INTER + INTRA:          -5.958
REMARK INTER:                  -5.540
REMARK INTRA:                  -0.418
REMARK UNBOUND:                -0.320
REMARK SMILES CCCCCCCC(=O)[O-]
REMARK SMILES IDX 5 1 6 2 7 3 8 4 9 5 10 6 4 7 3 8 2 9 1 10
REMARK H PARENT
REMARK Flexibility Score: inf
ROOT
ATOM      1  C   UNL     1      19.932  23.497   9.690  1.00  0.00     0.000 C 
ENDROOT
BRANCH   1   2
ATOM      2  C   UNL     1      20.623  23.909   8.384  1.00  0.00     0.006 C 
BRANCH   2   3
ATOM      3  C   UNL     1      21.411  22.740   7.786  1.00  0.00     0.053 C 
BRANCH   3   4
ATOM      4  C   UNL     1      20.822  22.328   6.475  1.00  0.00     0.041 C 
ATOM      5  O   UNL     1      21.475  21.592   5.689  1.00  0.00    -0.550 OA
ATOM      6  O   UNL     1      19.570  22.796   6.098  1.00  0.00    -0.550 OA
ENDBRANCH   3   4
ENDBRANCH   2   3
ENDBRANCH   1   2
BRANCH   1   7
ATOM      7  C   UNL     1      18.633  24.289   9.901  1.00  0.00     0.000 C 
BRANCH   7   8
ATOM      8  C   UNL     1      18.119  24.927   8.592  1.00  0.00    -0.000 C 
BRANCH   8   9
ATOM      9  C   UNL     1      17.782  26.421   8.726  1.00  0.00    -0.003 C 
ATOM     10  C   UNL     1      18.998  27.281   9.065  1.00  0.00     0.004 C 
ENDBRANCH   8   9
ENDBRANCH   7   8
ENDBRANCH   1   7
TORSDOF 6
ENDMDL
