MODEL 1
REMARK VINA RESULT:    -4.733      0.000      0.000
REMARK INTER + INTRA:          -4.871
REMARK INTER:                  -4.871
REMARK INTRA:                   0.000
REMARK UNBOUND:                 0.000
REMARK SMILES Cc1ccccc1O
REMARK SMILES IDX 1 1 2 2 3 3 4 4 5 5 6 6 7 7 8 8
REMARK H PARENT 8 9
REMARK Flexibility Score: inf
ROOT
ATOM      1  C   UNL     1     -31.008  45.467  37.129  1.00  0.00     0.048 C 
ATOM      2  C   UNL     1     -32.375  45.426  37.756  1.00  0.00    -0.009 A 
ATOM      3  C   UNL     1     -32.537  44.860  39.034  1.00  0.00     0.007 A 
ATOM      4  C   UNL     1     -33.799  44.812  39.632  1.00  0.00     0.001 A 
ATOM      5  C   UNL     1     -34.909  45.328  38.965  1.00  0.00     0.004 A 
ATOM      6  C   UNL     1     -34.763  45.893  37.696  1.00  0.00     0.046 A 
ATOM      7  C   UNL     1     -33.505  45.948  37.084  1.00  0.00     0.118 A 
ENDROOT
BRANCH   7   8
ATOM      8  O   UNL     1     -33.410  46.522  35.815  1.00  0.00    -0.508 OA
ATOM      9  H   UNL     1     -34.218  46.754  35.252  1.00  0.00     0.293 HD
ENDBRANCH   7   8
TORSDOF 1
ENDMDL
MODEL 2
REMARK VINA RESULT:    -4.705     12.511     14.027
REMARK INTER + INTRA:          -4.843
REMARK INTER:                  -4.843
REMARK INTRA:                   0.000
REMARK UNBOUND:                 0.000
REMARK SMILES Cc1ccccc1O
REMARK SMILES IDX 1 1 2 2 3 3 4 4 5 5 6 6 7 7 8 8
REMARK H PARENT 8 9
REMARK Flexibility Score: inf
ROOT
ATOM      1  C   UNL     1     -41.204  37.580  49.198  1.00  0.00     0.048 C 
ATOM      2  C   UNL     1     -40.328  38.116  48.099  1.00  0.00    -0.009 A 
ATOM      3  C   UNL     1     -40.898  38.453  46.858  1.00  0.00     0.007 A 
ATOM      4  C   UNL     1     -40.101  38.952  45.825  1.00  0.00     0.001 A 
ATOM      5  C   UNL     1     -38.730  39.121  46.018  1.00  0.00     0.004 A 
ATOM      6  C   UNL     1     -38.151  38.791  47.246  1.00  0.00     0.046 A 
ATOM      7  C   UNL     1     -38.937  38.290  48.290  1.00  0.00     0.118 A 
ENDROOT
BRANCH   7   8
ATOM      8  O   UNL     1     -38.312  37.974  49.498  1.00  0.00    -0.508 OA
ATOM      9  H   UNL     1     -38.191  37.024  49.825  1.00  0.00     0.293 HD
ENDBRANCH   7   8
TORSDOF 1
ENDMDL
MODEL 3
REMARK VINA RESULT:    -4.670      1.256      2.282
REMARK INTER + INTRA:          -4.806
REMARK INTER:                  -4.806
REMARK INTRA:                   0.000
REMARK UNBOUND:                 0.000
REMARK SMILES Cc1ccccc1O
REMARK SMILES IDX 1 1 2 2 3 3 4 4 5 5 6 6 7 7 8 8
REMARK H PARENT 8 9
REMARK Flexibility Score: inf
ROOT
ATOM      1  C   UNL     1     -33.551  46.516  36.093  1.00  0.00     0.048 C 
ATOM      2  C   UNL     1     -33.599  45.826  37.429  1.00  0.00    -0.009 A 
ATOM      3  C   UNL     1     -34.793  45.832  38.173  1.00  0.00     0.007 A 
ATOM      4  C   UNL     1     -34.857  45.197  39.415  1.00  0.00     0.001 A 
ATOM      5  C   UNL     1     -33.734  44.549  39.928  1.00  0.00     0.004 A 
ATOM      6  C   UNL     1     -32.541  44.533  39.200  1.00  0.00     0.046 A 
ATOM      7  C   UNL     1     -32.462  45.166  37.953  1.00  0.00     0.118 A 
ENDROOT
BRANCH   7   8
ATOM      8  O   UNL     1     -31.249  45.124  37.265  1.00  0.00    -0.508 OA
ATOM      9  H   UNL     1     -30.803  45.947  36.881  1.00  0.00     0.293 HD
ENDBRANCH   7   8
TORSDOF 1
ENDMDL
MODEL 4
REMARK VINA RESULT:    -4.624     14.864     16.337
REMARK INTER + INTRA:          -4.759
REMARK INTER:                  -4.759
REMARK INTRA:                   0.000
REMARK UNBOUND:                 0.000
REMARK SMILES Cc1ccccc1O
REMARK SMILES IDX 1 1 2 2 3 3 4 4 5 5 6 6 7 7 8 8
REMARK H PARENT 8 9
REMARK Flexibility Score: inf
ROOT
ATOM      1  C   UNL     1     -41.876  37.248  51.128  1.00  0.00     0.048 C 
ATOM      2  C   UNL     1     -41.137  37.158  49.821  1.00  0.00    -0.009 A 
ATOM      3  C   UNL     1     -40.890  38.328  49.080  1.00  0.00     0.007 A 
ATOM      4  C   UNL     1     -40.205  38.265  47.864  1.00  0.00     0.001 A 
ATOM      5  C   UNL     1     -39.760  37.037  47.375  1.00  0.00     0.004 A 
ATOM      6  C   UNL     1     -39.997  35.867  48.101  1.00  0.00     0.046 A 
ATOM      7  C   UNL     1     -40.682  35.915  49.321  1.00  0.00     0.118 A 
ENDROOT
BRANCH   7   8
ATOM      8  O   UNL     1     -40.895  34.719  50.008  1.00  0.00    -0.508 OA
ATOM      9  H   UNL     1     -41.136  33.852  49.546  1.00  0.00     0.293 HD
ENDBRANCH   7   8
TORSDOF 1
ENDMDL
MODEL 5
REMARK VINA RESULT:    -4.610      2.407      3.430
REMARK INTER + INTRA:          -4.745
REMARK INTER:                  -4.745
REMARK INTRA:                   0.000
REMARK UNBOUND:                 0.000
REMARK SMILES Cc1ccccc1O
REMARK SMILES IDX 1 1 2 2 3 3 4 4 5 5 6 6 7 7 8 8
REMARK H PARENT 8 9
REMARK Flexibility Score: inf
ROOT
ATOM      1  C   UNL     1     -34.697  45.842  38.164  1.00  0.00     0.048 C 
ATOM      2  C   UNL     1     -34.771  44.803  39.250  1.00  0.00    -0.009 A 
ATOM      3  C   UNL     1     -35.142  45.184  40.552  1.00  0.00     0.007 A 
ATOM      4  C   UNL     1     -35.216  44.235  41.573  1.00  0.00     0.001 A 
ATOM      5  C   UNL     1     -34.923  42.897  41.308  1.00  0.00     0.004 A 
ATOM      6  C   UNL     1     -34.554  42.504  40.019  1.00  0.00     0.046 A 
ATOM      7  C   UNL     1     -34.475  43.445  38.985  1.00  0.00     0.118 A 
ENDROOT
BRANCH   7   8
ATOM      8  O   UNL     1     -34.101  43.003  37.715  1.00  0.00    -0.508 OA
ATOM      9  H   UNL     1     -34.084  43.607  36.904  1.00  0.00     0.293 HD
ENDBRANCH   7   8
TORSDOF 1
ENDMDL
MODEL 6
REMARK VINA RESULT:    -4.525      1.365      2.783
REMARK INTER + INTRA:          -4.658
REMARK INTER:                  -4.658
REMARK INTRA:                   0.000
REMARK UNBOUND:                 0.000
REMARK SMILES Cc1ccccc1O
REMARK SMILES IDX 1 1 2 2 3 3 4 4 5 5 6 6 7 7 8 8
REMARK H PARENT 8 9
REMARK Flexibility Score: inf
ROOT
ATOM      1  C   UNL     1     -34.776  44.497  40.280  1.00  0.00     0.048 C 
ATOM      2  C   UNL     1     -33.918  44.986  39.144  1.00  0.00    -0.009 A 
ATOM      3  C   UNL     1     -32.541  44.700  39.140  1.00  0.00     0.007 A 
ATOM      4  C   UNL     1     -31.728  45.146  38.095  1.00  0.00     0.001 A 
ATOM      5  C   UNL     1     -32.280  45.878  37.044  1.00  0.00     0.004 A 
ATOM      6  C   UNL     1     -33.646  46.168  37.034  1.00  0.00     0.046 A 
ATOM      7  C   UNL     1     -34.473  45.728  38.075  1.00  0.00     0.118 A 
ENDROOT
BRANCH   7   8
ATOM      8  O   UNL     1     -35.831  46.044  38.021  1.00  0.00    -0.508 OA
ATOM      9  H   UNL     1     -36.539  45.523  38.521  1.00  0.00     0.293 HD
ENDBRANCH   7   8
TORSDOF 1
ENDMDL
MODEL 7
REMARK VINA RESULT:    -4.489     13.169     14.458
REMARK INTER + INTRA:          -4.620
REMARK INTER:                  -4.620
REMARK INTRA:                   0.000
REMARK UNBOUND:                 0.000
REMARK SMILES Cc1ccccc1O
REMARK SMILES IDX 1 1 2 2 3 3 4 4 5 5 6 6 7 7 8 8
REMARK H PARENT 8 9
REMARK Flexibility Score: inf
ROOT
ATOM      1  C   UNL     1     -37.788  36.846  46.465  1.00  0.00     0.048 C 
ATOM      2  C   UNL     1     -38.968  37.019  47.382  1.00  0.00    -0.009 A 
ATOM      3  C   UNL     1     -39.775  35.910  47.692  1.00  0.00     0.007 A 
ATOM      4  C   UNL     1     -40.875  36.051  48.542  1.00  0.00     0.001 A 
ATOM      5  C   UNL     1     -41.180  37.296  49.090  1.00  0.00     0.004 A 
ATOM      6  C   UNL     1     -40.387  38.406  48.791  1.00  0.00     0.046 A 
ATOM      7  C   UNL     1     -39.281  38.280  47.941  1.00  0.00     0.118 A 
ENDROOT
BRANCH   7   8
ATOM      8  O   UNL     1     -38.519  39.418  47.672  1.00  0.00    -0.508 OA
ATOM      9  H   UNL     1     -37.563  39.529  47.983  1.00  0.00     0.293 HD
ENDBRANCH   7   8
TORSDOF 1
ENDMDL
MODEL 8
REMARK VINA RESULT:    -4.469      2.773      3.820
REMARK INTER + INTRA:          -4.599
REMARK INTER:                  -4.599
REMARK INTRA:                   0.000
REMARK UNBOUND:                 0.000
REMARK SMILES Cc1ccccc1O
REMARK SMILES IDX 1 1 2 2 3 3 4 4 5 5 6 6 7 7 8 8
REMARK H PARENT 8 9
REMARK Flexibility Score: inf
ROOT
ATOM      1  C   UNL     1     -34.753  42.516  41.485  1.00  0.00     0.048 C 
ATOM      2  C   UNL     1     -34.708  43.509  40.356  1.00  0.00    -0.009 A 
ATOM      3  C   UNL     1     -35.047  44.852  40.598  1.00  0.00     0.007 A 
ATOM      4  C   UNL     1     -35.012  45.789  39.563  1.00  0.00     0.001 A 
ATOM      5  C   UNL     1     -34.638  45.398  38.278  1.00  0.00     0.004 A 
ATOM      6  C   UNL     1     -34.298  44.067  38.022  1.00  0.00     0.046 A 
ATOM      7  C   UNL     1     -34.329  43.117  39.050  1.00  0.00     0.118 A 
ENDROOT
BRANCH   7   8
ATOM      8  O   UNL     1     -33.981  41.800  38.745  1.00  0.00    -0.508 OA
ATOM      9  H   UNL     1     -34.658  41.051  38.681  1.00  0.00     0.293 HD
ENDBRANCH   7   8
TORSDOF 1
ENDMDL
MODEL 9
REMARK VINA RESULT:    -4.417      1.795      3.305
REMARK INTER + INTRA:          -4.546
REMARK INTER:                  -4.546
REMARK INTRA:                   0.000
REMARK UNBOUND:                 0.000
REMARK SMILES Cc1ccccc1O
REMARK SMILES IDX 1 1 2 2 3 3 4 4 5 5 6 6 7 7 8 8
REMARK H PARENT 8 9
REMARK Flexibility Score: inf
ROOT
ATOM      1  C   UNL     1     -34.636  44.005  40.034  1.00  0.00     0.048 C 
ATOM      2  C   UNL     1     -34.067  44.761  38.864  1.00  0.00    -0.009 A 
ATOM      3  C   UNL     1     -34.930  45.470  38.008  1.00  0.00     0.007 A 
ATOM      4  C   UNL     1     -34.421  46.177  36.917  1.00  0.00     0.001 A 
ATOM      5  C   UNL     1     -33.048  46.188  36.669  1.00  0.00     0.004 A 
ATOM      6  C   UNL     1     -32.180  45.489  37.511  1.00  0.00     0.046 A 
ATOM      7  C   UNL     1     -32.676  44.775  38.608  1.00  0.00     0.118 A 
ENDROOT
BRANCH   7   8
ATOM      8  O   UNL     1     -31.767  44.093  39.420  1.00  0.00    -0.508 OA
ATOM      9  H   UNL     1     -31.278  44.531  40.189  1.00  0.00     0.293 HD
ENDBRANCH   7   8
TORSDOF 1
ENDMDL
