MODEL 1
REMARK VINA RESULT:    -6.645      0.000      0.000
REMARK INTER + INTRA:          -7.228
REMARK INTER:                  -7.228
REMARK INTRA:                   0.000
REMARK UNBOUND:                 0.000
REMARK SMILES Cc1cc(O)c2c(c1)C(=O)c1cc(O)cc(O)c1C2=O
REMARK SMILES IDX 1 1 2 2 8 3 7 4 6 5 4 6 3 7 19 8 20 9 18 10 11 11 9 12 10 13
REMARK SMILES IDX 12 14 13 15 15 16 16 17 5 18 17 20 14 22
REMARK H PARENT 5 19 17 21 14 23
REMARK Flexibility Score: inf
ROOT
ATOM      1  C   UNL     1      58.455   9.631  76.247  1.00  0.00     0.044 C 
ATOM      2  C   UNL     1      57.760   8.520  76.979  1.00  0.00    -0.047 A 
ATOM      3  C   UNL     1      56.464   8.140  76.615  1.00  0.00     0.016 A 
ATOM      4  C   UNL     1      55.822   7.073  77.265  1.00  0.00     0.038 A 
ATOM      5  C   UNL     1      56.497   6.356  78.278  1.00  0.00     0.076 A 
ATOM      6  C   UNL     1      57.794   6.775  78.674  1.00  0.00     0.127 A 
ATOM      7  C   UNL     1      58.421   7.827  77.999  1.00  0.00     0.050 A 
ATOM      8  C   UNL     1      55.843   5.144  78.837  1.00  0.00     0.201 C 
ATOM      9  O   UNL     1      56.548   4.191  79.263  1.00  0.00    -0.288 OA
ATOM     10  C   UNL     1      54.371   4.979  78.719  1.00  0.00     0.076 A 
ATOM     11  C   UNL     1      53.698   5.698  77.704  1.00  0.00     0.041 A 
ATOM     12  C   UNL     1      54.436   6.697  76.895  1.00  0.00     0.194 C 
ATOM     13  O   UNL     1      53.875   7.246  75.907  1.00  0.00    -0.289 OA
ATOM     14  C   UNL     1      52.333   5.466  77.472  1.00  0.00     0.059 A 
ATOM     15  C   UNL     1      51.628   4.540  78.246  1.00  0.00     0.120 A 
ATOM     16  C   UNL     1      52.279   3.859  79.274  1.00  0.00     0.093 A 
ATOM     17  C   UNL     1      53.633   4.087  79.539  1.00  0.00     0.131 A 
ENDROOT
BRANCH   6  18
ATOM     18  O   UNL     1      58.479   6.200  79.746  1.00  0.00    -0.507 OA
ATOM     19  H   UNL     1      58.262   5.288  80.124  1.00  0.00     0.293 HD
ENDBRANCH   6  18
BRANCH  17  20
ATOM     20  O   UNL     1      54.193   3.436  80.641  1.00  0.00    -0.507 OA
ATOM     21  H   UNL     1      54.745   3.906  81.347  1.00  0.00     0.293 HD
ENDBRANCH  17  20
BRANCH  15  22
ATOM     22  O   UNL     1      50.277   4.297  78.010  1.00  0.00    -0.508 OA
ATOM     23  H   UNL     1      49.562   4.611  78.654  1.00  0.00     0.293 HD
ENDBRANCH  15  22
TORSDOF 3
ENDMDL
MODEL 2
REMARK VINA RESULT:    -6.552      1.814      6.568
REMARK INTER + INTRA:          -7.126
REMARK INTER:                  -7.126
REMARK INTRA:                   0.000
REMARK UNBOUND:                 0.000
REMARK SMILES Cc1cc(O)c2c(c1)C(=O)c1cc(O)cc(O)c1C2=O
REMARK SMILES IDX 1 1 2 2 8 3 7 4 6 5 4 6 3 7 19 8 20 9 18 10 11 11 9 12 10 13
REMARK SMILES IDX 12 14 13 15 15 16 16 17 5 18 17 20 14 22
REMARK H PARENT 5 19 17 21 14 23
REMARK Flexibility Score: inf
ROOT
ATOM      1  C   UNL     1      50.893   2.782  83.086  1.00  0.00     0.044 C 
ATOM      2  C   UNL     1      51.560   3.463  81.926  1.00  0.00    -0.047 A 
ATOM      3  C   UNL     1      52.954   3.574  81.882  1.00  0.00     0.016 A 
ATOM      4  C   UNL     1      53.590   4.170  80.780  1.00  0.00     0.038 A 
ATOM      5  C   UNL     1      52.821   4.638  79.691  1.00  0.00     0.076 A 
ATOM      6  C   UNL     1      51.405   4.563  79.762  1.00  0.00     0.127 A 
ATOM      7  C   UNL     1      50.796   3.947  80.860  1.00  0.00     0.050 A 
ATOM      8  C   UNL     1      53.536   5.124  78.483  1.00  0.00     0.201 C 
ATOM      9  O   UNL     1      53.003   5.006  77.348  1.00  0.00    -0.288 OA
ATOM     10  C   UNL     1      54.949   5.573  78.593  1.00  0.00     0.076 A 
ATOM     11  C   UNL     1      55.715   5.104  79.684  1.00  0.00     0.041 A 
ATOM     12  C   UNL     1      55.066   4.313  80.756  1.00  0.00     0.194 C 
ATOM     13  O   UNL     1      55.766   3.784  81.662  1.00  0.00    -0.289 OA
ATOM     14  C   UNL     1      57.088   5.393  79.749  1.00  0.00     0.059 A 
ATOM     15  C   UNL     1      57.701   6.155  78.750  1.00  0.00     0.120 A 
ATOM     16  C   UNL     1      56.939   6.654  77.694  1.00  0.00     0.093 A 
ATOM     17  C   UNL     1      55.567   6.397  77.617  1.00  0.00     0.131 A 
ENDROOT
BRANCH   6  18
ATOM     18  O   UNL     1      50.570   5.111  78.786  1.00  0.00    -0.507 OA
ATOM     19  H   UNL     1      50.901   5.694  78.030  1.00  0.00     0.293 HD
ENDBRANCH   6  18
BRANCH  17  20
ATOM     20  O   UNL     1      54.855   7.006  76.581  1.00  0.00    -0.507 OA
ATOM     21  H   UNL     1      53.849   7.108  76.578  1.00  0.00     0.293 HD
ENDBRANCH  17  20
BRANCH  15  22
ATOM     22  O   UNL     1      59.065   6.434  78.805  1.00  0.00    -0.508 OA
ATOM     23  H   UNL     1      59.751   5.802  78.408  1.00  0.00     0.293 HD
ENDBRANCH  15  22
TORSDOF 3
ENDMDL
MODEL 3
REMARK VINA RESULT:    -6.410      1.327      1.844
REMARK INTER + INTRA:          -6.973
REMARK INTER:                  -6.973
REMARK INTRA:                   0.000
REMARK UNBOUND:                 0.000
REMARK SMILES Cc1cc(O)c2c(c1)C(=O)c1cc(O)cc(O)c1C2=O
REMARK SMILES IDX 1 1 2 2 8 3 7 4 6 5 4 6 3 7 19 8 20 9 18 10 11 11 9 12 10 13
REMARK SMILES IDX 12 14 13 15 15 16 16 17 5 18 17 20 14 22
REMARK H PARENT 5 19 17 21 14 23
REMARK Flexibility Score: inf
ROOT
ATOM      1  C   UNL     1      57.814  10.802  75.769  1.00  0.00     0.044 C 
ATOM      2  C   UNL     1      57.700   9.593  76.651  1.00  0.00    -0.047 A 
ATOM      3  C   UNL     1      56.545   8.803  76.616  1.00  0.00     0.016 A 
ATOM      4  C   UNL     1      56.447   7.644  77.405  1.00  0.00     0.038 A 
ATOM      5  C   UNL     1      57.532   7.254  78.222  1.00  0.00     0.076 A 
ATOM      6  C   UNL     1      58.682   8.084  78.286  1.00  0.00     0.127 A 
ATOM      7  C   UNL     1      58.765   9.221  77.477  1.00  0.00     0.050 A 
ATOM      8  C   UNL     1      57.449   5.948  78.925  1.00  0.00     0.201 C 
ATOM      9  O   UNL     1      58.499   5.296  79.166  1.00  0.00    -0.288 OA
ATOM     10  C   UNL     1      56.121   5.327  79.172  1.00  0.00     0.076 A 
ATOM     11  C   UNL     1      55.038   5.720  78.354  1.00  0.00     0.041 A 
ATOM     12  C   UNL     1      55.208   6.830  77.387  1.00  0.00     0.194 C 
ATOM     13  O   UNL     1      54.288   7.099  76.567  1.00  0.00    -0.289 OA
ATOM     14  C   UNL     1      53.804   5.059  78.463  1.00  0.00     0.059 A 
ATOM     15  C   UNL     1      53.632   4.024  79.388  1.00  0.00     0.120 A 
ATOM     16  C   UNL     1      54.687   3.662  80.225  1.00  0.00     0.093 A 
ATOM     17  C   UNL     1      55.919   4.318  80.149  1.00  0.00     0.131 A 
ENDROOT
BRANCH   6  18
ATOM     18  O   UNL     1      59.745   7.835  79.158  1.00  0.00    -0.507 OA
ATOM     19  H   UNL     1      60.641   7.477  78.860  1.00  0.00     0.293 HD
ENDBRANCH   6  18
BRANCH  17  20
ATOM     20  O   UNL     1      56.897   3.962  81.081  1.00  0.00    -0.507 OA
ATOM     21  H   UNL     1      57.817   4.381  81.114  1.00  0.00     0.293 HD
ENDBRANCH  17  20
BRANCH  15  22
ATOM     22  O   UNL     1      52.413   3.358  79.491  1.00  0.00    -0.508 OA
ATOM     23  H   UNL     1      52.246   2.482  79.011  1.00  0.00     0.293 HD
ENDBRANCH  15  22
TORSDOF 3
ENDMDL
MODEL 4
REMARK VINA RESULT:    -6.341      2.190      5.721
REMARK INTER + INTRA:          -6.897
REMARK INTER:                  -6.897
REMARK INTRA:                   0.000
REMARK UNBOUND:                 0.000
REMARK SMILES Cc1cc(O)c2c(c1)C(=O)c1cc(O)cc(O)c1C2=O
REMARK SMILES IDX 1 1 2 2 8 3 7 4 6 5 4 6 3 7 19 8 20 9 18 10 11 11 9 12 10 13
REMARK SMILES IDX 12 14 13 15 15 16 16 17 5 18 17 20 14 22
REMARK H PARENT 5 19 17 21 14 23
REMARK Flexibility Score: inf
ROOT
ATOM      1  C   UNL     1      51.001   2.126  83.439  1.00  0.00     0.044 C 
ATOM      2  C   UNL     1      52.046   2.834  82.627  1.00  0.00    -0.047 A 
ATOM      3  C   UNL     1      51.675   3.596  81.513  1.00  0.00     0.016 A 
ATOM      4  C   UNL     1      52.641   4.299  80.773  1.00  0.00     0.038 A 
ATOM      5  C   UNL     1      53.996   4.260  81.168  1.00  0.00     0.076 A 
ATOM      6  C   UNL     1      54.372   3.450  82.271  1.00  0.00     0.127 A 
ATOM      7  C   UNL     1      53.391   2.776  83.005  1.00  0.00     0.050 A 
ATOM      8  C   UNL     1      54.962   5.132  80.451  1.00  0.00     0.201 C 
ATOM      9  O   UNL     1      55.972   5.581  81.056  1.00  0.00    -0.288 OA
ATOM     10  C   UNL     1      54.640   5.625  79.087  1.00  0.00     0.076 A 
ATOM     11  C   UNL     1      53.282   5.662  78.694  1.00  0.00     0.041 A 
ATOM     12  C   UNL     1      52.243   5.078  79.576  1.00  0.00     0.194 C 
ATOM     13  O   UNL     1      51.022   5.221  79.292  1.00  0.00    -0.289 OA
ATOM     14  C   UNL     1      52.925   6.248  77.469  1.00  0.00     0.059 A 
ATOM     15  C   UNL     1      53.903   6.782  76.625  1.00  0.00     0.120 A 
ATOM     16  C   UNL     1      55.246   6.710  76.991  1.00  0.00     0.093 A 
ATOM     17  C   UNL     1      55.630   6.114  78.196  1.00  0.00     0.131 A 
ENDROOT
BRANCH   6  18
ATOM     18  O   UNL     1      55.703   3.260  82.650  1.00  0.00    -0.507 OA
ATOM     19  H   UNL     1      56.054   2.401  83.049  1.00  0.00     0.293 HD
ENDBRANCH   6  18
BRANCH  17  20
ATOM     20  O   UNL     1      56.999   5.999  78.451  1.00  0.00    -0.507 OA
ATOM     21  H   UNL     1      57.566   6.754  78.813  1.00  0.00     0.293 HD
ENDBRANCH  17  20
BRANCH  15  22
ATOM     22  O   UNL     1      53.551   7.375  75.415  1.00  0.00    -0.508 OA
ATOM     23  H   UNL     1      54.217   7.915  74.876  1.00  0.00     0.293 HD
ENDBRANCH  15  22
TORSDOF 3
ENDMDL
MODEL 5
REMARK VINA RESULT:    -6.154      9.617     12.674
REMARK INTER + INTRA:          -6.693
REMARK INTER:                  -6.693
REMARK INTRA:                   0.000
REMARK UNBOUND:                 0.000
REMARK SMILES Cc1cc(O)c2c(c1)C(=O)c1cc(O)cc(O)c1C2=O
REMARK SMILES IDX 1 1 2 2 8 3 7 4 6 5 4 6 3 7 19 8 20 9 18 10 11 11 9 12 10 13
REMARK SMILES IDX 12 14 13 15 15 16 16 17 5 18 17 20 14 22
REMARK H PARENT 5 19 17 21 14 23
REMARK Flexibility Score: inf
ROOT
ATOM      1  C   UNL     1      52.127   0.035  83.385  1.00  0.00     0.044 C 
ATOM      2  C   UNL     1      52.301  -1.416  83.042  1.00  0.00    -0.047 A 
ATOM      3  C   UNL     1      53.557  -2.021  83.159  1.00  0.00     0.016 A 
ATOM      4  C   UNL     1      53.722  -3.389  82.882  1.00  0.00     0.038 A 
ATOM      5  C   UNL     1      52.606  -4.171  82.508  1.00  0.00     0.076 A 
ATOM      6  C   UNL     1      51.344  -3.542  82.347  1.00  0.00     0.127 A 
ATOM      7  C   UNL     1      51.200  -2.184  82.648  1.00  0.00     0.050 A 
ATOM      8  C   UNL     1      52.792  -5.638  82.369  1.00  0.00     0.201 C 
ATOM      9  O   UNL     1      51.831  -6.418  82.609  1.00  0.00    -0.288 OA
ATOM     10  C   UNL     1      54.151  -6.191  82.134  1.00  0.00     0.076 A 
ATOM     11  C   UNL     1      55.265  -5.406  82.509  1.00  0.00     0.041 A 
ATOM     12  C   UNL     1      55.062  -4.015  82.978  1.00  0.00     0.194 C 
ATOM     13  O   UNL     1      56.036  -3.355  83.435  1.00  0.00    -0.289 OA
ATOM     14  C   UNL     1      56.559  -5.947  82.430  1.00  0.00     0.059 A 
ATOM     15  C   UNL     1      56.756  -7.251  81.969  1.00  0.00     0.120 A 
ATOM     16  C   UNL     1      55.663  -8.014  81.560  1.00  0.00     0.093 A 
ATOM     17  C   UNL     1      54.367  -7.492  81.609  1.00  0.00     0.131 A 
ENDROOT
BRANCH   6  18
ATOM     18  O   UNL     1      50.220  -4.216  81.864  1.00  0.00    -0.507 OA
ATOM     19  H   UNL     1      49.273  -3.990  82.133  1.00  0.00     0.293 HD
ENDBRANCH   6  18
BRANCH  17  20
ATOM     20  O   UNL     1      53.334  -8.282  81.098  1.00  0.00    -0.507 OA
ATOM     21  H   UNL     1      52.568  -7.914  80.550  1.00  0.00     0.293 HD
ENDBRANCH  17  20
BRANCH  15  22
ATOM     22  O   UNL     1      58.037  -7.795  81.902  1.00  0.00    -0.508 OA
ATOM     23  H   UNL     1      58.209  -8.695  81.470  1.00  0.00     0.293 HD
ENDBRANCH  15  22
TORSDOF 3
ENDMDL
MODEL 6
REMARK VINA RESULT:    -6.110      2.045      3.534
REMARK INTER + INTRA:          -6.646
REMARK INTER:                  -6.646
REMARK INTRA:                   0.000
REMARK UNBOUND:                 0.000
REMARK SMILES Cc1cc(O)c2c(c1)C(=O)c1cc(O)cc(O)c1C2=O
REMARK SMILES IDX 1 1 2 2 8 3 7 4 6 5 4 6 3 7 19 8 20 9 18 10 11 11 9 12 10 13
REMARK SMILES IDX 12 14 13 15 15 16 16 17 5 18 17 20 14 22
REMARK H PARENT 5 19 17 21 14 23
REMARK Flexibility Score: inf
ROOT
ATOM      1  C   UNL     1      53.397   8.120  75.491  1.00  0.00     0.044 C 
ATOM      2  C   UNL     1      53.821   7.266  76.650  1.00  0.00    -0.047 A 
ATOM      3  C   UNL     1      52.865   6.564  77.394  1.00  0.00     0.016 A 
ATOM      4  C   UNL     1      53.255   5.728  78.453  1.00  0.00     0.038 A 
ATOM      5  C   UNL     1      54.626   5.569  78.757  1.00  0.00     0.076 A 
ATOM      6  C   UNL     1      55.587   6.318  78.029  1.00  0.00     0.127 A 
ATOM      7  C   UNL     1      55.177   7.129  76.966  1.00  0.00     0.050 A 
ATOM      8  C   UNL     1      55.006   4.565  79.784  1.00  0.00     0.201 C 
ATOM      9  O   UNL     1      56.117   3.974  79.704  1.00  0.00    -0.288 OA
ATOM     10  C   UNL     1      54.005   4.121  80.789  1.00  0.00     0.076 A 
ATOM     11  C   UNL     1      52.635   4.282  80.481  1.00  0.00     0.041 A 
ATOM     12  C   UNL     1      52.234   5.012  79.256  1.00  0.00     0.194 C 
ATOM     13  O   UNL     1      51.021   5.048  78.910  1.00  0.00    -0.289 OA
ATOM     14  C   UNL     1      51.659   3.753  81.342  1.00  0.00     0.059 A 
ATOM     15  C   UNL     1      52.032   3.081  82.510  1.00  0.00     0.120 A 
ATOM     16  C   UNL     1      53.382   2.957  82.836  1.00  0.00     0.093 A 
ATOM     17  C   UNL     1      54.372   3.492  82.007  1.00  0.00     0.131 A 
ENDROOT
BRANCH   6  18
ATOM     18  O   UNL     1      56.947   6.312  78.346  1.00  0.00    -0.507 OA
ATOM     19  H   UNL     1      57.551   7.115  78.234  1.00  0.00     0.293 HD
ENDBRANCH   6  18
BRANCH  17  20
ATOM     20  O   UNL     1      55.695   3.408  82.445  1.00  0.00    -0.507 OA
ATOM     21  H   UNL     1      56.083   3.998  83.169  1.00  0.00     0.293 HD
ENDBRANCH  17  20
BRANCH  15  22
ATOM     22  O   UNL     1      51.068   2.543  83.359  1.00  0.00    -0.508 OA
ATOM     23  H   UNL     1      51.322   2.074  84.220  1.00  0.00     0.293 HD
ENDBRANCH  15  22
TORSDOF 3
ENDMDL
MODEL 7
REMARK VINA RESULT:    -6.038      1.657      5.579
REMARK INTER + INTRA:          -6.567
REMARK INTER:                  -6.567
REMARK INTRA:                   0.000
REMARK UNBOUND:                 0.000
REMARK SMILES Cc1cc(O)c2c(c1)C(=O)c1cc(O)cc(O)c1C2=O
REMARK SMILES IDX 1 1 2 2 8 3 7 4 6 5 4 6 3 7 19 8 20 9 18 10 11 11 9 12 10 13
REMARK SMILES IDX 12 14 13 15 15 16 16 17 5 18 17 20 14 22
REMARK H PARENT 5 19 17 21 14 23
REMARK Flexibility Score: inf
ROOT
ATOM      1  C   UNL     1      51.331   3.859  77.363  1.00  0.00     0.044 C 
ATOM      2  C   UNL     1      52.675   4.484  77.599  1.00  0.00    -0.047 A 
ATOM      3  C   UNL     1      52.960   5.755  77.089  1.00  0.00     0.016 A 
ATOM      4  C   UNL     1      54.199   6.367  77.342  1.00  0.00     0.038 A 
ATOM      5  C   UNL     1      55.160   5.708  78.141  1.00  0.00     0.076 A 
ATOM      6  C   UNL     1      54.883   4.400  78.618  1.00  0.00     0.127 A 
ATOM      7  C   UNL     1      53.635   3.820  78.371  1.00  0.00     0.050 A 
ATOM      8  C   UNL     1      56.395   6.447  78.508  1.00  0.00     0.201 C 
ATOM      9  O   UNL     1      56.974   6.201  79.600  1.00  0.00    -0.288 OA
ATOM     10  C   UNL     1      56.837   7.601  77.683  1.00  0.00     0.076 A 
ATOM     11  C   UNL     1      55.874   8.258  76.884  1.00  0.00     0.041 A 
ATOM     12  C   UNL     1      54.505   7.701  76.771  1.00  0.00     0.194 C 
ATOM     13  O   UNL     1      53.608   8.349  76.166  1.00  0.00    -0.289 OA
ATOM     14  C   UNL     1      56.219   9.434  76.198  1.00  0.00     0.059 A 
ATOM     15  C   UNL     1      57.514   9.953  76.285  1.00  0.00     0.120 A 
ATOM     16  C   UNL     1      58.478   9.284  77.040  1.00  0.00     0.093 A 
ATOM     17  C   UNL     1      58.165   8.101  77.716  1.00  0.00     0.131 A 
ENDROOT
BRANCH   6  18
ATOM     18  O   UNL     1      55.823   3.633  79.310  1.00  0.00    -0.507 OA
ATOM     19  H   UNL     1      56.491   3.026  78.857  1.00  0.00     0.293 HD
ENDBRANCH   6  18
BRANCH  17  20
ATOM     20  O   UNL     1      59.205   7.442  78.376  1.00  0.00    -0.507 OA
ATOM     21  H   UNL     1      59.059   6.711  79.059  1.00  0.00     0.293 HD
ENDBRANCH  17  20
BRANCH  15  22
ATOM     22  O   UNL     1      57.857  11.125  75.616  1.00  0.00    -0.508 OA
ATOM     23  H   UNL     1      57.584  12.035  75.967  1.00  0.00     0.293 HD
ENDBRANCH  15  22
TORSDOF 3
ENDMDL
MODEL 8
REMARK VINA RESULT:    -6.014      2.399      4.919
REMARK INTER + INTRA:          -6.541
REMARK INTER:                  -6.541
REMARK INTRA:                   0.000
REMARK UNBOUND:                 0.000
REMARK SMILES Cc1cc(O)c2c(c1)C(=O)c1cc(O)cc(O)c1C2=O
REMARK SMILES IDX 1 1 2 2 8 3 7 4 6 5 4 6 3 7 19 8 20 9 18 10 11 11 9 12 10 13
REMARK SMILES IDX 12 14 13 15 15 16 16 17 5 18 17 20 14 22
REMARK H PARENT 5 19 17 21 14 23
REMARK Flexibility Score: inf
ROOT
ATOM      1  C   UNL     1      53.353   8.209  75.460  1.00  0.00     0.044 C 
ATOM      2  C   UNL     1      53.387   7.448  76.753  1.00  0.00    -0.047 A 
ATOM      3  C   UNL     1      54.609   7.176  77.378  1.00  0.00     0.016 A 
ATOM      4  C   UNL     1      54.649   6.503  78.611  1.00  0.00     0.038 A 
ATOM      5  C   UNL     1      53.445   6.118  79.242  1.00  0.00     0.076 A 
ATOM      6  C   UNL     1      52.211   6.356  78.582  1.00  0.00     0.127 A 
ATOM      7  C   UNL     1      52.195   7.045  77.366  1.00  0.00     0.050 A 
ATOM      8  C   UNL     1      53.521   5.543  80.610  1.00  0.00     0.201 C 
ATOM      9  O   UNL     1      52.569   5.712  81.417  1.00  0.00    -0.288 OA
ATOM     10  C   UNL     1      54.792   4.935  81.085  1.00  0.00     0.076 A 
ATOM     11  C   UNL     1      55.994   5.322  80.450  1.00  0.00     0.041 A 
ATOM     12  C   UNL     1      55.949   6.191  79.251  1.00  0.00     0.194 C 
ATOM     13  O   UNL     1      57.019   6.643  78.758  1.00  0.00    -0.289 OA
ATOM     14  C   UNL     1      57.226   4.878  80.958  1.00  0.00     0.059 A 
ATOM     15  C   UNL     1      57.273   4.042  82.078  1.00  0.00     0.120 A 
ATOM     16  C   UNL     1      56.087   3.625  82.680  1.00  0.00     0.093 A 
ATOM     17  C   UNL     1      54.847   4.038  82.183  1.00  0.00     0.131 A 
ENDROOT
BRANCH   6  18
ATOM     18  O   UNL     1      50.988   5.899  79.079  1.00  0.00    -0.507 OA
ATOM     19  H   UNL     1      50.583   6.220  79.947  1.00  0.00     0.293 HD
ENDBRANCH   6  18
BRANCH  17  20
ATOM     20  O   UNL     1      53.703   3.507  82.783  1.00  0.00    -0.507 OA
ATOM     21  H   UNL     1      53.046   2.906  82.302  1.00  0.00     0.293 HD
ENDBRANCH  17  20
BRANCH  15  22
ATOM     22  O   UNL     1      58.493   3.609  82.591  1.00  0.00    -0.508 OA
ATOM     23  H   UNL     1      59.283   3.412  81.988  1.00  0.00     0.293 HD
ENDBRANCH  15  22
TORSDOF 3
ENDMDL
MODEL 9
REMARK VINA RESULT:    -5.668      2.127      3.305
REMARK INTER + INTRA:          -6.165
REMARK INTER:                  -6.165
REMARK INTRA:                   0.000
REMARK UNBOUND:                 0.000
REMARK SMILES Cc1cc(O)c2c(c1)C(=O)c1cc(O)cc(O)c1C2=O
REMARK SMILES IDX 1 1 2 2 8 3 7 4 6 5 4 6 3 7 19 8 20 9 18 10 11 11 9 12 10 13
REMARK SMILES IDX 12 14 13 15 15 16 16 17 5 18 17 20 14 22
REMARK H PARENT 5 19 17 21 14 23
REMARK Flexibility Score: inf
ROOT
ATOM      1  C   UNL     1      53.556  11.125  74.468  1.00  0.00     0.044 C 
ATOM      2  C   UNL     1      54.294  10.175  75.365  1.00  0.00    -0.047 A 
ATOM      3  C   UNL     1      53.734   8.935  75.691  1.00  0.00     0.016 A 
ATOM      4  C   UNL     1      54.437   8.020  76.493  1.00  0.00     0.038 A 
ATOM      5  C   UNL     1      55.733   8.340  76.956  1.00  0.00     0.076 A 
ATOM      6  C   UNL     1      56.277   9.617  76.660  1.00  0.00     0.127 A 
ATOM      7  C   UNL     1      55.568  10.502  75.842  1.00  0.00     0.050 A 
ATOM      8  C   UNL     1      56.501   7.291  77.675  1.00  0.00     0.201 C 
ATOM      9  O   UNL     1      57.759   7.273  77.603  1.00  0.00    -0.288 OA
ATOM     10  C   UNL     1      55.782   6.160  78.318  1.00  0.00     0.076 A 
ATOM     11  C   UNL     1      54.485   5.843  77.853  1.00  0.00     0.041 A 
ATOM     12  C   UNL     1      53.822   6.722  76.860  1.00  0.00     0.194 C 
ATOM     13  O   UNL     1      52.722   6.376  76.347  1.00  0.00    -0.289 OA
ATOM     14  C   UNL     1      53.829   4.700  78.338  1.00  0.00     0.059 A 
ATOM     15  C   UNL     1      54.442   3.880  79.290  1.00  0.00     0.120 A 
ATOM     16  C   UNL     1      55.704   4.212  79.780  1.00  0.00     0.093 A 
ATOM     17  C   UNL     1      56.370   5.356  79.328  1.00  0.00     0.131 A 
ENDROOT
BRANCH   6  18
ATOM     18  O   UNL     1      57.497  10.057  77.179  1.00  0.00    -0.507 OA
ATOM     19  H   UNL     1      57.619  10.947  77.642  1.00  0.00     0.293 HD
ENDBRANCH   6  18
BRANCH  17  20
ATOM     20  O   UNL     1      57.589   5.672  79.932  1.00  0.00    -0.507 OA
ATOM     21  H   UNL     1      58.487   5.512  79.496  1.00  0.00     0.293 HD
ENDBRANCH  17  20
BRANCH  15  22
ATOM     22  O   UNL     1      53.800   2.738  79.764  1.00  0.00    -0.508 OA
ATOM     23  H   UNL     1      53.726   1.899  79.201  1.00  0.00     0.293 HD
ENDBRANCH  15  22
TORSDOF 3
ENDMDL
