MODEL 1
REMARK VINA RESULT:    -2.618      0.000      0.000
REMARK INTER + INTRA:          -3.554
REMARK INTER:                  -3.306
REMARK INTRA:                  -0.247
REMARK UNBOUND:                -0.247
REMARK SMILES CCCCC[C@H](C)O
REMARK SMILES IDX 4 1 3 2 2 3 1 4 5 5 6 6 7 7 8 8
REMARK H PARENT 8 9
REMARK Flexibility Score: inf
ROOT
ATOM      1  C   UNL     1     231.228 238.993 233.946  1.00  0.00     0.003 C 
ENDROOT
BRANCH   1   2
ATOM      2  C   UNL     1     231.859 237.858 233.124  1.00  0.00    -0.000 C 
BRANCH   2   3
ATOM      3  C   UNL     1     232.864 238.412 232.107  1.00  0.00    -0.003 C 
ATOM      4  C   UNL     1     234.011 237.433 231.875  1.00  0.00     0.004 C 
ENDBRANCH   2   3
ENDBRANCH   1   2
BRANCH   1   5
ATOM      5  C   UNL     1     232.254 240.042 234.413  1.00  0.00     0.031 C 
BRANCH   5   6
ATOM      6  C   UNL     1     231.910 241.503 234.041  1.00  0.00     0.111 C 
ATOM      7  C   UNL     1     230.403 241.729 233.853  1.00  0.00     0.038 C 
BRANCH   6   8
ATOM      8  O   UNL     1     232.599 241.874 232.873  1.00  0.00    -0.393 OA
ATOM      9  H   UNL     1     232.667 241.069 232.295  1.00  0.00     0.210 HD
ENDBRANCH   6   8
ENDBRANCH   5   6
ENDBRANCH   1   5
TORSDOF 5
ENDMDL
MODEL 2
REMARK VINA RESULT:    -2.502      8.336      9.707
REMARK INTER + INTRA:          -3.408
REMARK INTER:                  -3.298
REMARK INTRA:                  -0.110
REMARK UNBOUND:                -0.247
REMARK SMILES CCCCC[C@H](C)O
REMARK SMILES IDX 4 1 3 2 2 3 1 4 5 5 6 6 7 7 8 8
REMARK H PARENT 8 9
REMARK Flexibility Score: inf
ROOT
ATOM      1  C   UNL     1     228.172 231.553 233.727  1.00  0.00     0.003 C 
ENDROOT
BRANCH   1   2
ATOM      2  C   UNL     1     227.457 230.332 234.326  1.00  0.00    -0.000 C 
BRANCH   2   3
ATOM      3  C   UNL     1     226.052 230.175 233.733  1.00  0.00    -0.003 C 
ATOM      4  C   UNL     1     225.805 228.742 233.269  1.00  0.00     0.004 C 
ENDBRANCH   2   3
ENDBRANCH   1   2
BRANCH   1   5
ATOM      5  C   UNL     1     229.706 231.424 233.750  1.00  0.00     0.031 C 
BRANCH   5   6
ATOM      6  C   UNL     1     230.459 232.415 232.833  1.00  0.00     0.111 C 
ATOM      7  C   UNL     1     229.521 233.188 231.895  1.00  0.00     0.038 C 
BRANCH   6   8
ATOM      8  O   UNL     1     231.428 231.727 232.081  1.00  0.00    -0.393 OA
ATOM      9  H   UNL     1     231.397 230.772 232.350  1.00  0.00     0.210 HD
ENDBRANCH   6   8
ENDBRANCH   5   6
ENDBRANCH   1   5
TORSDOF 5
ENDMDL
MODEL 3
REMARK VINA RESULT:    -2.498      7.663      8.794
REMARK INTER + INTRA:          -3.402
REMARK INTER:                  -3.013
REMARK INTRA:                  -0.389
REMARK UNBOUND:                -0.247
REMARK SMILES CCCCC[C@H](C)O
REMARK SMILES IDX 4 1 3 2 2 3 1 4 5 5 6 6 7 7 8 8
REMARK H PARENT 8 9
REMARK Flexibility Score: inf
ROOT
ATOM      1  C   UNL     1     239.081 236.572 235.206  1.00  0.00     0.003 C 
ENDROOT
BRANCH   1   2
ATOM      2  C   UNL     1     238.058 235.846 234.318  1.00  0.00    -0.000 C 
BRANCH   2   3
ATOM      3  C   UNL     1     238.105 236.378 232.881  1.00  0.00    -0.003 C 
ATOM      4  C   UNL     1     238.549 235.293 231.904  1.00  0.00     0.004 C 
ENDBRANCH   2   3
ENDBRANCH   1   2
BRANCH   1   5
ATOM      5  C   UNL     1     240.472 235.910 235.187  1.00  0.00     0.031 C 
BRANCH   5   6
ATOM      6  C   UNL     1     241.543 236.664 234.365  1.00  0.00     0.111 C 
ATOM      7  C   UNL     1     241.202 238.148 234.163  1.00  0.00     0.038 C 
BRANCH   6   8
ATOM      8  O   UNL     1     241.715 236.039 233.118  1.00  0.00    -0.393 OA
ATOM      9  H   UNL     1     242.278 236.634 232.557  1.00  0.00     0.210 HD
ENDBRANCH   6   8
ENDBRANCH   5   6
ENDBRANCH   1   5
TORSDOF 5
ENDMDL
MODEL 4
REMARK VINA RESULT:    -2.480      2.038      4.757
REMARK INTER + INTRA:          -3.380
REMARK INTER:                  -3.273
REMARK INTRA:                  -0.107
REMARK UNBOUND:                -0.247
REMARK SMILES CCCCC[C@H](C)O
REMARK SMILES IDX 4 1 3 2 2 3 1 4 5 5 6 6 7 7 8 8
REMARK H PARENT 8 9
REMARK Flexibility Score: inf
ROOT
ATOM      1  C   UNL     1     230.530 241.858 234.384  1.00  0.00     0.003 C 
ENDROOT
BRANCH   1   2
ATOM      2  C   UNL     1     229.820 242.790 233.390  1.00  0.00    -0.000 C 
BRANCH   2   3
ATOM      3  C   UNL     1     228.297 242.648 233.499  1.00  0.00    -0.003 C 
ATOM      4  C   UNL     1     227.614 243.004 232.181  1.00  0.00     0.004 C 
ENDBRANCH   2   3
ENDBRANCH   1   2
BRANCH   1   5
ATOM      5  C   UNL     1     231.831 241.256 233.821  1.00  0.00     0.031 C 
BRANCH   5   6
ATOM      6  C   UNL     1     231.889 239.711 233.817  1.00  0.00     0.111 C 
ATOM      7  C   UNL     1     232.729 239.150 232.660  1.00  0.00     0.038 C 
BRANCH   6   8
ATOM      8  O   UNL     1     230.586 239.185 233.761  1.00  0.00    -0.393 OA
ATOM      9  H   UNL     1     230.660 238.223 233.527  1.00  0.00     0.210 HD
ENDBRANCH   6   8
ENDBRANCH   5   6
ENDBRANCH   1   5
TORSDOF 5
ENDMDL
MODEL 5
REMARK VINA RESULT:    -2.478     11.869     13.874
REMARK INTER + INTRA:          -3.378
REMARK INTER:                  -3.253
REMARK INTRA:                  -0.125
REMARK UNBOUND:                -0.247
REMARK SMILES CCCCC[C@H](C)O
REMARK SMILES IDX 4 1 3 2 2 3 1 4 5 5 6 6 7 7 8 8
REMARK H PARENT 8 9
REMARK Flexibility Score: inf
ROOT
ATOM      1  C   UNL     1     237.772 226.433 234.418  1.00  0.00     0.003 C 
ENDROOT
BRANCH   1   2
ATOM      2  C   UNL     1     238.709 225.707 233.441  1.00  0.00    -0.000 C 
BRANCH   2   3
ATOM      3  C   UNL     1     240.177 226.008 233.763  1.00  0.00    -0.003 C 
ATOM      4  C   UNL     1     241.081 225.683 232.576  1.00  0.00     0.004 C 
ENDBRANCH   2   3
ENDBRANCH   1   2
BRANCH   1   5
ATOM      5  C   UNL     1     236.602 227.146 233.715  1.00  0.00     0.031 C 
BRANCH   5   6
ATOM      6  C   UNL     1     236.609 228.687 233.834  1.00  0.00     0.111 C 
ATOM      7  C   UNL     1     235.788 229.372 232.731  1.00  0.00     0.038 C 
BRANCH   6   8
ATOM      8  O   UNL     1     237.932 229.162 233.810  1.00  0.00    -0.393 OA
ATOM      9  H   UNL     1     237.962 229.941 233.195  1.00  0.00     0.210 HD
ENDBRANCH   6   8
ENDBRANCH   5   6
ENDBRANCH   1   5
TORSDOF 5
ENDMDL
MODEL 6
REMARK VINA RESULT:    -2.475      8.358     10.140
REMARK INTER + INTRA:          -3.374
REMARK INTER:                  -3.281
REMARK INTRA:                  -0.093
REMARK UNBOUND:                -0.247
REMARK SMILES CCCCC[C@H](C)O
REMARK SMILES IDX 4 1 3 2 2 3 1 4 5 5 6 6 7 7 8 8
REMARK H PARENT 8 9
REMARK Flexibility Score: inf
ROOT
ATOM      1  C   UNL     1     242.218 238.973 233.773  1.00  0.00     0.003 C 
ENDROOT
BRANCH   1   2
ATOM      2  C   UNL     1     243.467 239.162 232.899  1.00  0.00    -0.000 C 
BRANCH   2   3
ATOM      3  C   UNL     1     243.279 240.326 231.919  1.00  0.00    -0.003 C 
ATOM      4  C   UNL     1     242.745 241.567 232.631  1.00  0.00     0.004 C 
ENDBRANCH   2   3
ENDBRANCH   1   2
BRANCH   1   5
ATOM      5  C   UNL     1     241.744 237.509 233.839  1.00  0.00     0.031 C 
BRANCH   5   6
ATOM      6  C   UNL     1     240.259 237.320 234.227  1.00  0.00     0.111 C 
ATOM      7  C   UNL     1     239.548 236.270 233.360  1.00  0.00     0.038 C 
BRANCH   6   8
ATOM      8  O   UNL     1     239.583 238.549 234.141  1.00  0.00    -0.393 OA
ATOM      9  H   UNL     1     240.049 239.103 233.460  1.00  0.00     0.210 HD
ENDBRANCH   6   8
ENDBRANCH   5   6
ENDBRANCH   1   5
TORSDOF 5
ENDMDL
MODEL 7
REMARK VINA RESULT:    -2.412     11.846     14.093
REMARK INTER + INTRA:          -3.294
REMARK INTER:                  -3.113
REMARK INTRA:                  -0.181
REMARK UNBOUND:                -0.247
REMARK SMILES CCCCC[C@H](C)O
REMARK SMILES IDX 4 1 3 2 2 3 1 4 5 5 6 6 7 7 8 8
REMARK H PARENT 8 9
REMARK Flexibility Score: inf
ROOT
ATOM      1  C   UNL     1     236.452 227.060 234.833  1.00  0.00     0.003 C 
ENDROOT
BRANCH   1   2
ATOM      2  C   UNL     1     236.190 227.552 233.402  1.00  0.00    -0.000 C 
BRANCH   2   3
ATOM      3  C   UNL     1     236.205 229.084 233.338  1.00  0.00    -0.003 C 
ATOM      4  C   UNL     1     235.443 229.593 232.117  1.00  0.00     0.004 C 
ENDBRANCH   2   3
ENDBRANCH   1   2
BRANCH   1   5
ATOM      5  C   UNL     1     237.745 226.234 234.960  1.00  0.00     0.031 C 
BRANCH   5   6
ATOM      6  C   UNL     1     238.683 226.296 233.732  1.00  0.00     0.111 C 
ATOM      7  C   UNL     1     239.125 224.907 233.250  1.00  0.00     0.038 C 
BRANCH   6   8
ATOM      8  O   UNL     1     239.812 227.079 234.033  1.00  0.00    -0.393 OA
ATOM      9  H   UNL     1     240.315 226.617 234.755  1.00  0.00     0.210 HD
ENDBRANCH   6   8
ENDBRANCH   5   6
ENDBRANCH   1   5
TORSDOF 5
ENDMDL
MODEL 8
REMARK VINA RESULT:    -0.883      7.244      8.937
REMARK INTER + INTRA:          -1.362
REMARK INTER:                  -1.138
REMARK INTRA:                  -0.224
REMARK UNBOUND:                -0.247
REMARK SMILES CCCCC[C@H](C)O
REMARK SMILES IDX 4 1 3 2 2 3 1 4 5 5 6 6 7 7 8 8
REMARK H PARENT 8 9
REMARK Flexibility Score: inf
ROOT
ATOM      1  C   UNL     1     239.991 236.250 234.785  1.00  0.00     0.003 C 
ENDROOT
BRANCH   1   2
ATOM      2  C   UNL     1     241.492 236.574 234.795  1.00  0.00    -0.000 C 
BRANCH   2   3
ATOM      3  C   UNL     1     241.828 237.645 233.750  1.00  0.00    -0.003 C 
ATOM      4  C   UNL     1     242.416 238.891 234.405  1.00  0.00     0.004 C 
ENDBRANCH   2   3
ENDBRANCH   1   2
BRANCH   1   5
ATOM      5  C   UNL     1     239.224 236.976 233.664  1.00  0.00     0.031 C 
BRANCH   5   6
ATOM      6  C   UNL     1     238.205 236.102 232.897  1.00  0.00     0.111 C 
ATOM      7  C   UNL     1     238.871 235.170 231.875  1.00  0.00     0.038 C 
BRANCH   6   8
ATOM      8  O   UNL     1     237.262 236.923 232.253  1.00  0.00    -0.393 OA
ATOM      9  H   UNL     1     237.320 237.826 232.660  1.00  0.00     0.210 HD
ENDBRANCH   6   8
ENDBRANCH   5   6
ENDBRANCH   1   5
TORSDOF 5
ENDMDL
MODEL 9
REMARK VINA RESULT:    -0.646      7.556      8.635
REMARK INTER + INTRA:          -1.064
REMARK INTER:                  -0.665
REMARK INTRA:                  -0.399
REMARK UNBOUND:                -0.247
REMARK SMILES CCCCC[C@H](C)O
REMARK SMILES IDX 4 1 3 2 2 3 1 4 5 5 6 6 7 7 8 8
REMARK H PARENT 8 9
REMARK Flexibility Score: inf
ROOT
ATOM      1  C   UNL     1     229.523 232.159 235.237  1.00  0.00     0.003 C 
ENDROOT
BRANCH   1   2
ATOM      2  C   UNL     1     230.512 232.909 234.332  1.00  0.00    -0.000 C 
BRANCH   2   3
ATOM      3  C   UNL     1     230.557 232.283 232.933  1.00  0.00    -0.003 C 
ATOM      4  C   UNL     1     230.047 233.257 231.875  1.00  0.00     0.004 C 
ENDBRANCH   2   3
ENDBRANCH   1   2
BRANCH   1   5
ATOM      5  C   UNL     1     228.101 232.749 235.196  1.00  0.00     0.031 C 
BRANCH   5   6
ATOM      6  C   UNL     1     227.079 231.936 234.369  1.00  0.00     0.111 C 
ATOM      7  C   UNL     1     227.513 230.478 234.156  1.00  0.00     0.038 C 
BRANCH   6   8
ATOM      8  O   UNL     1     226.867 232.558 233.126  1.00  0.00    -0.393 OA
ATOM      9  H   UNL     1     226.772 233.533 233.290  1.00  0.00     0.210 HD
ENDBRANCH   6   8
ENDBRANCH   5   6
ENDBRANCH   1   5
TORSDOF 5
ENDMDL
