MODEL 1
REMARK VINA RESULT:    -5.916      0.000      0.000
REMARK INTER + INTRA:          -7.442
REMARK INTER:                  -7.127
REMARK INTRA:                  -0.315
REMARK UNBOUND:                -0.315
REMARK SMILES O=c1c(O)c(-c2ccc(O)c(O)c2)oc2cc(O)cc(O)c12
REMARK SMILES IDX 5 1 3 2 2 3 1 4 22 5 20 6 19 7 17 8 16 9 15 10 14 11 6 12
REMARK SMILES IDX 7 13 8 14 9 15 13 16 11 17 10 18 12 20 4 22 21 24 18 26
REMARK H PARENT 10 19 12 21 4 23 21 25 18 27
REMARK Flexibility Score: inf
ROOT
ATOM      1  C   UNL     1      43.781  12.616  22.804  1.00  0.00     0.180 A 
ATOM      2  C   UNL     1      44.476  12.422  24.010  1.00  0.00     0.208 A 
ATOM      3  C   UNL     1      44.968  11.142  24.313  1.00  0.00     0.238 A 
ATOM      4  O   UNL     1      45.542  10.962  25.419  1.00  0.00    -0.285 OA
ATOM      5  C   UNL     1      44.772  10.077  23.400  1.00  0.00     0.111 A 
ATOM      6  C   UNL     1      45.261   8.749  23.588  1.00  0.00     0.134 A 
ATOM      7  C   UNL     1      44.896   7.745  22.682  1.00  0.00     0.093 A 
ATOM      8  C   UNL     1      44.115   8.033  21.563  1.00  0.00     0.123 A 
ATOM      9  C   UNL     1      43.681   9.340  21.340  1.00  0.00     0.094 A 
ATOM     10  C   UNL     1      43.998  10.356  22.244  1.00  0.00     0.146 A 
ATOM     11  O   UNL     1      43.556  11.584  22.000  1.00  0.00    -0.452 OA
ENDROOT
BRANCH   1  12
ATOM     12  C   UNL     1      43.255  13.941  22.403  1.00  0.00     0.025 A 
ATOM     13  C   UNL     1      41.888  14.219  22.561  1.00  0.00     0.016 A 
ATOM     14  C   UNL     1      41.367  15.455  22.170  1.00  0.00     0.051 A 
ATOM     15  C   UNL     1      42.199  16.425  21.602  1.00  0.00     0.157 A 
ATOM     16  C   UNL     1      44.085  14.911  21.813  1.00  0.00     0.062 A 
ATOM     17  C   UNL     1      43.563  16.152  21.418  1.00  0.00     0.158 A 
BRANCH  15  18
ATOM     18  O   UNL     1      41.650  17.651  21.224  1.00  0.00    -0.504 OA
ATOM     19  H   UNL     1      42.222  18.474  21.078  1.00  0.00     0.293 HD
ENDBRANCH  15  18
BRANCH  17  20
ATOM     20  O   UNL     1      44.396  17.110  20.840  1.00  0.00    -0.504 OA
ATOM     21  H   UNL     1      44.132  17.601  19.994  1.00  0.00     0.293 HD
ENDBRANCH  17  20
ENDBRANCH   1  12
BRANCH   2  22
ATOM     22  O   UNL     1      44.639  13.481  24.906  1.00  0.00    -0.502 OA
ATOM     23  H   UNL     1      45.520  13.968  25.019  1.00  0.00     0.293 HD
ENDBRANCH   2  22
BRANCH   6  24
ATOM     24  O   UNL     1      46.124   8.374  24.621  1.00  0.00    -0.507 OA
ATOM     25  H   UNL     1      47.115   8.217  24.514  1.00  0.00     0.293 HD
ENDBRANCH   6  24
BRANCH   8  26
ATOM     26  O   UNL     1      43.784   7.012  20.675  1.00  0.00    -0.508 OA
ATOM     27  H   UNL     1      43.648   6.059  20.990  1.00  0.00     0.293 HD
ENDBRANCH   8  26
TORSDOF 6
ENDMDL
MODEL 2
REMARK VINA RESULT:    -5.630      7.993      8.963
REMARK INTER + INTRA:          -7.097
REMARK INTER:                  -6.866
REMARK INTRA:                  -0.231
REMARK UNBOUND:                -0.315
REMARK SMILES O=c1c(O)c(-c2ccc(O)c(O)c2)oc2cc(O)cc(O)c12
REMARK SMILES IDX 5 1 3 2 2 3 1 4 22 5 20 6 19 7 17 8 16 9 15 10 14 11 6 12
REMARK SMILES IDX 7 13 8 14 9 15 13 16 11 17 10 18 12 20 4 22 21 24 18 26
REMARK H PARENT 10 19 12 21 4 23 21 25 18 27
REMARK Flexibility Score: inf
ROOT
ATOM      1  C   UNL     1      38.434  12.088  27.897  1.00  0.00     0.180 A 
ATOM      2  C   UNL     1      38.816  10.964  27.145  1.00  0.00     0.208 A 
ATOM      3  C   UNL     1      37.916   9.893  27.017  1.00  0.00     0.238 A 
ATOM      4  O   UNL     1      38.284   8.867  26.389  1.00  0.00    -0.285 OA
ATOM      5  C   UNL     1      36.641   9.968  27.630  1.00  0.00     0.111 A 
ATOM      6  C   UNL     1      35.636   8.958  27.533  1.00  0.00     0.134 A 
ATOM      7  C   UNL     1      34.462   9.079  28.287  1.00  0.00     0.093 A 
ATOM      8  C   UNL     1      34.228  10.200  29.082  1.00  0.00     0.123 A 
ATOM      9  C   UNL     1      35.179  11.220  29.137  1.00  0.00     0.094 A 
ATOM     10  C   UNL     1      36.376  11.112  28.425  1.00  0.00     0.146 A 
ATOM     11  O   UNL     1      37.258  12.100  28.513  1.00  0.00    -0.452 OA
ENDROOT
BRANCH   1  12
ATOM     12  C   UNL     1      39.317  13.266  28.056  1.00  0.00     0.025 A 
ATOM     13  C   UNL     1      39.831  13.579  29.324  1.00  0.00     0.016 A 
ATOM     14  C   UNL     1      40.649  14.697  29.501  1.00  0.00     0.051 A 
ATOM     15  C   UNL     1      40.955  15.528  28.418  1.00  0.00     0.157 A 
ATOM     16  C   UNL     1      39.609  14.115  26.973  1.00  0.00     0.062 A 
ATOM     17  C   UNL     1      40.429  15.239  27.148  1.00  0.00     0.158 A 
BRANCH  15  18
ATOM     18  O   UNL     1      41.777  16.636  28.624  1.00  0.00    -0.504 OA
ATOM     19  H   UNL     1      42.594  16.813  28.053  1.00  0.00     0.293 HD
ENDBRANCH  15  18
BRANCH  17  20
ATOM     20  O   UNL     1      40.718  16.071  26.067  1.00  0.00    -0.504 OA
ATOM     21  H   UNL     1      40.721  15.723  25.115  1.00  0.00     0.293 HD
ENDBRANCH  17  20
ENDBRANCH   1  12
BRANCH   2  22
ATOM     22  O   UNL     1      40.086  10.903  26.568  1.00  0.00    -0.502 OA
ATOM     23  H   UNL     1      40.450  10.059  26.140  1.00  0.00     0.293 HD
ENDBRANCH   2  22
BRANCH   6  24
ATOM     24  O   UNL     1      35.729   7.842  26.696  1.00  0.00    -0.507 OA
ATOM     25  H   UNL     1      35.239   7.739  25.821  1.00  0.00     0.293 HD
ENDBRANCH   6  24
BRANCH   8  26
ATOM     26  O   UNL     1      33.042  10.294  29.806  1.00  0.00    -0.508 OA
ATOM     27  H   UNL     1      32.845   9.676  30.584  1.00  0.00     0.293 HD
ENDBRANCH   8  26
TORSDOF 6
ENDMDL
MODEL 3
REMARK VINA RESULT:    -5.609      8.548      9.467
REMARK INTER + INTRA:          -7.071
REMARK INTER:                  -6.904
REMARK INTRA:                  -0.167
REMARK UNBOUND:                -0.315
REMARK SMILES O=c1c(O)c(-c2ccc(O)c(O)c2)oc2cc(O)cc(O)c12
REMARK SMILES IDX 5 1 3 2 2 3 1 4 22 5 20 6 19 7 17 8 16 9 15 10 14 11 6 12
REMARK SMILES IDX 7 13 8 14 9 15 13 16 11 17 10 18 12 20 4 22 21 24 18 26
REMARK H PARENT 10 19 12 21 4 23 21 25 18 27
REMARK Flexibility Score: inf
ROOT
ATOM      1  C   UNL     1      37.615  12.865  28.686  1.00  0.00     0.180 A 
ATOM      2  C   UNL     1      36.454  13.148  29.426  1.00  0.00     0.208 A 
ATOM      3  C   UNL     1      35.399  12.221  29.417  1.00  0.00     0.238 A 
ATOM      4  O   UNL     1      34.340  12.505  30.036  1.00  0.00    -0.285 OA
ATOM      5  C   UNL     1      35.525  11.017  28.682  1.00  0.00     0.111 A 
ATOM      6  C   UNL     1      34.534   9.990  28.635  1.00  0.00     0.134 A 
ATOM      7  C   UNL     1      34.710   8.901  27.772  1.00  0.00     0.093 A 
ATOM      8  C   UNL     1      35.867   8.769  27.005  1.00  0.00     0.123 A 
ATOM      9  C   UNL     1      36.867   9.738  27.088  1.00  0.00     0.094 A 
ATOM     10  C   UNL     1      36.705  10.854  27.912  1.00  0.00     0.146 A 
ATOM     11  O   UNL     1      37.677  11.759  27.955  1.00  0.00    -0.452 OA
ENDROOT
BRANCH   1  12
ATOM     12  C   UNL     1      38.779  13.780  28.666  1.00  0.00     0.025 A 
ATOM     13  C   UNL     1      39.493  14.015  29.852  1.00  0.00     0.016 A 
ATOM     14  C   UNL     1      40.582  14.891  29.861  1.00  0.00     0.051 A 
ATOM     15  C   UNL     1      40.964  15.556  28.691  1.00  0.00     0.157 A 
ATOM     16  C   UNL     1      39.153  14.466  27.496  1.00  0.00     0.062 A 
ATOM     17  C   UNL     1      40.244  15.347  27.504  1.00  0.00     0.158 A 
BRANCH  15  18
ATOM     18  O   UNL     1      42.057  16.422  28.730  1.00  0.00    -0.504 OA
ATOM     19  H   UNL     1      42.996  16.094  28.917  1.00  0.00     0.293 HD
ENDBRANCH  15  18
BRANCH  17  20
ATOM     20  O   UNL     1      40.611  16.017  26.338  1.00  0.00    -0.504 OA
ATOM     21  H   UNL     1      41.583  16.133  26.075  1.00  0.00     0.293 HD
ENDBRANCH  17  20
ENDBRANCH   1  12
BRANCH   2  22
ATOM     22  O   UNL     1      36.342  14.352  30.125  1.00  0.00    -0.502 OA
ATOM     23  H   UNL     1      37.066  15.060  30.110  1.00  0.00     0.293 HD
ENDBRANCH   2  22
BRANCH   6  24
ATOM     24  O   UNL     1      33.385   9.978  29.430  1.00  0.00    -0.507 OA
ATOM     25  H   UNL     1      32.441  10.021  29.076  1.00  0.00     0.293 HD
ENDBRANCH   6  24
BRANCH   8  26
ATOM     26  O   UNL     1      36.015   7.665  26.169  1.00  0.00    -0.508 OA
ATOM     27  H   UNL     1      35.884   7.737  25.167  1.00  0.00     0.293 HD
ENDBRANCH   8  26
TORSDOF 6
ENDMDL
MODEL 4
REMARK VINA RESULT:    -5.556      2.781      6.766
REMARK INTER + INTRA:          -7.008
REMARK INTER:                  -6.912
REMARK INTRA:                  -0.095
REMARK UNBOUND:                -0.315
REMARK SMILES O=c1c(O)c(-c2ccc(O)c(O)c2)oc2cc(O)cc(O)c12
REMARK SMILES IDX 5 1 3 2 2 3 1 4 22 5 20 6 19 7 17 8 16 9 15 10 14 11 6 12
REMARK SMILES IDX 7 13 8 14 9 15 13 16 11 17 10 18 12 20 4 22 21 24 18 26
REMARK H PARENT 10 19 12 21 4 23 21 25 18 27
REMARK Flexibility Score: inf
ROOT
ATOM      1  C   UNL     1      43.553  12.854  24.169  1.00  0.00     0.180 A 
ATOM      2  C   UNL     1      44.755  12.668  23.465  1.00  0.00     0.208 A 
ATOM      3  C   UNL     1      45.072  13.545  22.416  1.00  0.00     0.238 A 
ATOM      4  O   UNL     1      46.123  13.341  21.754  1.00  0.00    -0.285 OA
ATOM      5  C   UNL     1      44.191  14.607  22.094  1.00  0.00     0.111 A 
ATOM      6  C   UNL     1      44.432  15.578  21.076  1.00  0.00     0.134 A 
ATOM      7  C   UNL     1      43.431  16.505  20.757  1.00  0.00     0.093 A 
ATOM      8  C   UNL     1      42.228  16.538  21.461  1.00  0.00     0.123 A 
ATOM      9  C   UNL     1      42.007  15.630  22.498  1.00  0.00     0.094 A 
ATOM     10  C   UNL     1      42.971  14.670  22.815  1.00  0.00     0.146 A 
ATOM     11  O   UNL     1      42.718  13.818  23.801  1.00  0.00    -0.452 OA
ENDROOT
BRANCH   1  12
ATOM     12  C   UNL     1      43.162  11.986  25.303  1.00  0.00     0.025 A 
ATOM     13  C   UNL     1      44.010  11.881  26.417  1.00  0.00     0.016 A 
ATOM     14  C   UNL     1      43.671  11.052  27.490  1.00  0.00     0.051 A 
ATOM     15  C   UNL     1      42.489  10.305  27.460  1.00  0.00     0.157 A 
ATOM     16  C   UNL     1      41.984  11.218  25.267  1.00  0.00     0.062 A 
ATOM     17  C   UNL     1      41.643  10.384  26.342  1.00  0.00     0.158 A 
BRANCH  15  18
ATOM     18  O   UNL     1      42.175   9.488  28.546  1.00  0.00    -0.504 OA
ATOM     19  H   UNL     1      41.878   9.869  29.436  1.00  0.00     0.293 HD
ENDBRANCH  15  18
BRANCH  17  20
ATOM     20  O   UNL     1      40.470   9.631  26.299  1.00  0.00    -0.504 OA
ATOM     21  H   UNL     1      40.486   8.633  26.123  1.00  0.00     0.293 HD
ENDBRANCH  17  20
ENDBRANCH   1  12
BRANCH   2  22
ATOM     22  O   UNL     1      45.598  11.601  23.784  1.00  0.00    -0.502 OA
ATOM     23  H   UNL     1      45.265  10.760  24.241  1.00  0.00     0.293 HD
ENDBRANCH   2  22
BRANCH   6  24
ATOM     24  O   UNL     1      45.635  15.693  20.376  1.00  0.00    -0.507 OA
ATOM     25  H   UNL     1      46.198  14.914  20.069  1.00  0.00     0.293 HD
ENDBRANCH   6  24
BRANCH   8  26
ATOM     26  O   UNL     1      41.262  17.484  21.128  1.00  0.00    -0.508 OA
ATOM     27  H   UNL     1      41.280  17.971  20.239  1.00  0.00     0.293 HD
ENDBRANCH   8  26
TORSDOF 6
ENDMDL
MODEL 5
REMARK VINA RESULT:    -5.523      7.150      8.967
REMARK INTER + INTRA:          -6.968
REMARK INTER:                  -7.089
REMARK INTRA:                   0.121
REMARK UNBOUND:                -0.315
REMARK SMILES O=c1c(O)c(-c2ccc(O)c(O)c2)oc2cc(O)cc(O)c12
REMARK SMILES IDX 5 1 3 2 2 3 1 4 22 5 20 6 19 7 17 8 16 9 15 10 14 11 6 12
REMARK SMILES IDX 7 13 8 14 9 15 13 16 11 17 10 18 12 20 4 22 21 24 18 26
REMARK H PARENT 10 19 12 21 4 23 21 25 18 27
REMARK Flexibility Score: inf
ROOT
ATOM      1  C   UNL     1      38.814  11.604  26.740  1.00  0.00     0.180 A 
ATOM      2  C   UNL     1      38.252  10.358  27.069  1.00  0.00     0.208 A 
ATOM      3  C   UNL     1      37.075  10.325  27.834  1.00  0.00     0.238 A 
ATOM      4  O   UNL     1      36.606   9.206  28.172  1.00  0.00    -0.285 OA
ATOM      5  C   UNL     1      36.468  11.535  28.247  1.00  0.00     0.111 A 
ATOM      6  C   UNL     1      35.253  11.619  28.992  1.00  0.00     0.134 A 
ATOM      7  C   UNL     1      34.814  12.865  29.458  1.00  0.00     0.093 A 
ATOM      8  C   UNL     1      35.508  14.035  29.152  1.00  0.00     0.123 A 
ATOM      9  C   UNL     1      36.665  13.970  28.375  1.00  0.00     0.094 A 
ATOM     10  C   UNL     1      37.149  12.738  27.926  1.00  0.00     0.146 A 
ATOM     11  O   UNL     1      38.258  12.719  27.197  1.00  0.00    -0.452 OA
ENDROOT
BRANCH   1  12
ATOM     12  C   UNL     1      40.039  11.721  25.915  1.00  0.00     0.025 A 
ATOM     13  C   UNL     1      41.140  10.895  26.191  1.00  0.00     0.016 A 
ATOM     14  C   UNL     1      42.313  11.003  25.439  1.00  0.00     0.051 A 
ATOM     15  C   UNL     1      42.409  11.948  24.412  1.00  0.00     0.157 A 
ATOM     16  C   UNL     1      40.146  12.684  24.895  1.00  0.00     0.062 A 
ATOM     17  C   UNL     1      41.323  12.795  24.140  1.00  0.00     0.158 A 
BRANCH  15  18
ATOM     18  O   UNL     1      43.592  12.031  23.676  1.00  0.00    -0.504 OA
ATOM     19  H   UNL     1      43.601  12.318  22.705  1.00  0.00     0.293 HD
ENDBRANCH  15  18
BRANCH  17  20
ATOM     20  O   UNL     1      41.417  13.748  23.126  1.00  0.00    -0.504 OA
ATOM     21  H   UNL     1      40.602  14.057  22.611  1.00  0.00     0.293 HD
ENDBRANCH  17  20
ENDBRANCH   1  12
BRANCH   2  22
ATOM     22  O   UNL     1      38.880   9.176  26.670  1.00  0.00    -0.502 OA
ATOM     23  H   UNL     1      39.455   8.627  27.297  1.00  0.00     0.293 HD
ENDBRANCH   2  22
BRANCH   6  24
ATOM     24  O   UNL     1      34.433  10.523  29.273  1.00  0.00    -0.507 OA
ATOM     25  H   UNL     1      33.875  10.422  30.107  1.00  0.00     0.293 HD
ENDBRANCH   6  24
BRANCH   8  26
ATOM     26  O   UNL     1      35.034  15.258  29.619  1.00  0.00    -0.508 OA
ATOM     27  H   UNL     1      35.153  15.539  30.585  1.00  0.00     0.293 HD
ENDBRANCH   8  26
TORSDOF 6
ENDMDL
MODEL 6
REMARK VINA RESULT:    -5.472      4.138      5.352
REMARK INTER + INTRA:          -6.906
REMARK INTER:                  -6.653
REMARK INTRA:                  -0.253
REMARK UNBOUND:                -0.315
REMARK SMILES O=c1c(O)c(-c2ccc(O)c(O)c2)oc2cc(O)cc(O)c12
REMARK SMILES IDX 5 1 3 2 2 3 1 4 22 5 20 6 19 7 17 8 16 9 15 10 14 11 6 12
REMARK SMILES IDX 7 13 8 14 9 15 13 16 11 17 10 18 12 20 4 22 21 24 18 26
REMARK H PARENT 10 19 12 21 4 23 21 25 18 27
REMARK Flexibility Score: inf
ROOT
ATOM      1  C   UNL     1      41.771  14.501  24.453  1.00  0.00     0.180 A 
ATOM      2  C   UNL     1      41.242  15.380  25.414  1.00  0.00     0.208 A 
ATOM      3  C   UNL     1      40.492  14.852  26.478  1.00  0.00     0.238 A 
ATOM      4  O   UNL     1      39.975  15.648  27.305  1.00  0.00    -0.285 OA
ATOM      5  C   UNL     1      40.296  13.453  26.576  1.00  0.00     0.111 A 
ATOM      6  C   UNL     1      39.586  12.808  27.634  1.00  0.00     0.134 A 
ATOM      7  C   UNL     1      39.341  11.430  27.559  1.00  0.00     0.093 A 
ATOM      8  C   UNL     1      39.834  10.666  26.502  1.00  0.00     0.123 A 
ATOM      9  C   UNL     1      40.579  11.279  25.493  1.00  0.00     0.094 A 
ATOM     10  C   UNL     1      40.809  12.657  25.520  1.00  0.00     0.146 A 
ATOM     11  O   UNL     1      41.514  13.202  24.536  1.00  0.00    -0.452 OA
ENDROOT
BRANCH   1  12
ATOM     12  C   UNL     1      42.592  14.979  23.317  1.00  0.00     0.025 A 
ATOM     13  C   UNL     1      41.967  15.605  22.227  1.00  0.00     0.016 A 
ATOM     14  C   UNL     1      42.720  16.045  21.135  1.00  0.00     0.051 A 
ATOM     15  C   UNL     1      44.105  15.854  21.109  1.00  0.00     0.157 A 
ATOM     16  C   UNL     1      43.983  14.770  23.278  1.00  0.00     0.062 A 
ATOM     17  C   UNL     1      44.740  15.209  22.183  1.00  0.00     0.158 A 
BRANCH  15  18
ATOM     18  O   UNL     1      44.831  16.306  20.007  1.00  0.00    -0.504 OA
ATOM     19  H   UNL     1      45.764  15.969  19.803  1.00  0.00     0.293 HD
ENDBRANCH  15  18
BRANCH  17  20
ATOM     20  O   UNL     1      46.119  15.003  22.157  1.00  0.00    -0.504 OA
ATOM     21  H   UNL     1      46.520  14.137  21.815  1.00  0.00     0.293 HD
ENDBRANCH  17  20
ENDBRANCH   1  12
BRANCH   2  22
ATOM     22  O   UNL     1      41.430  16.758  25.286  1.00  0.00    -0.502 OA
ATOM     23  H   UNL     1      41.045  17.424  25.946  1.00  0.00     0.293 HD
ENDBRANCH   2  22
BRANCH   6  24
ATOM     24  O   UNL     1      39.131  13.462  28.781  1.00  0.00    -0.507 OA
ATOM     25  H   UNL     1      39.653  14.159  29.290  1.00  0.00     0.293 HD
ENDBRANCH   6  24
BRANCH   8  26
ATOM     26  O   UNL     1      39.585   9.296  26.469  1.00  0.00    -0.508 OA
ATOM     27  H   UNL     1      39.540   8.745  27.318  1.00  0.00     0.293 HD
ENDBRANCH   8  26
TORSDOF 6
ENDMDL
MODEL 7
REMARK VINA RESULT:    -5.434      5.992      6.733
REMARK INTER + INTRA:          -6.861
REMARK INTER:                  -6.553
REMARK INTRA:                  -0.308
REMARK UNBOUND:                -0.315
REMARK SMILES O=c1c(O)c(-c2ccc(O)c(O)c2)oc2cc(O)cc(O)c12
REMARK SMILES IDX 5 1 3 2 2 3 1 4 22 5 20 6 19 7 17 8 16 9 15 10 14 11 6 12
REMARK SMILES IDX 7 13 8 14 9 15 13 16 11 17 10 18 12 20 4 22 21 24 18 26
REMARK H PARENT 10 19 12 21 4 23 21 25 18 27
REMARK Flexibility Score: inf
ROOT
ATOM      1  C   UNL     1      40.117  12.155  26.297  1.00  0.00     0.180 A 
ATOM      2  C   UNL     1      40.993  11.261  26.936  1.00  0.00     0.208 A 
ATOM      3  C   UNL     1      40.462  10.290  27.801  1.00  0.00     0.238 A 
ATOM      4  O   UNL     1      41.255   9.528  28.413  1.00  0.00    -0.285 OA
ATOM      5  C   UNL     1      39.062  10.215  28.001  1.00  0.00     0.111 A 
ATOM      6  C   UNL     1      38.413   9.246  28.824  1.00  0.00     0.134 A 
ATOM      7  C   UNL     1      37.034   9.347  29.053  1.00  0.00     0.093 A 
ATOM      8  C   UNL     1      36.273  10.341  28.439  1.00  0.00     0.123 A 
ATOM      9  C   UNL     1      36.889  11.258  27.586  1.00  0.00     0.094 A 
ATOM     10  C   UNL     1      38.268  11.205  27.366  1.00  0.00     0.146 A 
ATOM     11  O   UNL     1      38.816  12.102  26.556  1.00  0.00    -0.452 OA
ENDROOT
BRANCH   1  12
ATOM     12  C   UNL     1      40.599  13.189  25.352  1.00  0.00     0.025 A 
ATOM     13  C   UNL     1      40.866  12.837  24.020  1.00  0.00     0.016 A 
ATOM     14  C   UNL     1      41.342  13.792  23.117  1.00  0.00     0.051 A 
ATOM     15  C   UNL     1      41.570  15.107  23.534  1.00  0.00     0.157 A 
ATOM     16  C   UNL     1      40.849  14.508  25.774  1.00  0.00     0.062 A 
ATOM     17  C   UNL     1      41.327  15.467  24.869  1.00  0.00     0.158 A 
BRANCH  15  18
ATOM     18  O   UNL     1      42.042  16.039  22.609  1.00  0.00    -0.504 OA
ATOM     19  H   UNL     1      43.003  16.360  22.612  1.00  0.00     0.293 HD
ENDBRANCH  15  18
BRANCH  17  20
ATOM     20  O   UNL     1      41.567  16.773  25.295  1.00  0.00    -0.504 OA
ATOM     21  H   UNL     1      40.849  17.487  25.249  1.00  0.00     0.293 HD
ENDBRANCH  17  20
ENDBRANCH   1  12
BRANCH   2  22
ATOM     22  O   UNL     1      42.372  11.367  26.741  1.00  0.00    -0.502 OA
ATOM     23  H   UNL     1      42.957  11.971  27.307  1.00  0.00     0.293 HD
ENDBRANCH   2  22
BRANCH   6  24
ATOM     24  O   UNL     1      39.064   8.158  29.411  1.00  0.00    -0.507 OA
ATOM     25  H   UNL     1      38.762   7.693  30.253  1.00  0.00     0.293 HD
ENDBRANCH   6  24
BRANCH   8  26
ATOM     26  O   UNL     1      34.902  10.402  28.677  1.00  0.00    -0.508 OA
ATOM     27  H   UNL     1      34.528  10.832  29.514  1.00  0.00     0.293 HD
ENDBRANCH   8  26
TORSDOF 6
ENDMDL
MODEL 8
REMARK VINA RESULT:    -5.408      3.735      4.516
REMARK INTER + INTRA:          -6.830
REMARK INTER:                  -6.522
REMARK INTRA:                  -0.308
REMARK UNBOUND:                -0.315
REMARK SMILES O=c1c(O)c(-c2ccc(O)c(O)c2)oc2cc(O)cc(O)c12
REMARK SMILES IDX 5 1 3 2 2 3 1 4 22 5 20 6 19 7 17 8 16 9 15 10 14 11 6 12
REMARK SMILES IDX 7 13 8 14 9 15 13 16 11 17 10 18 12 20 4 22 21 24 18 26
REMARK H PARENT 10 19 12 21 4 23 21 25 18 27
REMARK Flexibility Score: inf
ROOT
ATOM      1  C   UNL     1      42.649  10.844  25.356  1.00  0.00     0.180 A 
ATOM      2  C   UNL     1      43.196   9.795  26.114  1.00  0.00     0.208 A 
ATOM      3  C   UNL     1      44.080   8.896  25.494  1.00  0.00     0.238 A 
ATOM      4  O   UNL     1      44.523   7.927  26.164  1.00  0.00    -0.285 OA
ATOM      5  C   UNL     1      44.418   9.068  24.130  1.00  0.00     0.111 A 
ATOM      6  C   UNL     1      45.334   8.241  23.412  1.00  0.00     0.134 A 
ATOM      7  C   UNL     1      45.493   8.424  22.033  1.00  0.00     0.093 A 
ATOM      8  C   UNL     1      44.822   9.443  21.358  1.00  0.00     0.123 A 
ATOM      9  C   UNL     1      43.969  10.294  22.062  1.00  0.00     0.094 A 
ATOM     10  C   UNL     1      43.761  10.114  23.432  1.00  0.00     0.146 A 
ATOM     11  O   UNL     1      42.935  10.940  24.063  1.00  0.00    -0.452 OA
ENDROOT
BRANCH   1  12
ATOM     12  C   UNL     1      41.731  11.845  25.944  1.00  0.00     0.025 A 
ATOM     13  C   UNL     1      42.249  13.055  26.433  1.00  0.00     0.016 A 
ATOM     14  C   UNL     1      41.403  14.005  27.011  1.00  0.00     0.051 A 
ATOM     15  C   UNL     1      40.031  13.756  27.123  1.00  0.00     0.157 A 
ATOM     16  C   UNL     1      40.354  11.589  26.076  1.00  0.00     0.062 A 
ATOM     17  C   UNL     1      39.504  12.541  26.658  1.00  0.00     0.158 A 
BRANCH  15  18
ATOM     18  O   UNL     1      39.212  14.725  27.703  1.00  0.00    -0.504 OA
ATOM     19  H   UNL     1      39.590  15.553  28.145  1.00  0.00     0.293 HD
ENDBRANCH  15  18
BRANCH  17  20
ATOM     20  O   UNL     1      38.139  12.280  26.779  1.00  0.00    -0.504 OA
ATOM     21  H   UNL     1      37.619  12.545  27.607  1.00  0.00     0.293 HD
ENDBRANCH  17  20
ENDBRANCH   1  12
BRANCH   2  22
ATOM     22  O   UNL     1      42.832   9.630  27.452  1.00  0.00    -0.502 OA
ATOM     23  H   UNL     1      41.865   9.625  27.757  1.00  0.00     0.293 HD
ENDBRANCH   2  22
BRANCH   6  24
ATOM     24  O   UNL     1      46.125   7.254  24.007  1.00  0.00    -0.507 OA
ATOM     25  H   UNL     1      46.932   7.435  24.583  1.00  0.00     0.293 HD
ENDBRANCH   6  24
BRANCH   8  26
ATOM     26  O   UNL     1      45.016   9.605  19.989  1.00  0.00    -0.508 OA
ATOM     27  H   UNL     1      45.686  10.271  19.624  1.00  0.00     0.293 HD
ENDBRANCH   8  26
TORSDOF 6
ENDMDL
