MODEL 1
REMARK VINA RESULT:    -5.803      0.000      0.000
REMARK INTER + INTRA:          -6.312
REMARK INTER:                  -6.312
REMARK INTRA:                   0.000
REMARK UNBOUND:                 0.000
REMARK SMILES Oc1cccc(O)c1O
REMARK SMILES IDX 4 1 5 2 6 3 8 4 2 5 3 6 7 7 1 9 9 11
REMARK H PARENT 7 8 1 10 9 12
REMARK Flexibility Score: inf
ROOT
ATOM      1  C   UNL     1      14.075 -13.830  27.159  1.00  0.00     0.008 A 
ATOM      2  C   UNL     1      12.733 -14.061  26.858  1.00  0.00     0.050 A 
ATOM      3  C   UNL     1      11.720 -13.479  27.627  1.00  0.00     0.161 A 
ATOM      4  C   UNL     1      12.064 -12.646  28.722  1.00  0.00     0.200 A 
ATOM      5  C   UNL     1      13.422 -12.419  29.017  1.00  0.00     0.161 A 
ATOM      6  C   UNL     1      14.419 -13.011  28.234  1.00  0.00     0.050 A 
ENDROOT
BRANCH   3   7
ATOM      7  O   UNL     1      10.396 -13.751  27.272  1.00  0.00    -0.504 OA
ATOM      8  H   UNL     1       9.633 -13.809  27.930  1.00  0.00     0.293 HD
ENDBRANCH   3   7
BRANCH   5   9
ATOM      9  O   UNL     1      13.802 -11.607  30.085  1.00  0.00    -0.504 OA
ATOM     10  H   UNL     1      13.198 -10.884  30.457  1.00  0.00     0.293 HD
ENDBRANCH   5   9
BRANCH   4  11
ATOM     11  O   UNL     1      11.098 -12.037  29.528  1.00  0.00    -0.502 OA
ATOM     12  H   UNL     1      11.299 -11.325  30.215  1.00  0.00     0.293 HD
ENDBRANCH   4  11
TORSDOF 3
ENDMDL
MODEL 2
REMARK VINA RESULT:    -5.795      0.058      2.825
REMARK INTER + INTRA:          -6.304
REMARK INTER:                  -6.304
REMARK INTRA:                   0.000
REMARK UNBOUND:                 0.000
REMARK SMILES Oc1cccc(O)c1O
REMARK SMILES IDX 4 1 5 2 6 3 8 4 2 5 3 6 7 7 1 9 9 11
REMARK H PARENT 7 8 1 10 9 12
REMARK Flexibility Score: inf
ROOT
ATOM      1  C   UNL     1      14.069 -13.846  27.156  1.00  0.00     0.008 A 
ATOM      2  C   UNL     1      14.439 -13.017  28.216  1.00  0.00     0.050 A 
ATOM      3  C   UNL     1      13.467 -12.404  29.013  1.00  0.00     0.161 A 
ATOM      4  C   UNL     1      12.094 -12.628  28.739  1.00  0.00     0.200 A 
ATOM      5  C   UNL     1      11.732 -13.467  27.667  1.00  0.00     0.161 A 
ATOM      6  C   UNL     1      12.720 -14.071  26.883  1.00  0.00     0.050 A 
ENDROOT
BRANCH   3   7
ATOM      7  O   UNL     1      13.904 -11.586  30.058  1.00  0.00    -0.504 OA
ATOM      8  H   UNL     1      14.205 -10.629  29.942  1.00  0.00     0.293 HD
ENDBRANCH   3   7
BRANCH   5   9
ATOM      9  O   UNL     1      10.393 -13.714  27.364  1.00  0.00    -0.504 OA
ATOM     10  H   UNL     1      10.058 -13.790  26.412  1.00  0.00     0.293 HD
ENDBRANCH   5   9
BRANCH   4  11
ATOM     11  O   UNL     1      11.076 -12.044  29.499  1.00  0.00    -0.502 OA
ATOM     12  H   UNL     1      11.224 -11.304  30.169  1.00  0.00     0.293 HD
ENDBRANCH   4  11
TORSDOF 3
ENDMDL
MODEL 3
REMARK VINA RESULT:    -5.637      1.393      2.787
REMARK INTER + INTRA:          -6.131
REMARK INTER:                  -6.131
REMARK INTRA:                   0.000
REMARK UNBOUND:                 0.000
REMARK SMILES Oc1cccc(O)c1O
REMARK SMILES IDX 4 1 5 2 6 3 8 4 2 5 3 6 7 7 1 9 9 11
REMARK H PARENT 7 8 1 10 9 12
REMARK Flexibility Score: inf
ROOT
ATOM      1  C   UNL     1      14.301 -11.874  29.527  1.00  0.00     0.008 A 
ATOM      2  C   UNL     1      13.077 -11.635  30.152  1.00  0.00     0.050 A 
ATOM      3  C   UNL     1      11.902 -12.218  29.665  1.00  0.00     0.161 A 
ATOM      4  C   UNL     1      11.959 -13.060  28.525  1.00  0.00     0.200 A 
ATOM      5  C   UNL     1      13.201 -13.295  27.902  1.00  0.00     0.161 A 
ATOM      6  C   UNL     1      14.363 -12.702  28.406  1.00  0.00     0.050 A 
ENDROOT
BRANCH   3   7
ATOM      7  O   UNL     1      10.710 -11.937  30.338  1.00  0.00    -0.504 OA
ATOM      8  H   UNL     1      10.224 -11.054  30.287  1.00  0.00     0.293 HD
ENDBRANCH   3   7
BRANCH   5   9
ATOM      9  O   UNL     1      13.299 -14.116  26.779  1.00  0.00    -0.504 OA
ATOM     10  H   UNL     1      14.189 -14.364  26.366  1.00  0.00     0.293 HD
ENDBRANCH   5   9
BRANCH   4  11
ATOM     11  O   UNL     1      10.821 -13.670  27.992  1.00  0.00    -0.502 OA
ATOM     12  H   UNL     1      10.814 -14.589  27.574  1.00  0.00     0.293 HD
ENDBRANCH   4  11
TORSDOF 3
ENDMDL
MODEL 4
REMARK VINA RESULT:    -5.472      1.568      2.508
REMARK INTER + INTRA:          -5.952
REMARK INTER:                  -5.952
REMARK INTRA:                   0.000
REMARK UNBOUND:                 0.000
REMARK SMILES Oc1cccc(O)c1O
REMARK SMILES IDX 4 1 5 2 6 3 8 4 2 5 3 6 7 7 1 9 9 11
REMARK H PARENT 7 8 1 10 9 12
REMARK Flexibility Score: inf
ROOT
ATOM      1  C   UNL     1      13.886 -11.722  28.886  1.00  0.00     0.008 A 
ATOM      2  C   UNL     1      13.993 -12.940  28.215  1.00  0.00     0.050 A 
ATOM      3  C   UNL     1      12.858 -13.570  27.696  1.00  0.00     0.161 A 
ATOM      4  C   UNL     1      11.586 -12.962  27.854  1.00  0.00     0.200 A 
ATOM      5  C   UNL     1      11.490 -11.731  28.533  1.00  0.00     0.161 A 
ATOM      6  C   UNL     1      12.638 -11.119  29.044  1.00  0.00     0.050 A 
ENDROOT
BRANCH   3   7
ATOM      7  O   UNL     1      13.035 -14.788  27.035  1.00  0.00    -0.504 OA
ATOM      8  H   UNL     1      12.830 -15.689  27.442  1.00  0.00     0.293 HD
ENDBRANCH   3   7
BRANCH   5   9
ATOM      9  O   UNL     1      10.258 -11.100  28.710  1.00  0.00    -0.504 OA
ATOM     10  H   UNL     1      10.032 -10.220  28.264  1.00  0.00     0.293 HD
ENDBRANCH   5   9
BRANCH   4  11
ATOM     11  O   UNL     1      10.415 -13.542  27.358  1.00  0.00    -0.502 OA
ATOM     12  H   UNL     1      10.240 -14.535  27.337  1.00  0.00     0.293 HD
ENDBRANCH   4  11
TORSDOF 3
ENDMDL
MODEL 5
REMARK VINA RESULT:    -5.175      1.651      2.679
REMARK INTER + INTRA:          -5.629
REMARK INTER:                  -5.629
REMARK INTRA:                   0.000
REMARK UNBOUND:                 0.000
REMARK SMILES Oc1cccc(O)c1O
REMARK SMILES IDX 4 1 5 2 6 3 8 4 2 5 3 6 7 7 1 9 9 11
REMARK H PARENT 7 8 1 10 9 12
REMARK Flexibility Score: inf
ROOT
ATOM      1  C   UNL     1      11.598 -13.376  27.046  1.00  0.00     0.008 A 
ATOM      2  C   UNL     1      12.837 -14.018  27.072  1.00  0.00     0.050 A 
ATOM      3  C   UNL     1      13.869 -13.541  27.887  1.00  0.00     0.161 A 
ATOM      4  C   UNL     1      13.652 -12.395  28.693  1.00  0.00     0.200 A 
ATOM      5  C   UNL     1      12.397 -11.755  28.659  1.00  0.00     0.161 A 
ATOM      6  C   UNL     1      11.379 -12.249  27.838  1.00  0.00     0.050 A 
ENDROOT
BRANCH   3   7
ATOM      7  O   UNL     1      15.084 -14.230  27.865  1.00  0.00    -0.504 OA
ATOM      8  H   UNL     1      15.428 -14.799  28.625  1.00  0.00     0.293 HD
ENDBRANCH   3   7
BRANCH   5   9
ATOM      9  O   UNL     1      12.143 -10.626  29.437  1.00  0.00    -0.504 OA
ATOM     10  H   UNL     1      12.863 -10.175  29.988  1.00  0.00     0.293 HD
ENDBRANCH   5   9
BRANCH   4  11
ATOM     11  O   UNL     1      14.644 -11.871  29.527  1.00  0.00    -0.502 OA
ATOM     12  H   UNL     1      15.095 -10.980  29.380  1.00  0.00     0.293 HD
ENDBRANCH   4  11
TORSDOF 3
ENDMDL
MODEL 6
REMARK VINA RESULT:    -5.149      1.643      2.794
REMARK INTER + INTRA:          -5.601
REMARK INTER:                  -5.601
REMARK INTRA:                   0.000
REMARK UNBOUND:                 0.000
REMARK SMILES Oc1cccc(O)c1O
REMARK SMILES IDX 4 1 5 2 6 3 8 4 2 5 3 6 7 7 1 9 9 11
REMARK H PARENT 7 8 1 10 9 12
REMARK Flexibility Score: inf
ROOT
ATOM      1  C   UNL     1      11.566 -13.400  27.029  1.00  0.00     0.008 A 
ATOM      2  C   UNL     1      11.345 -12.261  27.804  1.00  0.00     0.050 A 
ATOM      3  C   UNL     1      12.357 -11.750  28.624  1.00  0.00     0.161 A 
ATOM      4  C   UNL     1      13.618 -12.398  28.666  1.00  0.00     0.200 A 
ATOM      5  C   UNL     1      13.829 -13.548  27.879  1.00  0.00     0.161 A 
ATOM      6  C   UNL     1      12.804 -14.041  27.066  1.00  0.00     0.050 A 
ENDROOT
BRANCH   3   7
ATOM      7  O   UNL     1      12.071 -10.607  29.374  1.00  0.00    -0.504 OA
ATOM      8  H   UNL     1      11.366  -9.928  29.127  1.00  0.00     0.293 HD
ENDBRANCH   3   7
BRANCH   5   9
ATOM      9  O   UNL     1      15.055 -14.214  27.892  1.00  0.00    -0.504 OA
ATOM     10  H   UNL     1      15.888 -13.807  28.298  1.00  0.00     0.293 HD
ENDBRANCH   5   9
BRANCH   4  11
ATOM     11  O   UNL     1      14.667 -11.937  29.465  1.00  0.00    -0.502 OA
ATOM     12  H   UNL     1      14.879 -12.295  30.385  1.00  0.00     0.293 HD
ENDBRANCH   4  11
TORSDOF 3
ENDMDL
MODEL 7
REMARK VINA RESULT:    -4.995      1.663      3.392
REMARK INTER + INTRA:          -5.433
REMARK INTER:                  -5.433
REMARK INTRA:                   0.000
REMARK UNBOUND:                 0.000
REMARK SMILES Oc1cccc(O)c1O
REMARK SMILES IDX 4 1 5 2 6 3 8 4 2 5 3 6 7 7 1 9 9 11
REMARK H PARENT 7 8 1 10 9 12
REMARK Flexibility Score: inf
ROOT
ATOM      1  C   UNL     1      13.219 -11.614  29.422  1.00  0.00     0.008 A 
ATOM      2  C   UNL     1      14.316 -12.279  28.874  1.00  0.00     0.050 A 
ATOM      3  C   UNL     1      14.139 -13.245  27.878  1.00  0.00     0.161 A 
ATOM      4  C   UNL     1      12.830 -13.549  27.423  1.00  0.00     0.200 A 
ATOM      5  C   UNL     1      11.730 -12.871  27.983  1.00  0.00     0.161 A 
ATOM      6  C   UNL     1      11.930 -11.909  28.978  1.00  0.00     0.050 A 
ENDROOT
BRANCH   3   7
ATOM      7  O   UNL     1      15.279 -13.874  27.371  1.00  0.00    -0.504 OA
ATOM      8  H   UNL     1      15.558 -13.847  26.402  1.00  0.00     0.293 HD
ENDBRANCH   3   7
BRANCH   5   9
ATOM      9  O   UNL     1      10.427 -13.141  27.564  1.00  0.00    -0.504 OA
ATOM     10  H   UNL     1      10.072 -12.829  26.669  1.00  0.00     0.293 HD
ENDBRANCH   5   9
BRANCH   4  11
ATOM     11  O   UNL     1      12.588 -14.504  26.431  1.00  0.00    -0.502 OA
ATOM     12  H   UNL     1      13.185 -15.298  26.251  1.00  0.00     0.293 HD
ENDBRANCH   4  11
TORSDOF 3
ENDMDL
MODEL 8
REMARK VINA RESULT:    -4.981      1.683      2.492
REMARK INTER + INTRA:          -5.418
REMARK INTER:                  -5.418
REMARK INTRA:                   0.000
REMARK UNBOUND:                 0.000
REMARK SMILES Oc1cccc(O)c1O
REMARK SMILES IDX 4 1 5 2 6 3 8 4 2 5 3 6 7 7 1 9 9 11
REMARK H PARENT 7 8 1 10 9 12
REMARK Flexibility Score: inf
ROOT
ATOM      1  C   UNL     1      11.470 -10.459  28.497  1.00  0.00     0.008 A 
ATOM      2  C   UNL     1      10.756 -11.508  27.916  1.00  0.00     0.050 A 
ATOM      3  C   UNL     1      11.348 -12.763  27.741  1.00  0.00     0.161 A 
ATOM      4  C   UNL     1      12.688 -12.968  28.159  1.00  0.00     0.200 A 
ATOM      5  C   UNL     1      13.400 -11.903  28.744  1.00  0.00     0.161 A 
ATOM      6  C   UNL     1      12.787 -10.657  28.910  1.00  0.00     0.050 A 
ENDROOT
BRANCH   3   7
ATOM      7  O   UNL     1      10.578 -13.769  27.153  1.00  0.00    -0.504 OA
ATOM      8  H   UNL     1      10.115 -14.503  27.667  1.00  0.00     0.293 HD
ENDBRANCH   3   7
BRANCH   5   9
ATOM      9  O   UNL     1      14.719 -12.064  29.168  1.00  0.00    -0.504 OA
ATOM     10  H   UNL     1      15.504 -11.695  28.647  1.00  0.00     0.293 HD
ENDBRANCH   5   9
BRANCH   4  11
ATOM     11  O   UNL     1      13.335 -14.198  28.010  1.00  0.00    -0.502 OA
ATOM     12  H   UNL     1      14.336 -14.320  28.050  1.00  0.00     0.293 HD
ENDBRANCH   4  11
TORSDOF 3
ENDMDL
MODEL 9
REMARK VINA RESULT:    -4.977      1.656      3.733
REMARK INTER + INTRA:          -5.413
REMARK INTER:                  -5.413
REMARK INTRA:                   0.000
REMARK UNBOUND:                 0.000
REMARK SMILES Oc1cccc(O)c1O
REMARK SMILES IDX 4 1 5 2 6 3 8 4 2 5 3 6 7 7 1 9 9 11
REMARK H PARENT 7 8 1 10 9 12
REMARK Flexibility Score: inf
ROOT
ATOM      1  C   UNL     1      11.496 -10.478  28.503  1.00  0.00     0.008 A 
ATOM      2  C   UNL     1      12.819 -10.703  28.886  1.00  0.00     0.050 A 
ATOM      3  C   UNL     1      13.416 -11.952  28.683  1.00  0.00     0.161 A 
ATOM      4  C   UNL     1      12.669 -12.995  28.081  1.00  0.00     0.200 A 
ATOM      5  C   UNL     1      11.335 -12.757  27.697  1.00  0.00     0.161 A 
ATOM      6  C   UNL     1      10.757 -11.501  27.910  1.00  0.00     0.050 A 
ENDROOT
BRANCH   3   7
ATOM      7  O   UNL     1      14.743 -12.111  29.090  1.00  0.00    -0.504 OA
ATOM      8  H   UNL     1      15.296 -12.937  28.913  1.00  0.00     0.293 HD
ENDBRANCH   3   7
BRANCH   5   9
ATOM      9  O   UNL     1      10.566 -13.757  27.102  1.00  0.00    -0.504 OA
ATOM     10  H   UNL     1       9.976 -14.379  27.640  1.00  0.00     0.293 HD
ENDBRANCH   5   9
BRANCH   4  11
ATOM     11  O   UNL     1      13.210 -14.264  27.851  1.00  0.00    -0.502 OA
ATOM     12  H   UNL     1      12.675 -15.119  27.866  1.00  0.00     0.293 HD
ENDBRANCH   4  11
TORSDOF 3
ENDMDL
