MODEL 1
REMARK VINA RESULT:    -3.876      0.000      0.000
REMARK INTER + INTRA:          -6.350
REMARK INTER:                  -5.916
REMARK INTRA:                  -0.434
REMARK UNBOUND:                -0.434
REMARK SMILES CC1=CCC[C@H](C)C(=O)C[C@H](C(C)C)C(=O)C1
REMARK SMILES IDX 8 1 9 2 6 3 7 4 5 5 4 6 3 7 2 8 1 9 10 11 11 12 15 13 16 14
REMARK SMILES IDX 17 15 12 17 13 18 14 19
REMARK H PARENT
REMARK Flexibility Score: 70.00
ROOT
ATOM      1  C   UNL     1     213.920 203.843 216.915  1.00  0.00     0.136 C 
ATOM      2  O   UNL     1     214.659 203.728 217.882  1.00  0.00    -0.299 OA
ENDROOT
BRANCH   1   3
ATOM      3  C   UNL     1     212.673 204.702 217.008  1.00  0.00     0.053 C 
ATOM      4  C   UNL     1     211.882 204.473 218.308  1.00  0.00     0.016 C 
BRANCH   3   5
ATOM      5  C   UNL     1     212.927 206.206 216.725  1.00  0.00     0.015 C 
BRANCH   5   6
ATOM      6  C   UNL     1     213.203 206.702 215.275  1.00  0.00     0.028 C 
BRANCH   6   7
ATOM      7  C   UNL     1     212.155 206.408 214.225  1.00  0.00    -0.028 C 
ATOM      8  C   UNL     1     212.181 205.396 213.322  1.00  0.00    -0.070 CG0
ATOM      9  C   UNL     1     211.011 205.266 212.378  1.00  0.00     0.039 C 
ATOM     10  G   UNL     1     213.332 204.417 213.171  1.00  0.00     0.000 G0
ENDBRANCH   6   7
ENDBRANCH   5   6
ENDBRANCH   3   5
ENDBRANCH   1   3
BRANCH   1  11
ATOM     11  C   UNL     1     214.258 203.089 215.648  1.00  0.00     0.087 C 
BRANCH  11  12
ATOM     12  C   UNL     1     213.001 202.511 214.952  1.00  0.00     0.066 C 
BRANCH  12  13
ATOM     13  C   UNL     1     212.877 203.010 213.525  1.00  0.00     0.140 C 
ATOM     14  O   UNL     1     212.474 202.263 212.646  1.00  0.00    -0.299 OA
BRANCH  13  15
ATOM     15  C   UNL     1     213.323 204.399 213.155  1.00  0.00     0.106 CG0
ATOM     16  G   UNL     1     212.181 205.386 213.310  1.00  0.00     0.000 G0
ENDBRANCH  13  15
ENDBRANCH  12  13
BRANCH  12  17
ATOM     17  C   UNL     1     212.890 200.956 215.027  1.00  0.00    -0.006 C 
ATOM     18  C   UNL     1     214.240 200.219 214.960  1.00  0.00     0.008 C 
ATOM     19  C   UNL     1     212.114 200.506 216.275  1.00  0.00     0.008 C 
ENDBRANCH  12  17
ENDBRANCH  11  12
ENDBRANCH   1  11
TORSDOF 1
ENDMDL
MODEL 2
REMARK VINA RESULT:    -3.777     13.620     15.208
REMARK INTER + INTRA:          -6.199
REMARK INTER:                  -5.701
REMARK INTRA:                  -0.498
REMARK UNBOUND:                -0.434
REMARK SMILES CC1=CCC[C@H](C)C(=O)C[C@H](C(C)C)C(=O)C1
REMARK SMILES IDX 8 1 9 2 6 3 7 4 5 5 4 6 3 7 2 8 1 9 10 11 11 12 15 13 16 14
REMARK SMILES IDX 17 15 12 17 13 18 14 19
REMARK H PARENT
REMARK Flexibility Score: 70.00
ROOT
ATOM      1  C   UNL     1     198.080 208.489 217.039  1.00  0.00     0.136 C 
ATOM      2  O   UNL     1     197.224 208.256 217.881  1.00  0.00    -0.299 OA
ENDROOT
BRANCH   1   3
ATOM      3  C   UNL     1     199.451 207.850 217.152  1.00  0.00     0.053 C 
ATOM      4  C   UNL     1     200.055 207.968 218.562  1.00  0.00     0.016 C 
BRANCH   3   5
ATOM      5  C   UNL     1     199.514 206.402 216.598  1.00  0.00     0.015 C 
BRANCH   5   6
ATOM      6  C   UNL     1     198.972 206.075 215.176  1.00  0.00     0.028 C 
BRANCH   6   7
ATOM      7  C   UNL     1     199.860 206.403 213.997  1.00  0.00    -0.028 C 
ATOM      8  C   UNL     1     199.736 207.470 213.167  1.00  0.00    -0.070 CG0
ATOM      9  C   UNL     1     200.755 207.624 212.065  1.00  0.00     0.039 C 
ATOM     10  G   UNL     1     198.614 208.488 213.250  1.00  0.00     0.000 G0
ENDBRANCH   6   7
ENDBRANCH   5   6
ENDBRANCH   3   5
ENDBRANCH   1   3
BRANCH   1  11
ATOM     11  C   UNL     1     197.753 209.445 215.914  1.00  0.00     0.087 C 
BRANCH  11  12
ATOM     12  C   UNL     1     199.021 210.084 215.294  1.00  0.00     0.066 C 
BRANCH  12  13
ATOM     13  C   UNL     1     199.116 209.798 213.808  1.00  0.00     0.140 C 
ATOM     14  O   UNL     1     199.544 210.652 213.045  1.00  0.00    -0.299 OA
BRANCH  13  15
ATOM     15  C   UNL     1     198.613 208.498 213.241  1.00  0.00     0.106 CG0
ATOM     16  G   UNL     1     199.735 207.479 213.164  1.00  0.00     0.000 G0
ENDBRANCH  13  15
ENDBRANCH  12  13
BRANCH  12  17
ATOM     17  C   UNL     1     199.179 211.607 215.597  1.00  0.00    -0.006 C 
ATOM     18  C   UNL     1     197.849 212.354 215.806  1.00  0.00     0.008 C 
ATOM     19  C   UNL     1     200.105 211.850 216.799  1.00  0.00     0.008 C 
ENDBRANCH  12  17
ENDBRANCH  11  12
ENDBRANCH   1  11
TORSDOF 1
ENDMDL
MODEL 3
REMARK VINA RESULT:    -3.579     13.382     14.973
REMARK INTER + INTRA:          -5.897
REMARK INTER:                  -5.638
REMARK INTRA:                  -0.258
REMARK UNBOUND:                -0.434
REMARK SMILES CC1=CCC[C@H](C)C(=O)C[C@H](C(C)C)C(=O)C1
REMARK SMILES IDX 8 1 9 2 6 3 7 4 5 5 4 6 3 7 2 8 1 9 10 11 11 12 15 13 16 14
REMARK SMILES IDX 17 15 12 17 13 18 14 19
REMARK H PARENT
REMARK Flexibility Score: 70.00
ROOT
ATOM      1  C   UNL     1     200.179 207.489 216.490  1.00  0.00     0.136 C 
ATOM      2  O   UNL     1     200.663 207.651 217.602  1.00  0.00    -0.299 OA
ENDROOT
BRANCH   1   3
ATOM      3  C   UNL     1     198.912 206.672 216.323  1.00  0.00     0.053 C 
ATOM      4  C   UNL     1     199.060 205.225 216.827  1.00  0.00     0.016 C 
BRANCH   3   5
ATOM      5  C   UNL     1     197.641 207.367 216.879  1.00  0.00     0.015 C 
BRANCH   5   6
ATOM      6  C   UNL     1     197.709 208.826 217.418  1.00  0.00     0.028 C 
BRANCH   6   7
ATOM      7  C   UNL     1     197.112 209.917 216.558  1.00  0.00    -0.028 C 
ATOM      8  C   UNL     1     197.787 210.738 215.714  1.00  0.00    -0.070 CG0
ATOM      9  C   UNL     1     196.986 211.744 214.924  1.00  0.00     0.039 C 
ATOM     10  G   UNL     1     199.296 210.741 215.552  1.00  0.00     0.000 G0
ENDBRANCH   6   7
ENDBRANCH   5   6
ENDBRANCH   3   5
ENDBRANCH   1   3
BRANCH   1  11
ATOM     11  C   UNL     1     200.886 208.089 215.296  1.00  0.00     0.087 C 
BRANCH  11  12
ATOM     12  C   UNL     1     199.897 208.590 214.214  1.00  0.00     0.066 C 
BRANCH  12  13
ATOM     13  C   UNL     1     199.724 210.096 214.274  1.00  0.00     0.140 C 
ATOM     14  O   UNL     1     199.989 210.784 213.300  1.00  0.00    -0.299 OA
BRANCH  13  15
ATOM     15  C   UNL     1     199.304 210.771 215.552  1.00  0.00     0.106 CG0
ATOM     16  G   UNL     1     197.794 210.730 215.707  1.00  0.00     0.000 G0
ENDBRANCH  13  15
ENDBRANCH  12  13
BRANCH  12  17
ATOM     17  C   UNL     1     200.237 208.110 212.768  1.00  0.00    -0.006 C 
ATOM     18  C   UNL     1     201.284 206.982 212.704  1.00  0.00     0.008 C 
ATOM     19  C   UNL     1     198.973 207.688 212.002  1.00  0.00     0.008 C 
ENDBRANCH  12  17
ENDBRANCH  11  12
ENDBRANCH   1  11
TORSDOF 1
ENDMDL
MODEL 4
REMARK VINA RESULT:    -3.551      1.903      4.121
REMARK INTER + INTRA:          -5.854
REMARK INTER:                  -5.339
REMARK INTRA:                  -0.515
REMARK UNBOUND:                -0.434
REMARK SMILES CC1=CCC[C@H](C)C(=O)C[C@H](C(C)C)C(=O)C1
REMARK SMILES IDX 8 1 9 2 6 3 7 4 5 5 4 6 3 7 2 8 1 9 10 11 11 12 15 13 16 14
REMARK SMILES IDX 17 15 12 17 13 18 14 19
REMARK H PARENT
REMARK Flexibility Score: 70.00
ROOT
ATOM      1  C   UNL     1     212.174 204.607 216.465  1.00  0.00     0.136 C 
ATOM      2  O   UNL     1     211.568 204.614 217.528  1.00  0.00    -0.299 OA
ENDROOT
BRANCH   1   3
ATOM      3  C   UNL     1     213.556 205.226 216.374  1.00  0.00     0.053 C 
ATOM      4  C   UNL     1     213.569 206.721 216.735  1.00  0.00     0.016 C 
BRANCH   3   5
ATOM      5  C   UNL     1     214.651 204.423 217.125  1.00  0.00     0.015 C 
BRANCH   5   6
ATOM      6  C   UNL     1     214.505 202.888 217.333  1.00  0.00     0.028 C 
BRANCH   6   7
ATOM      7  C   UNL     1     215.164 201.979 216.319  1.00  0.00    -0.028 C 
ATOM      8  C   UNL     1     214.548 201.329 215.300  1.00  0.00    -0.070 CG0
ATOM      9  C   UNL     1     215.404 200.492 214.382  1.00  0.00     0.039 C 
ATOM     10  G   UNL     1     213.050 201.352 215.055  1.00  0.00     0.000 G0
ENDBRANCH   6   7
ENDBRANCH   5   6
ENDBRANCH   3   5
ENDBRANCH   1   3
BRANCH   1  11
ATOM     11  C   UNL     1     211.505 204.003 215.251  1.00  0.00     0.087 C 
BRANCH  11  12
ATOM     12  C   UNL     1     212.505 203.734 214.099  1.00  0.00     0.066 C 
BRANCH  12  13
ATOM     13  C   UNL     1     212.714 202.247 213.881  1.00  0.00     0.140 C 
ATOM     14  O   UNL     1     212.543 201.760 212.774  1.00  0.00    -0.299 OA
BRANCH  13  15
ATOM     15  C   UNL     1     213.053 201.341 215.034  1.00  0.00     0.106 CG0
ATOM     16  G   UNL     1     214.549 201.338 215.289  1.00  0.00     0.000 G0
ENDBRANCH  13  15
ENDBRANCH  12  13
BRANCH  12  17
ATOM     17  C   UNL     1     212.152 204.465 212.766  1.00  0.00    -0.006 C 
ATOM     18  C   UNL     1     210.865 205.307 212.825  1.00  0.00     0.008 C 
ATOM     19  C   UNL     1     213.319 205.335 212.274  1.00  0.00     0.008 C 
ENDBRANCH  12  17
ENDBRANCH  11  12
ENDBRANCH   1  11
TORSDOF 1
ENDMDL
MODEL 5
REMARK VINA RESULT:    -3.447     13.839     15.309
REMARK INTER + INTRA:          -5.694
REMARK INTER:                  -5.137
REMARK INTRA:                  -0.557
REMARK UNBOUND:                -0.434
REMARK SMILES CC1=CCC[C@H](C)C(=O)C[C@H](C(C)C)C(=O)C1
REMARK SMILES IDX 8 1 9 2 6 3 7 4 5 5 4 6 3 7 2 8 1 9 10 11 11 12 15 13 16 14
REMARK SMILES IDX 17 15 12 17 13 18 14 19
REMARK H PARENT
REMARK Flexibility Score: 70.00
ROOT
ATOM      1  C   UNL     1     199.385 211.226 215.551  1.00  0.00     0.136 C 
ATOM      2  O   UNL     1     200.032 212.264 215.583  1.00  0.00    -0.299 OA
ENDROOT
BRANCH   1   3
ATOM      3  C   UNL     1     197.987 211.219 214.962  1.00  0.00     0.053 C 
ATOM      4  C   UNL     1     196.990 212.066 215.772  1.00  0.00     0.016 C 
BRANCH   3   5
ATOM      5  C   UNL     1     197.946 211.542 213.445  1.00  0.00     0.015 C 
BRANCH   5   6
ATOM      6  C   UNL     1     198.738 210.668 212.429  1.00  0.00     0.028 C 
BRANCH   6   7
ATOM      7  C   UNL     1     198.258 209.252 212.202  1.00  0.00    -0.028 C 
ATOM      8  C   UNL     1     198.783 208.126 212.748  1.00  0.00    -0.070 CG0
ATOM      9  C   UNL     1     198.128 206.810 212.410  1.00  0.00     0.039 C 
ATOM     10  G   UNL     1     200.013 208.103 213.637  1.00  0.00     0.000 G0
ENDBRANCH   6   7
ENDBRANCH   5   6
ENDBRANCH   3   5
ENDBRANCH   1   3
BRANCH   1  11
ATOM     11  C   UNL     1     199.994 209.973 216.137  1.00  0.00     0.087 C 
BRANCH  11  12
ATOM     12  C   UNL     1     199.064 208.741 215.994  1.00  0.00     0.066 C 
BRANCH  12  13
ATOM     13  C   UNL     1     199.650 207.710 215.049  1.00  0.00     0.140 C 
ATOM     14  O   UNL     1     199.883 206.578 215.444  1.00  0.00    -0.299 OA
BRANCH  13  15
ATOM     15  C   UNL     1     200.027 208.085 213.640  1.00  0.00     0.106 CG0
ATOM     16  G   UNL     1     198.798 208.125 212.751  1.00  0.00     0.000 G0
ENDBRANCH  13  15
ENDBRANCH  12  13
BRANCH  12  17
ATOM     17  C   UNL     1     198.643 208.099 217.353  1.00  0.00    -0.006 C 
ATOM     18  C   UNL     1     199.419 208.629 218.573  1.00  0.00     0.008 C 
ATOM     19  C   UNL     1     197.132 208.240 217.598  1.00  0.00     0.008 C 
ENDBRANCH  12  17
ENDBRANCH  11  12
ENDBRANCH   1  11
TORSDOF 1
ENDMDL
MODEL 6
REMARK VINA RESULT:    -3.430      2.079      4.846
REMARK INTER + INTRA:          -5.669
REMARK INTER:                  -5.394
REMARK INTRA:                  -0.274
REMARK UNBOUND:                -0.434
REMARK SMILES CC1=CCC[C@H](C)C(=O)C[C@H](C(C)C)C(=O)C1
REMARK SMILES IDX 8 1 9 2 6 3 7 4 5 5 4 6 3 7 2 8 1 9 10 11 11 12 15 13 16 14
REMARK SMILES IDX 17 15 12 17 13 18 14 19
REMARK H PARENT
REMARK Flexibility Score: 70.00
ROOT
ATOM      1  C   UNL     1     213.342 205.409 213.814  1.00  0.00     0.136 C 
ATOM      2  O   UNL     1     213.551 206.470 213.242  1.00  0.00    -0.299 OA
ENDROOT
BRANCH   1   3
ATOM      3  C   UNL     1     212.208 204.511 213.360  1.00  0.00     0.053 C 
ATOM      4  C   UNL     1     211.084 205.278 212.642  1.00  0.00     0.016 C 
BRANCH   3   5
ATOM      5  C   UNL     1     212.678 203.263 212.566  1.00  0.00     0.015 C 
BRANCH   5   6
ATOM      6  C   UNL     1     212.607 201.846 213.205  1.00  0.00     0.028 C 
BRANCH   6   7
ATOM      7  C   UNL     1     213.914 201.184 213.582  1.00  0.00    -0.028 C 
ATOM      8  C   UNL     1     214.401 201.020 214.838  1.00  0.00    -0.070 CG0
ATOM      9  C   UNL     1     215.718 200.300 214.991  1.00  0.00     0.039 C 
ATOM     10  G   UNL     1     213.730 201.556 216.089  1.00  0.00     0.000 G0
ENDBRANCH   6   7
ENDBRANCH   5   6
ENDBRANCH   3   5
ENDBRANCH   1   3
BRANCH   1  11
ATOM     11  C   UNL     1     214.212 205.037 214.993  1.00  0.00     0.087 C 
BRANCH  11  12
ATOM     12  C   UNL     1     213.453 204.185 216.041  1.00  0.00     0.066 C 
BRANCH  12  13
ATOM     13  C   UNL     1     214.247 202.955 216.437  1.00  0.00     0.140 C 
ATOM     14  O   UNL     1     215.341 203.075 216.968  1.00  0.00    -0.299 OA
BRANCH  13  15
ATOM     15  C   UNL     1     213.742 201.575 216.111  1.00  0.00     0.106 CG0
ATOM     16  G   UNL     1     214.387 201.056 214.839  1.00  0.00     0.000 G0
ENDBRANCH  13  15
ENDBRANCH  12  13
BRANCH  12  17
ATOM     17  C   UNL     1     212.979 204.989 217.293  1.00  0.00    -0.006 C 
ATOM     18  C   UNL     1     212.870 206.508 217.068  1.00  0.00     0.008 C 
ATOM     19  C   UNL     1     211.648 204.448 217.839  1.00  0.00     0.008 C 
ENDBRANCH  12  17
ENDBRANCH  11  12
ENDBRANCH   1  11
TORSDOF 1
ENDMDL
MODEL 7
REMARK VINA RESULT:    -3.406     13.742     14.968
REMARK INTER + INTRA:          -5.632
REMARK INTER:                  -5.114
REMARK INTRA:                  -0.518
REMARK UNBOUND:                -0.434
REMARK SMILES CC1=CCC[C@H](C)C(=O)C[C@H](C(C)C)C(=O)C1
REMARK SMILES IDX 8 1 9 2 6 3 7 4 5 5 4 6 3 7 2 8 1 9 10 11 11 12 15 13 16 14
REMARK SMILES IDX 17 15 12 17 13 18 14 19
REMARK H PARENT
REMARK Flexibility Score: 70.00
ROOT
ATOM      1  C   UNL     1     198.746 208.551 217.497  1.00  0.00     0.136 C 
ATOM      2  O   UNL     1     199.121 209.023 218.561  1.00  0.00    -0.299 OA
ENDROOT
BRANCH   1   3
ATOM      3  C   UNL     1     197.321 208.772 217.026  1.00  0.00     0.053 C 
ATOM      4  C   UNL     1     196.273 208.168 217.978  1.00  0.00     0.016 C 
BRANCH   3   5
ATOM      5  C   UNL     1     197.007 210.246 216.655  1.00  0.00     0.015 C 
BRANCH   5   6
ATOM      6  C   UNL     1     198.063 211.117 215.914  1.00  0.00     0.028 C 
BRANCH   6   7
ATOM      7  C   UNL     1     198.109 211.026 214.405  1.00  0.00    -0.028 C 
ATOM      8  C   UNL     1     198.999 210.314 213.668  1.00  0.00    -0.070 CG0
ATOM      9  C   UNL     1     198.846 210.338 212.167  1.00  0.00     0.039 C 
ATOM     10  G   UNL     1     200.164 209.537 214.254  1.00  0.00     0.000 G0
ENDBRANCH   6   7
ENDBRANCH   5   6
ENDBRANCH   3   5
ENDBRANCH   1   3
BRANCH   1  11
ATOM     11  C   UNL     1     199.717 207.722 216.687  1.00  0.00     0.087 C 
BRANCH  11  12
ATOM     12  C   UNL     1     199.163 207.363 215.286  1.00  0.00     0.066 C 
BRANCH  12  13
ATOM     13  C   UNL     1     199.938 208.063 214.186  1.00  0.00     0.140 C 
ATOM     14  O   UNL     1     200.428 207.415 213.273  1.00  0.00    -0.299 OA
BRANCH  13  15
ATOM     15  C   UNL     1     200.186 209.546 214.244  1.00  0.00     0.106 CG0
ATOM     16  G   UNL     1     199.003 210.308 213.673  1.00  0.00     0.000 G0
ENDBRANCH  13  15
ENDBRANCH  12  13
BRANCH  12  17
ATOM     17  C   UNL     1     199.048 205.829 215.020  1.00  0.00    -0.006 C 
ATOM     18  C   UNL     1     199.175 204.955 216.281  1.00  0.00     0.008 C 
ATOM     19  C   UNL     1     197.749 205.482 214.276  1.00  0.00     0.008 C 
ENDBRANCH  12  17
ENDBRANCH  11  12
ENDBRANCH   1  11
TORSDOF 1
ENDMDL
MODEL 8
REMARK VINA RESULT:    -3.378      1.766      4.090
REMARK INTER + INTRA:          -5.589
REMARK INTER:                  -5.202
REMARK INTRA:                  -0.387
REMARK UNBOUND:                -0.434
REMARK SMILES CC1=CCC[C@H](C)C(=O)C[C@H](C(C)C)C(=O)C1
REMARK SMILES IDX 8 1 9 2 6 3 7 4 5 5 4 6 3 7 2 8 1 9 10 11 11 12 15 13 16 14
REMARK SMILES IDX 17 15 12 17 13 18 14 19
REMARK H PARENT
REMARK Flexibility Score: 70.00
ROOT
ATOM      1  C   UNL     1     213.537 203.774 217.480  1.00  0.00     0.136 C 
ATOM      2  O   UNL     1     213.061 203.115 218.394  1.00  0.00    -0.299 OA
ENDROOT
BRANCH   1   3
ATOM      3  C   UNL     1     214.971 203.543 217.042  1.00  0.00     0.053 C 
ATOM      4  C   UNL     1     216.000 204.109 218.035  1.00  0.00     0.016 C 
BRANCH   3   5
ATOM      5  C   UNL     1     215.274 202.075 216.643  1.00  0.00     0.015 C 
BRANCH   5   6
ATOM      6  C   UNL     1     214.269 201.268 215.770  1.00  0.00     0.028 C 
BRANCH   6   7
ATOM      7  C   UNL     1     214.213 201.587 214.293  1.00  0.00    -0.028 C 
ATOM      8  C   UNL     1     213.250 202.303 213.659  1.00  0.00    -0.070 CG0
ATOM      9  C   UNL     1     213.406 202.530 212.175  1.00  0.00     0.039 C 
ATOM     10  G   UNL     1     212.007 202.848 214.337  1.00  0.00     0.000 G0
ENDBRANCH   6   7
ENDBRANCH   5   6
ENDBRANCH   3   5
ENDBRANCH   1   3
BRANCH   1  11
ATOM     11  C   UNL     1     212.680 204.835 216.827  1.00  0.00     0.087 C 
BRANCH  11  12
ATOM     12  C   UNL     1     213.037 205.046 215.334  1.00  0.00     0.066 C 
BRANCH  12  13
ATOM     13  C   UNL     1     212.046 204.349 214.422  1.00  0.00     0.140 C 
ATOM     14  O   UNL     1     211.226 205.002 213.793  1.00  0.00    -0.299 OA
BRANCH  13  15
ATOM     15  C   UNL     1     212.001 202.847 214.339  1.00  0.00     0.106 CG0
ATOM     16  G   UNL     1     213.247 202.313 213.656  1.00  0.00     0.000 G0
ENDBRANCH  13  15
ENDBRANCH  12  13
BRANCH  12  17
ATOM     17  C   UNL     1     213.233 206.542 214.932  1.00  0.00    -0.006 C 
ATOM     18  C   UNL     1     213.240 207.523 216.119  1.00  0.00     0.008 C 
ATOM     19  C   UNL     1     214.503 206.737 214.090  1.00  0.00     0.008 C 
ENDBRANCH  12  17
ENDBRANCH  11  12
ENDBRANCH   1  11
TORSDOF 1
ENDMDL
MODEL 9
REMARK VINA RESULT:    -3.270      2.065      3.909
REMARK INTER + INTRA:          -5.425
REMARK INTER:                  -4.941
REMARK INTRA:                  -0.483
REMARK UNBOUND:                -0.434
REMARK SMILES CC1=CCC[C@H](C)C(=O)C[C@H](C(C)C)C(=O)C1
REMARK SMILES IDX 8 1 9 2 6 3 7 4 5 5 4 6 3 7 2 8 1 9 10 11 11 12 15 13 16 14
REMARK SMILES IDX 17 15 12 17 13 18 14 19
REMARK H PARENT
REMARK Flexibility Score: 70.00
ROOT
ATOM      1  C   UNL     1     212.419 204.226 213.568  1.00  0.00     0.136 C 
ATOM      2  O   UNL     1     211.400 204.849 213.303  1.00  0.00    -0.299 OA
ENDROOT
BRANCH   1   3
ATOM      3  C   UNL     1     213.777 204.875 213.381  1.00  0.00     0.053 C 
ATOM      4  C   UNL     1     214.080 205.221 211.913  1.00  0.00     0.016 C 
BRANCH   3   5
ATOM      5  C   UNL     1     214.038 206.068 214.339  1.00  0.00     0.015 C 
BRANCH   5   6
ATOM      6  C   UNL     1     214.326 205.821 215.848  1.00  0.00     0.028 C 
BRANCH   6   7
ATOM      7  C   UNL     1     213.138 205.610 216.761  1.00  0.00    -0.028 C 
ATOM      8  C   UNL     1     212.859 204.490 217.474  1.00  0.00    -0.070 CG0
ATOM      9  C   UNL     1     211.631 204.504 218.350  1.00  0.00     0.039 C 
ATOM     10  G   UNL     1     213.676 203.212 217.409  1.00  0.00     0.000 G0
ENDBRANCH   6   7
ENDBRANCH   5   6
ENDBRANCH   3   5
ENDBRANCH   1   3
BRANCH   1  11
ATOM     11  C   UNL     1     212.293 202.799 214.049  1.00  0.00     0.087 C 
BRANCH  11  12
ATOM     12  C   UNL     1     213.499 202.359 214.916  1.00  0.00     0.066 C 
BRANCH  12  13
ATOM     13  C   UNL     1     213.119 202.242 216.379  1.00  0.00     0.140 C 
ATOM     14  O   UNL     1     212.301 201.408 216.736  1.00  0.00    -0.299 OA
BRANCH  13  15
ATOM     15  C   UNL     1     213.679 203.198 217.398  1.00  0.00     0.106 CG0
ATOM     16  G   UNL     1     212.842 204.463 217.460  1.00  0.00     0.000 G0
ENDBRANCH  13  15
ENDBRANCH  12  13
BRANCH  12  17
ATOM     17  C   UNL     1     214.214 201.068 214.404  1.00  0.00    -0.006 C 
ATOM     18  C   UNL     1     214.513 201.065 212.894  1.00  0.00     0.008 C 
ATOM     19  C   UNL     1     215.505 200.790 215.190  1.00  0.00     0.008 C 
ENDBRANCH  12  17
ENDBRANCH  11  12
ENDBRANCH   1  11
TORSDOF 1
ENDMDL
