MODEL 1
REMARK VINA RESULT:    -3.731      0.000      0.000
REMARK INTER + INTRA:          -6.426
REMARK INTER:                  -5.694
REMARK INTRA:                  -0.732
REMARK UNBOUND:                -0.732
REMARK SMILES O=C([O-])CCCCCCCCC(=O)[O-]
REMARK SMILES IDX 7 1 6 2 5 3 4 4 2 5 1 6 3 7 8 8 9 9 10 10 11 11 12 12 13 13
REMARK SMILES IDX 14 14
REMARK H PARENT
REMARK Flexibility Score: inf
ROOT
ATOM      1  C   UNL     1      21.237  13.289 -16.660  1.00  0.00     0.000 C 
ENDROOT
BRANCH   1   2
ATOM      2  C   UNL     1      19.882  13.498 -15.971  1.00  0.00     0.000 C 
BRANCH   2   3
ATOM      3  C   UNL     1      18.727  13.065 -16.887  1.00  0.00     0.006 C 
BRANCH   3   4
ATOM      4  C   UNL     1      18.064  11.766 -16.411  1.00  0.00     0.053 C 
BRANCH   4   5
ATOM      5  C   UNL     1      18.642  10.565 -17.097  1.00  0.00     0.041 C 
ATOM      6  O   UNL     1      19.385   9.769 -16.465  1.00  0.00    -0.550 OA
ATOM      7  O   UNL     1      18.383  10.344 -18.444  1.00  0.00    -0.550 OA
ENDBRANCH   4   5
ENDBRANCH   3   4
ENDBRANCH   2   3
ENDBRANCH   1   2
BRANCH   1   8
ATOM      8  C   UNL     1      21.967  14.627 -16.850  1.00  0.00     0.000 C 
BRANCH   8   9
ATOM      9  C   UNL     1      21.195  15.814 -16.252  1.00  0.00     0.000 C 
BRANCH   9  10
ATOM     10  C   UNL     1      20.894  16.907 -17.289  1.00  0.00     0.006 C 
BRANCH  10  11
ATOM     11  C   UNL     1      19.693  16.522 -18.158  1.00  0.00     0.053 C 
BRANCH  11  12
ATOM     12  C   UNL     1      19.958  16.851 -19.593  1.00  0.00     0.041 C 
ATOM     13  O   UNL     1      21.121  16.750 -20.063  1.00  0.00    -0.550 OA
ATOM     14  O   UNL     1      18.927  17.318 -20.399  1.00  0.00    -0.550 OA
ENDBRANCH  11  12
ENDBRANCH  10  11
ENDBRANCH   9  10
ENDBRANCH   8   9
ENDBRANCH   1   8
TORSDOF 9
ENDMDL
MODEL 2
REMARK VINA RESULT:    -3.704      1.072      5.792
REMARK INTER + INTRA:          -6.386
REMARK INTER:                  -5.764
REMARK INTRA:                  -0.622
REMARK UNBOUND:                -0.732
REMARK SMILES O=C([O-])CCCCCCCCC(=O)[O-]
REMARK SMILES IDX 7 1 6 2 5 3 4 4 2 5 1 6 3 7 8 8 9 9 10 10 11 11 12 12 13 13
REMARK SMILES IDX 14 14
REMARK H PARENT
REMARK Flexibility Score: inf
ROOT
ATOM      1  C   UNL     1      21.231  14.075 -16.321  1.00  0.00     0.000 C 
ENDROOT
BRANCH   1   2
ATOM      2  C   UNL     1      21.829  15.483 -16.438  1.00  0.00     0.000 C 
BRANCH   2   3
ATOM      3  C   UNL     1      20.758  16.503 -16.853  1.00  0.00     0.006 C 
BRANCH   3   4
ATOM      4  C   UNL     1      21.119  17.228 -18.156  1.00  0.00     0.053 C 
BRANCH   4   5
ATOM      5  C   UNL     1      20.437  16.614 -19.340  1.00  0.00     0.041 C 
ATOM      6  O   UNL     1      20.495  17.173 -20.466  1.00  0.00    -0.550 OA
ATOM      7  O   UNL     1      19.709  15.439 -19.190  1.00  0.00    -0.550 OA
ENDBRANCH   4   5
ENDBRANCH   3   4
ENDBRANCH   2   3
ENDBRANCH   1   2
BRANCH   1   8
ATOM      8  C   UNL     1      19.942  14.094 -15.486  1.00  0.00     0.000 C 
BRANCH   8   9
ATOM      9  C   UNL     1      19.130  12.796 -15.620  1.00  0.00     0.000 C 
BRANCH   9  10
ATOM     10  C   UNL     1      18.662  12.537 -17.061  1.00  0.00     0.006 C 
BRANCH  10  11
ATOM     11  C   UNL     1      18.287  11.064 -17.257  1.00  0.00     0.053 C 
BRANCH  11  12
ATOM     12  C   UNL     1      19.497  10.194 -17.128  1.00  0.00     0.041 C 
ATOM     13  O   UNL     1      20.518  10.419 -17.830  1.00  0.00    -0.550 OA
ATOM     14  O   UNL     1      19.479   9.104 -16.268  1.00  0.00    -0.550 OA
ENDBRANCH  11  12
ENDBRANCH  10  11
ENDBRANCH   9  10
ENDBRANCH   8   9
ENDBRANCH   1   8
TORSDOF 9
ENDMDL
MODEL 3
REMARK VINA RESULT:    -3.692      3.052      4.651
REMARK INTER + INTRA:          -6.367
REMARK INTER:                  -5.910
REMARK INTRA:                  -0.457
REMARK UNBOUND:                -0.732
REMARK SMILES O=C([O-])CCCCCCCCC(=O)[O-]
REMARK SMILES IDX 7 1 6 2 5 3 4 4 2 5 1 6 3 7 8 8 9 9 10 10 11 11 12 12 13 13
REMARK SMILES IDX 14 14
REMARK H PARENT
REMARK Flexibility Score: inf
ROOT
ATOM      1  C   UNL     1      19.600  10.363 -17.146  1.00  0.00     0.000 C 
ENDROOT
BRANCH   1   2
ATOM      2  C   UNL     1      19.160   9.104 -16.389  1.00  0.00     0.000 C 
BRANCH   2   3
ATOM      3  C   UNL     1      20.066   7.911 -16.730  1.00  0.00     0.006 C 
BRANCH   3   4
ATOM      4  C   UNL     1      19.588   7.157 -17.978  1.00  0.00     0.053 C 
BRANCH   4   5
ATOM      5  C   UNL     1      18.763   5.958 -17.620  1.00  0.00     0.041 C 
ATOM      6  O   UNL     1      19.304   4.951 -17.092  1.00  0.00    -0.550 OA
ATOM      7  O   UNL     1      17.402   5.944 -17.897  1.00  0.00    -0.550 OA
ENDBRANCH   4   5
ENDBRANCH   3   4
ENDBRANCH   2   3
ENDBRANCH   1   2
BRANCH   1   8
ATOM      8  C   UNL     1      18.385  11.193 -17.584  1.00  0.00     0.000 C 
BRANCH   8   9
ATOM      9  C   UNL     1      18.249  12.505 -16.796  1.00  0.00     0.000 C 
BRANCH   9  10
ATOM     10  C   UNL     1      19.370  12.693 -15.762  1.00  0.00     0.006 C 
BRANCH  10  11
ATOM     11  C   UNL     1      19.828  14.155 -15.710  1.00  0.00     0.053 C 
BRANCH  11  12
ATOM     12  C   UNL     1      21.214  14.289 -16.256  1.00  0.00     0.041 C 
ATOM     13  O   UNL     1      21.846  13.270 -16.638  1.00  0.00    -0.550 OA
ATOM     14  O   UNL     1      21.826  15.535 -16.296  1.00  0.00    -0.550 OA
ENDBRANCH  11  12
ENDBRANCH  10  11
ENDBRANCH   9  10
ENDBRANCH   8   9
ENDBRANCH   1   8
TORSDOF 9
ENDMDL
MODEL 4
REMARK VINA RESULT:    -3.678      2.564      7.283
REMARK INTER + INTRA:          -6.346
REMARK INTER:                  -5.936
REMARK INTRA:                  -0.410
REMARK UNBOUND:                -0.732
REMARK SMILES O=C([O-])CCCCCCCCC(=O)[O-]
REMARK SMILES IDX 7 1 6 2 5 3 4 4 2 5 1 6 3 7 8 8 9 9 10 10 11 11 12 12 13 13
REMARK SMILES IDX 14 14
REMARK H PARENT
REMARK Flexibility Score: inf
ROOT
ATOM      1  C   UNL     1      18.347  12.445 -16.765  1.00  0.00     0.000 C 
ENDROOT
BRANCH   1   2
ATOM      2  C   UNL     1      19.651  12.631 -15.977  1.00  0.00     0.000 C 
BRANCH   2   3
ATOM      3  C   UNL     1      19.868  14.108 -15.615  1.00  0.00     0.006 C 
BRANCH   3   4
ATOM      4  C   UNL     1      19.860  15.016 -16.851  1.00  0.00     0.053 C 
BRANCH   4   5
ATOM      5  C   UNL     1      21.008  15.979 -16.839  1.00  0.00     0.041 C 
ATOM      6  O   UNL     1      22.119  15.636 -16.357  1.00  0.00    -0.550 OA
ATOM      7  O   UNL     1      20.840  17.267 -17.334  1.00  0.00    -0.550 OA
ENDBRANCH   4   5
ENDBRANCH   3   4
ENDBRANCH   2   3
ENDBRANCH   1   2
BRANCH   1   8
ATOM      8  C   UNL     1      18.279  11.044 -17.390  1.00  0.00     0.000 C 
BRANCH   8   9
ATOM      9  C   UNL     1      19.533  10.204 -17.101  1.00  0.00     0.000 C 
BRANCH   9  10
ATOM     10  C   UNL     1      19.214   8.904 -16.348  1.00  0.00     0.006 C 
BRANCH  10  11
ATOM     11  C   UNL     1      20.100   7.755 -16.840  1.00  0.00     0.053 C 
BRANCH  11  12
ATOM     12  C   UNL     1      19.260   6.640 -17.378  1.00  0.00     0.041 C 
ATOM     13  O   UNL     1      18.239   6.892 -18.071  1.00  0.00    -0.550 OA
ATOM     14  O   UNL     1      19.577   5.322 -17.073  1.00  0.00    -0.550 OA
ENDBRANCH  11  12
ENDBRANCH  10  11
ENDBRANCH   9  10
ENDBRANCH   8   9
ENDBRANCH   1   8
TORSDOF 9
ENDMDL
MODEL 5
REMARK VINA RESULT:    -3.663      1.445      2.341
REMARK INTER + INTRA:          -6.323
REMARK INTER:                  -5.838
REMARK INTRA:                  -0.485
REMARK UNBOUND:                -0.732
REMARK SMILES O=C([O-])CCCCCCCCC(=O)[O-]
REMARK SMILES IDX 7 1 6 2 5 3 4 4 2 5 1 6 3 7 8 8 9 9 10 10 11 11 12 12 13 13
REMARK SMILES IDX 14 14
REMARK H PARENT
REMARK Flexibility Score: inf
ROOT
ATOM      1  C   UNL     1      21.907  15.465 -16.402  1.00  0.00     0.000 C 
ENDROOT
BRANCH   1   2
ATOM      2  C   UNL     1      21.303  14.055 -16.396  1.00  0.00     0.000 C 
BRANCH   2   3
ATOM      3  C   UNL     1      19.893  14.063 -15.784  1.00  0.00     0.006 C 
BRANCH   3   4
ATOM      4  C   UNL     1      19.303  12.651 -15.667  1.00  0.00     0.053 C 
BRANCH   4   5
ATOM      5  C   UNL     1      18.384  12.338 -16.808  1.00  0.00     0.041 C 
ATOM      6  O   UNL     1      17.971  13.259 -17.561  1.00  0.00    -0.550 OA
ATOM      7  O   UNL     1      17.959  11.032 -17.019  1.00  0.00    -0.550 OA
ENDBRANCH   4   5
ENDBRANCH   3   4
ENDBRANCH   2   3
ENDBRANCH   1   2
BRANCH   1   8
ATOM      8  C   UNL     1      20.829  16.522 -16.683  1.00  0.00     0.000 C 
BRANCH   8   9
ATOM      9  C   UNL     1      20.981  17.169 -18.069  1.00  0.00     0.000 C 
BRANCH   9  10
ATOM     10  C   UNL     1      19.819  16.825 -19.013  1.00  0.00     0.006 C 
BRANCH  10  11
ATOM     11  C   UNL     1      20.255  16.931 -20.478  1.00  0.00     0.053 C 
BRANCH  11  12
ATOM     12  C   UNL     1      19.318  17.812 -21.242  1.00  0.00     0.041 C 
ATOM     13  O   UNL     1      18.125  17.948 -20.863  1.00  0.00    -0.550 OA
ATOM     14  O   UNL     1      19.749  18.445 -22.401  1.00  0.00    -0.550 OA
ENDBRANCH  11  12
ENDBRANCH  10  11
ENDBRANCH   9  10
ENDBRANCH   8   9
ENDBRANCH   1   8
TORSDOF 9
ENDMDL
MODEL 6
REMARK VINA RESULT:    -3.659      1.822      3.075
REMARK INTER + INTRA:          -6.317
REMARK INTER:                  -5.875
REMARK INTRA:                  -0.441
REMARK UNBOUND:                -0.732
REMARK SMILES O=C([O-])CCCCCCCCC(=O)[O-]
REMARK SMILES IDX 7 1 6 2 5 3 4 4 2 5 1 6 3 7 8 8 9 9 10 10 11 11 12 12 13 13
REMARK SMILES IDX 14 14
REMARK H PARENT
REMARK Flexibility Score: inf
ROOT
ATOM      1  C   UNL     1      18.595  12.535 -17.032  1.00  0.00     0.000 C 
ENDROOT
BRANCH   1   2
ATOM      2  C   UNL     1      18.377  11.036 -17.274  1.00  0.00     0.000 C 
BRANCH   2   3
ATOM      3  C   UNL     1      19.469  10.203 -16.586  1.00  0.00     0.006 C 
BRANCH   3   4
ATOM      4  C   UNL     1      19.057   8.736 -16.410  1.00  0.00     0.053 C 
BRANCH   4   5
ATOM      5  C   UNL     1      20.019   7.805 -17.082  1.00  0.00     0.041 C 
ATOM      6  O   UNL     1      21.021   8.260 -17.693  1.00  0.00    -0.550 OA
ATOM      7  O   UNL     1      19.790   6.434 -17.058  1.00  0.00    -0.550 OA
ENDBRANCH   4   5
ENDBRANCH   3   4
ENDBRANCH   2   3
ENDBRANCH   1   2
BRANCH   1   8
ATOM      8  C   UNL     1      19.150  12.789 -15.622  1.00  0.00     0.000 C 
BRANCH   8   9
ATOM      9  C   UNL     1      19.904  14.123 -15.513  1.00  0.00     0.000 C 
BRANCH   9  10
ATOM     10  C   UNL     1      21.146  14.176 -16.417  1.00  0.00     0.006 C 
BRANCH  10  11
ATOM     11  C   UNL     1      21.752  15.583 -16.432  1.00  0.00     0.053 C 
BRANCH  11  12
ATOM     12  C   UNL     1      21.290  16.340 -17.637  1.00  0.00     0.041 C 
ATOM     13  O   UNL     1      20.146  16.865 -17.656  1.00  0.00    -0.550 OA
ATOM     14  O   UNL     1      22.105  16.423 -18.759  1.00  0.00    -0.550 OA
ENDBRANCH  11  12
ENDBRANCH  10  11
ENDBRANCH   9  10
ENDBRANCH   8   9
ENDBRANCH   1   8
TORSDOF 9
ENDMDL
MODEL 7
REMARK VINA RESULT:    -3.647      2.595      3.754
REMARK INTER + INTRA:          -6.298
REMARK INTER:                  -5.912
REMARK INTRA:                  -0.386
REMARK UNBOUND:                -0.732
REMARK SMILES O=C([O-])CCCCCCCCC(=O)[O-]
REMARK SMILES IDX 7 1 6 2 5 3 4 4 2 5 1 6 3 7 8 8 9 9 10 10 11 11 12 12 13 13
REMARK SMILES IDX 14 14
REMARK H PARENT
REMARK Flexibility Score: inf
ROOT
ATOM      1  C   UNL     1      18.273  10.784 -17.242  1.00  0.00     0.000 C 
ENDROOT
BRANCH   1   2
ATOM      2  C   UNL     1      19.542  10.104 -16.713  1.00  0.00     0.000 C 
BRANCH   2   3
ATOM      3  C   UNL     1      19.260   8.647 -16.315  1.00  0.00     0.006 C 
BRANCH   3   4
ATOM      4  C   UNL     1      19.950   7.646 -17.251  1.00  0.00     0.053 C 
BRANCH   4   5
ATOM      5  C   UNL     1      19.233   6.331 -17.283  1.00  0.00     0.041 C 
ATOM      6  O   UNL     1      19.867   5.257 -17.110  1.00  0.00    -0.550 OA
ATOM      7  O   UNL     1      17.867   6.291 -17.534  1.00  0.00    -0.550 OA
ENDBRANCH   4   5
ENDBRANCH   3   4
ENDBRANCH   2   3
ENDBRANCH   1   2
BRANCH   1   8
ATOM      8  C   UNL     1      18.245  12.270 -16.856  1.00  0.00     0.000 C 
BRANCH   8   9
ATOM      9  C   UNL     1      19.285  12.622 -15.780  1.00  0.00     0.000 C 
BRANCH   9  10
ATOM     10  C   UNL     1      19.845  14.044 -15.940  1.00  0.00     0.006 C 
BRANCH  10  11
ATOM     11  C   UNL     1      19.349  14.684 -17.242  1.00  0.00     0.053 C 
BRANCH  11  12
ATOM     12  C   UNL     1      19.950  16.042 -17.420  1.00  0.00     0.041 C 
ATOM     13  O   UNL     1      20.625  16.563 -16.493  1.00  0.00    -0.550 OA
ATOM     14  O   UNL     1      19.724  16.753 -18.592  1.00  0.00    -0.550 OA
ENDBRANCH  11  12
ENDBRANCH  10  11
ENDBRANCH   9  10
ENDBRANCH   8   9
ENDBRANCH   1   8
TORSDOF 9
ENDMDL
MODEL 8
REMARK VINA RESULT:    -3.621      1.280      1.590
REMARK INTER + INTRA:          -6.258
REMARK INTER:                  -5.704
REMARK INTRA:                  -0.554
REMARK UNBOUND:                -0.732
REMARK SMILES O=C([O-])CCCCCCCCC(=O)[O-]
REMARK SMILES IDX 7 1 6 2 5 3 4 4 2 5 1 6 3 7 8 8 9 9 10 10 11 11 12 12 13 13
REMARK SMILES IDX 14 14
REMARK H PARENT
REMARK Flexibility Score: inf
ROOT
ATOM      1  C   UNL     1      19.877  14.123 -15.610  1.00  0.00     0.000 C 
ENDROOT
BRANCH   1   2
ATOM      2  C   UNL     1      19.132  12.782 -15.581  1.00  0.00     0.000 C 
BRANCH   2   3
ATOM      3  C   UNL     1      19.194  12.089 -16.951  1.00  0.00     0.006 C 
BRANCH   3   4
ATOM      4  C   UNL     1      18.544  10.699 -16.928  1.00  0.00     0.053 C 
BRANCH   4   5
ATOM      5  C   UNL     1      19.569   9.607 -16.907  1.00  0.00     0.041 C 
ATOM      6  O   UNL     1      20.501   9.595 -17.753  1.00  0.00    -0.550 OA
ATOM      7  O   UNL     1      19.475   8.584 -15.970  1.00  0.00    -0.550 OA
ENDBRANCH   4   5
ENDBRANCH   3   4
ENDBRANCH   2   3
ENDBRANCH   1   2
BRANCH   1   8
ATOM      8  C   UNL     1      21.241  13.978 -16.303  1.00  0.00     0.000 C 
BRANCH   8   9
ATOM      9  C   UNL     1      21.923  15.330 -16.557  1.00  0.00     0.000 C 
BRANCH   9  10
ATOM     10  C   UNL     1      20.917  16.483 -16.700  1.00  0.00     0.006 C 
BRANCH  10  11
ATOM     11  C   UNL     1      21.198  17.301 -17.965  1.00  0.00     0.053 C 
BRANCH  11  12
ATOM     12  C   UNL     1      21.087  16.438 -19.182  1.00  0.00     0.041 C 
ATOM     13  O   UNL     1      22.036  16.383 -20.008  1.00  0.00    -0.550 OA
ATOM     14  O   UNL     1      19.916  15.733 -19.428  1.00  0.00    -0.550 OA
ENDBRANCH  11  12
ENDBRANCH  10  11
ENDBRANCH   9  10
ENDBRANCH   8   9
ENDBRANCH   1   8
TORSDOF 9
ENDMDL
MODEL 9
REMARK VINA RESULT:    -3.505      1.279      6.010
REMARK INTER + INTRA:          -6.082
REMARK INTER:                  -5.495
REMARK INTRA:                  -0.587
REMARK UNBOUND:                -0.732
REMARK SMILES O=C([O-])CCCCCCCCC(=O)[O-]
REMARK SMILES IDX 7 1 6 2 5 3 4 4 2 5 1 6 3 7 8 8 9 9 10 10 11 11 12 12 13 13
REMARK SMILES IDX 14 14
REMARK H PARENT
REMARK Flexibility Score: inf
ROOT
ATOM      1  C   UNL     1      20.882  16.525 -16.703  1.00  0.00     0.000 C 
ENDROOT
BRANCH   1   2
ATOM      2  C   UNL     1      21.125  17.069 -18.117  1.00  0.00     0.000 C 
BRANCH   2   3
ATOM      3  C   UNL     1      19.898  16.842 -19.012  1.00  0.00     0.006 C 
BRANCH   3   4
ATOM      4  C   UNL     1      20.253  16.878 -20.504  1.00  0.00     0.053 C 
BRANCH   4   5
ATOM      5  C   UNL     1      19.332  17.777 -21.272  1.00  0.00     0.041 C 
ATOM      6  O   UNL     1      19.748  18.393 -22.288  1.00  0.00    -0.550 OA
ATOM      7  O   UNL     1      18.022  17.957 -20.845  1.00  0.00    -0.550 OA
ENDBRANCH   4   5
ENDBRANCH   3   4
ENDBRANCH   2   3
ENDBRANCH   1   2
BRANCH   1   8
ATOM      8  C   UNL     1      21.841  15.367 -16.389  1.00  0.00     0.000 C 
BRANCH   8   9
ATOM      9  C   UNL     1      21.264  13.998 -16.779  1.00  0.00     0.000 C 
BRANCH   9  10
ATOM     10  C   UNL     1      19.983  13.652 -16.004  1.00  0.00     0.006 C 
BRANCH  10  11
ATOM     11  C   UNL     1      18.809  13.420 -16.961  1.00  0.00     0.053 C 
BRANCH  11  12
ATOM     12  C   UNL     1      18.401  11.982 -16.950  1.00  0.00     0.041 C 
ATOM     13  O   UNL     1      17.276  11.638 -17.402  1.00  0.00    -0.550 OA
ATOM     14  O   UNL     1      19.242  11.025 -16.396  1.00  0.00    -0.550 OA
ENDBRANCH  11  12
ENDBRANCH  10  11
ENDBRANCH   9  10
ENDBRANCH   8   9
ENDBRANCH   1   8
TORSDOF 9
ENDMDL
