MODEL 1
REMARK VINA RESULT:    -4.722      0.000      0.000
REMARK INTER + INTRA:          -4.860
REMARK INTER:                  -4.860
REMARK INTRA:                   0.000
REMARK UNBOUND:                 0.000
REMARK SMILES C[C@H]1CC[C@H]2C(C)(C)[C@@H]3C[C@]12CC[C@@]3(C)O
REMARK SMILES IDX 1 1 2 2 3 3 4 4 5 5 11 6 12 7 13 8 14 9 9 10 10 11 6 12 7 13
REMARK SMILES IDX 8 14 15 15 16 16
REMARK H PARENT 16 17
REMARK Flexibility Score: inf
ROOT
ATOM      1  C   UNL     1     138.333 142.540 143.124  1.00  0.00     0.008 C 
ATOM      2  C   UNL     1     138.404 141.302 142.219  1.00  0.00    -0.008 C 
ATOM      3  C   UNL     1     137.829 141.556 140.788  1.00  0.00     0.004 C 
ATOM      4  C   UNL     1     138.684 140.708 139.803  1.00  0.00     0.005 C 
ATOM      5  C   UNL     1     139.460 139.827 140.759  1.00  0.00     0.001 C 
ATOM      6  C   UNL     1     139.815 140.748 141.917  1.00  0.00    -0.023 C 
ATOM      7  C   UNL     1     140.819 141.933 141.619  1.00  0.00     0.010 C 
ATOM      8  C   UNL     1     142.251 141.557 141.179  1.00  0.00     0.036 C 
ATOM      9  C   UNL     1     142.747 140.176 141.702  1.00  0.00     0.065 C 
ATOM     10  C   UNL     1     141.553 139.164 141.804  1.00  0.00     0.027 C 
ATOM     11  C   UNL     1     140.521 139.757 142.819  1.00  0.00     0.014 C 
ATOM     12  C   UNL     1     140.681 138.909 140.498  1.00  0.00    -0.026 C 
ATOM     13  C   UNL     1     141.288 139.142 139.097  1.00  0.00     0.012 C 
ATOM     14  C   UNL     1     140.245 137.415 140.517  1.00  0.00     0.012 C 
ATOM     15  C   UNL     1     143.897 139.630 140.818  1.00  0.00     0.042 C 
ENDROOT
BRANCH   9  16
ATOM     16  O   UNL     1     143.265 140.330 143.007  1.00  0.00    -0.390 OA
ATOM     17  H   UNL     1     144.074 140.904 142.971  1.00  0.00     0.211 HD
ENDBRANCH   9  16
TORSDOF 1
ENDMDL
MODEL 2
REMARK VINA RESULT:    -4.673      1.820      4.499
REMARK INTER + INTRA:          -4.809
REMARK INTER:                  -4.809
REMARK INTRA:                   0.000
REMARK UNBOUND:                 0.000
REMARK SMILES C[C@H]1CC[C@H]2C(C)(C)[C@@H]3C[C@]12CC[C@@]3(C)O
REMARK SMILES IDX 1 1 2 2 3 3 4 4 5 5 11 6 12 7 13 8 14 9 9 10 10 11 6 12 7 13
REMARK SMILES IDX 8 14 15 15 16 16
REMARK H PARENT 16 17
REMARK Flexibility Score: inf
ROOT
ATOM      1  C   UNL     1     143.234 139.071 143.125  1.00  0.00     0.008 C 
ATOM      2  C   UNL     1     143.169 140.297 142.202  1.00  0.00    -0.008 C 
ATOM      3  C   UNL     1     143.698 140.006 140.760  1.00  0.00     0.004 C 
ATOM      4  C   UNL     1     142.838 140.861 139.785  1.00  0.00     0.005 C 
ATOM      5  C   UNL     1     142.112 141.776 140.748  1.00  0.00     0.001 C 
ATOM      6  C   UNL     1     141.765 140.882 141.930  1.00  0.00    -0.023 C 
ATOM      7  C   UNL     1     140.724 139.719 141.678  1.00  0.00     0.010 C 
ATOM      8  C   UNL     1     139.290 140.125 141.272  1.00  0.00     0.036 C 
ATOM      9  C   UNL     1     138.844 141.527 141.785  1.00  0.00     0.065 C 
ATOM     10  C   UNL     1     140.065 142.508 141.839  1.00  0.00     0.027 C 
ATOM     11  C   UNL     1     141.109 141.905 142.834  1.00  0.00     0.014 C 
ATOM     12  C   UNL     1     140.908 142.721 140.506  1.00  0.00    -0.026 C 
ATOM     13  C   UNL     1     140.256 142.482 139.126  1.00  0.00     0.012 C 
ATOM     14  C   UNL     1     141.381 144.203 140.489  1.00  0.00     0.012 C 
ATOM     15  C   UNL     1     137.684 142.088 140.925  1.00  0.00     0.042 C 
ENDROOT
BRANCH   9  16
ATOM     16  O   UNL     1     138.358 141.405 143.107  1.00  0.00    -0.390 OA
ATOM     17  H   UNL     1     137.891 142.244 143.361  1.00  0.00     0.211 HD
ENDBRANCH   9  16
TORSDOF 1
ENDMDL
MODEL 3
REMARK VINA RESULT:    -4.502      1.573      3.153
REMARK INTER + INTRA:          -4.634
REMARK INTER:                  -4.634
REMARK INTRA:                   0.000
REMARK UNBOUND:                 0.000
REMARK SMILES C[C@H]1CC[C@H]2C(C)(C)[C@@H]3C[C@]12CC[C@@]3(C)O
REMARK SMILES IDX 1 1 2 2 3 3 4 4 5 5 11 6 12 7 13 8 14 9 9 10 10 11 6 12 7 13
REMARK SMILES IDX 8 14 15 15 16 16
REMARK H PARENT 16 17
REMARK Flexibility Score: inf
ROOT
ATOM      1  C   UNL     1     139.120 138.364 143.125  1.00  0.00     0.008 C 
ATOM      2  C   UNL     1     140.312 138.437 142.159  1.00  0.00    -0.008 C 
ATOM      3  C   UNL     1     139.974 137.901 140.729  1.00  0.00     0.004 C 
ATOM      4  C   UNL     1     140.786 138.765 139.722  1.00  0.00     0.005 C 
ATOM      5  C   UNL     1     141.728 139.503 140.649  1.00  0.00     0.001 C 
ATOM      6  C   UNL     1     140.874 139.845 141.862  1.00  0.00    -0.023 C 
ATOM      7  C   UNL     1     139.694 140.875 141.649  1.00  0.00     0.010 C 
ATOM      8  C   UNL     1     140.073 142.311 141.225  1.00  0.00     0.036 C 
ATOM      9  C   UNL     1     141.488 142.771 141.687  1.00  0.00     0.065 C 
ATOM     10  C   UNL     1     142.482 141.558 141.708  1.00  0.00     0.027 C 
ATOM     11  C   UNL     1     141.923 140.512 142.727  1.00  0.00     0.014 C 
ATOM     12  C   UNL     1     142.654 140.714 140.370  1.00  0.00    -0.026 C 
ATOM     13  C   UNL     1     142.360 141.360 138.998  1.00  0.00     0.012 C 
ATOM     14  C   UNL     1     144.139 140.253 140.302  1.00  0.00     0.012 C 
ATOM     15  C   UNL     1     142.009 143.933 140.804  1.00  0.00     0.042 C 
ENDROOT
BRANCH   9  16
ATOM     16  O   UNL     1     141.410 143.260 143.011  1.00  0.00    -0.390 OA
ATOM     17  H   UNL     1     140.574 142.930 143.431  1.00  0.00     0.211 HD
ENDBRANCH   9  16
TORSDOF 1
ENDMDL
MODEL 4
REMARK VINA RESULT:    -4.452      1.571      3.145
REMARK INTER + INTRA:          -4.582
REMARK INTER:                  -4.582
REMARK INTRA:                   0.000
REMARK UNBOUND:                 0.000
REMARK SMILES C[C@H]1CC[C@H]2C(C)(C)[C@@H]3C[C@]12CC[C@@]3(C)O
REMARK SMILES IDX 1 1 2 2 3 3 4 4 5 5 11 6 12 7 13 8 14 9 9 10 10 11 6 12 7 13
REMARK SMILES IDX 8 14 15 15 16 16
REMARK H PARENT 16 17
REMARK Flexibility Score: inf
ROOT
ATOM      1  C   UNL     1     142.512 143.249 143.125  1.00  0.00     0.008 C 
ATOM      2  C   UNL     1     141.329 143.160 142.150  1.00  0.00    -0.008 C 
ATOM      3  C   UNL     1     141.664 143.715 140.728  1.00  0.00     0.004 C 
ATOM      4  C   UNL     1     140.877 142.843 139.708  1.00  0.00     0.005 C 
ATOM      5  C   UNL     1     139.945 142.078 140.622  1.00  0.00     0.001 C 
ATOM      6  C   UNL     1     140.798 141.743 141.838  1.00  0.00    -0.023 C 
ATOM      7  C   UNL     1     142.001 140.740 141.624  1.00  0.00     0.010 C 
ATOM      8  C   UNL     1     141.655 139.300 141.185  1.00  0.00     0.036 C 
ATOM      9  C   UNL     1     140.247 138.807 141.633  1.00  0.00     0.065 C 
ATOM     10  C   UNL     1     139.228 139.998 141.659  1.00  0.00     0.027 C 
ATOM     11  C   UNL     1     139.758 141.047 142.691  1.00  0.00     0.014 C 
ATOM     12  C   UNL     1     139.046 140.850 140.327  1.00  0.00    -0.026 C 
ATOM     13  C   UNL     1     139.363 140.223 138.951  1.00  0.00     0.012 C 
ATOM     14  C   UNL     1     137.553 141.281 140.253  1.00  0.00     0.012 C 
ATOM     15  C   UNL     1     139.757 137.641 140.737  1.00  0.00     0.042 C 
ENDROOT
BRANCH   9  16
ATOM     16  O   UNL     1     140.327 138.308 142.953  1.00  0.00    -0.390 OA
ATOM     17  H   UNL     1     139.464 137.881 143.193  1.00  0.00     0.211 HD
ENDBRANCH   9  16
TORSDOF 1
ENDMDL
MODEL 5
REMARK VINA RESULT:    -4.350      2.123      3.888
REMARK INTER + INTRA:          -4.477
REMARK INTER:                  -4.477
REMARK INTRA:                   0.000
REMARK UNBOUND:                 0.000
REMARK SMILES C[C@H]1CC[C@H]2C(C)(C)[C@@H]3C[C@]12CC[C@@]3(C)O
REMARK SMILES IDX 1 1 2 2 3 3 4 4 5 5 11 6 12 7 13 8 14 9 9 10 10 11 6 12 7 13
REMARK SMILES IDX 8 14 15 15 16 16
REMARK H PARENT 16 17
REMARK Flexibility Score: inf
ROOT
ATOM      1  C   UNL     1     140.599 143.637 138.301  1.00  0.00     0.008 C 
ATOM      2  C   UNL     1     141.571 143.038 139.328  1.00  0.00    -0.008 C 
ATOM      3  C   UNL     1     141.747 143.932 140.598  1.00  0.00     0.004 C 
ATOM      4  C   UNL     1     141.940 142.968 141.804  1.00  0.00     0.005 C 
ATOM      5  C   UNL     1     142.158 141.646 141.099  1.00  0.00     0.001 C 
ATOM      6  C   UNL     1     141.179 141.672 139.934  1.00  0.00    -0.023 C 
ATOM      7  C   UNL     1     139.636 141.648 140.283  1.00  0.00     0.010 C 
ATOM      8  C   UNL     1     139.092 140.399 141.010  1.00  0.00     0.036 C 
ATOM      9  C   UNL     1     139.889 139.089 140.731  1.00  0.00     0.065 C 
ATOM     10  C   UNL     1     141.411 139.404 140.522  1.00  0.00     0.027 C 
ATOM     11  C   UNL     1     141.528 140.351 139.282  1.00  0.00     0.014 C 
ATOM     12  C   UNL     1     142.170 140.204 141.669  1.00  0.00    -0.026 C 
ATOM     13  C   UNL     1     141.654 140.156 143.125  1.00  0.00     0.012 C 
ATOM     14  C   UNL     1     143.626 139.660 141.728  1.00  0.00     0.012 C 
ATOM     15  C   UNL     1     139.660 138.051 141.859  1.00  0.00     0.042 C 
ENDROOT
BRANCH   9  16
ATOM     16  O   UNL     1     139.423 138.506 139.531  1.00  0.00    -0.390 OA
ATOM     17  H   UNL     1     140.082 138.677 138.808  1.00  0.00     0.211 HD
ENDBRANCH   9  16
TORSDOF 1
ENDMDL
MODEL 6
REMARK VINA RESULT:    -4.341      1.595      3.885
REMARK INTER + INTRA:          -4.468
REMARK INTER:                  -4.468
REMARK INTRA:                   0.000
REMARK UNBOUND:                 0.000
REMARK SMILES C[C@H]1CC[C@H]2C(C)(C)[C@@H]3C[C@]12CC[C@@]3(C)O
REMARK SMILES IDX 1 1 2 2 3 3 4 4 5 5 11 6 12 7 13 8 14 9 9 10 10 11 6 12 7 13
REMARK SMILES IDX 8 14 15 15 16 16
REMARK H PARENT 16 17
REMARK Flexibility Score: inf
ROOT
ATOM      1  C   UNL     1     141.084 137.881 138.158  1.00  0.00     0.008 C 
ATOM      2  C   UNL     1     140.100 138.456 139.187  1.00  0.00    -0.008 C 
ATOM      3  C   UNL     1     139.860 137.504 140.403  1.00  0.00     0.004 C 
ATOM      4  C   UNL     1     139.660 138.410 141.652  1.00  0.00     0.005 C 
ATOM      5  C   UNL     1     139.501 139.773 141.011  1.00  0.00     0.001 C 
ATOM      6  C   UNL     1     140.514 139.776 139.875  1.00  0.00    -0.023 C 
ATOM      7  C   UNL     1     142.045 139.735 140.268  1.00  0.00     0.010 C 
ATOM      8  C   UNL     1     142.603 140.928 141.074  1.00  0.00     0.036 C 
ATOM      9  C   UNL     1     141.853 142.274 140.842  1.00  0.00     0.065 C 
ATOM     10  C   UNL     1     140.330 142.017 140.573  1.00  0.00     0.027 C 
ATOM     11  C   UNL     1     140.223 141.140 139.283  1.00  0.00     0.014 C 
ATOM     12  C   UNL     1     139.514 141.183 141.655  1.00  0.00    -0.026 C 
ATOM     13  C   UNL     1     139.988 141.140 143.125  1.00  0.00     0.012 C 
ATOM     14  C   UNL     1     138.073 141.767 141.700  1.00  0.00     0.012 C 
ATOM     15  C   UNL     1     142.079 143.246 142.028  1.00  0.00     0.042 C 
ENDROOT
BRANCH   9  16
ATOM     16  O   UNL     1     142.372 142.904 139.687  1.00  0.00    -0.390 OA
ATOM     17  H   UNL     1     143.003 143.619 139.961  1.00  0.00     0.211 HD
ENDBRANCH   9  16
TORSDOF 1
ENDMDL
MODEL 7
REMARK VINA RESULT:    -4.312      1.688      2.707
REMARK INTER + INTRA:          -4.438
REMARK INTER:                  -4.438
REMARK INTRA:                   0.000
REMARK UNBOUND:                 0.000
REMARK SMILES C[C@H]1CC[C@H]2C(C)(C)[C@@H]3C[C@]12CC[C@@]3(C)O
REMARK SMILES IDX 1 1 2 2 3 3 4 4 5 5 11 6 12 7 13 8 14 9 9 10 10 11 6 12 7 13
REMARK SMILES IDX 8 14 15 15 16 16
REMARK H PARENT 16 17
REMARK Flexibility Score: inf
ROOT
ATOM      1  C   UNL     1     137.206 142.536 138.695  1.00  0.00     0.008 C 
ATOM      2  C   UNL     1     137.750 141.212 139.250  1.00  0.00    -0.008 C 
ATOM      3  C   UNL     1     138.465 140.341 138.166  1.00  0.00     0.004 C 
ATOM      4  C   UNL     1     139.638 139.609 138.880  1.00  0.00     0.005 C 
ATOM      5  C   UNL     1     139.318 139.876 140.335  1.00  0.00     0.001 C 
ATOM      6  C   UNL     1     138.825 141.316 140.355  1.00  0.00    -0.023 C 
ATOM      7  C   UNL     1     139.872 142.446 139.999  1.00  0.00     0.010 C 
ATOM      8  C   UNL     1     141.087 142.609 140.938  1.00  0.00     0.036 C 
ATOM      9  C   UNL     1     140.834 142.161 142.409  1.00  0.00     0.065 C 
ATOM     10  C   UNL     1     139.831 140.957 142.453  1.00  0.00     0.027 C 
ATOM     11  C   UNL     1     138.484 141.445 141.825  1.00  0.00     0.014 C 
ATOM     12  C   UNL     1     140.186 139.661 141.601  1.00  0.00    -0.026 C 
ATOM     13  C   UNL     1     141.655 139.342 141.244  1.00  0.00     0.012 C 
ATOM     14  C   UNL     1     139.677 138.427 142.400  1.00  0.00     0.012 C 
ATOM     15  C   UNL     1     142.169 141.833 143.125  1.00  0.00     0.042 C 
ENDROOT
BRANCH   9  16
ATOM     16  O   UNL     1     140.231 143.222 143.122  1.00  0.00    -0.390 OA
ATOM     17  H   UNL     1     139.446 142.876 143.619  1.00  0.00     0.211 HD
ENDBRANCH   9  16
TORSDOF 1
ENDMDL
MODEL 8
REMARK VINA RESULT:    -4.274      2.020      4.375
REMARK INTER + INTRA:          -4.399
REMARK INTER:                  -4.399
REMARK INTRA:                   0.000
REMARK UNBOUND:                 0.000
REMARK SMILES C[C@H]1CC[C@H]2C(C)(C)[C@@H]3C[C@]12CC[C@@]3(C)O
REMARK SMILES IDX 1 1 2 2 3 3 4 4 5 5 11 6 12 7 13 8 14 9 9 10 10 11 6 12 7 13
REMARK SMILES IDX 8 14 15 15 16 16
REMARK H PARENT 16 17
REMARK Flexibility Score: inf
ROOT
ATOM      1  C   UNL     1     143.588 141.006 137.970  1.00  0.00     0.008 C 
ATOM      2  C   UNL     1     143.047 140.032 139.026  1.00  0.00    -0.008 C 
ATOM      3  C   UNL     1     144.057 139.766 140.189  1.00  0.00     0.004 C 
ATOM      4  C   UNL     1     143.214 139.582 141.484  1.00  0.00     0.005 C 
ATOM      5  C   UNL     1     141.815 139.458 140.918  1.00  0.00     0.001 C 
ATOM      6  C   UNL     1     141.775 140.474 139.785  1.00  0.00    -0.023 C 
ATOM      7  C   UNL     1     141.873 142.003 140.178  1.00  0.00     0.010 C 
ATOM      8  C   UNL     1     140.738 142.586 141.048  1.00  0.00     0.036 C 
ATOM      9  C   UNL     1     139.364 141.869 140.887  1.00  0.00     0.065 C 
ATOM     10  C   UNL     1     139.571 140.341 140.602  1.00  0.00     0.027 C 
ATOM     11  C   UNL     1     140.375 140.217 139.266  1.00  0.00     0.014 C 
ATOM     12  C   UNL     1     140.442 139.502 141.636  1.00  0.00    -0.026 C 
ATOM     13  C   UNL     1     140.575 139.970 143.102  1.00  0.00     0.012 C 
ATOM     14  C   UNL     1     139.827 138.075 141.709  1.00  0.00     0.012 C 
ATOM     15  C   UNL     1     138.464 142.113 142.124  1.00  0.00     0.042 C 
ENDROOT
BRANCH   9  16
ATOM     16  O   UNL     1     138.687 142.406 139.769  1.00  0.00    -0.390 OA
ATOM     17  H   UNL     1     137.875 142.886 140.080  1.00  0.00     0.211 HD
ENDBRANCH   9  16
TORSDOF 1
ENDMDL
MODEL 9
REMARK VINA RESULT:    -4.072      1.503      3.376
REMARK INTER + INTRA:          -4.191
REMARK INTER:                  -4.191
REMARK INTRA:                   0.000
REMARK UNBOUND:                 0.000
REMARK SMILES C[C@H]1CC[C@H]2C(C)(C)[C@@H]3C[C@]12CC[C@@]3(C)O
REMARK SMILES IDX 1 1 2 2 3 3 4 4 5 5 11 6 12 7 13 8 14 9 9 10 10 11 6 12 7 13
REMARK SMILES IDX 8 14 15 15 16 16
REMARK H PARENT 16 17
REMARK Flexibility Score: inf
ROOT
ATOM      1  C   UNL     1     138.171 140.527 138.199  1.00  0.00     0.008 C 
ATOM      2  C   UNL     1     138.762 141.508 139.221  1.00  0.00    -0.008 C 
ATOM      3  C   UNL     1     137.826 141.751 140.450  1.00  0.00     0.004 C 
ATOM      4  C   UNL     1     138.750 141.948 141.686  1.00  0.00     0.005 C 
ATOM      5  C   UNL     1     140.105 142.101 141.029  1.00  0.00     0.001 C 
ATOM      6  C   UNL     1     140.089 141.089 139.892  1.00  0.00    -0.023 C 
ATOM      7  C   UNL     1     140.047 139.558 140.285  1.00  0.00     0.010 C 
ATOM      8  C   UNL     1     141.248 138.994 141.075  1.00  0.00     0.036 C 
ATOM      9  C   UNL     1     142.594 139.739 140.827  1.00  0.00     0.065 C 
ATOM     10  C   UNL     1     142.340 141.263 140.562  1.00  0.00     0.027 C 
ATOM     11  C   UNL     1     141.447 141.375 139.283  1.00  0.00     0.014 C 
ATOM     12  C   UNL     1     141.523 142.082 141.655  1.00  0.00    -0.026 C 
ATOM     13  C   UNL     1     141.497 141.608 143.125  1.00  0.00     0.012 C 
ATOM     14  C   UNL     1     142.113 143.521 141.693  1.00  0.00     0.012 C 
ATOM     15  C   UNL     1     143.580 139.509 142.000  1.00  0.00     0.042 C 
ENDROOT
BRANCH   9  16
ATOM     16  O   UNL     1     143.207 139.218 139.664  1.00  0.00    -0.390 OA
ATOM     17  H   UNL     1     144.068 139.687 139.512  1.00  0.00     0.211 HD
ENDBRANCH   9  16
TORSDOF 1
ENDMDL
