MODEL 1
REMARK VINA RESULT:    -1.292      0.000      0.000
REMARK INTER + INTRA:          -1.036
REMARK INTER:                  -1.972
REMARK INTRA:                   0.936
REMARK UNBOUND:                 0.936
REMARK SMILES CC1=CCC[C@H](C)C(=O)C[C@H](C(C)C)C(=O)C1
REMARK SMILES IDX 8 1 9 2 6 3 7 4 5 5 4 6 3 7 2 8 1 9 10 11 11 12 15 13 16 14
REMARK SMILES IDX 17 15 12 17 13 18 14 19
REMARK H PARENT
REMARK Flexibility Score: 70.00
ROOT
ATOM      1  C   UNL     1      83.858  31.140  64.752  1.00  0.00     0.136 C 
ATOM      2  O   UNL     1      83.345  32.174  65.156  1.00  0.00    -0.299 OA
ENDROOT
BRANCH   1   3
ATOM      3  C   UNL     1      83.063  29.852  64.755  1.00  0.00     0.053 C 
ATOM      4  C   UNL     1      81.753  30.060  63.987  1.00  0.00     0.016 C 
BRANCH   3   5
ATOM      5  C   UNL     1      83.854  28.669  64.145  1.00  0.00     0.015 C 
BRANCH   5   6
ATOM      6  C   UNL     1      84.841  28.014  65.122  1.00  0.00     0.028 C 
BRANCH   6   7
ATOM      7  C   UNL     1      85.852  27.161  64.395  1.00  0.00    -0.028 C 
ATOM      8  C   UNL     1      87.188  27.363  64.406  1.00  0.00    -0.070 CG0
ATOM      9  C   UNL     1      88.056  26.414  63.619  1.00  0.00     0.039 C 
ATOM     10  G   UNL     1      87.844  28.504  65.164  1.00  0.00     0.000 G0
ENDBRANCH   6   7
ENDBRANCH   5   6
ENDBRANCH   3   5
ENDBRANCH   1   3
BRANCH   1  11
ATOM     11  C   UNL     1      85.303  31.157  64.313  1.00  0.00     0.087 C 
BRANCH  11  12
ATOM     12  C   UNL     1      86.295  30.652  65.396  1.00  0.00     0.066 C 
BRANCH  12  13
ATOM     13  C   UNL     1      87.445  29.888  64.747  1.00  0.00     0.140 C 
ATOM     14  O   UNL     1      88.118  30.449  63.895  1.00  0.00    -0.299 OA
BRANCH  13  15
ATOM     15  C   UNL     1      87.861  28.493  65.174  1.00  0.00     0.106 CG0
ATOM     16  G   UNL     1      87.197  27.375  64.390  1.00  0.00     0.000 G0
ENDBRANCH  13  15
ENDBRANCH  12  13
BRANCH  12  17
ATOM     17  C   UNL     1      86.848  31.833  66.258  1.00  0.00    -0.006 C 
ATOM     18  C   UNL     1      86.002  32.053  67.525  1.00  0.00     0.008 C 
ATOM     19  C   UNL     1      86.905  33.153  65.467  1.00  0.00     0.008 C 
ENDBRANCH  12  17
ENDBRANCH  11  12
ENDBRANCH   1  11
TORSDOF 1
ENDMDL
MODEL 2
REMARK VINA RESULT:    -0.867      2.515      5.470
REMARK INTER + INTRA:          -0.388
REMARK INTER:                  -1.579
REMARK INTRA:                   1.192
REMARK UNBOUND:                 0.936
REMARK SMILES CC1=CCC[C@H](C)C(=O)C[C@H](C(C)C)C(=O)C1
REMARK SMILES IDX 8 1 9 2 6 3 7 4 5 5 4 6 3 7 2 8 1 9 10 11 11 12 15 13 16 14
REMARK SMILES IDX 17 15 12 17 13 18 14 19
REMARK H PARENT
REMARK Flexibility Score: 70.00
ROOT
ATOM      1  C   UNL     1      86.883  30.821  65.868  1.00  0.00     0.136 C 
ATOM      2  O   UNL     1      86.729  31.066  67.056  1.00  0.00    -0.299 OA
ENDROOT
BRANCH   1   3
ATOM      3  C   UNL     1      88.081  31.381  65.131  1.00  0.00     0.053 C 
ATOM      4  C   UNL     1      88.064  30.885  63.681  1.00  0.00     0.016 C 
BRANCH   3   5
ATOM      5  C   UNL     1      88.125  32.928  65.164  1.00  0.00     0.015 C 
BRANCH   5   6
ATOM      6  C   UNL     1      86.795  33.577  65.575  1.00  0.00     0.028 C 
BRANCH   6   7
ATOM      7  C   UNL     1      86.152  34.297  64.415  1.00  0.00    -0.028 C 
ATOM      8  C   UNL     1      85.377  33.714  63.473  1.00  0.00    -0.070 CG0
ATOM      9  C   UNL     1      84.815  34.585  62.378  1.00  0.00     0.039 C 
ATOM     10  G   UNL     1      85.061  32.229  63.468  1.00  0.00     0.000 G0
ENDBRANCH   6   7
ENDBRANCH   5   6
ENDBRANCH   3   5
ENDBRANCH   1   3
BRANCH   1  11
ATOM     11  C   UNL     1      85.835  30.013  65.140  1.00  0.00     0.087 C 
BRANCH  11  12
ATOM     12  C   UNL     1      84.383  30.510  65.375  1.00  0.00     0.066 C 
BRANCH  12  13
ATOM     13  C   UNL     1      84.114  31.768  64.553  1.00  0.00     0.140 C 
ATOM     14  O   UNL     1      83.163  32.475  64.854  1.00  0.00    -0.299 OA
BRANCH  13  15
ATOM     15  C   UNL     1      85.026  32.243  63.438  1.00  0.00     0.106 CG0
ATOM     16  G   UNL     1      85.368  33.721  63.497  1.00  0.00     0.000 G0
ENDBRANCH  13  15
ENDBRANCH  12  13
BRANCH  12  17
ATOM     17  C   UNL     1      83.336  29.403  65.027  1.00  0.00    -0.006 C 
ATOM     18  C   UNL     1      84.014  28.143  64.460  1.00  0.00     0.008 C 
ATOM     19  C   UNL     1      82.284  29.895  64.016  1.00  0.00     0.008 C 
ENDBRANCH  12  17
ENDBRANCH  11  12
ENDBRANCH   1  11
TORSDOF 1
ENDMDL
MODEL 3
REMARK VINA RESULT:    -0.185      1.935      4.116
REMARK INTER + INTRA:           0.654
REMARK INTER:                  -0.072
REMARK INTRA:                   0.726
REMARK UNBOUND:                 0.936
REMARK SMILES CC1=CCC[C@H](C)C(=O)C[C@H](C(C)C)C(=O)C1
REMARK SMILES IDX 8 1 9 2 6 3 7 4 5 5 4 6 3 7 2 8 1 9 10 11 11 12 15 13 16 14
REMARK SMILES IDX 17 15 12 17 13 18 14 19
REMARK H PARENT
REMARK Flexibility Score: 70.00
ROOT
ATOM      1  C   UNL     1      85.252  32.980  64.215  1.00  0.00     0.136 C 
ATOM      2  O   UNL     1      84.579  33.226  63.224  1.00  0.00    -0.299 OA
ENDROOT
BRANCH   1   3
ATOM      3  C   UNL     1      86.627  33.594  64.366  1.00  0.00     0.053 C 
ATOM      4  C   UNL     1      86.639  34.981  63.716  1.00  0.00     0.016 C 
BRANCH   3   5
ATOM      5  C   UNL     1      87.068  33.697  65.846  1.00  0.00     0.015 C 
BRANCH   5   6
ATOM      6  C   UNL     1      87.597  32.378  66.429  1.00  0.00     0.028 C 
BRANCH   6   7
ATOM      7  C   UNL     1      88.054  31.439  65.340  1.00  0.00    -0.028 C 
ATOM      8  C   UNL     1      87.503  30.234  65.073  1.00  0.00    -0.070 CG0
ATOM      9  C   UNL     1      88.088  29.420  63.947  1.00  0.00     0.039 C 
ATOM     10  G   UNL     1      86.335  29.668  65.861  1.00  0.00     0.000 G0
ENDBRANCH   6   7
ENDBRANCH   5   6
ENDBRANCH   3   5
ENDBRANCH   1   3
BRANCH   1  11
ATOM     11  C   UNL     1      84.719  32.012  65.245  1.00  0.00     0.087 C 
BRANCH  11  12
ATOM     12  C   UNL     1      84.157  30.697  64.640  1.00  0.00     0.066 C 
BRANCH  12  13
ATOM     13  C   UNL     1      85.051  29.518  65.012  1.00  0.00     0.140 C 
ATOM     14  O   UNL     1      84.786  28.413  64.560  1.00  0.00    -0.299 OA
BRANCH  13  15
ATOM     15  C   UNL     1      86.315  29.661  65.838  1.00  0.00     0.106 CG0
ATOM     16  G   UNL     1      87.495  30.243  65.079  1.00  0.00     0.000 G0
ENDBRANCH  13  15
ENDBRANCH  12  13
BRANCH  12  17
ATOM     17  C   UNL     1      82.690  30.433  65.111  1.00  0.00    -0.006 C 
ATOM     18  C   UNL     1      81.732  30.282  63.916  1.00  0.00     0.008 C 
ATOM     19  C   UNL     1      82.164  31.553  66.027  1.00  0.00     0.008 C 
ENDBRANCH  12  17
ENDBRANCH  11  12
ENDBRANCH   1  11
TORSDOF 1
ENDMDL
MODEL 4
REMARK VINA RESULT:    -0.011      2.959      5.021
REMARK INTER + INTRA:           0.919
REMARK INTER:                   0.008
REMARK INTRA:                   0.910
REMARK UNBOUND:                 0.936
REMARK SMILES CC1=CCC[C@H](C)C(=O)C[C@H](C(C)C)C(=O)C1
REMARK SMILES IDX 8 1 9 2 6 3 7 4 5 5 4 6 3 7 2 8 1 9 10 11 11 12 15 13 16 14
REMARK SMILES IDX 17 15 12 17 13 18 14 19
REMARK H PARENT
REMARK Flexibility Score: 70.00
ROOT
ATOM      1  C   UNL     1      87.571  32.583  65.200  1.00  0.00     0.136 C 
ATOM      2  O   UNL     1      88.078  31.938  64.294  1.00  0.00    -0.299 OA
ENDROOT
BRANCH   1   3
ATOM      3  C   UNL     1      87.661  32.081  66.626  1.00  0.00     0.053 C 
ATOM      4  C   UNL     1      87.753  33.275  67.581  1.00  0.00     0.016 C 
BRANCH   3   5
ATOM      5  C   UNL     1      86.461  31.182  67.011  1.00  0.00     0.015 C 
BRANCH   5   6
ATOM      6  C   UNL     1      85.139  31.947  67.166  1.00  0.00     0.028 C 
BRANCH   6   7
ATOM      7  C   UNL     1      83.980  31.165  66.596  1.00  0.00    -0.028 C 
ATOM      8  C   UNL     1      83.785  30.913  65.283  1.00  0.00    -0.070 CG0
ATOM      9  C   UNL     1      82.569  30.115  64.886  1.00  0.00     0.039 C 
ATOM     10  G   UNL     1      84.728  31.405  64.200  1.00  0.00     0.000 G0
ENDBRANCH   6   7
ENDBRANCH   5   6
ENDBRANCH   3   5
ENDBRANCH   1   3
BRANCH   1  11
ATOM     11  C   UNL     1      86.807  33.843  64.870  1.00  0.00     0.087 C 
BRANCH  11  12
ATOM     12  C   UNL     1      85.912  33.722  63.608  1.00  0.00     0.066 C 
BRANCH  12  13
ATOM     13  C   UNL     1      84.671  32.888  63.915  1.00  0.00     0.140 C 
ATOM     14  O   UNL     1      83.575  33.427  63.872  1.00  0.00    -0.299 OA
BRANCH  13  15
ATOM     15  C   UNL     1      84.718  31.395  64.177  1.00  0.00     0.106 CG0
ATOM     16  G   UNL     1      83.779  30.922  65.272  1.00  0.00     0.000 G0
ENDBRANCH  13  15
ENDBRANCH  12  13
BRANCH  12  17
ATOM     17  C   UNL     1      85.497  35.128  63.065  1.00  0.00    -0.006 C 
ATOM     18  C   UNL     1      84.932  35.038  61.636  1.00  0.00     0.008 C 
ATOM     19  C   UNL     1      86.674  36.122  63.069  1.00  0.00     0.008 C 
ENDBRANCH  12  17
ENDBRANCH  11  12
ENDBRANCH   1  11
TORSDOF 1
ENDMDL
MODEL 5
REMARK VINA RESULT:     0.258     15.234     16.683
REMARK INTER + INTRA:           1.330
REMARK INTER:                   0.722
REMARK INTRA:                   0.608
REMARK UNBOUND:                 0.936
REMARK SMILES CC1=CCC[C@H](C)C(=O)C[C@H](C(C)C)C(=O)C1
REMARK SMILES IDX 8 1 9 2 6 3 7 4 5 5 4 6 3 7 2 8 1 9 10 11 11 12 15 13 16 14
REMARK SMILES IDX 17 15 12 17 13 18 14 19
REMARK H PARENT
REMARK Flexibility Score: 70.00
ROOT
ATOM      1  C   UNL     1      77.524  35.993  51.241  1.00  0.00     0.136 C 
ATOM      2  O   UNL     1      77.105  35.973  50.092  1.00  0.00    -0.299 OA
ENDROOT
BRANCH   1   3
ATOM      3  C   UNL     1      79.007  35.848  51.506  1.00  0.00     0.053 C 
ATOM      4  C   UNL     1      79.287  36.110  52.989  1.00  0.00     0.016 C 
BRANCH   3   5
ATOM      5  C   UNL     1      79.545  34.454  51.101  1.00  0.00     0.015 C 
BRANCH   5   6
ATOM      6  C   UNL     1      79.533  33.428  52.244  1.00  0.00     0.028 C 
BRANCH   6   7
ATOM      7  C   UNL     1      78.577  32.296  51.958  1.00  0.00    -0.028 C 
ATOM      8  C   UNL     1      77.294  32.237  52.379  1.00  0.00    -0.070 CG0
ATOM      9  C   UNL     1      76.478  31.026  52.004  1.00  0.00     0.039 C 
ATOM     10  G   UNL     1      76.651  33.328  53.216  1.00  0.00     0.000 G0
ENDBRANCH   6   7
ENDBRANCH   5   6
ENDBRANCH   3   5
ENDBRANCH   1   3
BRANCH   1  11
ATOM     11  C   UNL     1      76.540  36.100  52.382  1.00  0.00     0.087 C 
BRANCH  11  12
ATOM     12  C   UNL     1      75.222  35.313  52.152  1.00  0.00     0.066 C 
BRANCH  12  13
ATOM     13  C   UNL     1      75.347  33.896  52.704  1.00  0.00     0.140 C 
ATOM     14  O   UNL     1      74.379  33.153  52.641  1.00  0.00    -0.299 OA
BRANCH  13  15
ATOM     15  C   UNL     1      76.646  33.325  53.240  1.00  0.00     0.106 CG0
ATOM     16  G   UNL     1      77.259  32.241  52.372  1.00  0.00     0.000 G0
ENDBRANCH  13  15
ENDBRANCH  12  13
BRANCH  12  17
ATOM     17  C   UNL     1      74.001  36.041  52.802  1.00  0.00    -0.006 C 
ATOM     18  C   UNL     1      73.798  35.608  54.264  1.00  0.00     0.008 C 
ATOM     19  C   UNL     1      72.695  35.788  52.026  1.00  0.00     0.008 C 
ENDBRANCH  12  17
ENDBRANCH  11  12
ENDBRANCH   1  11
TORSDOF 1
ENDMDL
MODEL 6
REMARK VINA RESULT:     1.203      2.852      5.261
REMARK INTER + INTRA:           2.772
REMARK INTER:                  -0.053
REMARK INTRA:                   2.824
REMARK UNBOUND:                 0.936
REMARK SMILES CC1=CCC[C@H](C)C(=O)C[C@H](C(C)C)C(=O)C1
REMARK SMILES IDX 8 1 9 2 6 3 7 4 5 5 4 6 3 7 2 8 1 9 10 11 11 12 15 13 16 14
REMARK SMILES IDX 17 15 12 17 13 18 14 19
REMARK H PARENT
REMARK Flexibility Score: 70.00
ROOT
ATOM      1  C   UNL     1      87.358  30.890  65.003  1.00  0.00     0.136 C 
ATOM      2  O   UNL     1      88.078  30.761  64.023  1.00  0.00    -0.299 OA
ENDROOT
BRANCH   1   3
ATOM      3  C   UNL     1      87.890  31.570  66.246  1.00  0.00     0.053 C 
ATOM      4  C   UNL     1      88.114  33.058  65.956  1.00  0.00     0.016 C 
BRANCH   3   5
ATOM      5  C   UNL     1      86.946  31.401  67.461  1.00  0.00     0.015 C 
BRANCH   5   6
ATOM      6  C   UNL     1      85.863  32.486  67.561  1.00  0.00     0.028 C 
BRANCH   6   7
ATOM      7  C   UNL     1      84.548  31.910  68.026  1.00  0.00    -0.028 C 
ATOM      8  C   UNL     1      83.426  31.833  67.277  1.00  0.00    -0.070 CG0
ATOM      9  C   UNL     1      82.194  31.229  67.903  1.00  0.00     0.039 C 
ATOM     10  G   UNL     1      83.354  32.334  65.846  1.00  0.00     0.000 G0
ENDBRANCH   6   7
ENDBRANCH   5   6
ENDBRANCH   3   5
ENDBRANCH   1   3
BRANCH   1  11
ATOM     11  C   UNL     1      85.964  30.309  64.975  1.00  0.00     0.087 C 
BRANCH  11  12
ATOM     12  C   UNL     1      84.972  31.099  64.080  1.00  0.00     0.066 C 
BRANCH  12  13
ATOM     13  C   UNL     1      83.631  31.262  64.791  1.00  0.00     0.140 C 
ATOM     14  O   UNL     1      82.742  30.455  64.562  1.00  0.00    -0.299 OA
BRANCH  13  15
ATOM     15  C   UNL     1      83.373  32.321  65.845  1.00  0.00     0.106 CG0
ATOM     16  G   UNL     1      83.458  31.815  67.274  1.00  0.00     0.000 G0
ENDBRANCH  13  15
ENDBRANCH  12  13
BRANCH  12  17
ATOM     17  C   UNL     1      85.548  32.497  63.683  1.00  0.00    -0.006 C 
ATOM     18  C   UNL     1      85.449  33.500  64.846  1.00  0.00     0.008 C 
ATOM     19  C   UNL     1      84.834  33.092  62.456  1.00  0.00     0.008 C 
ENDBRANCH  12  17
ENDBRANCH  11  12
ENDBRANCH   1  11
TORSDOF 1
ENDMDL
MODEL 7
REMARK VINA RESULT:     1.394      2.724      5.374
REMARK INTER + INTRA:           3.063
REMARK INTER:                   2.212
REMARK INTRA:                   0.851
REMARK UNBOUND:                 0.936
REMARK SMILES CC1=CCC[C@H](C)C(=O)C[C@H](C(C)C)C(=O)C1
REMARK SMILES IDX 8 1 9 2 6 3 7 4 5 5 4 6 3 7 2 8 1 9 10 11 11 12 15 13 16 14
REMARK SMILES IDX 17 15 12 17 13 18 14 19
REMARK H PARENT
REMARK Flexibility Score: 70.00
ROOT
ATOM      1  C   UNL     1      84.958  31.965  67.514  1.00  0.00     0.136 C 
ATOM      2  O   UNL     1      84.095  31.284  68.050  1.00  0.00    -0.299 OA
ENDROOT
BRANCH   1   3
ATOM      3  C   UNL     1      86.378  31.932  68.038  1.00  0.00     0.053 C 
ATOM      4  C   UNL     1      87.221  30.998  67.164  1.00  0.00     0.016 C 
BRANCH   3   5
ATOM      5  C   UNL     1      87.020  33.340  68.086  1.00  0.00     0.015 C 
BRANCH   5   6
ATOM      6  C   UNL     1      88.125  33.553  67.041  1.00  0.00     0.028 C 
BRANCH   6   7
ATOM      7  C   UNL     1      87.710  34.565  66.000  1.00  0.00    -0.028 C 
ATOM      8  C   UNL     1      87.153  34.267  64.806  1.00  0.00    -0.070 CG0
ATOM      9  C   UNL     1      86.802  35.405  63.881  1.00  0.00     0.039 C 
ATOM     10  G   UNL     1      86.879  32.842  64.357  1.00  0.00     0.000 G0
ENDBRANCH   6   7
ENDBRANCH   5   6
ENDBRANCH   3   5
ENDBRANCH   1   3
BRANCH   1  11
ATOM     11  C   UNL     1      84.574  32.877  66.373  1.00  0.00     0.087 C 
BRANCH  11  12
ATOM     12  C   UNL     1      84.358  32.140  65.024  1.00  0.00     0.066 C 
BRANCH  12  13
ATOM     13  C   UNL     1      85.413  32.572  64.009  1.00  0.00     0.140 C 
ATOM     14  O   UNL     1      85.065  32.793  62.858  1.00  0.00    -0.299 OA
BRANCH  13  15
ATOM     15  C   UNL     1      86.860  32.838  64.377  1.00  0.00     0.106 CG0
ATOM     16  G   UNL     1      87.146  34.269  64.793  1.00  0.00     0.000 G0
ENDBRANCH  13  15
ENDBRANCH  12  13
BRANCH  12  17
ATOM     17  C   UNL     1      84.389  30.588  65.209  1.00  0.00    -0.006 C 
ATOM     18  C   UNL     1      85.536  29.946  64.409  1.00  0.00     0.008 C 
ATOM     19  C   UNL     1      83.063  29.927  64.788  1.00  0.00     0.008 C 
ENDBRANCH  12  17
ENDBRANCH  11  12
ENDBRANCH   1  11
TORSDOF 1
ENDMDL
MODEL 8
REMARK VINA RESULT:     1.463     14.246     16.411
REMARK INTER + INTRA:           3.169
REMARK INTER:                   2.367
REMARK INTRA:                   0.802
REMARK UNBOUND:                 0.936
REMARK SMILES CC1=CCC[C@H](C)C(=O)C[C@H](C(C)C)C(=O)C1
REMARK SMILES IDX 8 1 9 2 6 3 7 4 5 5 4 6 3 7 2 8 1 9 10 11 11 12 15 13 16 14
REMARK SMILES IDX 17 15 12 17 13 18 14 19
REMARK H PARENT
REMARK Flexibility Score: 70.00
ROOT
ATOM      1  C   UNL     1      77.818  32.160  52.414  1.00  0.00     0.136 C 
ATOM      2  O   UNL     1      77.325  31.856  53.490  1.00  0.00    -0.299 OA
ENDROOT
BRANCH   1   3
ATOM      3  C   UNL     1      79.189  31.639  52.037  1.00  0.00     0.053 C 
ATOM      4  C   UNL     1      79.425  31.864  50.540  1.00  0.00     0.016 C 
BRANCH   3   5
ATOM      5  C   UNL     1      80.319  32.305  52.859  1.00  0.00     0.015 C 
BRANCH   5   6
ATOM      6  C   UNL     1      80.347  33.836  52.750  1.00  0.00     0.028 C 
BRANCH   6   7
ATOM      7  C   UNL     1      80.562  34.283  51.324  1.00  0.00    -0.028 C 
ATOM      8  C   UNL     1      79.905  35.299  50.722  1.00  0.00    -0.070 CG0
ATOM      9  C   UNL     1      80.242  35.611  49.286  1.00  0.00     0.039 C 
ATOM     10  G   UNL     1      78.844  36.126  51.425  1.00  0.00     0.000 G0
ENDBRANCH   6   7
ENDBRANCH   5   6
ENDBRANCH   3   5
ENDBRANCH   1   3
BRANCH   1  11
ATOM     11  C   UNL     1      77.072  33.106  51.502  1.00  0.00     0.087 C 
BRANCH  11  12
ATOM     12  C   UNL     1      76.815  34.505  52.122  1.00  0.00     0.066 C 
BRANCH  12  13
ATOM     13  C   UNL     1      77.426  35.594  51.244  1.00  0.00     0.140 C 
ATOM     14  O   UNL     1      76.726  36.125  50.394  1.00  0.00    -0.299 OA
BRANCH  13  15
ATOM     15  C   UNL     1      78.833  36.125  51.436  1.00  0.00     0.106 CG0
ATOM     16  G   UNL     1      79.907  35.322  50.724  1.00  0.00     0.000 G0
ENDBRANCH  13  15
ENDBRANCH  12  13
BRANCH  12  17
ATOM     17  C   UNL     1      75.289  34.768  52.328  1.00  0.00    -0.006 C 
ATOM     18  C   UNL     1      75.041  35.892  53.350  1.00  0.00     0.008 C 
ATOM     19  C   UNL     1      74.539  33.505  52.792  1.00  0.00     0.008 C 
ENDBRANCH  12  17
ENDBRANCH  11  12
ENDBRANCH   1  11
TORSDOF 1
ENDMDL
