MODEL 1
REMARK VINA RESULT:    -3.287      0.000      0.000
REMARK INTER + INTRA:          -3.913
REMARK INTER:                  -3.863
REMARK INTRA:                  -0.050
REMARK UNBOUND:                -0.050
REMARK SMILES CCCCC(=O)[O-]
REMARK SMILES IDX 4 1 5 2 6 3 7 4 3 5 2 6 1 7
REMARK H PARENT
REMARK Flexibility Score: inf
ROOT
ATOM      1  C   UNL     1      31.427   6.084  47.288  1.00  0.00     0.053 C 
ENDROOT
BRANCH   1   2
ATOM      2  C   UNL     1      32.725   5.874  48.006  1.00  0.00     0.041 C 
ATOM      3  O   UNL     1      33.010   6.567  49.018  1.00  0.00    -0.550 OA
ATOM      4  O   UNL     1      33.633   4.932  47.539  1.00  0.00    -0.550 OA
ENDBRANCH   1   2
BRANCH   1   5
ATOM      5  C   UNL     1      30.405   6.818  48.166  1.00  0.00     0.006 C 
BRANCH   5   6
ATOM      6  C   UNL     1      29.357   5.864  48.759  1.00  0.00    -0.003 C 
ATOM      7  C   UNL     1      28.269   5.540  47.739  1.00  0.00     0.004 C 
ENDBRANCH   5   6
ENDBRANCH   1   5
TORSDOF 3
ENDMDL
MODEL 2
REMARK VINA RESULT:    -3.284      1.873      2.443
REMARK INTER + INTRA:          -3.910
REMARK INTER:                  -3.894
REMARK INTRA:                  -0.016
REMARK UNBOUND:                -0.050
REMARK SMILES CCCCC(=O)[O-]
REMARK SMILES IDX 4 1 5 2 6 3 7 4 3 5 2 6 1 7
REMARK H PARENT
REMARK Flexibility Score: inf
ROOT
ATOM      1  C   UNL     1      33.082   6.823  46.947  1.00  0.00     0.053 C 
ENDROOT
BRANCH   1   2
ATOM      2  C   UNL     1      33.847   6.239  45.799  1.00  0.00     0.041 C 
ATOM      3  O   UNL     1      33.640   6.646  44.625  1.00  0.00    -0.550 OA
ATOM      4  O   UNL     1      34.768   5.223  46.022  1.00  0.00    -0.550 OA
ENDBRANCH   1   2
BRANCH   1   5
ATOM      5  C   UNL     1      31.809   6.021  47.247  1.00  0.00     0.006 C 
BRANCH   5   6
ATOM      6  C   UNL     1      30.824   6.804  48.128  1.00  0.00    -0.003 C 
ATOM      7  C   UNL     1      29.409   6.245  48.002  1.00  0.00     0.004 C 
ENDBRANCH   5   6
ENDBRANCH   1   5
TORSDOF 3
ENDMDL
MODEL 3
REMARK VINA RESULT:    -3.083     16.909     17.831
REMARK INTER + INTRA:          -3.674
REMARK INTER:                  -3.596
REMARK INTRA:                  -0.078
REMARK UNBOUND:                -0.050
REMARK SMILES CCCCC(=O)[O-]
REMARK SMILES IDX 4 1 5 2 6 3 7 4 3 5 2 6 1 7
REMARK H PARENT
REMARK Flexibility Score: inf
ROOT
ATOM      1  C   UNL     1      19.720  11.410  35.994  1.00  0.00     0.053 C 
ENDROOT
BRANCH   1   2
ATOM      2  C   UNL     1      19.465  12.883  35.892  1.00  0.00     0.041 C 
ATOM      3  O   UNL     1      18.378  13.369  36.302  1.00  0.00    -0.550 OA
ATOM      4  O   UNL     1      20.416  13.715  35.314  1.00  0.00    -0.550 OA
ENDBRANCH   1   2
BRANCH   1   5
ATOM      5  C   UNL     1      20.779  10.947  34.985  1.00  0.00     0.006 C 
BRANCH   5   6
ATOM      6  C   UNL     1      21.986  10.291  35.671  1.00  0.00    -0.003 C 
ATOM      7  C   UNL     1      23.278  11.034  35.339  1.00  0.00     0.004 C 
ENDBRANCH   5   6
ENDBRANCH   1   5
TORSDOF 3
ENDMDL
MODEL 4
REMARK VINA RESULT:    -3.082     16.229     17.072
REMARK INTER + INTRA:          -3.673
REMARK INTER:                  -3.568
REMARK INTRA:                  -0.105
REMARK UNBOUND:                -0.050
REMARK SMILES CCCCC(=O)[O-]
REMARK SMILES IDX 4 1 5 2 6 3 7 4 3 5 2 6 1 7
REMARK H PARENT
REMARK Flexibility Score: inf
ROOT
ATOM      1  C   UNL     1      21.669  10.389  35.725  1.00  0.00     0.053 C 
ENDROOT
BRANCH   1   2
ATOM      2  C   UNL     1      22.801  10.949  34.919  1.00  0.00     0.041 C 
ATOM      3  O   UNL     1      22.589  11.435  33.777  1.00  0.00    -0.550 OA
ATOM      4  O   UNL     1      24.097  10.906  35.418  1.00  0.00    -0.550 OA
ENDBRANCH   1   2
BRANCH   1   5
ATOM      5  C   UNL     1      20.312  10.913  35.237  1.00  0.00     0.006 C 
BRANCH   5   6
ATOM      6  C   UNL     1      19.813  12.100  36.074  1.00  0.00    -0.003 C 
ATOM      7  C   UNL     1      20.074  13.424  35.361  1.00  0.00     0.004 C 
ENDBRANCH   5   6
ENDBRANCH   1   5
TORSDOF 3
ENDMDL
MODEL 5
REMARK VINA RESULT:    -2.951     17.432     18.228
REMARK INTER + INTRA:          -3.518
REMARK INTER:                  -3.456
REMARK INTRA:                  -0.063
REMARK UNBOUND:                -0.050
REMARK SMILES CCCCC(=O)[O-]
REMARK SMILES IDX 4 1 5 2 6 3 7 4 3 5 2 6 1 7
REMARK H PARENT
REMARK Flexibility Score: inf
ROOT
ATOM      1  C   UNL     1      21.288  12.888  35.186  1.00  0.00     0.053 C 
ENDROOT
BRANCH   1   2
ATOM      2  C   UNL     1      20.694  13.198  33.846  1.00  0.00     0.041 C 
ATOM      3  O   UNL     1      19.465  13.017  33.638  1.00  0.00    -0.550 OA
ATOM      4  O   UNL     1      21.506  13.659  32.816  1.00  0.00    -0.550 OA
ENDBRANCH   1   2
BRANCH   1   5
ATOM      5  C   UNL     1      20.774  11.551  35.737  1.00  0.00     0.006 C 
BRANCH   5   6
ATOM      6  C   UNL     1      21.812  10.428  35.595  1.00  0.00    -0.003 C 
ATOM      7  C   UNL     1      23.206  10.995  35.339  1.00  0.00     0.004 C 
ENDBRANCH   5   6
ENDBRANCH   1   5
TORSDOF 3
ENDMDL
MODEL 6
REMARK VINA RESULT:    -2.951     16.681     17.534
REMARK INTER + INTRA:          -3.518
REMARK INTER:                  -3.392
REMARK INTRA:                  -0.127
REMARK UNBOUND:                -0.050
REMARK SMILES CCCCC(=O)[O-]
REMARK SMILES IDX 4 1 5 2 6 3 7 4 3 5 2 6 1 7
REMARK H PARENT
REMARK Flexibility Score: inf
ROOT
ATOM      1  C   UNL     1      22.022  10.198  35.707  1.00  0.00     0.053 C 
ENDROOT
BRANCH   1   2
ATOM      2  C   UNL     1      20.801   9.706  34.990  1.00  0.00     0.041 C 
ATOM      3  O   UNL     1      20.810   9.576  33.737  1.00  0.00    -0.550 OA
ATOM      4  O   UNL     1      19.644   9.419  35.704  1.00  0.00    -0.550 OA
ENDBRANCH   1   2
BRANCH   1   5
ATOM      5  C   UNL     1      22.388  11.628  35.286  1.00  0.00     0.006 C 
BRANCH   5   6
ATOM      6  C   UNL     1      21.220  12.606  35.479  1.00  0.00    -0.003 C 
ATOM      7  C   UNL     1      21.020  13.475  34.240  1.00  0.00     0.004 C 
ENDBRANCH   5   6
ENDBRANCH   1   5
TORSDOF 3
ENDMDL
MODEL 7
REMARK VINA RESULT:    -2.921     15.916     16.817
REMARK INTER + INTRA:          -3.484
REMARK INTER:                  -3.465
REMARK INTRA:                  -0.018
REMARK UNBOUND:                -0.050
REMARK SMILES CCCCC(=O)[O-]
REMARK SMILES IDX 4 1 5 2 6 3 7 4 3 5 2 6 1 7
REMARK H PARENT
REMARK Flexibility Score: inf
ROOT
ATOM      1  C   UNL     1      20.894   9.431  34.641  1.00  0.00     0.053 C 
ENDROOT
BRANCH   1   2
ATOM      2  C   UNL     1      20.360   8.224  35.350  1.00  0.00     0.041 C 
ATOM      3  O   UNL     1      19.690   8.354  36.409  1.00  0.00    -0.550 OA
ATOM      4  O   UNL     1      20.629   6.953  34.858  1.00  0.00    -0.550 OA
ENDBRANCH   1   2
BRANCH   1   5
ATOM      5  C   UNL     1      21.580  10.401  35.612  1.00  0.00     0.006 C 
BRANCH   5   6
ATOM      6  C   UNL     1      22.718  11.185  34.940  1.00  0.00    -0.003 C 
ATOM      7  C   UNL     1      24.064  10.856  35.579  1.00  0.00     0.004 C 
ENDBRANCH   5   6
ENDBRANCH   1   5
TORSDOF 3
ENDMDL
MODEL 8
REMARK VINA RESULT:    -2.898     16.385     16.762
REMARK INTER + INTRA:          -3.457
REMARK INTER:                  -3.438
REMARK INTRA:                  -0.018
REMARK UNBOUND:                -0.050
REMARK SMILES CCCCC(=O)[O-]
REMARK SMILES IDX 4 1 5 2 6 3 7 4 3 5 2 6 1 7
REMARK H PARENT
REMARK Flexibility Score: inf
ROOT
ATOM      1  C   UNL     1      21.245   9.818  35.375  1.00  0.00     0.053 C 
ENDROOT
BRANCH   1   2
ATOM      2  C   UNL     1      21.438  11.272  35.682  1.00  0.00     0.041 C 
ATOM      3  O   UNL     1      22.596  11.768  35.706  1.00  0.00    -0.550 OA
ATOM      4  O   UNL     1      20.340  12.073  35.972  1.00  0.00    -0.550 OA
ENDBRANCH   1   2
BRANCH   1   5
ATOM      5  C   UNL     1      20.020   9.244  36.098  1.00  0.00     0.006 C 
BRANCH   5   6
ATOM      6  C   UNL     1      19.777   7.769  35.745  1.00  0.00    -0.003 C 
ATOM      7  C   UNL     1      19.223   7.001  36.943  1.00  0.00     0.004 C 
ENDBRANCH   5   6
ENDBRANCH   1   5
TORSDOF 3
ENDMDL
MODEL 9
REMARK VINA RESULT:    -2.855      2.290      3.778
REMARK INTER + INTRA:          -3.405
REMARK INTER:                  -3.368
REMARK INTRA:                  -0.037
REMARK UNBOUND:                -0.050
REMARK SMILES CCCCC(=O)[O-]
REMARK SMILES IDX 4 1 5 2 6 3 7 4 3 5 2 6 1 7
REMARK H PARENT
REMARK Flexibility Score: inf
ROOT
ATOM      1  C   UNL     1      31.401   6.242  47.167  1.00  0.00     0.053 C 
ENDROOT
BRANCH   1   2
ATOM      2  C   UNL     1      30.249   6.583  48.062  1.00  0.00     0.041 C 
ATOM      3  O   UNL     1      30.184   7.714  48.612  1.00  0.00    -0.550 OA
ATOM      4  O   UNL     1      29.261   5.638  48.313  1.00  0.00    -0.550 OA
ENDBRANCH   1   2
BRANCH   1   5
ATOM      5  C   UNL     1      32.642   5.832  47.972  1.00  0.00     0.006 C 
BRANCH   5   6
ATOM      6  C   UNL     1      33.926   5.898  47.131  1.00  0.00    -0.003 C 
ATOM      7  C   UNL     1      33.668   6.570  45.785  1.00  0.00     0.004 C 
ENDBRANCH   5   6
ENDBRANCH   1   5
TORSDOF 3
ENDMDL
