MODEL 1
REMARK VINA RESULT:    -3.918      0.000      0.000
REMARK INTER + INTRA:          -5.477
REMARK INTER:                  -5.521
REMARK INTRA:                   0.044
REMARK UNBOUND:                 0.044
REMARK SMILES CC1=CCC(=C(C)C)C(=O)CC(C)=CCC1
REMARK SMILES IDX 12 1 14 2 13 3 15 4 16 5 2 6 1 7 3 8 11 10 9 11 10 12 5 13
REMARK SMILES IDX 6 14 7 15 8 16 4 17
REMARK H PARENT
REMARK Flexibility Score: 60.00
ROOT
ATOM      1  C   UNL     1     212.725 204.226 217.561  1.00  0.00    -0.070 C 
ATOM      2  C   UNL     1     213.535 205.232 217.117  1.00  0.00    -0.027 C 
ATOM      3  C   UNL     1     211.275 204.480 217.890  1.00  0.00     0.039 C 
ENDROOT
BRANCH   2   4
ATOM      4  C   UNL     1     213.023 206.482 216.391  1.00  0.00     0.032 C 
BRANCH   4   5
ATOM      5  C   UNL     1     213.193 206.403 214.833  1.00  0.00     0.034 C 
BRANCH   5   6
ATOM      6  C   UNL     1     212.236 205.465 214.045  1.00  0.00    -0.077 C 
ATOM      7  C   UNL     1     210.872 205.971 213.652  1.00  0.00     0.039 C 
ATOM      8  C   UNL     1     212.602 204.223 213.609  1.00  0.00    -0.023 CG0
ATOM      9  G   UNL     1     213.868 203.648 214.135  1.00  0.00     0.000 G0
ENDBRANCH   5   6
ENDBRANCH   4   5
ENDBRANCH   2   4
BRANCH   1  10
ATOM     10  C   UNL     1     213.169 202.771 217.372  1.00  0.00     0.111 C 
BRANCH  10  11
ATOM     11  C   UNL     1     214.332 202.606 216.377  1.00  0.00     0.163 C 
ATOM     12  O   UNL     1     215.508 202.631 216.832  1.00  0.00    -0.294 OA
BRANCH  11  13
ATOM     13  C   UNL     1     214.106 202.364 214.898  1.00  0.00    -0.002 C 
ATOM     14  C   UNL     1     214.344 201.165 214.302  1.00  0.00    -0.069 C 
ATOM     15  C   UNL     1     214.290 201.007 212.802  1.00  0.00     0.039 C 
ATOM     16  C   UNL     1     214.735 199.954 215.116  1.00  0.00     0.039 C 
BRANCH  13  17
ATOM     17  C   UNL     1     213.857 203.634 214.137  1.00  0.00     0.066 CG0
ATOM     18  G   UNL     1     212.597 204.222 213.610  1.00  0.00     0.000 G0
ENDBRANCH  13  17
ENDBRANCH  11  13
ENDBRANCH  10  11
ENDBRANCH   1  10
TORSDOF 0
ENDMDL
MODEL 2
REMARK VINA RESULT:    -3.870     14.004     15.063
REMARK INTER + INTRA:          -5.410
REMARK INTER:                  -5.077
REMARK INTRA:                  -0.332
REMARK UNBOUND:                 0.044
REMARK SMILES CC1=CCC(=C(C)C)C(=O)CC(C)=CCC1
REMARK SMILES IDX 12 1 14 2 13 3 15 4 16 5 2 6 1 7 3 8 11 10 9 11 10 12 5 13
REMARK SMILES IDX 6 14 7 15 8 16 4 17
REMARK H PARENT
REMARK Flexibility Score: 60.00
ROOT
ATOM      1  C   UNL     1     198.972 206.794 216.921  1.00  0.00    -0.070 C 
ATOM      2  C   UNL     1     200.204 207.333 216.683  1.00  0.00    -0.027 C 
ATOM      3  C   UNL     1     197.735 207.656 216.943  1.00  0.00     0.039 C 
ENDROOT
BRANCH   2   4
ATOM      4  C   UNL     1     200.430 208.631 215.895  1.00  0.00     0.032 C 
BRANCH   4   5
ATOM      5  C   UNL     1     200.243 208.453 214.347  1.00  0.00     0.034 C 
BRANCH   5   6
ATOM      6  C   UNL     1     198.803 208.568 213.773  1.00  0.00    -0.077 C 
ATOM      7  C   UNL     1     198.130 209.915 213.743  1.00  0.00     0.039 C 
ATOM      8  C   UNL     1     198.140 207.516 213.206  1.00  0.00    -0.023 CG0
ATOM      9  G   UNL     1     198.715 206.156 213.385  1.00  0.00     0.000 G0
ENDBRANCH   5   6
ENDBRANCH   4   5
ENDBRANCH   2   4
BRANCH   1  10
ATOM     10  C   UNL     1     198.783 205.278 216.795  1.00  0.00     0.111 C 
BRANCH  10  11
ATOM     11  C   UNL     1     199.130 204.728 215.399  1.00  0.00     0.163 C 
ATOM     12  O   UNL     1     200.161 204.011 215.285  1.00  0.00    -0.294 OA
BRANCH  11  13
ATOM     13  C   UNL     1     198.253 204.976 214.188  1.00  0.00    -0.002 C 
ATOM     14  C   UNL     1     197.311 204.090 213.767  1.00  0.00    -0.069 C 
ATOM     15  C   UNL     1     196.586 204.276 212.456  1.00  0.00     0.039 C 
ATOM     16  C   UNL     1     196.997 202.847 214.566  1.00  0.00     0.039 C 
BRANCH  13  17
ATOM     17  C   UNL     1     198.712 206.149 213.372  1.00  0.00     0.066 CG0
ATOM     18  G   UNL     1     198.145 207.516 213.226  1.00  0.00     0.000 G0
ENDBRANCH  13  17
ENDBRANCH  11  13
ENDBRANCH  10  11
ENDBRANCH   1  10
TORSDOF 0
ENDMDL
MODEL 3
REMARK VINA RESULT:    -3.864     13.215     15.882
REMARK INTER + INTRA:          -5.402
REMARK INTER:                  -5.428
REMARK INTRA:                   0.027
REMARK UNBOUND:                 0.044
REMARK SMILES CC1=CCC(=C(C)C)C(=O)CC(C)=CCC1
REMARK SMILES IDX 12 1 14 2 13 3 15 4 16 5 2 6 1 7 3 8 11 10 9 11 10 12 5 13
REMARK SMILES IDX 6 14 7 15 8 16 4 17
REMARK H PARENT
REMARK Flexibility Score: 60.00
ROOT
ATOM      1  C   UNL     1     198.886 207.838 217.308  1.00  0.00    -0.070 C 
ATOM      2  C   UNL     1     198.173 206.860 216.675  1.00  0.00    -0.027 C 
ATOM      3  C   UNL     1     200.358 207.672 217.588  1.00  0.00     0.039 C 
ENDROOT
BRANCH   2   4
ATOM      4  C   UNL     1     198.796 205.830 215.724  1.00  0.00     0.032 C 
BRANCH   4   5
ATOM      5  C   UNL     1     198.891 206.338 214.242  1.00  0.00     0.034 C 
BRANCH   5   6
ATOM      6  C   UNL     1     200.080 207.266 213.868  1.00  0.00    -0.077 C 
ATOM      7  C   UNL     1     201.424 206.654 213.573  1.00  0.00     0.039 C 
ATOM      8  C   UNL     1     199.949 208.616 213.705  1.00  0.00    -0.023 CG0
ATOM      9  G   UNL     1     198.683 209.251 214.159  1.00  0.00     0.000 G0
ENDBRANCH   5   6
ENDBRANCH   4   5
ENDBRANCH   2   4
BRANCH   1  10
ATOM     10  C   UNL     1     198.296 209.250 217.401  1.00  0.00     0.111 C 
BRANCH  10  11
ATOM     11  C   UNL     1     198.952 210.256 216.438  1.00  0.00     0.163 C 
ATOM     12  O   UNL     1     199.962 210.891 216.843  1.00  0.00    -0.294 OA
BRANCH  11  13
ATOM     13  C   UNL     1     198.457 210.461 215.020  1.00  0.00    -0.002 C 
ATOM     14  C   UNL     1     197.682 211.518 214.655  1.00  0.00    -0.069 C 
ATOM     15  C   UNL     1     197.052 211.595 213.285  1.00  0.00     0.039 C 
ATOM     16  C   UNL     1     197.368 212.628 215.630  1.00  0.00     0.039 C 
BRANCH  13  17
ATOM     17  C   UNL     1     198.685 209.260 214.148  1.00  0.00     0.066 CG0
ATOM     18  G   UNL     1     199.944 208.607 213.700  1.00  0.00     0.000 G0
ENDBRANCH  13  17
ENDBRANCH  11  13
ENDBRANCH  10  11
ENDBRANCH   1  10
TORSDOF 0
ENDMDL
MODEL 4
REMARK VINA RESULT:    -3.849      2.555      4.748
REMARK INTER + INTRA:          -5.380
REMARK INTER:                  -4.945
REMARK INTRA:                  -0.435
REMARK UNBOUND:                 0.044
REMARK SMILES CC1=CCC(=C(C)C)C(=O)CC(C)=CCC1
REMARK SMILES IDX 12 1 14 2 13 3 15 4 16 5 2 6 1 7 3 8 11 10 9 11 10 12 5 13
REMARK SMILES IDX 6 14 7 15 8 16 4 17
REMARK H PARENT
REMARK Flexibility Score: 60.00
ROOT
ATOM      1  C   UNL     1     213.320 205.599 216.730  1.00  0.00    -0.070 C 
ATOM      2  C   UNL     1     212.112 205.051 216.404  1.00  0.00    -0.027 C 
ATOM      3  C   UNL     1     214.552 204.741 216.871  1.00  0.00     0.039 C 
ENDROOT
BRANCH   2   4
ATOM      4  C   UNL     1     211.953 203.736 215.629  1.00  0.00     0.032 C 
BRANCH   4   5
ATOM      5  C   UNL     1     212.110 203.912 214.077  1.00  0.00     0.034 C 
BRANCH   5   6
ATOM      6  C   UNL     1     213.543 203.836 213.480  1.00  0.00    -0.077 C 
ATOM      7  C   UNL     1     214.240 202.502 213.412  1.00  0.00     0.039 C 
ATOM      8  C   UNL     1     214.177 204.912 212.926  1.00  0.00    -0.023 CG0
ATOM      9  G   UNL     1     213.580 206.256 213.142  1.00  0.00     0.000 G0
ENDBRANCH   5   6
ENDBRANCH   4   5
ENDBRANCH   2   4
BRANCH   1  10
ATOM     10  C   UNL     1     213.516 207.112 216.586  1.00  0.00     0.111 C 
BRANCH  10  11
ATOM     11  C   UNL     1     213.155 207.651 215.190  1.00  0.00     0.163 C 
ATOM     12  O   UNL     1     212.103 208.335 215.073  1.00  0.00    -0.294 OA
BRANCH  11  13
ATOM     13  C   UNL     1     214.042 207.430 213.981  1.00  0.00    -0.002 C 
ATOM     14  C   UNL     1     214.986 208.326 213.585  1.00  0.00    -0.069 C 
ATOM     15  C   UNL     1     215.721 208.167 212.276  1.00  0.00     0.039 C 
ATOM     16  C   UNL     1     215.291 209.552 214.412  1.00  0.00     0.039 C 
BRANCH  13  17
ATOM     17  C   UNL     1     213.591 206.273 213.136  1.00  0.00     0.066 CG0
ATOM     18  G   UNL     1     214.183 204.924 212.937  1.00  0.00     0.000 G0
ENDBRANCH  13  17
ENDBRANCH  11  13
ENDBRANCH  10  11
ENDBRANCH   1  10
TORSDOF 0
ENDMDL
MODEL 5
REMARK VINA RESULT:    -3.737     13.871     14.828
REMARK INTER + INTRA:          -5.223
REMARK INTER:                  -4.785
REMARK INTRA:                  -0.437
REMARK UNBOUND:                 0.044
REMARK SMILES CC1=CCC(=C(C)C)C(=O)CC(C)=CCC1
REMARK SMILES IDX 12 1 14 2 13 3 15 4 16 5 2 6 1 7 3 8 11 10 9 11 10 12 5 13
REMARK SMILES IDX 6 14 7 15 8 16 4 17
REMARK H PARENT
REMARK Flexibility Score: 60.00
ROOT
ATOM      1  C   UNL     1     198.470 209.834 217.018  1.00  0.00    -0.070 C 
ATOM      2  C   UNL     1     199.379 210.803 216.701  1.00  0.00    -0.027 C 
ATOM      3  C   UNL     1     197.079 209.849 216.436  1.00  0.00     0.039 C 
ENDROOT
BRANCH   2   4
ATOM      4  C   UNL     1     199.342 211.613 215.398  1.00  0.00     0.032 C 
BRANCH   4   5
ATOM      5  C   UNL     1     199.980 210.854 214.181  1.00  0.00     0.034 C 
BRANCH   5   6
ATOM      6  C   UNL     1     199.065 209.902 213.361  1.00  0.00    -0.077 C 
ATOM      7  C   UNL     1     198.012 210.492 212.461  1.00  0.00     0.039 C 
ATOM      8  C   UNL     1     199.226 208.545 213.345  1.00  0.00    -0.023 CG0
ATOM      9  G   UNL     1     200.137 207.942 214.353  1.00  0.00     0.000 G0
ENDBRANCH   5   6
ENDBRANCH   4   5
ENDBRANCH   2   4
BRANCH   1  10
ATOM     10  C   UNL     1     198.961 208.531 217.661  1.00  0.00     0.111 C 
BRANCH  10  11
ATOM     11  C   UNL     1     200.090 207.843 216.872  1.00  0.00     0.163 C 
ATOM     12  O   UNL     1     201.254 207.876 217.356  1.00  0.00    -0.294 OA
BRANCH  11  13
ATOM     13  C   UNL     1     199.837 207.093 215.580  1.00  0.00    -0.002 C 
ATOM     14  C   UNL     1     199.603 205.754 215.538  1.00  0.00    -0.069 C 
ATOM     15  C   UNL     1     199.541 205.007 214.228  1.00  0.00     0.039 C 
ATOM     16  C   UNL     1     199.458 204.948 216.807  1.00  0.00     0.039 C 
BRANCH  13  17
ATOM     17  C   UNL     1     200.134 207.922 214.363  1.00  0.00     0.066 CG0
ATOM     18  G   UNL     1     199.227 208.523 213.350  1.00  0.00     0.000 G0
ENDBRANCH  13  17
ENDBRANCH  11  13
ENDBRANCH  10  11
ENDBRANCH   1  10
TORSDOF 0
ENDMDL
MODEL 6
REMARK VINA RESULT:    -3.730      1.639      3.408
REMARK INTER + INTRA:          -5.213
REMARK INTER:                  -5.267
REMARK INTRA:                   0.055
REMARK UNBOUND:                 0.044
REMARK SMILES CC1=CCC(=C(C)C)C(=O)CC(C)=CCC1
REMARK SMILES IDX 12 1 14 2 13 3 15 4 16 5 2 6 1 7 3 8 11 10 9 11 10 12 5 13
REMARK SMILES IDX 6 14 7 15 8 16 4 17
REMARK H PARENT
REMARK Flexibility Score: 60.00
ROOT
ATOM      1  C   UNL     1     213.780 205.834 213.770  1.00  0.00    -0.070 C 
ATOM      2  C   UNL     1     212.754 205.963 214.663  1.00  0.00    -0.027 C 
ATOM      3  C   UNL     1     214.988 206.734 213.835  1.00  0.00     0.039 C 
ENDROOT
BRANCH   2   4
ATOM      4  C   UNL     1     212.917 206.557 216.068  1.00  0.00     0.032 C 
BRANCH   4   5
ATOM      5  C   UNL     1     213.555 205.554 217.092  1.00  0.00     0.034 C 
BRANCH   5   6
ATOM      6  C   UNL     1     212.721 204.307 217.500  1.00  0.00    -0.077 C 
ATOM      7  C   UNL     1     211.627 204.459 218.525  1.00  0.00     0.039 C 
ATOM      8  C   UNL     1     212.869 203.085 216.908  1.00  0.00    -0.023 CG0
ATOM      9  G   UNL     1     214.050 202.878 216.029  1.00  0.00     0.000 G0
ENDBRANCH   5   6
ENDBRANCH   4   5
ENDBRANCH   2   4
BRANCH   1  10
ATOM     10  C   UNL     1     213.891 204.549 212.941  1.00  0.00     0.111 C 
BRANCH  10  11
ATOM     11  C   UNL     1     213.321 203.307 213.652  1.00  0.00     0.163 C 
ATOM     12  O   UNL     1     212.129 202.979 213.406  1.00  0.00    -0.294 OA
BRANCH  11  13
ATOM     13  C   UNL     1     214.157 202.449 214.581  1.00  0.00    -0.002 C 
ATOM     14  C   UNL     1     214.735 201.282 214.187  1.00  0.00    -0.069 C 
ATOM     15  C   UNL     1     215.401 200.361 215.179  1.00  0.00     0.039 C 
ATOM     16  C   UNL     1     214.677 200.831 212.747  1.00  0.00     0.039 C 
BRANCH  13  17
ATOM     17  C   UNL     1     214.054 202.882 216.015  1.00  0.00     0.066 CG0
ATOM     18  G   UNL     1     212.870 203.058 216.896  1.00  0.00     0.000 G0
ENDBRANCH  13  17
ENDBRANCH  11  13
ENDBRANCH  10  11
ENDBRANCH   1  10
TORSDOF 0
ENDMDL
MODEL 7
REMARK VINA RESULT:    -3.706     12.950     14.718
REMARK INTER + INTRA:          -5.179
REMARK INTER:                  -5.092
REMARK INTRA:                  -0.087
REMARK UNBOUND:                 0.044
REMARK SMILES CC1=CCC(=C(C)C)C(=O)CC(C)=CCC1
REMARK SMILES IDX 12 1 14 2 13 3 15 4 16 5 2 6 1 7 3 8 11 10 9 11 10 12 5 13
REMARK SMILES IDX 6 14 7 15 8 16 4 17
REMARK H PARENT
REMARK Flexibility Score: 60.00
ROOT
ATOM      1  C   UNL     1     198.886 207.739 217.218  1.00  0.00    -0.070 C 
ATOM      2  C   UNL     1     199.850 208.696 217.369  1.00  0.00    -0.027 C 
ATOM      3  C   UNL     1     197.423 208.080 217.341  1.00  0.00     0.039 C 
ENDROOT
BRANCH   2   4
ATOM      4  C   UNL     1     199.615 210.190 217.114  1.00  0.00     0.032 C 
BRANCH   4   5
ATOM      5  C   UNL     1     199.858 210.607 215.620  1.00  0.00     0.034 C 
BRANCH   5   6
ATOM      6  C   UNL     1     198.737 210.296 214.589  1.00  0.00    -0.077 C 
ATOM      7  C   UNL     1     197.533 211.199 214.521  1.00  0.00     0.039 C 
ATOM      8  C   UNL     1     198.827 209.288 213.671  1.00  0.00    -0.023 CG0
ATOM      9  G   UNL     1     199.917 208.291 213.840  1.00  0.00     0.000 G0
ENDBRANCH   5   6
ENDBRANCH   4   5
ENDBRANCH   2   4
BRANCH   1  10
ATOM     10  C   UNL     1     199.255 206.406 216.556  1.00  0.00     0.111 C 
BRANCH  10  11
ATOM     11  C   UNL     1     198.905 206.345 215.058  1.00  0.00     0.163 C 
ATOM     12  O   UNL     1     197.753 205.948 214.735  1.00  0.00    -0.294 OA
BRANCH  11  13
ATOM     13  C   UNL     1     199.872 206.792 213.980  1.00  0.00    -0.002 C 
ATOM     14  C   UNL     1     200.763 205.948 213.392  1.00  0.00    -0.069 C 
ATOM     15  C   UNL     1     201.836 206.461 212.462  1.00  0.00     0.039 C 
ATOM     16  C   UNL     1     200.754 204.470 213.698  1.00  0.00     0.039 C 
BRANCH  13  17
ATOM     17  C   UNL     1     199.922 208.286 213.831  1.00  0.00     0.066 CG0
ATOM     18  G   UNL     1     198.832 209.284 213.664  1.00  0.00     0.000 G0
ENDBRANCH  13  17
ENDBRANCH  11  13
ENDBRANCH  10  11
ENDBRANCH   1  10
TORSDOF 0
ENDMDL
MODEL 8
REMARK VINA RESULT:    -3.705      1.441      4.244
REMARK INTER + INTRA:          -5.177
REMARK INTER:                  -5.115
REMARK INTRA:                  -0.062
REMARK UNBOUND:                 0.044
REMARK SMILES CC1=CCC(=C(C)C)C(=O)CC(C)=CCC1
REMARK SMILES IDX 12 1 14 2 13 3 15 4 16 5 2 6 1 7 3 8 11 10 9 11 10 12 5 13
REMARK SMILES IDX 6 14 7 15 8 16 4 17
REMARK H PARENT
REMARK Flexibility Score: 60.00
ROOT
ATOM      1  C   UNL     1     213.434 204.404 217.375  1.00  0.00    -0.070 C 
ATOM      2  C   UNL     1     212.481 203.439 217.538  1.00  0.00    -0.027 C 
ATOM      3  C   UNL     1     214.902 204.074 217.466  1.00  0.00     0.039 C 
ENDROOT
BRANCH   2   4
ATOM      4  C   UNL     1     212.722 201.948 217.267  1.00  0.00     0.032 C 
BRANCH   4   5
ATOM      5  C   UNL     1     212.483 201.547 215.769  1.00  0.00     0.034 C 
BRANCH   5   6
ATOM      6  C   UNL     1     213.609 201.864 214.745  1.00  0.00    -0.077 C 
ATOM      7  C   UNL     1     214.812 200.961 214.674  1.00  0.00     0.039 C 
ATOM      8  C   UNL     1     213.523 202.879 213.834  1.00  0.00    -0.023 CG0
ATOM      9  G   UNL     1     212.434 203.876 214.005  1.00  0.00     0.000 G0
ENDBRANCH   5   6
ENDBRANCH   4   5
ENDBRANCH   2   4
BRANCH   1  10
ATOM     10  C   UNL     1     213.041 205.739 216.731  1.00  0.00     0.111 C 
BRANCH  10  11
ATOM     11  C   UNL     1     213.424 205.841 215.243  1.00  0.00     0.163 C 
ATOM     12  O   UNL     1     214.570 206.281 214.956  1.00  0.00    -0.294 OA
BRANCH  11  13
ATOM     13  C   UNL     1     212.498 205.385 214.134  1.00  0.00    -0.002 C 
ATOM     14  C   UNL     1     211.642 206.226 213.495  1.00  0.00    -0.069 C 
ATOM     15  C   UNL     1     210.603 205.708 212.530  1.00  0.00     0.039 C 
ATOM     16  C   UNL     1     211.654 207.710 213.775  1.00  0.00     0.039 C 
BRANCH  13  17
ATOM     17  C   UNL     1     212.439 203.889 214.009  1.00  0.00     0.066 CG0
ATOM     18  G   UNL     1     213.519 202.884 213.826  1.00  0.00     0.000 G0
ENDBRANCH  13  17
ENDBRANCH  11  13
ENDBRANCH  10  11
ENDBRANCH   1  10
TORSDOF 0
ENDMDL
MODEL 9
REMARK VINA RESULT:    -3.612     13.697     16.304
REMARK INTER + INTRA:          -5.046
REMARK INTER:                  -4.649
REMARK INTRA:                  -0.398
REMARK UNBOUND:                 0.044
REMARK SMILES CC1=CCC(=C(C)C)C(=O)CC(C)=CCC1
REMARK SMILES IDX 12 1 14 2 13 3 15 4 16 5 2 6 1 7 3 8 11 10 9 11 10 12 5 13
REMARK SMILES IDX 6 14 7 15 8 16 4 17
REMARK H PARENT
REMARK Flexibility Score: 60.00
ROOT
ATOM      1  C   UNL     1     198.820 207.701 213.090  1.00  0.00    -0.070 C 
ATOM      2  C   UNL     1     200.180 207.677 213.210  1.00  0.00    -0.027 C 
ATOM      3  C   UNL     1     197.950 206.755 213.880  1.00  0.00     0.039 C 
ENDROOT
BRANCH   2   4
ATOM      4  C   UNL     1     200.918 207.169 214.456  1.00  0.00     0.032 C 
BRANCH   4   5
ATOM      5  C   UNL     1     201.122 208.279 215.547  1.00  0.00     0.034 C 
BRANCH   5   6
ATOM      6  C   UNL     1     199.955 208.542 216.540  1.00  0.00    -0.077 C 
ATOM      7  C   UNL     1     199.689 207.546 217.638  1.00  0.00     0.039 C 
ATOM      8  C   UNL     1     199.207 209.685 216.525  1.00  0.00    -0.023 CG0
ATOM      9  G   UNL     1     199.342 210.588 215.351  1.00  0.00     0.000 G0
ENDBRANCH   5   6
ENDBRANCH   4   5
ENDBRANCH   2   4
BRANCH   1  10
ATOM     10  C   UNL     1     198.148 208.923 212.453  1.00  0.00     0.111 C 
BRANCH  10  11
ATOM     11  C   UNL     1     198.738 210.265 212.922  1.00  0.00     0.163 C 
ATOM     12  O   UNL     1     199.538 210.862 212.152  1.00  0.00    -0.294 OA
BRANCH  11  13
ATOM     13  C   UNL     1     198.348 210.906 214.239  1.00  0.00    -0.002 C 
ATOM     14  C   UNL     1     197.368 211.843 214.342  1.00  0.00    -0.069 C 
ATOM     15  C   UNL     1     197.131 212.596 215.628  1.00  0.00     0.039 C 
ATOM     16  C   UNL     1     196.516 212.214 213.151  1.00  0.00     0.039 C 
BRANCH  13  17
ATOM     17  C   UNL     1     199.320 210.598 215.342  1.00  0.00     0.066 CG0
ATOM     18  G   UNL     1     199.198 209.709 216.527  1.00  0.00     0.000 G0
ENDBRANCH  13  17
ENDBRANCH  11  13
ENDBRANCH  10  11
ENDBRANCH   1  10
TORSDOF 0
ENDMDL
