MODEL 1
REMARK VINA RESULT:    -5.821      0.000      0.000
REMARK INTER + INTRA:          -7.299
REMARK INTER:                  -7.012
REMARK INTRA:                  -0.287
REMARK UNBOUND:                -0.287
REMARK SMILES O=c1c(O)c(-c2ccc(O)c(O)c2)oc2cc(O)cc(O)c12
REMARK SMILES IDX 5 1 3 2 2 3 1 4 22 5 20 6 19 7 17 8 16 9 15 10 14 11 6 12
REMARK SMILES IDX 7 13 8 14 9 15 13 16 11 17 10 18 12 20 4 22 21 24 18 26
REMARK H PARENT 10 19 12 21 4 23 21 25 18 27
REMARK Flexibility Score: inf
ROOT
ATOM      1  C   UNL     1     -19.313 -10.928  -4.441  1.00  0.00     0.180 A 
ATOM      2  C   UNL     1     -18.698 -11.895  -5.255  1.00  0.00     0.208 A 
ATOM      3  C   UNL     1     -19.181 -12.095  -6.557  1.00  0.00     0.238 A 
ATOM      4  O   UNL     1     -18.579 -12.909  -7.306  1.00  0.00    -0.285 OA
ATOM      5  C   UNL     1     -20.308 -11.369  -7.011  1.00  0.00     0.111 A 
ATOM      6  C   UNL     1     -20.911 -11.523  -8.296  1.00  0.00     0.134 A 
ATOM      7  C   UNL     1     -21.958 -10.673  -8.674  1.00  0.00     0.093 A 
ATOM      8  C   UNL     1     -22.466  -9.719  -7.795  1.00  0.00     0.123 A 
ATOM      9  C   UNL     1     -21.921  -9.596  -6.515  1.00  0.00     0.094 A 
ATOM     10  C   UNL     1     -20.851 -10.403  -6.122  1.00  0.00     0.146 A 
ATOM     11  O   UNL     1     -20.348 -10.239  -4.905  1.00  0.00    -0.452 OA
ENDROOT
BRANCH   1  12
ATOM     12  C   UNL     1     -18.851 -10.650  -3.061  1.00  0.00     0.025 A 
ATOM     13  C   UNL     1     -18.084  -9.511  -2.762  1.00  0.00     0.016 A 
ATOM     14  C   UNL     1     -17.681  -9.256  -1.449  1.00  0.00     0.051 A 
ATOM     15  C   UNL     1     -18.048 -10.123  -0.415  1.00  0.00     0.157 A 
ATOM     16  C   UNL     1     -19.237 -11.507  -2.017  1.00  0.00     0.062 A 
ATOM     17  C   UNL     1     -18.833 -11.253  -0.699  1.00  0.00     0.158 A 
BRANCH  15  18
ATOM     18  O   UNL     1     -17.629  -9.843   0.886  1.00  0.00    -0.504 OA
ATOM     19  H   UNL     1     -17.627 -10.548   1.614  1.00  0.00     0.293 HD
ENDBRANCH  15  18
BRANCH  17  20
ATOM     20  O   UNL     1     -19.210 -12.117   0.328  1.00  0.00    -0.504 OA
ATOM     21  H   UNL     1     -19.717 -11.787   1.141  1.00  0.00     0.293 HD
ENDBRANCH  17  20
ENDBRANCH   1  12
BRANCH   2  22
ATOM     22  O   UNL     1     -17.635 -12.656  -4.762  1.00  0.00    -0.502 OA
ATOM     23  H   UNL     1     -17.359 -12.638  -3.788  1.00  0.00     0.293 HD
ENDBRANCH   2  22
BRANCH   6  24
ATOM     24  O   UNL     1     -20.542 -12.503  -9.223  1.00  0.00    -0.507 OA
ATOM     25  H   UNL     1     -20.269 -12.323 -10.176  1.00  0.00     0.293 HD
ENDBRANCH   6  24
BRANCH   8  26
ATOM     26  O   UNL     1     -23.520  -8.902  -8.198  1.00  0.00    -0.508 OA
ATOM     27  H   UNL     1     -24.213  -8.566  -7.540  1.00  0.00     0.293 HD
ENDBRANCH   8  26
TORSDOF 6
ENDMDL
MODEL 2
REMARK VINA RESULT:    -5.711     10.086     12.310
REMARK INTER + INTRA:          -7.166
REMARK INTER:                  -7.030
REMARK INTRA:                  -0.137
REMARK UNBOUND:                -0.287
REMARK SMILES O=c1c(O)c(-c2ccc(O)c(O)c2)oc2cc(O)cc(O)c12
REMARK SMILES IDX 5 1 3 2 2 3 1 4 22 5 20 6 19 7 17 8 16 9 15 10 14 11 6 12
REMARK SMILES IDX 7 13 8 14 9 15 13 16 11 17 10 18 12 20 4 22 21 24 18 26
REMARK H PARENT 10 19 12 21 4 23 21 25 18 27
REMARK Flexibility Score: inf
ROOT
ATOM      1  C   UNL     1     -20.151  -9.300   5.740  1.00  0.00     0.180 A 
ATOM      2  C   UNL     1     -20.674  -9.459   7.034  1.00  0.00     0.208 A 
ATOM      3  C   UNL     1     -20.365 -10.624   7.755  1.00  0.00     0.238 A 
ATOM      4  O   UNL     1     -20.776 -10.726   8.940  1.00  0.00    -0.285 OA
ATOM      5  C   UNL     1     -19.585 -11.639   7.153  1.00  0.00     0.111 A 
ATOM      6  C   UNL     1     -19.247 -12.881   7.773  1.00  0.00     0.134 A 
ATOM      7  C   UNL     1     -18.380 -13.766   7.121  1.00  0.00     0.093 A 
ATOM      8  C   UNL     1     -17.888 -13.486   5.847  1.00  0.00     0.123 A 
ATOM      9  C   UNL     1     -18.255 -12.300   5.208  1.00  0.00     0.094 A 
ATOM     10  C   UNL     1     -19.088 -11.380   5.848  1.00  0.00     0.146 A 
ATOM     11  O   UNL     1     -19.395 -10.255   5.213  1.00  0.00    -0.452 OA
ENDROOT
BRANCH   1  12
ATOM     12  C   UNL     1     -20.420  -8.093   4.923  1.00  0.00     0.025 A 
ATOM     13  C   UNL     1     -21.726  -7.751   4.534  1.00  0.00     0.016 A 
ATOM     14  C   UNL     1     -21.958  -6.594   3.784  1.00  0.00     0.051 A 
ATOM     15  C   UNL     1     -20.897  -5.759   3.425  1.00  0.00     0.157 A 
ATOM     16  C   UNL     1     -19.358  -7.240   4.581  1.00  0.00     0.062 A 
ATOM     17  C   UNL     1     -19.590  -6.080   3.828  1.00  0.00     0.158 A 
BRANCH  15  18
ATOM     18  O   UNL     1     -21.159  -4.612   2.676  1.00  0.00    -0.504 OA
ATOM     19  H   UNL     1     -21.190  -4.626   1.663  1.00  0.00     0.293 HD
ENDBRANCH  15  18
BRANCH  17  20
ATOM     20  O   UNL     1     -18.527  -5.246   3.481  1.00  0.00    -0.504 OA
ATOM     21  H   UNL     1     -17.799  -5.551   2.846  1.00  0.00     0.293 HD
ENDBRANCH  17  20
ENDBRANCH   1  12
BRANCH   2  22
ATOM     22  O   UNL     1     -21.506  -8.479   7.582  1.00  0.00    -0.502 OA
ATOM     23  H   UNL     1     -21.171  -7.791   8.246  1.00  0.00     0.293 HD
ENDBRANCH   2  22
BRANCH   6  24
ATOM     24  O   UNL     1     -19.753 -13.303   9.007  1.00  0.00    -0.507 OA
ATOM     25  H   UNL     1     -20.641 -13.760   9.141  1.00  0.00     0.293 HD
ENDBRANCH   6  24
BRANCH   8  26
ATOM     26  O   UNL     1     -17.041 -14.397   5.221  1.00  0.00    -0.508 OA
ATOM     27  H   UNL     1     -16.443 -15.019   5.753  1.00  0.00     0.293 HD
ENDBRANCH   8  26
TORSDOF 6
ENDMDL
MODEL 3
REMARK VINA RESULT:    -5.516      5.254      8.820
REMARK INTER + INTRA:          -6.933
REMARK INTER:                  -6.688
REMARK INTRA:                  -0.244
REMARK UNBOUND:                -0.287
REMARK SMILES O=c1c(O)c(-c2ccc(O)c(O)c2)oc2cc(O)cc(O)c12
REMARK SMILES IDX 5 1 3 2 2 3 1 4 22 5 20 6 19 7 17 8 16 9 15 10 14 11 6 12
REMARK SMILES IDX 7 13 8 14 9 15 13 16 11 17 10 18 12 20 4 22 21 24 18 26
REMARK H PARENT 10 19 12 21 4 23 21 25 18 27
REMARK Flexibility Score: inf
ROOT
ATOM      1  C   UNL     1     -17.024 -15.671  -6.836  1.00  0.00     0.180 A 
ATOM      2  C   UNL     1     -16.634 -15.367  -5.520  1.00  0.00     0.208 A 
ATOM      3  C   UNL     1     -15.268 -15.370  -5.197  1.00  0.00     0.238 A 
ATOM      4  O   UNL     1     -14.922 -15.025  -4.037  1.00  0.00    -0.285 OA
ATOM      5  C   UNL     1     -14.312 -15.732  -6.177  1.00  0.00     0.111 A 
ATOM      6  C   UNL     1     -12.905 -15.813  -5.948  1.00  0.00     0.134 A 
ATOM      7  C   UNL     1     -12.045 -16.079  -7.021  1.00  0.00     0.093 A 
ATOM      8  C   UNL     1     -12.543 -16.329  -8.299  1.00  0.00     0.123 A 
ATOM      9  C   UNL     1     -13.920 -16.307  -8.522  1.00  0.00     0.094 A 
ATOM     10  C   UNL     1     -14.802 -16.007  -7.481  1.00  0.00     0.146 A 
ATOM     11  O   UNL     1     -16.103 -15.975  -7.741  1.00  0.00    -0.452 OA
ENDROOT
BRANCH   1  12
ATOM     12  C   UNL     1     -18.444 -15.674  -7.257  1.00  0.00     0.025 A 
ATOM     13  C   UNL     1     -19.144 -16.876  -7.458  1.00  0.00     0.016 A 
ATOM     14  C   UNL     1     -20.491 -16.854  -7.832  1.00  0.00     0.051 A 
ATOM     15  C   UNL     1     -21.160 -15.638  -7.995  1.00  0.00     0.157 A 
ATOM     16  C   UNL     1     -19.125 -14.454  -7.400  1.00  0.00     0.062 A 
ATOM     17  C   UNL     1     -20.476 -14.431  -7.775  1.00  0.00     0.158 A 
BRANCH  15  18
ATOM     18  O   UNL     1     -22.504 -15.647  -8.370  1.00  0.00    -0.504 OA
ATOM     19  H   UNL     1     -23.159 -14.947  -8.043  1.00  0.00     0.293 HD
ENDBRANCH  15  18
BRANCH  17  20
ATOM     20  O   UNL     1     -21.139 -13.214  -7.928  1.00  0.00    -0.504 OA
ATOM     21  H   UNL     1     -21.279 -12.796  -8.841  1.00  0.00     0.293 HD
ENDBRANCH  17  20
ENDBRANCH   1  12
BRANCH   2  22
ATOM     22  O   UNL     1     -17.598 -15.087  -4.548  1.00  0.00    -0.502 OA
ATOM     23  H   UNL     1     -17.357 -14.734  -3.630  1.00  0.00     0.293 HD
ENDBRANCH   2  22
BRANCH   6  24
ATOM     24  O   UNL     1     -12.305 -15.668  -4.693  1.00  0.00    -0.507 OA
ATOM     25  H   UNL     1     -11.437 -16.097  -4.415  1.00  0.00     0.293 HD
ENDBRANCH   6  24
BRANCH   8  26
ATOM     26  O   UNL     1     -11.659 -16.607  -9.339  1.00  0.00    -0.508 OA
ATOM     27  H   UNL     1     -11.559 -17.543  -9.715  1.00  0.00     0.293 HD
ENDBRANCH   8  26
TORSDOF 6
ENDMDL
MODEL 4
REMARK VINA RESULT:    -5.440     11.346     13.602
REMARK INTER + INTRA:          -6.840
REMARK INTER:                  -6.542
REMARK INTRA:                  -0.298
REMARK UNBOUND:                -0.287
REMARK SMILES O=c1c(O)c(-c2ccc(O)c(O)c2)oc2cc(O)cc(O)c12
REMARK SMILES IDX 5 1 3 2 2 3 1 4 22 5 20 6 19 7 17 8 16 9 15 10 14 11 6 12
REMARK SMILES IDX 7 13 8 14 9 15 13 16 11 17 10 18 12 20 4 22 21 24 18 26
REMARK H PARENT 10 19 12 21 4 23 21 25 18 27
REMARK Flexibility Score: inf
ROOT
ATOM      1  C   UNL     1     -21.068  -8.541   7.326  1.00  0.00     0.180 A 
ATOM      2  C   UNL     1     -20.682  -8.225   6.012  1.00  0.00     0.208 A 
ATOM      3  C   UNL     1     -20.207  -6.934   5.735  1.00  0.00     0.238 A 
ATOM      4  O   UNL     1     -19.793  -6.680   4.573  1.00  0.00    -0.285 OA
ATOM      5  C   UNL     1     -20.177  -5.958   6.760  1.00  0.00     0.111 A 
ATOM      6  C   UNL     1     -19.756  -4.605   6.581  1.00  0.00     0.134 A 
ATOM      7  C   UNL     1     -19.668  -3.757   7.692  1.00  0.00     0.093 A 
ATOM      8  C   UNL     1     -20.043  -4.191   8.962  1.00  0.00     0.123 A 
ATOM      9  C   UNL     1     -20.508  -5.496   9.139  1.00  0.00     0.094 A 
ATOM     10  C   UNL     1     -20.571  -6.377   8.058  1.00  0.00     0.146 A 
ATOM     11  O   UNL     1     -20.999  -7.615   8.274  1.00  0.00    -0.452 OA
ENDROOT
BRANCH   1  12
ATOM     12  C   UNL     1     -21.567  -9.886   7.700  1.00  0.00     0.025 A 
ATOM     13  C   UNL     1     -22.943 -10.162   7.771  1.00  0.00     0.016 A 
ATOM     14  C   UNL     1     -23.389 -11.445   8.102  1.00  0.00     0.051 A 
ATOM     15  C   UNL     1     -22.472 -12.470   8.352  1.00  0.00     0.157 A 
ATOM     16  C   UNL     1     -20.648 -10.923   7.930  1.00  0.00     0.062 A 
ATOM     17  C   UNL     1     -21.094 -12.210   8.262  1.00  0.00     0.158 A 
BRANCH  15  18
ATOM     18  O   UNL     1     -22.947 -13.739   8.681  1.00  0.00    -0.504 OA
ATOM     19  H   UNL     1     -23.801 -14.114   8.286  1.00  0.00     0.293 HD
ENDBRANCH  15  18
BRANCH  17  20
ATOM     20  O   UNL     1     -20.174 -13.230   8.502  1.00  0.00    -0.504 OA
ATOM     21  H   UNL     1     -20.406 -14.203   8.338  1.00  0.00     0.293 HD
ENDBRANCH  17  20
ENDBRANCH   1  12
BRANCH   2  22
ATOM     22  O   UNL     1     -20.791  -9.180   4.998  1.00  0.00    -0.502 OA
ATOM     23  H   UNL     1     -20.991  -8.932   4.036  1.00  0.00     0.293 HD
ENDBRANCH   2  22
BRANCH   6  24
ATOM     24  O   UNL     1     -19.442  -4.039   5.342  1.00  0.00    -0.507 OA
ATOM     25  H   UNL     1     -18.730  -4.380   4.715  1.00  0.00     0.293 HD
ENDBRANCH   6  24
BRANCH   8  26
ATOM     26  O   UNL     1     -19.958  -3.315  10.042  1.00  0.00    -0.508 OA
ATOM     27  H   UNL     1     -19.479  -2.426   9.968  1.00  0.00     0.293 HD
ENDBRANCH   8  26
TORSDOF 6
ENDMDL
MODEL 5
REMARK VINA RESULT:    -5.398      3.688      5.131
REMARK INTER + INTRA:          -6.789
REMARK INTER:                  -6.619
REMARK INTRA:                  -0.171
REMARK UNBOUND:                -0.287
REMARK SMILES O=c1c(O)c(-c2ccc(O)c(O)c2)oc2cc(O)cc(O)c12
REMARK SMILES IDX 5 1 3 2 2 3 1 4 22 5 20 6 19 7 17 8 16 9 15 10 14 11 6 12
REMARK SMILES IDX 7 13 8 14 9 15 13 16 11 17 10 18 12 20 4 22 21 24 18 26
REMARK H PARENT 10 19 12 21 4 23 21 25 18 27
REMARK Flexibility Score: inf
ROOT
ATOM      1  C   UNL     1     -17.142 -14.165  -5.306  1.00  0.00     0.180 A 
ATOM      2  C   UNL     1     -17.635 -14.586  -6.553  1.00  0.00     0.208 A 
ATOM      3  C   UNL     1     -18.603 -13.803  -7.202  1.00  0.00     0.238 A 
ATOM      4  O   UNL     1     -18.985 -14.146  -8.351  1.00  0.00    -0.285 OA
ATOM      5  C   UNL     1     -19.107 -12.640  -6.572  1.00  0.00     0.111 A 
ATOM      6  C   UNL     1     -20.120 -11.794  -7.118  1.00  0.00     0.134 A 
ATOM      7  C   UNL     1     -20.465 -10.611  -6.453  1.00  0.00     0.093 A 
ATOM      8  C   UNL     1     -19.879 -10.272  -5.234  1.00  0.00     0.123 A 
ATOM      9  C   UNL     1     -18.927 -11.118  -4.664  1.00  0.00     0.094 A 
ATOM     10  C   UNL     1     -18.535 -12.287  -5.321  1.00  0.00     0.146 A 
ATOM     11  O   UNL     1     -17.610 -13.052  -4.755  1.00  0.00    -0.452 OA
ENDROOT
BRANCH   1  12
ATOM     12  C   UNL     1     -16.111 -14.930  -4.566  1.00  0.00     0.025 A 
ATOM     13  C   UNL     1     -16.370 -16.221  -4.075  1.00  0.00     0.016 A 
ATOM     14  C   UNL     1     -15.373 -16.933  -3.402  1.00  0.00     0.051 A 
ATOM     15  C   UNL     1     -14.105 -16.375  -3.222  1.00  0.00     0.157 A 
ATOM     16  C   UNL     1     -14.828 -14.381  -4.404  1.00  0.00     0.062 A 
ATOM     17  C   UNL     1     -13.828 -15.094  -3.728  1.00  0.00     0.158 A 
BRANCH  15  18
ATOM     18  O   UNL     1     -13.131 -17.109  -2.545  1.00  0.00    -0.504 OA
ATOM     19  H   UNL     1     -12.712 -16.781  -1.682  1.00  0.00     0.293 HD
ENDBRANCH  15  18
BRANCH  17  20
ATOM     20  O   UNL     1     -12.561 -14.535  -3.559  1.00  0.00    -0.504 OA
ATOM     21  H   UNL     1     -12.214 -13.812  -4.179  1.00  0.00     0.293 HD
ENDBRANCH  17  20
ENDBRANCH   1  12
BRANCH   2  22
ATOM     22  O   UNL     1     -17.181 -15.778  -7.123  1.00  0.00    -0.502 OA
ATOM     23  H   UNL     1     -16.438 -15.803  -7.811  1.00  0.00     0.293 HD
ENDBRANCH   2  22
BRANCH   6  24
ATOM     24  O   UNL     1     -20.835 -12.081  -8.286  1.00  0.00    -0.507 OA
ATOM     25  H   UNL     1     -20.771 -11.557  -9.144  1.00  0.00     0.293 HD
ENDBRANCH   6  24
BRANCH   8  26
ATOM     26  O   UNL     1     -20.258  -9.095  -4.592  1.00  0.00    -0.508 OA
ATOM     27  H   UNL     1     -19.898  -8.849  -3.678  1.00  0.00     0.293 HD
ENDBRANCH   8  26
TORSDOF 6
ENDMDL
MODEL 6
REMARK VINA RESULT:    -5.384      5.562      8.819
REMARK INTER + INTRA:          -6.773
REMARK INTER:                  -6.503
REMARK INTRA:                  -0.270
REMARK UNBOUND:                -0.287
REMARK SMILES O=c1c(O)c(-c2ccc(O)c(O)c2)oc2cc(O)cc(O)c12
REMARK SMILES IDX 5 1 3 2 2 3 1 4 22 5 20 6 19 7 17 8 16 9 15 10 14 11 6 12
REMARK SMILES IDX 7 13 8 14 9 15 13 16 11 17 10 18 12 20 4 22 21 24 18 26
REMARK H PARENT 10 19 12 21 4 23 21 25 18 27
REMARK Flexibility Score: inf
ROOT
ATOM      1  C   UNL     1     -17.197 -15.729  -7.083  1.00  0.00     0.180 A 
ATOM      2  C   UNL     1     -16.189 -15.222  -7.920  1.00  0.00     0.208 A 
ATOM      3  C   UNL     1     -14.866 -15.195  -7.452  1.00  0.00     0.238 A 
ATOM      4  O   UNL     1     -13.958 -14.809  -8.233  1.00  0.00    -0.285 OA
ATOM      5  C   UNL     1     -14.575 -15.620  -6.133  1.00  0.00     0.111 A 
ATOM      6  C   UNL     1     -13.277 -15.594  -5.539  1.00  0.00     0.134 A 
ATOM      7  C   UNL     1     -13.091 -16.140  -4.263  1.00  0.00     0.093 A 
ATOM      8  C   UNL     1     -14.163 -16.653  -3.534  1.00  0.00     0.123 A 
ATOM      9  C   UNL     1     -15.446 -16.634  -4.084  1.00  0.00     0.094 A 
ATOM     10  C   UNL     1     -15.658 -16.131  -5.369  1.00  0.00     0.146 A 
ATOM     11  O   UNL     1     -16.890 -16.151  -5.863  1.00  0.00    -0.452 OA
ENDROOT
BRANCH   1  12
ATOM     12  C   UNL     1     -18.614 -15.804  -7.510  1.00  0.00     0.025 A 
ATOM     13  C   UNL     1     -19.210 -17.029  -7.854  1.00  0.00     0.016 A 
ATOM     14  C   UNL     1     -20.556 -17.078  -8.230  1.00  0.00     0.051 A 
ATOM     15  C   UNL     1     -21.326 -15.912  -8.256  1.00  0.00     0.157 A 
ATOM     16  C   UNL     1     -19.397 -14.637  -7.515  1.00  0.00     0.062 A 
ATOM     17  C   UNL     1     -20.746 -14.685  -7.893  1.00  0.00     0.158 A 
BRANCH  15  18
ATOM     18  O   UNL     1     -22.665 -15.992  -8.637  1.00  0.00    -0.504 OA
ATOM     19  H   UNL     1     -23.361 -15.335  -8.302  1.00  0.00     0.293 HD
ENDBRANCH  15  18
BRANCH  17  20
ATOM     20  O   UNL     1     -21.511 -13.519  -7.908  1.00  0.00    -0.504 OA
ATOM     21  H   UNL     1     -22.265 -13.370  -7.248  1.00  0.00     0.293 HD
ENDBRANCH  17  20
ENDBRANCH   1  12
BRANCH   2  22
ATOM     22  O   UNL     1     -16.508 -14.735  -9.190  1.00  0.00    -0.502 OA
ATOM     23  H   UNL     1     -17.224 -15.156  -9.770  1.00  0.00     0.293 HD
ENDBRANCH   2  22
BRANCH   6  24
ATOM     24  O   UNL     1     -12.150 -15.025  -6.141  1.00  0.00    -0.507 OA
ATOM     25  H   UNL     1     -12.060 -14.827  -7.125  1.00  0.00     0.293 HD
ENDBRANCH   6  24
BRANCH   8  26
ATOM     26  O   UNL     1     -13.944 -17.173  -2.261  1.00  0.00    -0.508 OA
ATOM     27  H   UNL     1     -14.658 -17.699  -1.772  1.00  0.00     0.293 HD
ENDBRANCH   8  26
TORSDOF 6
ENDMDL
MODEL 7
REMARK VINA RESULT:    -5.356      1.547      7.093
REMARK INTER + INTRA:          -6.739
REMARK INTER:                  -6.436
REMARK INTRA:                  -0.304
REMARK UNBOUND:                -0.287
REMARK SMILES O=c1c(O)c(-c2ccc(O)c(O)c2)oc2cc(O)cc(O)c12
REMARK SMILES IDX 5 1 3 2 2 3 1 4 22 5 20 6 19 7 17 8 16 9 15 10 14 11 6 12
REMARK SMILES IDX 7 13 8 14 9 15 13 16 11 17 10 18 12 20 4 22 21 24 18 26
REMARK H PARENT 10 19 12 21 4 23 21 25 18 27
REMARK Flexibility Score: inf
ROOT
ATOM      1  C   UNL     1     -19.439 -10.087  -4.629  1.00  0.00     0.180 A 
ATOM      2  C   UNL     1     -18.512  -9.034  -4.547  1.00  0.00     0.208 A 
ATOM      3  C   UNL     1     -17.806  -8.842  -3.348  1.00  0.00     0.238 A 
ATOM      4  O   UNL     1     -16.924  -7.945  -3.306  1.00  0.00    -0.285 OA
ATOM      5  C   UNL     1     -18.076  -9.666  -2.230  1.00  0.00     0.111 A 
ATOM      6  C   UNL     1     -17.453  -9.533  -0.952  1.00  0.00     0.134 A 
ATOM      7  C   UNL     1     -17.722 -10.473   0.049  1.00  0.00     0.093 A 
ATOM      8  C   UNL     1     -18.636 -11.505  -0.157  1.00  0.00     0.123 A 
ATOM      9  C   UNL     1     -19.293 -11.613  -1.384  1.00  0.00     0.094 A 
ATOM     10  C   UNL     1     -19.018 -10.713  -2.416  1.00  0.00     0.146 A 
ATOM     11  O   UNL     1     -19.648 -10.865  -3.574  1.00  0.00    -0.452 OA
ENDROOT
BRANCH   1  12
ATOM     12  C   UNL     1     -20.211 -10.363  -5.863  1.00  0.00     0.025 A 
ATOM     13  C   UNL     1     -19.837 -11.390  -6.746  1.00  0.00     0.016 A 
ATOM     14  C   UNL     1     -20.596 -11.647  -7.891  1.00  0.00     0.051 A 
ATOM     15  C   UNL     1     -21.742 -10.896  -8.164  1.00  0.00     0.157 A 
ATOM     16  C   UNL     1     -21.376  -9.624  -6.128  1.00  0.00     0.062 A 
ATOM     17  C   UNL     1     -22.138  -9.881  -7.276  1.00  0.00     0.158 A 
BRANCH  15  18
ATOM     18  O   UNL     1     -22.479 -11.175  -9.315  1.00  0.00    -0.504 OA
ATOM     19  H   UNL     1     -23.233 -11.851  -9.321  1.00  0.00     0.293 HD
ENDBRANCH  15  18
BRANCH  17  20
ATOM     20  O   UNL     1     -23.285  -9.132  -7.538  1.00  0.00    -0.504 OA
ATOM     21  H   UNL     1     -23.928  -9.387  -8.279  1.00  0.00     0.293 HD
ENDBRANCH  17  20
ENDBRANCH   1  12
BRANCH   2  22
ATOM     22  O   UNL     1     -18.314  -8.184  -5.637  1.00  0.00    -0.502 OA
ATOM     23  H   UNL     1     -17.465  -7.645  -5.760  1.00  0.00     0.293 HD
ENDBRANCH   2  22
BRANCH   6  24
ATOM     24  O   UNL     1     -16.589  -8.488  -0.607  1.00  0.00    -0.507 OA
ATOM     25  H   UNL     1     -16.873  -7.536  -0.437  1.00  0.00     0.293 HD
ENDBRANCH   6  24
BRANCH   8  26
ATOM     26  O   UNL     1     -18.893 -12.413   0.867  1.00  0.00    -0.508 OA
ATOM     27  H   UNL     1     -18.689 -13.401   0.765  1.00  0.00     0.293 HD
ENDBRANCH   8  26
TORSDOF 6
ENDMDL
MODEL 8
REMARK VINA RESULT:    -5.204      4.172      5.966
REMARK INTER + INTRA:          -6.556
REMARK INTER:                  -6.360
REMARK INTRA:                  -0.196
REMARK UNBOUND:                -0.287
REMARK SMILES O=c1c(O)c(-c2ccc(O)c(O)c2)oc2cc(O)cc(O)c12
REMARK SMILES IDX 5 1 3 2 2 3 1 4 22 5 20 6 19 7 17 8 16 9 15 10 14 11 6 12
REMARK SMILES IDX 7 13 8 14 9 15 13 16 11 17 10 18 12 20 4 22 21 24 18 26
REMARK H PARENT 10 19 12 21 4 23 21 25 18 27
REMARK Flexibility Score: inf
ROOT
ATOM      1  C   UNL     1     -17.477 -14.876  -5.971  1.00  0.00     0.180 A 
ATOM      2  C   UNL     1     -17.879 -13.530  -5.940  1.00  0.00     0.208 A 
ATOM      3  C   UNL     1     -18.988 -13.134  -6.705  1.00  0.00     0.238 A 
ATOM      4  O   UNL     1     -19.388 -11.944  -6.615  1.00  0.00    -0.285 OA
ATOM      5  C   UNL     1     -19.643 -14.073  -7.536  1.00  0.00     0.111 A 
ATOM      6  C   UNL     1     -20.749 -13.772  -8.389  1.00  0.00     0.134 A 
ATOM      7  C   UNL     1     -21.385 -14.807  -9.086  1.00  0.00     0.093 A 
ATOM      8  C   UNL     1     -20.921 -16.119  -9.012  1.00  0.00     0.123 A 
ATOM      9  C   UNL     1     -19.807 -16.416  -8.224  1.00  0.00     0.094 A 
ATOM     10  C   UNL     1     -19.174 -15.412  -7.487  1.00  0.00     0.146 A 
ATOM     11  O   UNL     1     -18.131 -15.742  -6.734  1.00  0.00    -0.452 OA
ENDROOT
BRANCH   1  12
ATOM     12  C   UNL     1     -16.327 -15.373  -5.180  1.00  0.00     0.025 A 
ATOM     13  C   UNL     1     -16.504 -16.281  -4.123  1.00  0.00     0.016 A 
ATOM     14  C   UNL     1     -15.402 -16.756  -3.407  1.00  0.00     0.051 A 
ATOM     15  C   UNL     1     -14.109 -16.344  -3.743  1.00  0.00     0.157 A 
ATOM     16  C   UNL     1     -15.025 -14.978  -5.531  1.00  0.00     0.062 A 
ATOM     17  C   UNL     1     -13.918 -15.453  -4.813  1.00  0.00     0.158 A 
BRANCH  15  18
ATOM     18  O   UNL     1     -13.029 -16.833  -3.010  1.00  0.00    -0.504 OA
ATOM     19  H   UNL     1     -12.667 -16.349  -2.196  1.00  0.00     0.293 HD
ENDBRANCH  15  18
BRANCH  17  20
ATOM     20  O   UNL     1     -12.631 -15.044  -5.160  1.00  0.00    -0.504 OA
ATOM     21  H   UNL     1     -12.301 -14.106  -4.965  1.00  0.00     0.293 HD
ENDBRANCH  17  20
ENDBRANCH   1  12
BRANCH   2  22
ATOM     22  O   UNL     1     -17.172 -12.601  -5.173  1.00  0.00    -0.502 OA
ATOM     23  H   UNL     1     -17.354 -11.606  -5.219  1.00  0.00     0.293 HD
ENDBRANCH   2  22
BRANCH   6  24
ATOM     24  O   UNL     1     -21.242 -12.482  -8.607  1.00  0.00    -0.507 OA
ATOM     25  H   UNL     1     -22.061 -12.094  -8.166  1.00  0.00     0.293 HD
ENDBRANCH   6  24
BRANCH   8  26
ATOM     26  O   UNL     1     -21.568 -17.120  -9.732  1.00  0.00    -0.508 OA
ATOM     27  H   UNL     1     -22.553 -17.057  -9.960  1.00  0.00     0.293 HD
ENDBRANCH   8  26
TORSDOF 6
ENDMDL
