MODEL 1
REMARK VINA RESULT:    -6.589      0.000      0.000
REMARK INTER + INTRA:          -8.247
REMARK INTER:                  -7.937
REMARK INTRA:                  -0.311
REMARK UNBOUND:                -0.311
REMARK SMILES O=c1c(O)c(-c2ccc(O)c(O)c2)oc2cc(O)cc(O)c12
REMARK SMILES IDX 5 1 3 2 2 3 1 4 22 5 20 6 19 7 17 8 16 9 15 10 14 11 6 12
REMARK SMILES IDX 7 13 8 14 9 15 13 16 11 17 10 18 12 20 4 22 21 24 18 26
REMARK H PARENT 10 19 12 21 4 23 21 25 18 27
REMARK Flexibility Score: inf
ROOT
ATOM      1  C   UNL     1       4.921 -60.250 190.009  1.00  0.00     0.180 A 
ATOM      2  C   UNL     1       3.572 -60.443 189.665  1.00  0.00     0.208 A 
ATOM      3  C   UNL     1       3.219 -61.559 188.891  1.00  0.00     0.238 A 
ATOM      4  O   UNL     1       2.023 -61.686 188.524  1.00  0.00    -0.285 OA
ATOM      5  C   UNL     1       4.210 -62.501 188.519  1.00  0.00     0.111 A 
ATOM      6  C   UNL     1       3.958 -63.693 187.774  1.00  0.00     0.134 A 
ATOM      7  C   UNL     1       5.034 -64.495 187.372  1.00  0.00     0.093 A 
ATOM      8  C   UNL     1       6.341 -64.186 187.741  1.00  0.00     0.123 A 
ATOM      9  C   UNL     1       6.593 -63.052 188.516  1.00  0.00     0.094 A 
ATOM     10  C   UNL     1       5.547 -62.212 188.900  1.00  0.00     0.146 A 
ATOM     11  O   UNL     1       5.833 -61.133 189.618  1.00  0.00    -0.452 OA
ENDROOT
BRANCH   1  12
ATOM     12  C   UNL     1       5.372 -59.089 190.810  1.00  0.00     0.025 A 
ATOM     13  C   UNL     1       5.658 -59.261 192.173  1.00  0.00     0.016 A 
ATOM     14  C   UNL     1       6.106 -58.185 192.944  1.00  0.00     0.051 A 
ATOM     15  C   UNL     1       6.291 -56.926 192.359  1.00  0.00     0.157 A 
ATOM     16  C   UNL     1       5.579 -57.828 190.222  1.00  0.00     0.062 A 
ATOM     17  C   UNL     1       6.029 -56.749 190.991  1.00  0.00     0.158 A 
BRANCH  15  18
ATOM     18  O   UNL     1       6.735 -55.853 193.131  1.00  0.00    -0.504 OA
ATOM     19  H   UNL     1       6.257 -55.577 193.982  1.00  0.00     0.293 HD
ENDBRANCH  15  18
BRANCH  17  20
ATOM     20  O   UNL     1       6.218 -55.511 190.375  1.00  0.00    -0.504 OA
ATOM     21  H   UNL     1       5.658 -55.211 189.586  1.00  0.00     0.293 HD
ENDBRANCH  17  20
ENDBRANCH   1  12
BRANCH   2  22
ATOM     22  O   UNL     1       2.598 -59.543 190.107  1.00  0.00    -0.502 OA
ATOM     23  H   UNL     1       2.609 -58.562 189.856  1.00  0.00     0.293 HD
ENDBRANCH   2  22
BRANCH   6  24
ATOM     24  O   UNL     1       2.682 -64.146 187.427  1.00  0.00    -0.507 OA
ATOM     25  H   UNL     1       1.829 -63.881 187.895  1.00  0.00     0.293 HD
ENDBRANCH   6  24
BRANCH   8  26
ATOM     26  O   UNL     1       7.385 -65.017 187.338  1.00  0.00    -0.508 OA
ATOM     27  H   UNL     1       8.328 -64.892 187.687  1.00  0.00     0.293 HD
ENDBRANCH   8  26
TORSDOF 6
ENDMDL
MODEL 2
REMARK VINA RESULT:    -6.290      1.524      6.672
REMARK INTER + INTRA:          -7.888
REMARK INTER:                  -8.039
REMARK INTRA:                   0.151
REMARK UNBOUND:                -0.311
REMARK SMILES O=c1c(O)c(-c2ccc(O)c(O)c2)oc2cc(O)cc(O)c12
REMARK SMILES IDX 5 1 3 2 2 3 1 4 22 5 20 6 19 7 17 8 16 9 15 10 14 11 6 12
REMARK SMILES IDX 7 13 8 14 9 15 13 16 11 17 10 18 12 20 4 22 21 24 18 26
REMARK H PARENT 10 19 12 21 4 23 21 25 18 27
REMARK Flexibility Score: inf
ROOT
ATOM      1  C   UNL     1       5.120 -60.998 189.669  1.00  0.00     0.180 A 
ATOM      2  C   UNL     1       3.944 -60.353 189.247  1.00  0.00     0.208 A 
ATOM      3  C   UNL     1       3.470 -59.255 189.980  1.00  0.00     0.238 A 
ATOM      4  O   UNL     1       2.378 -58.729 189.641  1.00  0.00    -0.285 OA
ATOM      5  C   UNL     1       4.206 -58.778 191.092  1.00  0.00     0.111 A 
ATOM      6  C   UNL     1       3.842 -57.645 191.881  1.00  0.00     0.134 A 
ATOM      7  C   UNL     1       4.590 -57.331 193.024  1.00  0.00     0.093 A 
ATOM      8  C   UNL     1       5.721 -58.067 193.370  1.00  0.00     0.123 A 
ATOM      9  C   UNL     1       6.117 -59.144 192.574  1.00  0.00     0.094 A 
ATOM     10  C   UNL     1       5.371 -59.505 191.451  1.00  0.00     0.146 A 
ATOM     11  O   UNL     1       5.771 -60.549 190.734  1.00  0.00    -0.452 OA
ENDROOT
BRANCH   1  12
ATOM     12  C   UNL     1       5.674 -62.172 188.955  1.00  0.00     0.025 A 
ATOM     13  C   UNL     1       7.066 -62.340 188.880  1.00  0.00     0.016 A 
ATOM     14  C   UNL     1       7.611 -63.450 188.231  1.00  0.00     0.051 A 
ATOM     15  C   UNL     1       6.773 -64.418 187.663  1.00  0.00     0.157 A 
ATOM     16  C   UNL     1       4.836 -63.156 188.401  1.00  0.00     0.062 A 
ATOM     17  C   UNL     1       5.379 -64.271 187.752  1.00  0.00     0.158 A 
BRANCH  15  18
ATOM     18  O   UNL     1       7.320 -65.524 187.013  1.00  0.00    -0.504 OA
ATOM     19  H   UNL     1       6.741 -66.294 186.697  1.00  0.00     0.293 HD
ENDBRANCH  15  18
BRANCH  17  20
ATOM     20  O   UNL     1       4.518 -65.225 187.209  1.00  0.00    -0.504 OA
ATOM     21  H   UNL     1       4.028 -65.898 187.786  1.00  0.00     0.293 HD
ENDBRANCH  17  20
ENDBRANCH   1  12
BRANCH   2  22
ATOM     22  O   UNL     1       3.274 -60.791 188.101  1.00  0.00    -0.502 OA
ATOM     23  H   UNL     1       2.278 -60.661 187.970  1.00  0.00     0.293 HD
ENDBRANCH   2  22
BRANCH   6  24
ATOM     24  O   UNL     1       2.782 -56.786 191.578  1.00  0.00    -0.507 OA
ATOM     25  H   UNL     1       1.885 -56.791 192.039  1.00  0.00     0.293 HD
ENDBRANCH   6  24
BRANCH   8  26
ATOM     26  O   UNL     1       6.451 -57.715 194.503  1.00  0.00    -0.508 OA
ATOM     27  H   UNL     1       7.174 -58.320 194.878  1.00  0.00     0.293 HD
ENDBRANCH   8  26
TORSDOF 6
ENDMDL
MODEL 3
REMARK VINA RESULT:    -6.261      1.542      3.297
REMARK INTER + INTRA:          -7.853
REMARK INTER:                  -7.718
REMARK INTRA:                  -0.135
REMARK UNBOUND:                -0.311
REMARK SMILES O=c1c(O)c(-c2ccc(O)c(O)c2)oc2cc(O)cc(O)c12
REMARK SMILES IDX 5 1 3 2 2 3 1 4 22 5 20 6 19 7 17 8 16 9 15 10 14 11 6 12
REMARK SMILES IDX 7 13 8 14 9 15 13 16 11 17 10 18 12 20 4 22 21 24 18 26
REMARK H PARENT 10 19 12 21 4 23 21 25 18 27
REMARK Flexibility Score: inf
ROOT
ATOM      1  C   UNL     1       5.734 -61.043 189.937  1.00  0.00     0.180 A 
ATOM      2  C   UNL     1       6.981 -61.692 189.913  1.00  0.00     0.208 A 
ATOM      3  C   UNL     1       7.122 -62.868 189.161  1.00  0.00     0.238 A 
ATOM      4  O   UNL     1       8.218 -63.484 189.203  1.00  0.00    -0.285 OA
ATOM      5  C   UNL     1       6.032 -63.351 188.396  1.00  0.00     0.111 A 
ATOM      6  C   UNL     1       6.076 -64.508 187.560  1.00  0.00     0.134 A 
ATOM      7  C   UNL     1       4.904 -64.952 186.934  1.00  0.00     0.093 A 
ATOM      8  C   UNL     1       3.709 -64.247 187.059  1.00  0.00     0.123 A 
ATOM      9  C   UNL     1       3.668 -63.083 187.829  1.00  0.00     0.094 A 
ATOM     10  C   UNL     1       4.809 -62.637 188.496  1.00  0.00     0.146 A 
ATOM     11  O   UNL     1       4.721 -61.537 189.235  1.00  0.00    -0.452 OA
ENDROOT
BRANCH   1  12
ATOM     12  C   UNL     1       5.504 -59.806 190.718  1.00  0.00     0.025 A 
ATOM     13  C   UNL     1       5.045 -58.652 190.064  1.00  0.00     0.016 A 
ATOM     14  C   UNL     1       4.801 -57.480 190.785  1.00  0.00     0.051 A 
ATOM     15  C   UNL     1       4.994 -57.449 192.171  1.00  0.00     0.157 A 
ATOM     16  C   UNL     1       5.677 -59.778 192.114  1.00  0.00     0.062 A 
ATOM     17  C   UNL     1       5.431 -58.606 192.838  1.00  0.00     0.158 A 
BRANCH  15  18
ATOM     18  O   UNL     1       4.752 -56.278 192.887  1.00  0.00    -0.504 OA
ATOM     19  H   UNL     1       5.453 -55.550 192.967  1.00  0.00     0.293 HD
ENDBRANCH  15  18
BRANCH  17  20
ATOM     20  O   UNL     1       5.618 -58.612 194.221  1.00  0.00    -0.504 OA
ATOM     21  H   UNL     1       5.725 -59.472 194.746  1.00  0.00     0.293 HD
ENDBRANCH  17  20
ENDBRANCH   1  12
BRANCH   2  22
ATOM     22  O   UNL     1       8.066 -61.156 190.613  1.00  0.00    -0.502 OA
ATOM     23  H   UNL     1       8.923 -61.673 190.765  1.00  0.00     0.293 HD
ENDBRANCH   2  22
BRANCH   6  24
ATOM     24  O   UNL     1       7.238 -65.239 187.293  1.00  0.00    -0.507 OA
ATOM     25  H   UNL     1       7.333 -65.923 186.559  1.00  0.00     0.293 HD
ENDBRANCH   6  24
BRANCH   8  26
ATOM     26  O   UNL     1       2.567 -64.708 186.407  1.00  0.00    -0.508 OA
ATOM     27  H   UNL     1       2.485 -65.669 186.094  1.00  0.00     0.293 HD
ENDBRANCH   8  26
TORSDOF 6
ENDMDL
MODEL 4
REMARK VINA RESULT:    -6.228      2.319      6.854
REMARK INTER + INTRA:          -7.814
REMARK INTER:                  -7.615
REMARK INTRA:                  -0.198
REMARK UNBOUND:                -0.311
REMARK SMILES O=c1c(O)c(-c2ccc(O)c(O)c2)oc2cc(O)cc(O)c12
REMARK SMILES IDX 5 1 3 2 2 3 1 4 22 5 20 6 19 7 17 8 16 9 15 10 14 11 6 12
REMARK SMILES IDX 7 13 8 14 9 15 13 16 11 17 10 18 12 20 4 22 21 24 18 26
REMARK H PARENT 10 19 12 21 4 23 21 25 18 27
REMARK Flexibility Score: inf
ROOT
ATOM      1  C   UNL     1       5.246 -59.468 190.910  1.00  0.00     0.180 A 
ATOM      2  C   UNL     1       3.850 -59.536 191.063  1.00  0.00     0.208 A 
ATOM      3  C   UNL     1       3.162 -58.410 191.543  1.00  0.00     0.238 A 
ATOM      4  O   UNL     1       1.924 -58.502 191.748  1.00  0.00    -0.285 OA
ATOM      5  C   UNL     1       3.869 -57.213 191.810  1.00  0.00     0.111 A 
ATOM      6  C   UNL     1       3.268 -55.997 192.257  1.00  0.00     0.134 A 
ATOM      7  C   UNL     1       4.081 -54.906 192.591  1.00  0.00     0.093 A 
ATOM      8  C   UNL     1       5.465 -54.965 192.435  1.00  0.00     0.123 A 
ATOM      9  C   UNL     1       6.059 -56.130 191.946  1.00  0.00     0.094 A 
ATOM     10  C   UNL     1       5.278 -57.246 191.640  1.00  0.00     0.146 A 
ATOM     11  O   UNL     1       5.886 -58.341 191.199  1.00  0.00    -0.452 OA
ENDROOT
BRANCH   1  12
ATOM     12  C   UNL     1       6.042 -60.618 190.423  1.00  0.00     0.025 A 
ATOM     13  C   UNL     1       5.923 -61.021 189.084  1.00  0.00     0.016 A 
ATOM     14  C   UNL     1       6.681 -62.089 188.596  1.00  0.00     0.051 A 
ATOM     15  C   UNL     1       7.580 -62.759 189.436  1.00  0.00     0.157 A 
ATOM     16  C   UNL     1       6.962 -61.279 191.257  1.00  0.00     0.062 A 
ATOM     17  C   UNL     1       7.723 -62.348 190.771  1.00  0.00     0.158 A 
BRANCH  15  18
ATOM     18  O   UNL     1       8.332 -63.826 188.947  1.00  0.00    -0.504 OA
ATOM     19  H   UNL     1       8.573 -64.618 189.533  1.00  0.00     0.293 HD
ENDBRANCH  15  18
BRANCH  17  20
ATOM     20  O   UNL     1       8.621 -62.984 191.628  1.00  0.00    -0.504 OA
ATOM     21  H   UNL     1       8.311 -63.558 192.403  1.00  0.00     0.293 HD
ENDBRANCH  17  20
ENDBRANCH   1  12
BRANCH   2  22
ATOM     22  O   UNL     1       3.161 -60.702 190.720  1.00  0.00    -0.502 OA
ATOM     23  H   UNL     1       3.288 -61.575 191.218  1.00  0.00     0.293 HD
ENDBRANCH   2  22
BRANCH   6  24
ATOM     24  O   UNL     1       1.888 -55.798 192.365  1.00  0.00    -0.507 OA
ATOM     25  H   UNL     1       1.210 -56.529 192.521  1.00  0.00     0.293 HD
ENDBRANCH   6  24
BRANCH   8  26
ATOM     26  O   UNL     1       6.242 -53.855 192.761  1.00  0.00    -0.508 OA
ATOM     27  H   UNL     1       6.979 -53.908 193.454  1.00  0.00     0.293 HD
ENDBRANCH   8  26
TORSDOF 6
ENDMDL
MODEL 5
REMARK VINA RESULT:    -6.204      1.937      6.704
REMARK INTER + INTRA:          -7.785
REMARK INTER:                  -8.120
REMARK INTRA:                   0.335
REMARK UNBOUND:                -0.311
REMARK SMILES O=c1c(O)c(-c2ccc(O)c(O)c2)oc2cc(O)cc(O)c12
REMARK SMILES IDX 5 1 3 2 2 3 1 4 22 5 20 6 19 7 17 8 16 9 15 10 14 11 6 12
REMARK SMILES IDX 7 13 8 14 9 15 13 16 11 17 10 18 12 20 4 22 21 24 18 26
REMARK H PARENT 10 19 12 21 4 23 21 25 18 27
REMARK Flexibility Score: inf
ROOT
ATOM      1  C   UNL     1       5.263 -60.276 190.698  1.00  0.00     0.180 A 
ATOM      2  C   UNL     1       3.860 -60.205 190.712  1.00  0.00     0.208 A 
ATOM      3  C   UNL     1       3.238 -59.169 191.426  1.00  0.00     0.238 A 
ATOM      4  O   UNL     1       1.982 -59.153 191.496  1.00  0.00    -0.285 OA
ATOM      5  C   UNL     1       4.026 -58.184 192.069  1.00  0.00     0.111 A 
ATOM      6  C   UNL     1       3.502 -57.064 192.784  1.00  0.00     0.134 A 
ATOM      7  C   UNL     1       4.377 -56.213 193.471  1.00  0.00     0.093 A 
ATOM      8  C   UNL     1       5.757 -56.402 193.418  1.00  0.00     0.123 A 
ATOM      9  C   UNL     1       6.283 -57.462 192.677  1.00  0.00     0.094 A 
ATOM     10  C   UNL     1       5.435 -58.350 192.013  1.00  0.00     0.146 A 
ATOM     11  O   UNL     1       5.976 -59.357 191.338  1.00  0.00    -0.452 OA
ENDROOT
BRANCH   1  12
ATOM     12  C   UNL     1       5.991 -61.348 189.979  1.00  0.00     0.025 A 
ATOM     13  C   UNL     1       5.422 -61.915 188.828  1.00  0.00     0.016 A 
ATOM     14  C   UNL     1       6.100 -62.911 188.121  1.00  0.00     0.051 A 
ATOM     15  C   UNL     1       7.363 -63.343 188.544  1.00  0.00     0.157 A 
ATOM     16  C   UNL     1       7.269 -61.769 190.389  1.00  0.00     0.062 A 
ATOM     17  C   UNL     1       7.951 -62.765 189.681  1.00  0.00     0.158 A 
BRANCH  15  18
ATOM     18  O   UNL     1       8.035 -64.340 187.838  1.00  0.00    -0.504 OA
ATOM     19  H   UNL     1       7.766 -65.314 187.910  1.00  0.00     0.293 HD
ENDBRANCH  15  18
BRANCH  17  20
ATOM     20  O   UNL     1       9.214 -63.163 190.120  1.00  0.00    -0.504 OA
ATOM     21  H   UNL     1       9.370 -64.056 190.572  1.00  0.00     0.293 HD
ENDBRANCH  17  20
ENDBRANCH   1  12
BRANCH   2  22
ATOM     22  O   UNL     1       3.100 -61.142 190.006  1.00  0.00    -0.502 OA
ATOM     23  H   UNL     1       2.534 -60.891 189.204  1.00  0.00     0.293 HD
ENDBRANCH   2  22
BRANCH   6  24
ATOM     24  O   UNL     1       2.146 -56.728 192.830  1.00  0.00    -0.507 OA
ATOM     25  H   UNL     1       1.778 -55.795 192.722  1.00  0.00     0.293 HD
ENDBRANCH   6  24
BRANCH   8  26
ATOM     26  O   UNL     1       6.599 -55.526 194.100  1.00  0.00    -0.508 OA
ATOM     27  H   UNL     1       7.541 -55.336 193.777  1.00  0.00     0.293 HD
ENDBRANCH   8  26
TORSDOF 6
ENDMDL
MODEL 6
REMARK VINA RESULT:    -6.024      9.770     12.027
REMARK INTER + INTRA:          -7.567
REMARK INTER:                  -7.387
REMARK INTRA:                  -0.180
REMARK UNBOUND:                -0.311
REMARK SMILES O=c1c(O)c(-c2ccc(O)c(O)c2)oc2cc(O)cc(O)c12
REMARK SMILES IDX 5 1 3 2 2 3 1 4 22 5 20 6 19 7 17 8 16 9 15 10 14 11 6 12
REMARK SMILES IDX 7 13 8 14 9 15 13 16 11 17 10 18 12 20 4 22 21 24 18 26
REMARK H PARENT 10 19 12 21 4 23 21 25 18 27
REMARK Flexibility Score: inf
ROOT
ATOM      1  C   UNL     1      11.508 -56.271 197.411  1.00  0.00     0.180 A 
ATOM      2  C   UNL     1      10.622 -56.256 196.320  1.00  0.00     0.208 A 
ATOM      3  C   UNL     1      11.082 -55.799 195.075  1.00  0.00     0.238 A 
ATOM      4  O   UNL     1      10.265 -55.719 194.122  1.00  0.00    -0.285 OA
ATOM      5  C   UNL     1      12.436 -55.415 194.922  1.00  0.00     0.111 A 
ATOM      6  C   UNL     1      13.023 -54.979 193.695  1.00  0.00     0.134 A 
ATOM      7  C   UNL     1      14.347 -54.521 193.687  1.00  0.00     0.093 A 
ATOM      8  C   UNL     1      15.125 -54.546 194.844  1.00  0.00     0.123 A 
ATOM      9  C   UNL     1      14.578 -55.023 196.036  1.00  0.00     0.094 A 
ATOM     10  C   UNL     1      13.250 -55.449 196.085  1.00  0.00     0.146 A 
ATOM     11  O   UNL     1      12.764 -55.874 197.245  1.00  0.00    -0.452 OA
ENDROOT
BRANCH   1  12
ATOM     12  C   UNL     1      11.092 -56.726 198.758  1.00  0.00     0.025 A 
ATOM     13  C   UNL     1      10.143 -55.981 199.475  1.00  0.00     0.016 A 
ATOM     14  C   UNL     1       9.720 -56.404 200.738  1.00  0.00     0.051 A 
ATOM     15  C   UNL     1      10.225 -57.585 201.294  1.00  0.00     0.157 A 
ATOM     16  C   UNL     1      11.582 -57.923 199.311  1.00  0.00     0.062 A 
ATOM     17  C   UNL     1      11.158 -58.350 200.574  1.00  0.00     0.158 A 
BRANCH  15  18
ATOM     18  O   UNL     1       9.803 -58.003 202.556  1.00  0.00    -0.504 OA
ATOM     19  H   UNL     1      10.421 -58.502 203.184  1.00  0.00     0.293 HD
ENDBRANCH  15  18
BRANCH  17  20
ATOM     20  O   UNL     1      11.669 -59.539 201.094  1.00  0.00    -0.504 OA
ATOM     21  H   UNL     1      12.447 -59.553 201.743  1.00  0.00     0.293 HD
ENDBRANCH  17  20
ENDBRANCH   1  12
BRANCH   2  22
ATOM     22  O   UNL     1       9.310 -56.713 196.473  1.00  0.00    -0.502 OA
ATOM     23  H   UNL     1       9.000 -57.213 197.299  1.00  0.00     0.293 HD
ENDBRANCH   2  22
BRANCH   6  24
ATOM     24  O   UNL     1      12.365 -54.996 192.462  1.00  0.00    -0.507 OA
ATOM     25  H   UNL     1      11.955 -54.190 192.015  1.00  0.00     0.293 HD
ENDBRANCH   6  24
BRANCH   8  26
ATOM     26  O   UNL     1      16.444 -54.100 194.795  1.00  0.00    -0.508 OA
ATOM     27  H   UNL     1      16.670 -53.129 194.611  1.00  0.00     0.293 HD
ENDBRANCH   8  26
TORSDOF 6
ENDMDL
MODEL 7
REMARK VINA RESULT:    -6.008      2.020      2.610
REMARK INTER + INTRA:          -7.548
REMARK INTER:                  -7.218
REMARK INTRA:                  -0.330
REMARK UNBOUND:                -0.311
REMARK SMILES O=c1c(O)c(-c2ccc(O)c(O)c2)oc2cc(O)cc(O)c12
REMARK SMILES IDX 5 1 3 2 2 3 1 4 22 5 20 6 19 7 17 8 16 9 15 10 14 11 6 12
REMARK SMILES IDX 7 13 8 14 9 15 13 16 11 17 10 18 12 20 4 22 21 24 18 26
REMARK H PARENT 10 19 12 21 4 23 21 25 18 27
REMARK Flexibility Score: inf
ROOT
ATOM      1  C   UNL     1       5.117 -59.187 191.737  1.00  0.00     0.180 A 
ATOM      2  C   UNL     1       4.119 -59.368 190.764  1.00  0.00     0.208 A 
ATOM      3  C   UNL     1       4.300 -60.350 189.778  1.00  0.00     0.238 A 
ATOM      4  O   UNL     1       3.438 -60.457 188.867  1.00  0.00    -0.285 OA
ATOM      5  C   UNL     1       5.449 -61.177 189.809  1.00  0.00     0.111 A 
ATOM      6  C   UNL     1       5.714 -62.234 188.886  1.00  0.00     0.134 A 
ATOM      7  C   UNL     1       6.936 -62.916 188.949  1.00  0.00     0.093 A 
ATOM      8  C   UNL     1       7.873 -62.625 189.938  1.00  0.00     0.123 A 
ATOM      9  C   UNL     1       7.601 -61.631 190.880  1.00  0.00     0.094 A 
ATOM     10  C   UNL     1       6.409 -60.907 190.820  1.00  0.00     0.146 A 
ATOM     11  O   UNL     1       6.199 -59.956 191.721  1.00  0.00    -0.452 OA
ENDROOT
BRANCH   1  12
ATOM     12  C   UNL     1       5.004 -58.162 192.801  1.00  0.00     0.025 A 
ATOM     13  C   UNL     1       4.418 -58.505 194.029  1.00  0.00     0.016 A 
ATOM     14  C   UNL     1       4.320 -57.561 195.054  1.00  0.00     0.051 A 
ATOM     15  C   UNL     1       4.823 -56.266 194.873  1.00  0.00     0.157 A 
ATOM     16  C   UNL     1       5.527 -56.867 192.630  1.00  0.00     0.062 A 
ATOM     17  C   UNL     1       5.432 -55.921 193.656  1.00  0.00     0.158 A 
BRANCH  15  18
ATOM     18  O   UNL     1       4.721 -55.325 195.897  1.00  0.00    -0.504 OA
ATOM     19  H   UNL     1       3.841 -54.876 196.119  1.00  0.00     0.293 HD
ENDBRANCH  15  18
BRANCH  17  20
ATOM     20  O   UNL     1       5.956 -54.644 193.450  1.00  0.00    -0.504 OA
ATOM     21  H   UNL     1       5.363 -53.830 193.340  1.00  0.00     0.293 HD
ENDBRANCH  17  20
ENDBRANCH   1  12
BRANCH   2  22
ATOM     22  O   UNL     1       2.956 -58.594 190.797  1.00  0.00    -0.502 OA
ATOM     23  H   UNL     1       2.971 -57.585 190.713  1.00  0.00     0.293 HD
ENDBRANCH   2  22
BRANCH   6  24
ATOM     24  O   UNL     1       4.811 -62.669 187.911  1.00  0.00    -0.507 OA
ATOM     25  H   UNL     1       4.524 -63.626 187.776  1.00  0.00     0.293 HD
ENDBRANCH   6  24
BRANCH   8  26
ATOM     26  O   UNL     1       9.071 -63.336 189.982  1.00  0.00    -0.508 OA
ATOM     27  H   UNL     1       9.204 -64.186 189.447  1.00  0.00     0.293 HD
ENDBRANCH   8  26
TORSDOF 6
ENDMDL
MODEL 8
REMARK VINA RESULT:    -5.460     10.148     12.008
REMARK INTER + INTRA:          -6.888
REMARK INTER:                  -6.575
REMARK INTRA:                  -0.313
REMARK UNBOUND:                -0.311
REMARK SMILES O=c1c(O)c(-c2ccc(O)c(O)c2)oc2cc(O)cc(O)c12
REMARK SMILES IDX 5 1 3 2 2 3 1 4 22 5 20 6 19 7 17 8 16 9 15 10 14 11 6 12
REMARK SMILES IDX 7 13 8 14 9 15 13 16 11 17 10 18 12 20 4 22 21 24 18 26
REMARK H PARENT 10 19 12 21 4 23 21 25 18 27
REMARK Flexibility Score: inf
ROOT
ATOM      1  C   UNL     1      12.064 -55.582 196.726  1.00  0.00     0.180 A 
ATOM      2  C   UNL     1      10.778 -55.361 196.201  1.00  0.00     0.208 A 
ATOM      3  C   UNL     1       9.667 -55.895 196.873  1.00  0.00     0.238 A 
ATOM      4  O   UNL     1       8.528 -55.757 196.358  1.00  0.00    -0.285 OA
ATOM      5  C   UNL     1       9.849 -56.593 198.091  1.00  0.00     0.111 A 
ATOM      6  C   UNL     1       8.790 -57.138 198.880  1.00  0.00     0.134 A 
ATOM      7  C   UNL     1       9.097 -57.903 200.013  1.00  0.00     0.093 A 
ATOM      8  C   UNL     1      10.416 -58.088 200.422  1.00  0.00     0.123 A 
ATOM      9  C   UNL     1      11.456 -57.514 199.688  1.00  0.00     0.094 A 
ATOM     10  C   UNL     1      11.185 -56.779 198.533  1.00  0.00     0.146 A 
ATOM     11  O   UNL     1      12.205 -56.268 197.854  1.00  0.00    -0.452 OA
ENDROOT
BRANCH   1  12
ATOM     12  C   UNL     1      13.284 -55.063 196.067  1.00  0.00     0.025 A 
ATOM     13  C   UNL     1      13.701 -53.748 196.325  1.00  0.00     0.016 A 
ATOM     14  C   UNL     1      14.862 -53.244 195.731  1.00  0.00     0.051 A 
ATOM     15  C   UNL     1      15.631 -54.053 194.886  1.00  0.00     0.157 A 
ATOM     16  C   UNL     1      14.071 -55.879 195.234  1.00  0.00     0.062 A 
ATOM     17  C   UNL     1      15.234 -55.378 194.640  1.00  0.00     0.158 A 
BRANCH  15  18
ATOM     18  O   UNL     1      16.787 -53.547 194.292  1.00  0.00    -0.504 OA
ATOM     19  H   UNL     1      17.509 -53.092 194.839  1.00  0.00     0.293 HD
ENDBRANCH  15  18
BRANCH  17  20
ATOM     20  O   UNL     1      15.987 -56.213 193.814  1.00  0.00    -0.504 OA
ATOM     21  H   UNL     1      15.555 -56.869 193.174  1.00  0.00     0.293 HD
ENDBRANCH  17  20
ENDBRANCH   1  12
BRANCH   2  22
ATOM     22  O   UNL     1      10.615 -54.603 195.039  1.00  0.00    -0.502 OA
ATOM     23  H   UNL     1      11.177 -53.784 194.839  1.00  0.00     0.293 HD
ENDBRANCH   2  22
BRANCH   6  24
ATOM     24  O   UNL     1       7.432 -56.940 198.614  1.00  0.00    -0.507 OA
ATOM     25  H   UNL     1       6.927 -56.086 198.795  1.00  0.00     0.293 HD
ENDBRANCH   6  24
BRANCH   8  26
ATOM     26  O   UNL     1      10.684 -58.840 201.564  1.00  0.00    -0.508 OA
ATOM     27  H   UNL     1      11.051 -58.413 202.407  1.00  0.00     0.293 HD
ENDBRANCH   8  26
TORSDOF 6
ENDMDL
MODEL 9
REMARK VINA RESULT:    -5.394      1.478      2.347
REMARK INTER + INTRA:          -6.808
REMARK INTER:                  -6.487
REMARK INTRA:                  -0.321
REMARK UNBOUND:                -0.311
REMARK SMILES O=c1c(O)c(-c2ccc(O)c(O)c2)oc2cc(O)cc(O)c12
REMARK SMILES IDX 5 1 3 2 2 3 1 4 22 5 20 6 19 7 17 8 16 9 15 10 14 11 6 12
REMARK SMILES IDX 7 13 8 14 9 15 13 16 11 17 10 18 12 20 4 22 21 24 18 26
REMARK H PARENT 10 19 12 21 4 23 21 25 18 27
REMARK Flexibility Score: inf
ROOT
ATOM      1  C   UNL     1       4.869 -58.454 190.550  1.00  0.00     0.180 A 
ATOM      2  C   UNL     1       3.534 -58.452 190.110  1.00  0.00     0.208 A 
ATOM      3  C   UNL     1       3.054 -59.556 189.387  1.00  0.00     0.238 A 
ATOM      4  O   UNL     1       1.882 -59.516 188.933  1.00  0.00    -0.285 OA
ATOM      5  C   UNL     1       3.897 -60.671 189.162  1.00  0.00     0.111 A 
ATOM      6  C   UNL     1       3.502 -61.862 188.480  1.00  0.00     0.134 A 
ATOM      7  C   UNL     1       4.454 -62.857 188.221  1.00  0.00     0.093 A 
ATOM      8  C   UNL     1       5.766 -62.735 188.675  1.00  0.00     0.123 A 
ATOM      9  C   UNL     1       6.149 -61.599 189.390  1.00  0.00     0.094 A 
ATOM     10  C   UNL     1       5.233 -60.572 189.630  1.00  0.00     0.146 A 
ATOM     11  O   UNL     1       5.645 -59.500 190.296  1.00  0.00    -0.452 OA
ENDROOT
BRANCH   1  12
ATOM     12  C   UNL     1       5.450 -57.320 191.306  1.00  0.00     0.025 A 
ATOM     13  C   UNL     1       5.997 -56.233 190.607  1.00  0.00     0.016 A 
ATOM     14  C   UNL     1       6.531 -55.143 191.299  1.00  0.00     0.051 A 
ATOM     15  C   UNL     1       6.511 -55.116 192.699  1.00  0.00     0.157 A 
ATOM     16  C   UNL     1       5.413 -57.280 192.712  1.00  0.00     0.062 A 
ATOM     17  C   UNL     1       5.945 -56.189 193.407  1.00  0.00     0.158 A 
BRANCH  15  18
ATOM     18  O   UNL     1       7.047 -54.028 193.387  1.00  0.00    -0.504 OA
ATOM     19  H   UNL     1       7.881 -54.119 193.955  1.00  0.00     0.293 HD
ENDBRANCH  15  18
BRANCH  17  20
ATOM     20  O   UNL     1       5.896 -56.186 194.802  1.00  0.00    -0.504 OA
ATOM     21  H   UNL     1       5.703 -57.024 195.336  1.00  0.00     0.293 HD
ENDBRANCH  17  20
ENDBRANCH   1  12
BRANCH   2  22
ATOM     22  O   UNL     1       2.695 -57.375 190.410  1.00  0.00    -0.502 OA
ATOM     23  H   UNL     1       1.946 -57.442 191.089  1.00  0.00     0.293 HD
ENDBRANCH   2  22
BRANCH   6  24
ATOM     24  O   UNL     1       2.196 -62.129 188.060  1.00  0.00    -0.507 OA
ATOM     25  H   UNL     1       1.709 -61.628 187.333  1.00  0.00     0.293 HD
ENDBRANCH   6  24
BRANCH   8  26
ATOM     26  O   UNL     1       6.682 -63.752 188.415  1.00  0.00    -0.508 OA
ATOM     27  H   UNL     1       6.408 -64.728 188.423  1.00  0.00     0.293 HD
ENDBRANCH   8  26
TORSDOF 6
ENDMDL
