MODEL 1
REMARK VINA RESULT:    -2.121      0.000      0.000
REMARK INTER + INTRA:          -2.121
REMARK INTER:                  -2.121
REMARK INTRA:                   0.000
REMARK UNBOUND:                 0.000
REMARK SMILES CC(=O)[O-]
REMARK SMILES IDX 1 1 2 2 3 3 4 4
REMARK H PARENT
REMARK Flexibility Score: inf
ROOT
ATOM      1  C   UNL     1       7.861 -15.196  23.338  1.00  0.00     0.063 C 
ATOM      2  C   UNL     1       9.031 -15.336  24.251  1.00  0.00     0.038 C 
ATOM      3  O   UNL     1      10.184 -15.020  23.854  1.00  0.00    -0.550 OA
ATOM      4  O   UNL     1       8.847 -15.764  25.560  1.00  0.00    -0.550 OA
ENDROOT
TORSDOF 0
ENDMDL
MODEL 2
REMARK VINA RESULT:    -2.113      1.369      2.082
REMARK INTER + INTRA:          -2.113
REMARK INTER:                  -2.113
REMARK INTRA:                   0.000
REMARK UNBOUND:                 0.000
REMARK SMILES CC(=O)[O-]
REMARK SMILES IDX 1 1 2 2 3 3 4 4
REMARK H PARENT
REMARK Flexibility Score: inf
ROOT
ATOM      1  C   UNL     1      10.407 -15.380  23.799  1.00  0.00     0.063 C 
ATOM      2  C   UNL     1       9.024 -15.401  24.354  1.00  0.00     0.038 C 
ATOM      3  O   UNL     1       8.828 -15.753  25.547  1.00  0.00    -0.550 OA
ATOM      4  O   UNL     1       7.954 -14.980  23.575  1.00  0.00    -0.550 OA
ENDROOT
TORSDOF 0
ENDMDL
MODEL 3
REMARK VINA RESULT:    -2.052     10.839     11.231
REMARK INTER + INTRA:          -2.052
REMARK INTER:                  -2.052
REMARK INTRA:                   0.000
REMARK UNBOUND:                 0.000
REMARK SMILES CC(=O)[O-]
REMARK SMILES IDX 1 1 2 2 3 3 4 4
REMARK H PARENT
REMARK Flexibility Score: inf
ROOT
ATOM      1  C   UNL     1      17.645 -19.848  22.919  1.00  0.00     0.063 C 
ATOM      2  C   UNL     1      19.100 -20.093  23.128  1.00  0.00     0.038 C 
ATOM      3  O   UNL     1      19.940 -19.204  22.827  1.00  0.00    -0.550 OA
ATOM      4  O   UNL     1      19.531 -21.281  23.705  1.00  0.00    -0.550 OA
ENDROOT
TORSDOF 0
ENDMDL
MODEL 4
REMARK VINA RESULT:    -2.041      1.377      2.063
REMARK INTER + INTRA:          -2.041
REMARK INTER:                  -2.041
REMARK INTRA:                   0.000
REMARK UNBOUND:                 0.000
REMARK SMILES CC(=O)[O-]
REMARK SMILES IDX 1 1 2 2 3 3 4 4
REMARK H PARENT
REMARK Flexibility Score: inf
ROOT
ATOM      1  C   UNL     1       8.721 -16.097  25.614  1.00  0.00     0.063 C 
ATOM      2  C   UNL     1       8.914 -15.331  24.349  1.00  0.00     0.038 C 
ATOM      3  O   UNL     1       7.915 -14.915  23.705  1.00  0.00    -0.550 OA
ATOM      4  O   UNL     1      10.195 -15.029  23.905  1.00  0.00    -0.550 OA
ENDROOT
TORSDOF 0
ENDMDL
MODEL 5
REMARK VINA RESULT:    -2.032     10.265     10.779
REMARK INTER + INTRA:          -2.032
REMARK INTER:                  -2.032
REMARK INTRA:                   0.000
REMARK UNBOUND:                 0.000
REMARK SMILES CC(=O)[O-]
REMARK SMILES IDX 1 1 2 2 3 3 4 4
REMARK H PARENT
REMARK Flexibility Score: inf
ROOT
ATOM      1  C   UNL     1      19.704 -19.492  22.831  1.00  0.00     0.063 C 
ATOM      2  C   UNL     1      18.379 -20.075  23.187  1.00  0.00     0.038 C 
ATOM      3  O   UNL     1      17.319 -19.519  22.797  1.00  0.00    -0.550 OA
ATOM      4  O   UNL     1      18.311 -21.264  23.902  1.00  0.00    -0.550 OA
ENDROOT
TORSDOF 0
ENDMDL
MODEL 6
REMARK VINA RESULT:    -2.011      1.918      2.378
REMARK INTER + INTRA:          -2.011
REMARK INTER:                  -2.011
REMARK INTRA:                   0.000
REMARK UNBOUND:                 0.000
REMARK SMILES CC(=O)[O-]
REMARK SMILES IDX 1 1 2 2 3 3 4 4
REMARK H PARENT
REMARK Flexibility Score: inf
ROOT
ATOM      1  C   UNL     1       9.551 -15.498  24.380  1.00  0.00     0.063 C 
ATOM      2  C   UNL     1       9.406 -16.334  25.606  1.00  0.00     0.038 C 
ATOM      3  O   UNL     1       8.286 -16.434  26.173  1.00  0.00    -0.550 OA
ATOM      4  O   UNL     1      10.492 -17.048  26.095  1.00  0.00    -0.550 OA
ENDROOT
TORSDOF 0
ENDMDL
MODEL 7
REMARK VINA RESULT:    -1.943      8.045      8.124
REMARK INTER + INTRA:          -1.943
REMARK INTER:                  -1.943
REMARK INTRA:                   0.000
REMARK UNBOUND:                 0.000
REMARK SMILES CC(=O)[O-]
REMARK SMILES IDX 1 1 2 2 3 3 4 4
REMARK H PARENT
REMARK Flexibility Score: inf
ROOT
ATOM      1  C   UNL     1       8.762 -23.241  21.356  1.00  0.00     0.063 C 
ATOM      2  C   UNL     1       7.958 -22.271  20.559  1.00  0.00     0.038 C 
ATOM      3  O   UNL     1       8.293 -21.993  19.378  1.00  0.00    -0.550 OA
ATOM      4  O   UNL     1       6.806 -21.712  21.098  1.00  0.00    -0.550 OA
ENDROOT
TORSDOF 0
ENDMDL
MODEL 8
REMARK VINA RESULT:    -1.911      7.942      8.165
REMARK INTER + INTRA:          -1.911
REMARK INTER:                  -1.911
REMARK INTRA:                   0.000
REMARK UNBOUND:                 0.000
REMARK SMILES CC(=O)[O-]
REMARK SMILES IDX 1 1 2 2 3 3 4 4
REMARK H PARENT
REMARK Flexibility Score: inf
ROOT
ATOM      1  C   UNL     1       8.624 -23.030  21.661  1.00  0.00     0.063 C 
ATOM      2  C   UNL     1       7.846 -22.208  20.691  1.00  0.00     0.038 C 
ATOM      3  O   UNL     1       6.777 -21.648  21.053  1.00  0.00    -0.550 OA
ATOM      4  O   UNL     1       8.324 -22.012  19.402  1.00  0.00    -0.550 OA
ENDROOT
TORSDOF 0
ENDMDL
MODEL 9
REMARK VINA RESULT:    -1.869      9.388      9.929
REMARK INTER + INTRA:          -1.869
REMARK INTER:                  -1.869
REMARK INTRA:                   0.000
REMARK UNBOUND:                 0.000
REMARK SMILES CC(=O)[O-]
REMARK SMILES IDX 1 1 2 2 3 3 4 4
REMARK H PARENT
REMARK Flexibility Score: inf
ROOT
ATOM      1  C   UNL     1      16.402 -19.478  22.391  1.00  0.00     0.063 C 
ATOM      2  C   UNL     1      17.522 -20.041  23.198  1.00  0.00     0.038 C 
ATOM      3  O   UNL     1      17.290 -20.904  24.085  1.00  0.00    -0.550 OA
ATOM      4  O   UNL     1      18.831 -19.655  22.937  1.00  0.00    -0.550 OA
ENDROOT
TORSDOF 0
ENDMDL
