MODEL 1
REMARK VINA RESULT:    -2.587      0.000      0.000
REMARK INTER + INTRA:          -5.450
REMARK INTER:                  -4.100
REMARK INTRA:                  -1.350
REMARK UNBOUND:                -1.350
REMARK SMILES CCCCCCCCCCCC=O
REMARK SMILES IDX 7 1 6 2 5 3 4 4 3 5 2 6 1 7 8 8 9 9 10 10 11 11 12 12 13 13
REMARK H PARENT
REMARK Flexibility Score: inf
ROOT
ATOM      1  C   UNL     1     227.379 232.203 233.401  1.00  0.00     0.000 C 
ENDROOT
BRANCH   1   2
ATOM      2  C   UNL     1     228.895 232.449 233.414  1.00  0.00     0.000 C 
BRANCH   2   3
ATOM      3  C   UNL     1     229.696 231.221 233.882  1.00  0.00    -0.000 C 
BRANCH   3   4
ATOM      4  C   UNL     1     230.434 231.397 235.225  1.00  0.00    -0.000 C 
BRANCH   4   5
ATOM      5  C   UNL     1     230.076 230.364 236.311  1.00  0.00    -0.000 C 
BRANCH   5   6
ATOM      6  C   UNL     1     229.370 229.099 235.791  1.00  0.00    -0.003 C 
ATOM      7  C   UNL     1     228.581 228.370 236.877  1.00  0.00     0.004 C 
ENDBRANCH   5   6
ENDBRANCH   4   5
ENDBRANCH   3   4
ENDBRANCH   2   3
ENDBRANCH   1   2
BRANCH   1   8
ATOM      8  C   UNL     1     226.850 231.968 234.824  1.00  0.00     0.000 C 
BRANCH   8   9
ATOM      9  C   UNL     1     226.119 230.624 234.972  1.00  0.00     0.000 C 
BRANCH   9  10
ATOM     10  C   UNL     1     226.265 229.730 233.728  1.00  0.00     0.008 C 
BRANCH  10  11
ATOM     11  C   UNL     1     226.119 228.240 234.068  1.00  0.00     0.072 C 
BRANCH  11  12
ATOM     12  C   UNL     1     225.288 227.502 233.058  1.00  0.00     0.224 C 
ATOM     13  O   UNL     1     225.587 227.548 231.876  1.00  0.00    -0.303 OA
ENDBRANCH  11  12
ENDBRANCH  10  11
ENDBRANCH   9  10
ENDBRANCH   8   9
ENDBRANCH   1   8
TORSDOF 10
ENDMDL
MODEL 2
REMARK VINA RESULT:    -2.474      2.569      3.550
REMARK INTER + INTRA:          -5.270
REMARK INTER:                  -3.617
REMARK INTRA:                  -1.653
REMARK UNBOUND:                -1.350
REMARK SMILES CCCCCCCCCCCC=O
REMARK SMILES IDX 7 1 6 2 5 3 4 4 3 5 2 6 1 7 8 8 9 9 10 10 11 11 12 12 13 13
REMARK H PARENT
REMARK Flexibility Score: inf
ROOT
ATOM      1  C   UNL     1     227.271 232.024 233.674  1.00  0.00     0.000 C 
ENDROOT
BRANCH   1   2
ATOM      2  C   UNL     1     228.673 232.460 233.226  1.00  0.00     0.000 C 
BRANCH   2   3
ATOM      3  C   UNL     1     229.756 231.415 233.551  1.00  0.00    -0.000 C 
BRANCH   3   4
ATOM      4  C   UNL     1     230.716 231.805 234.693  1.00  0.00    -0.000 C 
BRANCH   4   5
ATOM      5  C   UNL     1     230.348 233.097 235.448  1.00  0.00    -0.000 C 
BRANCH   5   6
ATOM      6  C   UNL     1     229.668 232.877 236.811  1.00  0.00    -0.003 C 
ATOM      7  C   UNL     1     228.303 233.556 236.911  1.00  0.00     0.004 C 
ENDBRANCH   5   6
ENDBRANCH   4   5
ENDBRANCH   3   4
ENDBRANCH   2   3
ENDBRANCH   1   2
BRANCH   1   8
ATOM      8  C   UNL     1     227.250 230.532 234.037  1.00  0.00     0.000 C 
BRANCH   8   9
ATOM      9  C   UNL     1     226.651 230.267 235.428  1.00  0.00     0.000 C 
BRANCH   9  10
ATOM     10  C   UNL     1     227.699 229.773 236.441  1.00  0.00     0.008 C 
BRANCH  10  11
ATOM     11  C   UNL     1     228.714 228.817 235.801  1.00  0.00     0.072 C 
BRANCH  11  12
ATOM     12  C   UNL     1     229.768 228.369 236.773  1.00  0.00     0.224 C 
ATOM     13  O   UNL     1     230.771 229.045 236.935  1.00  0.00    -0.303 OA
ENDBRANCH  11  12
ENDBRANCH  10  11
ENDBRANCH   9  10
ENDBRANCH   8   9
ENDBRANCH   1   8
TORSDOF 10
ENDMDL
MODEL 3
REMARK VINA RESULT:    -2.473      8.977     11.451
REMARK INTER + INTRA:          -5.268
REMARK INTER:                  -4.044
REMARK INTRA:                  -1.224
REMARK UNBOUND:                -1.350
REMARK SMILES CCCCCCCCCCCC=O
REMARK SMILES IDX 7 1 6 2 5 3 4 4 3 5 2 6 1 7 8 8 9 9 10 10 11 11 12 12 13 13
REMARK H PARENT
REMARK Flexibility Score: inf
ROOT
ATOM      1  C   UNL     1     237.311 226.218 235.686  1.00  0.00     0.000 C 
ENDROOT
BRANCH   1   2
ATOM      2  C   UNL     1     236.036 226.953 235.246  1.00  0.00     0.000 C 
BRANCH   2   3
ATOM      3  C   UNL     1     235.925 228.367 235.844  1.00  0.00    -0.000 C 
BRANCH   3   4
ATOM      4  C   UNL     1     236.062 229.518 234.826  1.00  0.00    -0.000 C 
BRANCH   4   5
ATOM      5  C   UNL     1     236.527 229.097 233.418  1.00  0.00    -0.000 C 
BRANCH   5   6
ATOM      6  C   UNL     1     235.525 229.400 232.290  1.00  0.00    -0.003 C 
ATOM      7  C   UNL     1     235.415 230.892 231.977  1.00  0.00     0.004 C 
ENDBRANCH   5   6
ENDBRANCH   4   5
ENDBRANCH   3   4
ENDBRANCH   2   3
ENDBRANCH   1   2
BRANCH   1   8
ATOM      8  C   UNL     1     238.223 225.932 234.484  1.00  0.00     0.000 C 
BRANCH   8   9
ATOM      9  C   UNL     1     239.509 226.773 234.501  1.00  0.00     0.000 C 
BRANCH   9  10
ATOM     10  C   UNL     1     239.667 227.589 235.796  1.00  0.00     0.008 C 
BRANCH  10  11
ATOM     11  C   UNL     1     239.719 229.099 235.523  1.00  0.00     0.072 C 
BRANCH  11  12
ATOM     12  C   UNL     1     239.554 229.911 236.775  1.00  0.00     0.224 C 
ATOM     13  O   UNL     1     240.369 230.777 237.050  1.00  0.00    -0.303 OA
ENDBRANCH  11  12
ENDBRANCH  10  11
ENDBRANCH   9  10
ENDBRANCH   8   9
ENDBRANCH   1   8
TORSDOF 10
ENDMDL
MODEL 4
REMARK VINA RESULT:    -2.470      1.201      3.328
REMARK INTER + INTRA:          -5.264
REMARK INTER:                  -4.042
REMARK INTRA:                  -1.222
REMARK UNBOUND:                -1.350
REMARK SMILES CCCCCCCCCCCC=O
REMARK SMILES IDX 7 1 6 2 5 3 4 4 3 5 2 6 1 7 8 8 9 9 10 10 11 11 12 12 13 13
REMARK H PARENT
REMARK Flexibility Score: inf
ROOT
ATOM      1  C   UNL     1     229.835 229.958 236.473  1.00  0.00     0.000 C 
ENDROOT
BRANCH   1   2
ATOM      2  C   UNL     1     228.869 231.102 236.814  1.00  0.00     0.000 C 
BRANCH   2   3
ATOM      3  C   UNL     1     229.056 232.332 235.909  1.00  0.00    -0.000 C 
BRANCH   3   4
ATOM      4  C   UNL     1     228.050 232.445 234.745  1.00  0.00    -0.000 C 
BRANCH   4   5
ATOM      5  C   UNL     1     228.667 232.362 233.335  1.00  0.00    -0.000 C 
BRANCH   5   6
ATOM      6  C   UNL     1     229.980 231.564 233.250  1.00  0.00    -0.003 C 
ATOM      7  C   UNL     1     231.106 232.343 232.572  1.00  0.00     0.004 C 
ENDBRANCH   5   6
ENDBRANCH   4   5
ENDBRANCH   3   4
ENDBRANCH   2   3
ENDBRANCH   1   2
BRANCH   1   8
ATOM      8  C   UNL     1     229.115 228.846 235.695  1.00  0.00     0.000 C 
BRANCH   8   9
ATOM      9  C   UNL     1     227.593 228.867 235.902  1.00  0.00     0.000 C 
BRANCH   9  10
ATOM     10  C   UNL     1     226.823 228.296 234.698  1.00  0.00     0.008 C 
BRANCH  10  11
ATOM     11  C   UNL     1     226.300 229.402 233.771  1.00  0.00     0.072 C 
BRANCH  11  12
ATOM     12  C   UNL     1     225.206 228.918 232.864  1.00  0.00     0.224 C 
ATOM     13  O   UNL     1     225.455 228.095 231.998  1.00  0.00    -0.303 OA
ENDBRANCH  11  12
ENDBRANCH  10  11
ENDBRANCH   9  10
ENDBRANCH   8   9
ENDBRANCH   1   8
TORSDOF 10
ENDMDL
MODEL 5
REMARK VINA RESULT:    -2.460     11.620     14.079
REMARK INTER + INTRA:          -5.248
REMARK INTER:                  -3.863
REMARK INTRA:                  -1.385
REMARK UNBOUND:                -1.350
REMARK SMILES CCCCCCCCCCCC=O
REMARK SMILES IDX 7 1 6 2 5 3 4 4 3 5 2 6 1 7 8 8 9 9 10 10 11 11 12 12 13 13
REMARK H PARENT
REMARK Flexibility Score: inf
ROOT
ATOM      1  C   UNL     1     241.048 236.123 235.917  1.00  0.00     0.000 C 
ENDROOT
BRANCH   1   2
ATOM      2  C   UNL     1     241.517 236.271 234.463  1.00  0.00     0.000 C 
BRANCH   2   3
ATOM      3  C   UNL     1     241.294 237.688 233.904  1.00  0.00    -0.000 C 
BRANCH   3   4
ATOM      4  C   UNL     1     241.983 238.818 234.697  1.00  0.00    -0.000 C 
BRANCH   4   5
ATOM      5  C   UNL     1     241.028 239.810 235.390  1.00  0.00    -0.000 C 
BRANCH   5   6
ATOM      6  C   UNL     1     239.534 239.460 235.270  1.00  0.00    -0.003 C 
ATOM      7  C   UNL     1     238.766 239.681 236.572  1.00  0.00     0.004 C 
ENDBRANCH   5   6
ENDBRANCH   4   5
ENDBRANCH   3   4
ENDBRANCH   2   3
ENDBRANCH   1   2
BRANCH   1   8
ATOM      8  C   UNL     1     239.817 235.209 236.006  1.00  0.00     0.000 C 
BRANCH   8   9
ATOM      9  C   UNL     1     238.494 235.982 235.893  1.00  0.00     0.000 C 
BRANCH   9  10
ATOM     10  C   UNL     1     237.652 235.544 234.681  1.00  0.00     0.008 C 
BRANCH  10  11
ATOM     11  C   UNL     1     237.896 236.438 233.457  1.00  0.00     0.072 C 
BRANCH  11  12
ATOM     12  C   UNL     1     238.432 235.667 232.285  1.00  0.00     0.224 C 
ATOM     13  O   UNL     1     237.929 234.598 231.979  1.00  0.00    -0.303 OA
ENDBRANCH  11  12
ENDBRANCH  10  11
ENDBRANCH   9  10
ENDBRANCH   8   9
ENDBRANCH   1   8
TORSDOF 10
ENDMDL
MODEL 6
REMARK VINA RESULT:    -2.436      8.693     10.669
REMARK INTER + INTRA:          -5.209
REMARK INTER:                  -4.294
REMARK INTRA:                  -0.916
REMARK UNBOUND:                -1.350
REMARK SMILES CCCCCCCCCCCC=O
REMARK SMILES IDX 7 1 6 2 5 3 4 4 3 5 2 6 1 7 8 8 9 9 10 10 11 11 12 12 13 13
REMARK H PARENT
REMARK Flexibility Score: inf
ROOT
ATOM      1  C   UNL     1     236.389 227.027 234.770  1.00  0.00     0.000 C 
ENDROOT
BRANCH   1   2
ATOM      2  C   UNL     1     237.550 226.745 233.806  1.00  0.00     0.000 C 
BRANCH   2   3
ATOM      3  C   UNL     1     238.743 226.055 234.492  1.00  0.00    -0.000 C 
BRANCH   3   4
ATOM      4  C   UNL     1     239.942 226.976 234.796  1.00  0.00    -0.000 C 
BRANCH   4   5
ATOM      5  C   UNL     1     239.866 227.732 236.137  1.00  0.00    -0.000 C 
BRANCH   5   6
ATOM      6  C   UNL     1     239.575 229.238 236.013  1.00  0.00    -0.003 C 
ATOM      7  C   UNL     1     240.401 230.085 236.980  1.00  0.00     0.004 C 
ENDBRANCH   5   6
ENDBRANCH   4   5
ENDBRANCH   3   4
ENDBRANCH   2   3
ENDBRANCH   1   2
BRANCH   1   8
ATOM      8  C   UNL     1     236.060 228.527 234.808  1.00  0.00     0.000 C 
BRANCH   8   9
ATOM      9  C   UNL     1     236.608 229.286 233.589  1.00  0.00     0.000 C 
BRANCH   9  10
ATOM     10  C   UNL     1     235.522 229.589 232.541  1.00  0.00     0.008 C 
BRANCH  10  11
ATOM     11  C   UNL     1     235.727 230.958 231.877  1.00  0.00     0.072 C 
BRANCH  11  12
ATOM     12  C   UNL     1     236.298 231.972 232.825  1.00  0.00     0.224 C 
ATOM     13  O   UNL     1     236.496 233.115 232.445  1.00  0.00    -0.303 OA
ENDBRANCH  11  12
ENDBRANCH  10  11
ENDBRANCH   9  10
ENDBRANCH   8   9
ENDBRANCH   1   8
TORSDOF 10
ENDMDL
MODEL 7
REMARK VINA RESULT:    -2.416      2.983      4.709
REMARK INTER + INTRA:          -5.178
REMARK INTER:                  -3.920
REMARK INTRA:                  -1.258
REMARK UNBOUND:                -1.350
REMARK SMILES CCCCCCCCCCCC=O
REMARK SMILES IDX 7 1 6 2 5 3 4 4 3 5 2 6 1 7 8 8 9 9 10 10 11 11 12 12 13 13
REMARK H PARENT
REMARK Flexibility Score: inf
ROOT
ATOM      1  C   UNL     1     227.201 232.109 233.796  1.00  0.00     0.000 C 
ENDROOT
BRANCH   1   2
ATOM      2  C   UNL     1     226.624 230.694 233.946  1.00  0.00     0.000 C 
BRANCH   2   3
ATOM      3  C   UNL     1     226.344 230.315 235.411  1.00  0.00    -0.000 C 
BRANCH   3   4
ATOM      4  C   UNL     1     227.044 229.029 235.897  1.00  0.00    -0.000 C 
BRANCH   4   5
ATOM      5  C   UNL     1     228.416 228.746 235.256  1.00  0.00    -0.000 C 
BRANCH   5   6
ATOM      6  C   UNL     1     229.601 228.752 236.237  1.00  0.00    -0.003 C 
ATOM      7  C   UNL     1     229.501 229.862 237.283  1.00  0.00     0.004 C 
ENDBRANCH   5   6
ENDBRANCH   4   5
ENDBRANCH   3   4
ENDBRANCH   2   3
ENDBRANCH   1   2
BRANCH   1   8
ATOM      8  C   UNL     1     228.101 232.464 234.990  1.00  0.00     0.000 C 
BRANCH   8   9
ATOM      9  C   UNL     1     229.563 232.701 234.581  1.00  0.00     0.000 C 
BRANCH   9  10
ATOM     10  C   UNL     1     230.011 231.789 233.425  1.00  0.00     0.008 C 
BRANCH  10  11
ATOM     11  C   UNL     1     230.548 232.592 232.232  1.00  0.00     0.072 C 
BRANCH  11  12
ATOM     12  C   UNL     1     232.049 232.600 232.178  1.00  0.00     0.224 C 
ATOM     13  O   UNL     1     232.670 233.526 232.675  1.00  0.00    -0.303 OA
ENDBRANCH  11  12
ENDBRANCH  10  11
ENDBRANCH   9  10
ENDBRANCH   8   9
ENDBRANCH   1   8
TORSDOF 10
ENDMDL
MODEL 8
REMARK VINA RESULT:    -2.370      9.689     11.253
REMARK INTER + INTRA:          -5.106
REMARK INTER:                  -3.642
REMARK INTRA:                  -1.464
REMARK UNBOUND:                -1.350
REMARK SMILES CCCCCCCCCCCC=O
REMARK SMILES IDX 7 1 6 2 5 3 4 4 3 5 2 6 1 7 8 8 9 9 10 10 11 11 12 12 13 13
REMARK H PARENT
REMARK Flexibility Score: inf
ROOT
ATOM      1  C   UNL     1     230.000 238.330 237.003  1.00  0.00     0.000 C 
ENDROOT
BRANCH   1   2
ATOM      2  C   UNL     1     231.080 239.400 237.225  1.00  0.00     0.000 C 
BRANCH   2   3
ATOM      3  C   UNL     1     232.289 239.231 236.288  1.00  0.00    -0.000 C 
BRANCH   3   4
ATOM      4  C   UNL     1     232.497 240.378 235.278  1.00  0.00    -0.000 C 
BRANCH   4   5
ATOM      5  C   UNL     1     232.256 240.005 233.802  1.00  0.00    -0.000 C 
BRANCH   5   6
ATOM      6  C   UNL     1     231.396 238.747 233.586  1.00  0.00    -0.003 C 
ATOM      7  C   UNL     1     232.067 237.717 232.678  1.00  0.00     0.004 C 
ENDBRANCH   5   6
ENDBRANCH   4   5
ENDBRANCH   3   4
ENDBRANCH   2   3
ENDBRANCH   1   2
BRANCH   1   8
ATOM      8  C   UNL     1     228.792 238.918 236.257  1.00  0.00     0.000 C 
BRANCH   8   9
ATOM      9  C   UNL     1     228.764 240.454 236.290  1.00  0.00     0.000 C 
BRANCH   9  10
ATOM     10  C   UNL     1     228.715 241.077 234.884  1.00  0.00     0.008 C 
BRANCH  10  11
ATOM     11  C   UNL     1     229.462 242.417 234.821  1.00  0.00     0.072 C 
BRANCH  11  12
ATOM     12  C   UNL     1     229.840 242.794 233.417  1.00  0.00     0.224 C 
ATOM     13  O   UNL     1     229.210 243.657 232.830  1.00  0.00    -0.303 OA
ENDBRANCH  11  12
ENDBRANCH  10  11
ENDBRANCH   9  10
ENDBRANCH   8   9
ENDBRANCH   1   8
TORSDOF 10
ENDMDL
MODEL 9
REMARK VINA RESULT:    -2.363     10.278     12.257
REMARK INTER + INTRA:          -5.094
REMARK INTER:                  -4.045
REMARK INTRA:                  -1.048
REMARK UNBOUND:                -1.350
REMARK SMILES CCCCCCCCCCCC=O
REMARK SMILES IDX 7 1 6 2 5 3 4 4 3 5 2 6 1 7 8 8 9 9 10 10 11 11 12 12 13 13
REMARK H PARENT
REMARK Flexibility Score: inf
ROOT
ATOM      1  C   UNL     1     239.442 227.317 236.250  1.00  0.00     0.000 C 
ENDROOT
BRANCH   1   2
ATOM      2  C   UNL     1     240.421 226.237 235.766  1.00  0.00     0.000 C 
BRANCH   2   3
ATOM      3  C   UNL     1     239.716 224.931 235.358  1.00  0.00    -0.000 C 
BRANCH   3   4
ATOM      4  C   UNL     1     239.272 224.864 233.882  1.00  0.00    -0.000 C 
BRANCH   4   5
ATOM      5  C   UNL     1     240.038 225.795 232.923  1.00  0.00    -0.000 C 
BRANCH   5   6
ATOM      6  C   UNL     1     241.272 225.162 232.256  1.00  0.00    -0.003 C 
ATOM      7  C   UNL     1     242.583 225.814 232.692  1.00  0.00     0.004 C 
ENDBRANCH   5   6
ENDBRANCH   4   5
ENDBRANCH   3   4
ENDBRANCH   2   3
ENDBRANCH   1   2
BRANCH   1   8
ATOM      8  C   UNL     1     239.614 228.614 235.444  1.00  0.00     0.000 C 
BRANCH   8   9
ATOM      9  C   UNL     1     238.279 229.173 234.927  1.00  0.00     0.000 C 
BRANCH   9  10
ATOM     10  C   UNL     1     237.481 228.142 234.108  1.00  0.00     0.008 C 
BRANCH  10  11
ATOM     11  C   UNL     1     236.269 228.774 233.411  1.00  0.00     0.072 C 
BRANCH  11  12
ATOM     12  C   UNL     1     236.369 230.271 233.336  1.00  0.00     0.224 C 
ATOM     13  O   UNL     1     236.279 230.832 232.256  1.00  0.00    -0.303 OA
ENDBRANCH  11  12
ENDBRANCH  10  11
ENDBRANCH   9  10
ENDBRANCH   8   9
ENDBRANCH   1   8
TORSDOF 10
ENDMDL
