MODEL 1
REMARK VINA RESULT:    -4.302      0.000      0.000
REMARK INTER + INTRA:          -7.131
REMARK INTER:                  -6.314
REMARK INTRA:                  -0.818
REMARK UNBOUND:                -0.818
REMARK SMILES O=C([O-])CCCCCCCC(=O)[O-]
REMARK SMILES IDX 7 1 6 2 5 3 4 4 2 5 1 6 3 7 8 8 9 9 10 10 11 11 12 12 13 13
REMARK H PARENT
REMARK Flexibility Score: inf
ROOT
ATOM      1  C   UNL     1     117.848 176.470 127.902  1.00  0.00     0.000 C 
ENDROOT
BRANCH   1   2
ATOM      2  C   UNL     1     118.372 177.908 128.070  1.00  0.00     0.000 C 
BRANCH   2   3
ATOM      3  C   UNL     1     119.440 178.272 127.028  1.00  0.00     0.006 C 
BRANCH   3   4
ATOM      4  C   UNL     1     118.850 178.988 125.806  1.00  0.00     0.053 C 
BRANCH   4   5
ATOM      5  C   UNL     1     119.030 178.156 124.576  1.00  0.00     0.041 C 
ATOM      6  O   UNL     1     119.063 178.698 123.441  1.00  0.00    -0.550 OA
ATOM      7  O   UNL     1     119.113 176.773 124.680  1.00  0.00    -0.550 OA
ENDBRANCH   4   5
ENDBRANCH   3   4
ENDBRANCH   2   3
ENDBRANCH   1   2
BRANCH   1   8
ATOM      8  C   UNL     1     116.366 176.332 128.284  1.00  0.00     0.000 C 
BRANCH   8   9
ATOM      9  C   UNL     1     115.443 177.163 127.381  1.00  0.00     0.006 C 
BRANCH   9  10
ATOM     10  C   UNL     1     115.617 176.769 125.911  1.00  0.00     0.053 C 
BRANCH  10  11
ATOM     11  C   UNL     1     115.354 177.942 125.020  1.00  0.00     0.041 C 
ATOM     12  O   UNL     1     115.277 179.102 125.506  1.00  0.00    -0.550 OA
ATOM     13  O   UNL     1     115.243 177.762 123.647  1.00  0.00    -0.550 OA
ENDBRANCH  10  11
ENDBRANCH   9  10
ENDBRANCH   8   9
ENDBRANCH   1   8
TORSDOF 8
ENDMDL
MODEL 2
REMARK VINA RESULT:    -4.219      0.591      3.814
REMARK INTER + INTRA:          -7.010
REMARK INTER:                  -6.252
REMARK INTRA:                  -0.759
REMARK UNBOUND:                -0.818
REMARK SMILES O=C([O-])CCCCCCCC(=O)[O-]
REMARK SMILES IDX 7 1 6 2 5 3 4 4 2 5 1 6 3 7 8 8 9 9 10 10 11 11 12 12 13 13
REMARK H PARENT
REMARK Flexibility Score: inf
ROOT
ATOM      1  C   UNL     1     117.789 176.594 127.718  1.00  0.00     0.000 C 
ENDROOT
BRANCH   1   2
ATOM      2  C   UNL     1     116.364 176.463 128.287  1.00  0.00     0.000 C 
BRANCH   2   3
ATOM      3  C   UNL     1     115.325 177.231 127.457  1.00  0.00     0.006 C 
BRANCH   3   4
ATOM      4  C   UNL     1     115.489 177.003 125.949  1.00  0.00     0.053 C 
BRANCH   4   5
ATOM      5  C   UNL     1     115.202 178.264 125.196  1.00  0.00     0.041 C 
ATOM      6  O   UNL     1     115.286 179.380 125.772  1.00  0.00    -0.550 OA
ATOM      7  O   UNL     1     114.794 178.203 123.870  1.00  0.00    -0.550 OA
ENDBRANCH   4   5
ENDBRANCH   3   4
ENDBRANCH   2   3
ENDBRANCH   1   2
BRANCH   1   8
ATOM      8  C   UNL     1     118.431 177.953 128.042  1.00  0.00     0.000 C 
BRANCH   8   9
ATOM      9  C   UNL     1     119.465 178.383 126.992  1.00  0.00     0.006 C 
BRANCH   9  10
ATOM     10  C   UNL     1     118.778 178.964 125.752  1.00  0.00     0.053 C 
BRANCH  10  11
ATOM     11  C   UNL     1     119.197 178.222 124.524  1.00  0.00     0.041 C 
ATOM     12  O   UNL     1     120.355 177.730 124.445  1.00  0.00    -0.550 OA
ATOM     13  O   UNL     1     118.295 178.028 123.485  1.00  0.00    -0.550 OA
ENDBRANCH  10  11
ENDBRANCH   9  10
ENDBRANCH   8   9
ENDBRANCH   1   8
TORSDOF 8
ENDMDL
MODEL 3
REMARK VINA RESULT:    -4.212      9.263     10.386
REMARK INTER + INTRA:          -7.000
REMARK INTER:                  -6.415
REMARK INTRA:                  -0.585
REMARK UNBOUND:                -0.818
REMARK SMILES O=C([O-])CCCCCCCC(=O)[O-]
REMARK SMILES IDX 7 1 6 2 5 3 4 4 2 5 1 6 3 7 8 8 9 9 10 10 11 11 12 12 13 13
REMARK H PARENT
REMARK Flexibility Score: inf
ROOT
ATOM      1  C   UNL     1     122.910 177.395 120.265  1.00  0.00     0.000 C 
ENDROOT
BRANCH   1   2
ATOM      2  C   UNL     1     124.117 178.215 119.775  1.00  0.00     0.000 C 
BRANCH   2   3
ATOM      3  C   UNL     1     125.315 178.131 120.734  1.00  0.00     0.006 C 
BRANCH   3   4
ATOM      4  C   UNL     1     125.740 176.685 121.021  1.00  0.00     0.053 C 
BRANCH   4   5
ATOM      5  C   UNL     1     126.898 176.301 120.157  1.00  0.00     0.041 C 
ATOM      6  O   UNL     1     128.062 176.260 120.635  1.00  0.00    -0.550 OA
ATOM      7  O   UNL     1     126.700 176.035 118.807  1.00  0.00    -0.550 OA
ENDBRANCH   4   5
ENDBRANCH   3   4
ENDBRANCH   2   3
ENDBRANCH   1   2
BRANCH   1   8
ATOM      8  C   UNL     1     122.492 176.303 119.267  1.00  0.00     0.000 C 
BRANCH   8   9
ATOM      9  C   UNL     1     123.115 176.503 117.878  1.00  0.00     0.006 C 
BRANCH   9  10
ATOM     10  C   UNL     1     122.078 177.037 116.885  1.00  0.00     0.053 C 
BRANCH  10  11
ATOM     11  C   UNL     1     122.604 178.244 116.176  1.00  0.00     0.041 C 
ATOM     12  O   UNL     1     123.800 178.605 116.342  1.00  0.00    -0.550 OA
ATOM     13  O   UNL     1     121.790 178.944 115.294  1.00  0.00    -0.550 OA
ENDBRANCH  10  11
ENDBRANCH   9  10
ENDBRANCH   8   9
ENDBRANCH   1   8
TORSDOF 8
ENDMDL
MODEL 4
REMARK VINA RESULT:    -4.093      8.413     10.259
REMARK INTER + INTRA:          -6.825
REMARK INTER:                  -6.156
REMARK INTRA:                  -0.669
REMARK UNBOUND:                -0.818
REMARK SMILES O=C([O-])CCCCCCCC(=O)[O-]
REMARK SMILES IDX 7 1 6 2 5 3 4 4 2 5 1 6 3 7 8 8 9 9 10 10 11 11 12 12 13 13
REMARK H PARENT
REMARK Flexibility Score: inf
ROOT
ATOM      1  C   UNL     1     122.749 177.283 120.323  1.00  0.00     0.000 C 
ENDROOT
BRANCH   1   2
ATOM      2  C   UNL     1     122.802 176.165 119.266  1.00  0.00     0.000 C 
BRANCH   2   3
ATOM      3  C   UNL     1     123.839 176.441 118.167  1.00  0.00     0.006 C 
BRANCH   3   4
ATOM      4  C   UNL     1     123.847 177.909 117.721  1.00  0.00     0.053 C 
BRANCH   4   5
ATOM      5  C   UNL     1     123.009 178.087 116.495  1.00  0.00     0.041 C 
ATOM      6  O   UNL     1     123.170 179.093 115.756  1.00  0.00    -0.550 OA
ATOM      7  O   UNL     1     122.016 177.164 116.193  1.00  0.00    -0.550 OA
ENDBRANCH   4   5
ENDBRANCH   3   4
ENDBRANCH   2   3
ENDBRANCH   1   2
BRANCH   1   8
ATOM      8  C   UNL     1     122.951 176.756 121.752  1.00  0.00     0.000 C 
BRANCH   8   9
ATOM      9  C   UNL     1     124.335 177.102 122.320  1.00  0.00     0.006 C 
BRANCH   9  10
ATOM     10  C   UNL     1     125.063 178.103 121.417  1.00  0.00     0.053 C 
BRANCH  10  11
ATOM     11  C   UNL     1     126.383 177.553 120.984  1.00  0.00     0.041 C 
ATOM     12  O   UNL     1     126.467 176.373 120.549  1.00  0.00    -0.550 OA
ATOM     13  O   UNL     1     127.516 178.357 121.012  1.00  0.00    -0.550 OA
ENDBRANCH  10  11
ENDBRANCH   9  10
ENDBRANCH   8   9
ENDBRANCH   1   8
TORSDOF 8
ENDMDL
MODEL 5
REMARK VINA RESULT:    -4.089      2.559      4.948
REMARK INTER + INTRA:          -6.819
REMARK INTER:                  -6.128
REMARK INTRA:                  -0.691
REMARK UNBOUND:                -0.818
REMARK SMILES O=C([O-])CCCCCCCC(=O)[O-]
REMARK SMILES IDX 7 1 6 2 5 3 4 4 2 5 1 6 3 7 8 8 9 9 10 10 11 11 12 12 13 13
REMARK H PARENT
REMARK Flexibility Score: inf
ROOT
ATOM      1  C   UNL     1     116.971 179.368 126.833  1.00  0.00     0.000 C 
ENDROOT
BRANCH   1   2
ATOM      2  C   UNL     1     115.616 179.241 126.115  1.00  0.00     0.000 C 
BRANCH   2   3
ATOM      3  C   UNL     1     114.921 177.901 126.400  1.00  0.00     0.006 C 
BRANCH   3   4
ATOM      4  C   UNL     1     115.587 176.725 125.673  1.00  0.00     0.053 C 
BRANCH   4   5
ATOM      5  C   UNL     1     116.247 175.811 126.655  1.00  0.00     0.041 C 
ATOM      6  O   UNL     1     116.943 174.843 126.252  1.00  0.00    -0.550 OA
ATOM      7  O   UNL     1     116.054 176.000 128.018  1.00  0.00    -0.550 OA
ENDBRANCH   4   5
ENDBRANCH   3   4
ENDBRANCH   2   3
ENDBRANCH   1   2
BRANCH   1   8
ATOM      8  C   UNL     1     118.161 179.332 125.860  1.00  0.00     0.000 C 
BRANCH   8   9
ATOM      9  C   UNL     1     119.185 178.246 126.219  1.00  0.00     0.006 C 
BRANCH   9  10
ATOM     10  C   UNL     1     119.183 177.967 127.725  1.00  0.00     0.053 C 
BRANCH  10  11
ATOM     11  C   UNL     1     120.583 177.845 128.237  1.00  0.00     0.041 C 
ATOM     12  O   UNL     1     120.814 177.906 129.474  1.00  0.00    -0.550 OA
ATOM     13  O   UNL     1     121.630 177.616 127.353  1.00  0.00    -0.550 OA
ENDBRANCH  10  11
ENDBRANCH   9  10
ENDBRANCH   8   9
ENDBRANCH   1   8
TORSDOF 8
ENDMDL
MODEL 6
REMARK VINA RESULT:    -4.072      2.628      3.366
REMARK INTER + INTRA:          -6.794
REMARK INTER:                  -6.014
REMARK INTRA:                  -0.780
REMARK UNBOUND:                -0.818
REMARK SMILES O=C([O-])CCCCCCCC(=O)[O-]
REMARK SMILES IDX 7 1 6 2 5 3 4 4 2 5 1 6 3 7 8 8 9 9 10 10 11 11 12 12 13 13
REMARK H PARENT
REMARK Flexibility Score: inf
ROOT
ATOM      1  C   UNL     1     117.082 179.348 126.808  1.00  0.00     0.000 C 
ENDROOT
BRANCH   1   2
ATOM      2  C   UNL     1     118.240 179.355 125.794  1.00  0.00     0.000 C 
BRANCH   2   3
ATOM      3  C   UNL     1     119.135 178.112 125.913  1.00  0.00     0.006 C 
BRANCH   3   4
ATOM      4  C   UNL     1     120.066 178.172 127.131  1.00  0.00     0.053 C 
BRANCH   4   5
ATOM      5  C   UNL     1     119.675 177.137 128.138  1.00  0.00     0.041 C 
ATOM      6  O   UNL     1     119.942 175.924 127.937  1.00  0.00    -0.550 OA
ATOM      7  O   UNL     1     118.972 177.508 129.278  1.00  0.00    -0.550 OA
ENDBRANCH   4   5
ENDBRANCH   3   4
ENDBRANCH   2   3
ENDBRANCH   1   2
BRANCH   1   8
ATOM      8  C   UNL     1     115.708 179.191 126.137  1.00  0.00     0.000 C 
BRANCH   8   9
ATOM      9  C   UNL     1     114.990 177.899 126.554  1.00  0.00     0.006 C 
BRANCH   9  10
ATOM     10  C   UNL     1     115.589 176.684 125.838  1.00  0.00     0.053 C 
BRANCH  10  11
ATOM     11  C   UNL     1     116.315 175.810 126.809  1.00  0.00     0.041 C 
ATOM     12  O   UNL     1     116.145 175.960 128.048  1.00  0.00    -0.550 OA
ATOM     13  O   UNL     1     117.143 174.794 126.347  1.00  0.00    -0.550 OA
ENDBRANCH  10  11
ENDBRANCH   9  10
ENDBRANCH   8   9
ENDBRANCH   1   8
TORSDOF 8
ENDMDL
MODEL 7
REMARK VINA RESULT:    -4.064      2.432      4.390
REMARK INTER + INTRA:          -6.782
REMARK INTER:                  -5.968
REMARK INTRA:                  -0.814
REMARK UNBOUND:                -0.818
REMARK SMILES O=C([O-])CCCCCCCC(=O)[O-]
REMARK SMILES IDX 7 1 6 2 5 3 4 4 2 5 1 6 3 7 8 8 9 9 10 10 11 11 12 12 13 13
REMARK H PARENT
REMARK Flexibility Score: inf
ROOT
ATOM      1  C   UNL     1     121.003 178.642 127.027  1.00  0.00     0.000 C 
ENDROOT
BRANCH   1   2
ATOM      2  C   UNL     1     120.844 177.711 125.812  1.00  0.00     0.000 C 
BRANCH   2   3
ATOM      3  C   UNL     1     119.601 178.043 124.973  1.00  0.00     0.006 C 
BRANCH   3   4
ATOM      4  C   UNL     1     118.823 179.245 125.523  1.00  0.00     0.053 C 
BRANCH   4   5
ATOM      5  C   UNL     1     117.432 178.840 125.897  1.00  0.00     0.041 C 
ATOM      6  O   UNL     1     116.838 177.939 125.249  1.00  0.00    -0.550 OA
ATOM      7  O   UNL     1     116.773 179.492 126.931  1.00  0.00    -0.550 OA
ENDBRANCH   4   5
ENDBRANCH   3   4
ENDBRANCH   2   3
ENDBRANCH   1   2
BRANCH   1   8
ATOM      8  C   UNL     1     121.700 177.955 128.212  1.00  0.00     0.000 C 
BRANCH   8   9
ATOM      9  C   UNL     1     120.792 177.837 129.445  1.00  0.00     0.006 C 
BRANCH   9  10
ATOM     10  C   UNL     1     119.317 177.972 129.053  1.00  0.00     0.053 C 
BRANCH  10  11
ATOM     11  C   UNL     1     118.658 176.630 129.025  1.00  0.00     0.041 C 
ATOM     12  O   UNL     1     118.314 176.069 130.100  1.00  0.00    -0.550 OA
ATOM     13  O   UNL     1     118.379 176.017 127.810  1.00  0.00    -0.550 OA
ENDBRANCH  10  11
ENDBRANCH   9  10
ENDBRANCH   8   9
ENDBRANCH   1   8
TORSDOF 8
ENDMDL
MODEL 8
REMARK VINA RESULT:    -4.050      2.532      5.312
REMARK INTER + INTRA:          -6.761
REMARK INTER:                  -6.012
REMARK INTRA:                  -0.749
REMARK UNBOUND:                -0.818
REMARK SMILES O=C([O-])CCCCCCCC(=O)[O-]
REMARK SMILES IDX 7 1 6 2 5 3 4 4 2 5 1 6 3 7 8 8 9 9 10 10 11 11 12 12 13 13
REMARK H PARENT
REMARK Flexibility Score: inf
ROOT
ATOM      1  C   UNL     1     119.339 177.172 124.599  1.00  0.00     0.000 C 
ENDROOT
BRANCH   1   2
ATOM      2  C   UNL     1     118.966 178.662 124.492  1.00  0.00     0.000 C 
BRANCH   2   3
ATOM      3  C   UNL     1     118.912 179.356 125.862  1.00  0.00     0.006 C 
BRANCH   3   4
ATOM      4  C   UNL     1     117.929 178.680 126.826  1.00  0.00     0.053 C 
BRANCH   4   5
ATOM      5  C   UNL     1     116.523 178.852 126.344  1.00  0.00     0.041 C 
ATOM      6  O   UNL     1     115.845 177.851 125.993  1.00  0.00    -0.550 OA
ATOM      7  O   UNL     1     115.977 180.125 126.236  1.00  0.00    -0.550 OA
ENDBRANCH   4   5
ENDBRANCH   3   4
ENDBRANCH   2   3
ENDBRANCH   1   2
BRANCH   1   8
ATOM      8  C   UNL     1     120.765 176.883 124.105  1.00  0.00     0.000 C 
BRANCH   8   9
ATOM      9  C   UNL     1     121.686 176.374 125.223  1.00  0.00     0.006 C 
BRANCH   9  10
ATOM     10  C   UNL     1     122.575 177.502 125.756  1.00  0.00     0.053 C 
BRANCH  10  11
ATOM     11  C   UNL     1     122.013 178.056 127.026  1.00  0.00     0.041 C 
ATOM     12  O   UNL     1     122.282 179.236 127.377  1.00  0.00    -0.550 OA
ATOM     13  O   UNL     1     121.152 177.287 127.799  1.00  0.00    -0.550 OA
ENDBRANCH  10  11
ENDBRANCH   9  10
ENDBRANCH   8   9
ENDBRANCH   1   8
TORSDOF 8
ENDMDL
MODEL 9
REMARK VINA RESULT:    -4.030      2.284      3.576
REMARK INTER + INTRA:          -6.733
REMARK INTER:                  -6.004
REMARK INTRA:                  -0.729
REMARK UNBOUND:                -0.818
REMARK SMILES O=C([O-])CCCCCCCC(=O)[O-]
REMARK SMILES IDX 7 1 6 2 5 3 4 4 2 5 1 6 3 7 8 8 9 9 10 10 11 11 12 12 13 13
REMARK H PARENT
REMARK Flexibility Score: inf
ROOT
ATOM      1  C   UNL     1     118.930 178.586 124.217  1.00  0.00     0.000 C 
ENDROOT
BRANCH   1   2
ATOM      2  C   UNL     1     119.447 177.156 124.455  1.00  0.00     0.000 C 
BRANCH   2   3
ATOM      3  C   UNL     1     120.979 177.064 124.384  1.00  0.00     0.006 C 
BRANCH   3   4
ATOM      4  C   UNL     1     121.589 176.408 125.630  1.00  0.00     0.053 C 
BRANCH   4   5
ATOM      5  C   UNL     1     121.565 177.358 126.785  1.00  0.00     0.041 C 
ATOM      6  O   UNL     1     120.874 177.100 127.805  1.00  0.00    -0.550 OA
ATOM      7  O   UNL     1     122.268 178.554 126.715  1.00  0.00    -0.550 OA
ENDBRANCH   4   5
ENDBRANCH   3   4
ENDBRANCH   2   3
ENDBRANCH   1   2
BRANCH   1   8
ATOM      8  C   UNL     1     118.718 179.363 125.526  1.00  0.00     0.000 C 
BRANCH   8   9
ATOM      9  C   UNL     1     117.880 178.582 126.549  1.00  0.00     0.006 C 
BRANCH   9  10
ATOM     10  C   UNL     1     116.447 179.121 126.608  1.00  0.00     0.053 C 
BRANCH  10  11
ATOM     11  C   UNL     1     115.477 178.079 126.150  1.00  0.00     0.041 C 
ATOM     12  O   UNL     1     115.864 177.130 125.416  1.00  0.00    -0.550 OA
ATOM     13  O   UNL     1     114.154 178.125 126.572  1.00  0.00    -0.550 OA
ENDBRANCH  10  11
ENDBRANCH   9  10
ENDBRANCH   8   9
ENDBRANCH   1   8
TORSDOF 8
ENDMDL
