MODEL 1
REMARK VINA RESULT:    -4.738      0.000      0.000
REMARK INTER + INTRA:          -8.784
REMARK INTER:                  -7.231
REMARK INTRA:                  -1.553
REMARK UNBOUND:                -1.553
REMARK SMILES OC[C@H]1O[C@@](CO)(O[C@H]2O[C@H](CO)[C@@H](O)[C@@H](O)[C@H]2O)[C@H](O)[C@H]1O
REMARK SMILES IDX 8 1 9 2 11 3 14 4 10 5 16 6 18 7 12 8 13 9 15 11 17 13 19 15
REMARK SMILES IDX 5 17 20 18 4 19 22 20 3 21 6 22 7 23 21 25 23 27 2 29 1 30
REMARK H PARENT 13 10 15 12 17 14 19 16 7 24 21 26 23 28 1 31
REMARK Flexibility Score: inf
ROOT
ATOM      1  O   UNL     1      60.509   9.382  -5.899  1.00  0.00    -0.313 OA
ENDROOT
BRANCH   1   2
ATOM      2  C   UNL     1      60.313  10.002  -4.634  1.00  0.00     0.285 C 
ATOM      3  C   UNL     1      59.691   9.408  -2.411  1.00  0.00     0.178 C 
ATOM      4  C   UNL     1      61.141   9.450  -1.841  1.00  0.00     0.177 C 
ATOM      5  O   UNL     1      59.660   9.062  -3.787  1.00  0.00    -0.341 OA
ATOM      6  C   UNL     1      62.200   9.555  -2.959  1.00  0.00     0.179 C 
ATOM      7  C   UNL     1      61.695  10.469  -4.083  1.00  0.00     0.202 C 
BRANCH   3   8
ATOM      8  C   UNL     1      58.889  10.694  -2.108  1.00  0.00     0.191 C 
BRANCH   8   9
ATOM      9  O   UNL     1      57.725  10.394  -1.386  1.00  0.00    -0.394 OA
ATOM     10  H   UNL     1      56.996  10.939  -1.784  1.00  0.00     0.210 HD
ENDBRANCH   8   9
ENDBRANCH   3   8
BRANCH   4  11
ATOM     11  O   UNL     1      61.399   8.308  -1.062  1.00  0.00    -0.387 OA
ATOM     12  H   UNL     1      60.523   7.995  -0.713  1.00  0.00     0.211 HD
ENDBRANCH   4  11
BRANCH   6  13
ATOM     13  O   UNL     1      62.588   8.295  -3.457  1.00  0.00    -0.387 OA
ATOM     14  H   UNL     1      63.403   8.001  -2.975  1.00  0.00     0.211 HD
ENDBRANCH   6  13
BRANCH   7  15
ATOM     15  O   UNL     1      62.663  10.538  -5.099  1.00  0.00    -0.385 OA
ATOM     16  H   UNL     1      62.389   9.891  -5.801  1.00  0.00     0.211 HD
ENDBRANCH   7  15
ENDBRANCH   1   2
BRANCH   1  17
ATOM     17  C   UNL     1      59.748   9.944  -6.968  1.00  0.00     0.224 C 
ATOM     18  C   UNL     1      59.272   8.838  -7.949  1.00  0.00     0.208 C 
ATOM     19  O   UNL     1      58.592  10.510  -6.374  1.00  0.00    -0.337 OA
ATOM     20  C   UNL     1      57.831   9.185  -8.218  1.00  0.00     0.180 C 
ATOM     21  C   UNL     1      57.434   9.940  -6.949  1.00  0.00     0.179 C 
BRANCH  17  22
ATOM     22  C   UNL     1      60.512  11.113  -7.655  1.00  0.00     0.225 C 
BRANCH  22  23
ATOM     23  O   UNL     1      61.866  10.795  -7.844  1.00  0.00    -0.391 OA
ATOM     24  H   UNL     1      62.092  10.088  -7.184  1.00  0.00     0.210 HD
ENDBRANCH  22  23
ENDBRANCH  17  22
BRANCH  18  25
ATOM     25  O   UNL     1      60.042   8.723  -9.124  1.00  0.00    -0.385 OA
ATOM     26  H   UNL     1      60.190   9.626  -9.505  1.00  0.00     0.211 HD
ENDBRANCH  18  25
BRANCH  20  27
ATOM     27  O   UNL     1      57.066   8.027  -8.439  1.00  0.00    -0.387 OA
ATOM     28  H   UNL     1      57.690   7.342  -8.796  1.00  0.00     0.211 HD
ENDBRANCH  20  27
BRANCH  21  29
ATOM     29  C   UNL     1      56.703   9.089  -5.892  1.00  0.00     0.191 C 
BRANCH  29  30
ATOM     30  O   UNL     1      57.518   8.052  -5.413  1.00  0.00    -0.394 OA
ATOM     31  H   UNL     1      58.041   7.718  -6.186  1.00  0.00     0.210 HD
ENDBRANCH  29  30
ENDBRANCH  21  29
ENDBRANCH   1  17
TORSDOF 13
ENDMDL
MODEL 2
REMARK VINA RESULT:    -4.705     15.830     18.428
REMARK INTER + INTRA:          -8.734
REMARK INTER:                  -7.402
REMARK INTRA:                  -1.332
REMARK UNBOUND:                -1.553
REMARK SMILES OC[C@H]1O[C@@](CO)(O[C@H]2O[C@H](CO)[C@@H](O)[C@@H](O)[C@H]2O)[C@H](O)[C@H]1O
REMARK SMILES IDX 8 1 9 2 11 3 14 4 10 5 16 6 18 7 12 8 13 9 15 11 17 13 19 15
REMARK SMILES IDX 5 17 20 18 4 19 22 20 3 21 6 22 7 23 21 25 23 27 2 29 1 30
REMARK H PARENT 13 10 15 12 17 14 19 16 7 24 21 26 23 28 1 31
REMARK Flexibility Score: inf
ROOT
ATOM      1  O   UNL     1      67.958  -4.146   2.821  1.00  0.00    -0.313 OA
ENDROOT
BRANCH   1   2
ATOM      2  C   UNL     1      67.522  -5.381   2.267  1.00  0.00     0.285 C 
ATOM      3  C   UNL     1      66.156  -6.177   0.482  1.00  0.00     0.178 C 
ATOM      4  C   UNL     1      67.347  -6.552  -0.452  1.00  0.00     0.177 C 
ATOM      5  O   UNL     1      66.470  -5.098   1.351  1.00  0.00    -0.341 OA
ATOM      6  C   UNL     1      68.690  -6.001   0.073  1.00  0.00     0.179 C 
ATOM      7  C   UNL     1      68.740  -6.093   1.603  1.00  0.00     0.202 C 
BRANCH   3   8
ATOM      8  C   UNL     1      65.579  -7.394   1.238  1.00  0.00     0.191 C 
BRANCH   8   9
ATOM      9  O   UNL     1      64.397  -7.840   0.629  1.00  0.00    -0.394 OA
ATOM     10  H   UNL     1      63.933  -7.033   0.284  1.00  0.00     0.210 HD
ENDBRANCH   8   9
ENDBRANCH   3   8
BRANCH   4  11
ATOM     11  O   UNL     1      67.124  -6.073  -1.754  1.00  0.00    -0.387 OA
ATOM     12  H   UNL     1      67.855  -5.430  -1.951  1.00  0.00     0.211 HD
ENDBRANCH   4  11
BRANCH   6  13
ATOM     13  O   UNL     1      68.946  -4.688  -0.372  1.00  0.00    -0.387 OA
ATOM     14  H   UNL     1      69.783  -4.691  -0.903  1.00  0.00     0.211 HD
ENDBRANCH   6  13
BRANCH   7  15
ATOM     15  O   UNL     1      69.961  -5.569   2.063  1.00  0.00    -0.385 OA
ATOM     16  H   UNL     1      69.767  -5.096   2.914  1.00  0.00     0.211 HD
ENDBRANCH   7  15
ENDBRANCH   1   2
BRANCH   1  17
ATOM     17  C   UNL     1      67.540  -3.909   4.166  1.00  0.00     0.224 C 
ATOM     18  C   UNL     1      67.611  -2.396   4.508  1.00  0.00     0.208 C 
ATOM     19  O   UNL     1      66.178  -4.296   4.230  1.00  0.00    -0.337 OA
ATOM     20  C   UNL     1      66.319  -2.127   5.235  1.00  0.00     0.180 C 
ATOM     21  C   UNL     1      65.394  -3.205   4.669  1.00  0.00     0.179 C 
BRANCH  17  22
ATOM     22  C   UNL     1      68.307  -4.822   5.166  1.00  0.00     0.225 C 
BRANCH  22  23
ATOM     23  O   UNL     1      69.695  -4.735   4.972  1.00  0.00    -0.391 OA
ATOM     24  H   UNL     1      69.899  -3.787   4.759  1.00  0.00     0.210 HD
ENDBRANCH  22  23
ENDBRANCH  17  22
BRANCH  18  25
ATOM     25  O   UNL     1      68.750  -2.013   5.245  1.00  0.00    -0.385 OA
ATOM     26  H   UNL     1      69.501  -1.848   4.620  1.00  0.00     0.211 HD
ENDBRANCH  18  25
BRANCH  20  27
ATOM     27  O   UNL     1      65.865  -0.820   4.989  1.00  0.00    -0.387 OA
ATOM     28  H   UNL     1      65.192  -0.620   5.692  1.00  0.00     0.211 HD
ENDBRANCH  20  27
BRANCH  21  29
ATOM     29  C   UNL     1      64.480  -2.735   3.521  1.00  0.00     0.191 C 
BRANCH  29  30
ATOM     30  O   UNL     1      63.405  -1.970   3.999  1.00  0.00    -0.394 OA
ATOM     31  H   UNL     1      63.131  -2.371   4.864  1.00  0.00     0.210 HD
ENDBRANCH  29  30
ENDBRANCH  21  29
ENDBRANCH   1  17
TORSDOF 13
ENDMDL
MODEL 3
REMARK VINA RESULT:    -4.703     15.390     17.914
REMARK INTER + INTRA:          -8.731
REMARK INTER:                  -7.419
REMARK INTRA:                  -1.311
REMARK UNBOUND:                -1.553
REMARK SMILES OC[C@H]1O[C@@](CO)(O[C@H]2O[C@H](CO)[C@@H](O)[C@@H](O)[C@H]2O)[C@H](O)[C@H]1O
REMARK SMILES IDX 8 1 9 2 11 3 14 4 10 5 16 6 18 7 12 8 13 9 15 11 17 13 19 15
REMARK SMILES IDX 5 17 20 18 4 19 22 20 3 21 6 22 7 23 21 25 23 27 2 29 1 30
REMARK H PARENT 13 10 15 12 17 14 19 16 7 24 21 26 23 28 1 31
REMARK Flexibility Score: inf
ROOT
ATOM      1  O   UNL     1      67.760  -5.162   2.994  1.00  0.00    -0.313 OA
ENDROOT
BRANCH   1   2
ATOM      2  C   UNL     1      66.845  -4.074   2.931  1.00  0.00     0.285 C 
ATOM      3  C   UNL     1      65.327  -2.907   4.351  1.00  0.00     0.178 C 
ATOM      4  C   UNL     1      66.263  -1.682   4.584  1.00  0.00     0.177 C 
ATOM      5  O   UNL     1      66.053  -4.104   4.113  1.00  0.00    -0.341 OA
ATOM      6  C   UNL     1      67.695  -1.941   4.068  1.00  0.00     0.179 C 
ATOM      7  C   UNL     1      67.650  -2.749   2.765  1.00  0.00     0.202 C 
BRANCH   3   8
ATOM      8  C   UNL     1      64.252  -2.644   3.274  1.00  0.00     0.191 C 
BRANCH   8   9
ATOM      9  O   UNL     1      63.596  -1.428   3.514  1.00  0.00    -0.394 OA
ATOM     10  H   UNL     1      62.757  -1.649   3.998  1.00  0.00     0.210 HD
ENDBRANCH   8   9
ENDBRANCH   3   8
BRANCH   4  11
ATOM     11  O   UNL     1      66.314  -1.352   5.950  1.00  0.00    -0.387 OA
ATOM     12  H   UNL     1      65.866  -0.471   6.048  1.00  0.00     0.211 HD
ENDBRANCH   4  11
BRANCH   6  13
ATOM     13  O   UNL     1      68.513  -2.565   5.031  1.00  0.00    -0.387 OA
ATOM     14  H   UNL     1      69.374  -2.076   5.080  1.00  0.00     0.211 HD
ENDBRANCH   6  13
BRANCH   7  15
ATOM     15  O   UNL     1      68.962  -2.990   2.320  1.00  0.00    -0.385 OA
ATOM     16  H   UNL     1      68.942  -3.849   1.821  1.00  0.00     0.211 HD
ENDBRANCH   7  15
ENDBRANCH   1   2
BRANCH   1  17
ATOM     17  C   UNL     1      67.411  -6.288   2.187  1.00  0.00     0.224 C 
ATOM     18  C   UNL     1      66.561  -5.849   0.964  1.00  0.00     0.208 C 
ATOM     19  O   UNL     1      68.631  -6.810   1.691  1.00  0.00    -0.337 OA
ATOM     20  C   UNL     1      67.159  -6.614  -0.188  1.00  0.00     0.180 C 
ATOM     21  C   UNL     1      68.599  -6.834   0.279  1.00  0.00     0.179 C 
BRANCH  17  22
ATOM     22  C   UNL     1      66.760  -7.415   3.040  1.00  0.00     0.225 C 
BRANCH  22  23
ATOM     23  O   UNL     1      65.554  -6.985   3.618  1.00  0.00    -0.391 OA
ATOM     24  H   UNL     1      65.541  -5.993   3.555  1.00  0.00     0.210 HD
ENDBRANCH  22  23
ENDBRANCH  17  22
BRANCH  18  25
ATOM     25  O   UNL     1      65.174  -6.060   1.106  1.00  0.00    -0.385 OA
ATOM     26  H   UNL     1      64.847  -5.552   1.892  1.00  0.00     0.211 HD
ENDBRANCH  18  25
BRANCH  20  27
ATOM     27  O   UNL     1      67.068  -5.880  -1.382  1.00  0.00    -0.387 OA
ATOM     28  H   UNL     1      66.151  -6.030  -1.735  1.00  0.00     0.211 HD
ENDBRANCH  20  27
BRANCH  21  29
ATOM     29  C   UNL     1      69.620  -5.820  -0.275  1.00  0.00     0.191 C 
BRANCH  29  30
ATOM     30  O   UNL     1      69.127  -4.508  -0.214  1.00  0.00    -0.394 OA
ATOM     31  H   UNL     1      68.174  -4.547  -0.489  1.00  0.00     0.210 HD
ENDBRANCH  29  30
ENDBRANCH  21  29
ENDBRANCH   1  17
TORSDOF 13
ENDMDL
MODEL 4
REMARK VINA RESULT:    -4.587     16.470     18.005
REMARK INTER + INTRA:          -8.554
REMARK INTER:                  -6.988
REMARK INTRA:                  -1.566
REMARK UNBOUND:                -1.553
REMARK SMILES OC[C@H]1O[C@@](CO)(O[C@H]2O[C@H](CO)[C@@H](O)[C@@H](O)[C@H]2O)[C@H](O)[C@H]1O
REMARK SMILES IDX 8 1 9 2 11 3 14 4 10 5 16 6 18 7 12 8 13 9 15 11 17 13 19 15
REMARK SMILES IDX 5 17 20 18 4 19 22 20 3 21 6 22 7 23 21 25 23 27 2 29 1 30
REMARK H PARENT 13 10 15 12 17 14 19 16 7 24 21 26 23 28 1 31
REMARK Flexibility Score: inf
ROOT
ATOM      1  O   UNL     1      66.378  -4.754   2.119  1.00  0.00    -0.313 OA
ENDROOT
BRANCH   1   2
ATOM      2  C   UNL     1      66.831  -4.189   3.344  1.00  0.00     0.285 C 
ATOM      3  C   UNL     1      67.180  -2.043   4.321  1.00  0.00     0.178 C 
ATOM      4  C   UNL     1      65.885  -2.069   5.189  1.00  0.00     0.177 C 
ATOM      5  O   UNL     1      67.045  -2.799   3.127  1.00  0.00    -0.341 OA
ATOM      6  C   UNL     1      64.951  -3.235   4.800  1.00  0.00     0.179 C 
ATOM      7  C   UNL     1      65.775  -4.482   4.454  1.00  0.00     0.202 C 
BRANCH   3   8
ATOM      8  C   UNL     1      68.446  -2.422   5.121  1.00  0.00     0.191 C 
BRANCH   8   9
ATOM      9  O   UNL     1      69.603  -2.032   4.431  1.00  0.00    -0.394 OA
ATOM     10  H   UNL     1      69.578  -1.041   4.374  1.00  0.00     0.210 HD
ENDBRANCH   8   9
ENDBRANCH   3   8
BRANCH   4  11
ATOM     11  O   UNL     1      65.187  -0.855   5.072  1.00  0.00    -0.387 OA
ATOM     12  H   UNL     1      64.525  -0.974   4.341  1.00  0.00     0.211 HD
ENDBRANCH   4  11
BRANCH   6  13
ATOM     13  O   UNL     1      64.068  -2.895   3.755  1.00  0.00    -0.387 OA
ATOM     14  H   UNL     1      64.551  -2.320   3.107  1.00  0.00     0.211 HD
ENDBRANCH   6  13
BRANCH   7  15
ATOM     15  O   UNL     1      64.909  -5.526   4.084  1.00  0.00    -0.385 OA
ATOM     16  H   UNL     1      64.307  -5.686   4.858  1.00  0.00     0.211 HD
ENDBRANCH   7  15
ENDBRANCH   1   2
BRANCH   1  17
ATOM     17  C   UNL     1      67.248  -5.733   1.551  1.00  0.00     0.224 C 
ATOM     18  C   UNL     1      67.580  -5.387   0.074  1.00  0.00     0.208 C 
ATOM     19  O   UNL     1      68.458  -5.660   2.286  1.00  0.00    -0.337 OA
ATOM     20  C   UNL     1      69.065  -5.622  -0.030  1.00  0.00     0.180 C 
ATOM     21  C   UNL     1      69.533  -5.396   1.408  1.00  0.00     0.179 C 
BRANCH  17  22
ATOM     22  C   UNL     1      66.692  -7.172   1.756  1.00  0.00     0.225 C 
BRANCH  22  23
ATOM     23  O   UNL     1      65.295  -7.202   1.620  1.00  0.00    -0.391 OA
ATOM     24  H   UNL     1      64.988  -8.078   1.972  1.00  0.00     0.210 HD
ENDBRANCH  22  23
ENDBRANCH  17  22
BRANCH  18  25
ATOM     25  O   UNL     1      66.838  -6.112  -0.880  1.00  0.00    -0.385 OA
ATOM     26  H   UNL     1      65.915  -5.752  -0.916  1.00  0.00     0.211 HD
ENDBRANCH  18  25
BRANCH  20  27
ATOM     27  O   UNL     1      69.651  -4.738  -0.951  1.00  0.00    -0.387 OA
ATOM     28  H   UNL     1      70.419  -4.314  -0.484  1.00  0.00     0.211 HD
ENDBRANCH  20  27
BRANCH  21  29
ATOM     29  C   UNL     1      70.094  -3.989   1.692  1.00  0.00     0.191 C 
BRANCH  29  30
ATOM     30  O   UNL     1      69.149  -2.992   1.410  1.00  0.00    -0.394 OA
ATOM     31  H   UNL     1      69.609  -2.309   0.857  1.00  0.00     0.210 HD
ENDBRANCH  29  30
ENDBRANCH  21  29
ENDBRANCH   1  17
TORSDOF 13
ENDMDL
MODEL 5
REMARK VINA RESULT:    -4.536     16.634     18.407
REMARK INTER + INTRA:          -8.476
REMARK INTER:                  -6.804
REMARK INTRA:                  -1.671
REMARK UNBOUND:                -1.553
REMARK SMILES OC[C@H]1O[C@@](CO)(O[C@H]2O[C@H](CO)[C@@H](O)[C@@H](O)[C@H]2O)[C@H](O)[C@H]1O
REMARK SMILES IDX 8 1 9 2 11 3 14 4 10 5 16 6 18 7 12 8 13 9 15 11 17 13 19 15
REMARK SMILES IDX 5 17 20 18 4 19 22 20 3 21 6 22 7 23 21 25 23 27 2 29 1 30
REMARK H PARENT 13 10 15 12 17 14 19 16 7 24 21 26 23 28 1 31
REMARK Flexibility Score: inf
ROOT
ATOM      1  O   UNL     1      68.131  -5.745   1.936  1.00  0.00    -0.313 OA
ENDROOT
BRANCH   1   2
ATOM      2  C   UNL     1      67.272  -4.632   2.153  1.00  0.00     0.285 C 
ATOM      3  C   UNL     1      66.731  -3.078   3.878  1.00  0.00     0.178 C 
ATOM      4  C   UNL     1      67.564  -1.904   3.279  1.00  0.00     0.177 C 
ATOM      5  O   UNL     1      67.273  -4.349   3.548  1.00  0.00    -0.341 OA
ATOM      6  C   UNL     1      68.480  -2.373   2.129  1.00  0.00     0.179 C 
ATOM      7  C   UNL     1      67.769  -3.436   1.283  1.00  0.00     0.202 C 
BRANCH   3   8
ATOM      8  C   UNL     1      65.225  -2.975   3.551  1.00  0.00     0.191 C 
BRANCH   8   9
ATOM      9  O   UNL     1      64.507  -3.994   4.193  1.00  0.00    -0.394 OA
ATOM     10  H   UNL     1      65.151  -4.467   4.783  1.00  0.00     0.210 HD
ENDBRANCH   8   9
ENDBRANCH   3   8
BRANCH   4  11
ATOM     11  O   UNL     1      68.344  -1.293   4.276  1.00  0.00    -0.387 OA
ATOM     12  H   UNL     1      68.222  -1.828   5.104  1.00  0.00     0.211 HD
ENDBRANCH   4  11
BRANCH   6  13
ATOM     13  O   UNL     1      69.732  -2.833   2.587  1.00  0.00    -0.387 OA
ATOM     14  H   UNL     1      69.895  -3.734   2.209  1.00  0.00     0.211 HD
ENDBRANCH   6  13
BRANCH   7  15
ATOM     15  O   UNL     1      68.624  -3.864   0.253  1.00  0.00    -0.385 OA
ATOM     16  H   UNL     1      69.318  -3.160   0.146  1.00  0.00     0.211 HD
ENDBRANCH   7  15
ENDBRANCH   1   2
BRANCH   1  17
ATOM     17  C   UNL     1      67.499  -7.021   2.038  1.00  0.00     0.224 C 
ATOM     18  C   UNL     1      65.955  -6.882   1.943  1.00  0.00     0.208 C 
ATOM     19  O   UNL     1      67.928  -7.765   0.910  1.00  0.00    -0.337 OA
ATOM     20  C   UNL     1      65.546  -7.992   1.010  1.00  0.00     0.180 C 
ATOM     21  C   UNL     1      66.805  -8.189   0.165  1.00  0.00     0.179 C 
BRANCH  17  22
ATOM     22  C   UNL     1      67.989  -7.798   3.294  1.00  0.00     0.225 C 
BRANCH  22  23
ATOM     23  O   UNL     1      67.840  -7.028   4.458  1.00  0.00    -0.391 OA
ATOM     24  H   UNL     1      68.144  -7.591   5.218  1.00  0.00     0.210 HD
ENDBRANCH  22  23
ENDBRANCH  17  22
BRANCH  18  25
ATOM     25  O   UNL     1      65.283  -6.925   3.182  1.00  0.00    -0.385 OA
ATOM     26  H   UNL     1      64.956  -6.017   3.406  1.00  0.00     0.211 HD
ENDBRANCH  18  25
BRANCH  20  27
ATOM     27  O   UNL     1      64.420  -7.626   0.254  1.00  0.00    -0.387 OA
ATOM     28  H   UNL     1      63.690  -8.245   0.519  1.00  0.00     0.211 HD
ENDBRANCH  20  27
BRANCH  21  29
ATOM     29  C   UNL     1      66.789  -7.466  -1.197  1.00  0.00     0.191 C 
BRANCH  29  30
ATOM     30  O   UNL     1      66.924  -6.078  -1.043  1.00  0.00    -0.394 OA
ATOM     31  H   UNL     1      66.928  -5.688  -1.956  1.00  0.00     0.210 HD
ENDBRANCH  29  30
ENDBRANCH  21  29
ENDBRANCH   1  17
TORSDOF 13
ENDMDL
MODEL 6
REMARK VINA RESULT:    -4.481     15.774     17.368
REMARK INTER + INTRA:          -8.392
REMARK INTER:                  -6.788
REMARK INTRA:                  -1.604
REMARK UNBOUND:                -1.553
REMARK SMILES OC[C@H]1O[C@@](CO)(O[C@H]2O[C@H](CO)[C@@H](O)[C@@H](O)[C@H]2O)[C@H](O)[C@H]1O
REMARK SMILES IDX 8 1 9 2 11 3 14 4 10 5 16 6 18 7 12 8 13 9 15 11 17 13 19 15
REMARK SMILES IDX 5 17 20 18 4 19 22 20 3 21 6 22 7 23 21 25 23 27 2 29 1 30
REMARK H PARENT 13 10 15 12 17 14 19 16 7 24 21 26 23 28 1 31
REMARK Flexibility Score: inf
ROOT
ATOM      1  O   UNL     1      66.748  -2.030   3.279  1.00  0.00    -0.313 OA
ENDROOT
BRANCH   1   2
ATOM      2  C   UNL     1      66.449  -2.483   4.594  1.00  0.00     0.285 C 
ATOM      3  C   UNL     1      66.523  -1.685   6.839  1.00  0.00     0.178 C 
ATOM      4  C   UNL     1      64.994  -1.399   6.940  1.00  0.00     0.177 C 
ATOM      5  O   UNL     1      67.011  -1.552   5.512  1.00  0.00    -0.341 OA
ATOM      6  C   UNL     1      64.296  -1.488   5.565  1.00  0.00     0.179 C 
ATOM      7  C   UNL     1      64.902  -2.627   4.736  1.00  0.00     0.202 C 
BRANCH   3   8
ATOM      8  C   UNL     1      66.928  -3.028   7.485  1.00  0.00     0.191 C 
BRANCH   8   9
ATOM      9  O   UNL     1      68.271  -3.324   7.214  1.00  0.00    -0.394 OA
ATOM     10  H   UNL     1      68.273  -3.969   6.459  1.00  0.00     0.210 HD
ENDBRANCH   8   9
ENDBRANCH   3   8
BRANCH   4  11
ATOM     11  O   UNL     1      64.763  -0.129   7.497  1.00  0.00    -0.387 OA
ATOM     12  H   UNL     1      64.321   0.416   6.794  1.00  0.00     0.211 HD
ENDBRANCH   4  11
BRANCH   6  13
ATOM     13  O   UNL     1      64.330  -0.266   4.863  1.00  0.00    -0.387 OA
ATOM     14  H   UNL     1      65.251  -0.120   4.527  1.00  0.00     0.211 HD
ENDBRANCH   6  13
BRANCH   7  15
ATOM     15  O   UNL     1      64.268  -2.680   3.482  1.00  0.00    -0.385 OA
ATOM     16  H   UNL     1      63.408  -2.192   3.575  1.00  0.00     0.211 HD
ENDBRANCH   7  15
ENDBRANCH   1   2
BRANCH   1  17
ATOM     17  C   UNL     1      67.858  -2.679   2.658  1.00  0.00     0.224 C 
ATOM     18  C   UNL     1      68.268  -3.950   3.450  1.00  0.00     0.208 C 
ATOM     19  O   UNL     1      67.404  -3.102   1.383  1.00  0.00    -0.337 OA
ATOM     20  C   UNL     1      68.486  -4.990   2.382  1.00  0.00     0.180 C 
ATOM     21  C   UNL     1      67.575  -4.499   1.256  1.00  0.00     0.179 C 
BRANCH  17  22
ATOM     22  C   UNL     1      69.027  -1.685   2.405  1.00  0.00     0.225 C 
BRANCH  22  23
ATOM     23  O   UNL     1      69.301  -0.919   3.549  1.00  0.00    -0.391 OA
ATOM     24  H   UNL     1      68.426  -0.645   3.931  1.00  0.00     0.210 HD
ENDBRANCH  22  23
ENDBRANCH  17  22
BRANCH  18  25
ATOM     25  O   UNL     1      69.386  -3.782   4.293  1.00  0.00    -0.385 OA
ATOM     26  H   UNL     1      69.685  -4.669   4.617  1.00  0.00     0.211 HD
ENDBRANCH  18  25
BRANCH  20  27
ATOM     27  O   UNL     1      68.149  -6.272   2.850  1.00  0.00    -0.387 OA
ATOM     28  H   UNL     1      67.255  -6.482   2.474  1.00  0.00     0.211 HD
ENDBRANCH  20  27
BRANCH  21  29
ATOM     29  C   UNL     1      66.194  -5.182   1.197  1.00  0.00     0.191 C 
BRANCH  29  30
ATOM     30  O   UNL     1      65.154  -4.254   1.358  1.00  0.00    -0.394 OA
ATOM     31  H   UNL     1      64.359  -4.765   1.659  1.00  0.00     0.210 HD
ENDBRANCH  29  30
ENDBRANCH  21  29
ENDBRANCH   1  17
TORSDOF 13
ENDMDL
MODEL 7
REMARK VINA RESULT:    -4.447     15.972     18.751
REMARK INTER + INTRA:          -8.340
REMARK INTER:                  -7.085
REMARK INTRA:                  -1.255
REMARK UNBOUND:                -1.553
REMARK SMILES OC[C@H]1O[C@@](CO)(O[C@H]2O[C@H](CO)[C@@H](O)[C@@H](O)[C@H]2O)[C@H](O)[C@H]1O
REMARK SMILES IDX 8 1 9 2 11 3 14 4 10 5 16 6 18 7 12 8 13 9 15 11 17 13 19 15
REMARK SMILES IDX 5 17 20 18 4 19 22 20 3 21 6 22 7 23 21 25 23 27 2 29 1 30
REMARK H PARENT 13 10 15 12 17 14 19 16 7 24 21 26 23 28 1 31
REMARK Flexibility Score: inf
ROOT
ATOM      1  O   UNL     1      65.157  -4.247   4.720  1.00  0.00    -0.313 OA
ENDROOT
BRANCH   1   2
ATOM      2  C   UNL     1      66.370  -4.910   5.053  1.00  0.00     0.285 C 
ATOM      3  C   UNL     1      67.647  -5.473   6.986  1.00  0.00     0.178 C 
ATOM      4  C   UNL     1      67.203  -6.967   7.021  1.00  0.00     0.177 C 
ATOM      5  O   UNL     1      66.657  -4.627   6.419  1.00  0.00    -0.341 OA
ATOM      6  C   UNL     1      66.034  -7.245   6.051  1.00  0.00     0.179 C 
ATOM      7  C   UNL     1      66.209  -6.433   4.762  1.00  0.00     0.202 C 
BRANCH   3   8
ATOM      8  C   UNL     1      69.036  -5.274   6.339  1.00  0.00     0.191 C 
BRANCH   8   9
ATOM      9  O   UNL     1      69.592  -6.507   5.971  1.00  0.00    -0.394 OA
ATOM     10  H   UNL     1      69.135  -6.787   5.135  1.00  0.00     0.210 HD
ENDBRANCH   8   9
ENDBRANCH   3   8
BRANCH   4  11
ATOM     11  O   UNL     1      66.827  -7.341   8.323  1.00  0.00    -0.387 OA
ATOM     12  H   UNL     1      66.589  -6.505   8.803  1.00  0.00     0.211 HD
ENDBRANCH   4  11
BRANCH   6  13
ATOM     13  O   UNL     1      64.775  -7.009   6.641  1.00  0.00    -0.387 OA
ATOM     14  H   UNL     1      64.285  -7.869   6.696  1.00  0.00     0.211 HD
ENDBRANCH   6  13
BRANCH   7  15
ATOM     15  O   UNL     1      65.127  -6.685   3.901  1.00  0.00    -0.385 OA
ATOM     16  H   UNL     1      64.920  -7.654   3.976  1.00  0.00     0.211 HD
ENDBRANCH   7  15
ENDBRANCH   1   2
BRANCH   1  17
ATOM     17  C   UNL     1      65.281  -3.229   3.727  1.00  0.00     0.224 C 
ATOM     18  C   UNL     1      66.766  -2.812   3.546  1.00  0.00     0.208 C 
ATOM     19  O   UNL     1      64.852  -3.811   2.508  1.00  0.00    -0.337 OA
ATOM     20  C   UNL     1      66.944  -2.739   2.051  1.00  0.00     0.180 C 
ATOM     21  C   UNL     1      65.884  -3.719   1.547  1.00  0.00     0.179 C 
BRANCH  17  22
ATOM     22  C   UNL     1      64.319  -2.039   4.012  1.00  0.00     0.225 C 
BRANCH  22  23
ATOM     23  O   UNL     1      63.332  -1.933   3.019  1.00  0.00    -0.391 OA
ATOM     24  H   UNL     1      63.793  -1.665   2.181  1.00  0.00     0.210 HD
ENDBRANCH  22  23
ENDBRANCH  17  22
BRANCH  18  25
ATOM     25  O   UNL     1      67.126  -1.619   4.205  1.00  0.00    -0.385 OA
ATOM     26  H   UNL     1      67.631  -1.842   5.028  1.00  0.00     0.211 HD
ENDBRANCH  18  25
BRANCH  20  27
ATOM     27  O   UNL     1      68.252  -3.094   1.681  1.00  0.00    -0.387 OA
ATOM     28  H   UNL     1      68.166  -3.757   0.947  1.00  0.00     0.211 HD
ENDBRANCH  20  27
BRANCH  21  29
ATOM     29  C   UNL     1      66.412  -5.131   1.224  1.00  0.00     0.191 C 
BRANCH  29  30
ATOM     30  O   UNL     1      66.755  -5.253  -0.131  1.00  0.00    -0.394 OA
ATOM     31  H   UNL     1      66.643  -4.355  -0.538  1.00  0.00     0.210 HD
ENDBRANCH  29  30
ENDBRANCH  21  29
ENDBRANCH   1  17
TORSDOF 13
ENDMDL
MODEL 8
REMARK VINA RESULT:    -4.380     16.327     18.578
REMARK INTER + INTRA:          -8.238
REMARK INTER:                  -6.718
REMARK INTRA:                  -1.520
REMARK UNBOUND:                -1.553
REMARK SMILES OC[C@H]1O[C@@](CO)(O[C@H]2O[C@H](CO)[C@@H](O)[C@@H](O)[C@H]2O)[C@H](O)[C@H]1O
REMARK SMILES IDX 8 1 9 2 11 3 14 4 10 5 16 6 18 7 12 8 13 9 15 11 17 13 19 15
REMARK SMILES IDX 5 17 20 18 4 19 22 20 3 21 6 22 7 23 21 25 23 27 2 29 1 30
REMARK H PARENT 13 10 15 12 17 14 19 16 7 24 21 26 23 28 1 31
REMARK Flexibility Score: inf
ROOT
ATOM      1  O   UNL     1      66.800  -3.568   2.386  1.00  0.00    -0.313 OA
ENDROOT
BRANCH   1   2
ATOM      2  C   UNL     1      67.088  -4.953   2.527  1.00  0.00     0.285 C 
ATOM      3  C   UNL     1      66.036  -7.062   2.164  1.00  0.00     0.178 C 
ATOM      4  C   UNL     1      66.795  -7.373   0.838  1.00  0.00     0.177 C 
ATOM      5  O   UNL     1      65.866  -5.668   2.375  1.00  0.00    -0.341 OA
ATOM      6  C   UNL     1      67.563  -6.143   0.309  1.00  0.00     0.179 C 
ATOM      7  C   UNL     1      68.168  -5.353   1.476  1.00  0.00     0.202 C 
BRANCH   3   8
ATOM      8  C   UNL     1      66.651  -7.774   3.389  1.00  0.00     0.191 C 
BRANCH   8   9
ATOM      9  O   UNL     1      66.052  -7.327   4.575  1.00  0.00    -0.394 OA
ATOM     10  H   UNL     1      66.786  -7.184   5.228  1.00  0.00     0.210 HD
ENDBRANCH   8   9
ENDBRANCH   3   8
BRANCH   4  11
ATOM     11  O   UNL     1      65.901  -7.823  -0.149  1.00  0.00    -0.387 OA
ATOM     12  H   UNL     1      65.173  -8.306   0.323  1.00  0.00     0.211 HD
ENDBRANCH   4  11
BRANCH   6  13
ATOM     13  O   UNL     1      66.766  -5.320  -0.512  1.00  0.00    -0.387 OA
ATOM     14  H   UNL     1      67.211  -4.438  -0.602  1.00  0.00     0.211 HD
ENDBRANCH   6  13
BRANCH   7  15
ATOM     15  O   UNL     1      68.848  -4.228   0.976  1.00  0.00    -0.385 OA
ATOM     16  H   UNL     1      68.586  -4.136   0.023  1.00  0.00     0.211 HD
ENDBRANCH   7  15
ENDBRANCH   1   2
BRANCH   1  17
ATOM     17  C   UNL     1      66.765  -2.833   3.610  1.00  0.00     0.224 C 
ATOM     18  C   UNL     1      67.429  -3.640   4.758  1.00  0.00     0.208 C 
ATOM     19  O   UNL     1      67.552  -1.673   3.396  1.00  0.00    -0.337 OA
ATOM     20  C   UNL     1      68.290  -2.627   5.465  1.00  0.00     0.180 C 
ATOM     21  C   UNL     1      68.589  -1.619   4.354  1.00  0.00     0.179 C 
BRANCH  17  22
ATOM     22  C   UNL     1      65.326  -2.338   3.932  1.00  0.00     0.225 C 
BRANCH  22  23
ATOM     23  O   UNL     1      64.413  -3.405   3.951  1.00  0.00    -0.391 OA
ATOM     24  H   UNL     1      64.840  -4.143   4.460  1.00  0.00     0.210 HD
ENDBRANCH  22  23
ENDBRANCH  17  22
BRANCH  18  25
ATOM     25  O   UNL     1      66.522  -4.292   5.619  1.00  0.00    -0.385 OA
ATOM     26  H   UNL     1      66.454  -5.245   5.357  1.00  0.00     0.211 HD
ENDBRANCH  18  25
BRANCH  20  27
ATOM     27  O   UNL     1      69.444  -3.228   5.997  1.00  0.00    -0.387 OA
ATOM     28  H   UNL     1      69.994  -2.493   6.377  1.00  0.00     0.211 HD
ENDBRANCH  20  27
BRANCH  21  29
ATOM     29  C   UNL     1      69.948  -1.816   3.652  1.00  0.00     0.191 C 
BRANCH  29  30
ATOM     30  O   UNL     1      69.822  -1.732   2.257  1.00  0.00    -0.394 OA
ATOM     31  H   UNL     1      69.111  -1.066   2.073  1.00  0.00     0.210 HD
ENDBRANCH  29  30
ENDBRANCH  21  29
ENDBRANCH   1  17
TORSDOF 13
ENDMDL
MODEL 9
REMARK VINA RESULT:    -4.350     16.317     18.611
REMARK INTER + INTRA:          -8.192
REMARK INTER:                  -6.566
REMARK INTRA:                  -1.626
REMARK UNBOUND:                -1.553
REMARK SMILES OC[C@H]1O[C@@](CO)(O[C@H]2O[C@H](CO)[C@@H](O)[C@@H](O)[C@H]2O)[C@H](O)[C@H]1O
REMARK SMILES IDX 8 1 9 2 11 3 14 4 10 5 16 6 18 7 12 8 13 9 15 11 17 13 19 15
REMARK SMILES IDX 5 17 20 18 4 19 22 20 3 21 6 22 7 23 21 25 23 27 2 29 1 30
REMARK H PARENT 13 10 15 12 17 14 19 16 7 24 21 26 23 28 1 31
REMARK Flexibility Score: inf
ROOT
ATOM      1  O   UNL     1      67.774  -3.782   2.257  1.00  0.00    -0.313 OA
ENDROOT
BRANCH   1   2
ATOM      2  C   UNL     1      67.861  -5.200   2.314  1.00  0.00     0.285 C 
ATOM      3  C   UNL     1      66.428  -7.103   2.204  1.00  0.00     0.178 C 
ATOM      4  C   UNL     1      66.785  -7.465   0.730  1.00  0.00     0.177 C 
ATOM      5  O   UNL     1      66.540  -5.710   2.460  1.00  0.00    -0.341 OA
ATOM      6  C   UNL     1      67.592  -6.346   0.037  1.00  0.00     0.179 C 
ATOM      7  C   UNL     1      68.578  -5.713   1.027  1.00  0.00     0.202 C 
BRANCH   3   8
ATOM      8  C   UNL     1      67.197  -7.957   3.236  1.00  0.00     0.191 C 
BRANCH   8   9
ATOM      9  O   UNL     1      67.863  -9.017   2.604  1.00  0.00    -0.394 OA
ATOM     10  H   UNL     1      67.590  -9.846   3.078  1.00  0.00     0.210 HD
ENDBRANCH   8   9
ENDBRANCH   3   8
BRANCH   4  11
ATOM     11  O   UNL     1      65.620  -7.726  -0.012  1.00  0.00    -0.387 OA
ATOM     12  H   UNL     1      65.115  -8.423   0.485  1.00  0.00     0.211 HD
ENDBRANCH   4  11
BRANCH   6  13
ATOM     13  O   UNL     1      66.764  -5.372  -0.557  1.00  0.00    -0.387 OA
ATOM     14  H   UNL     1      66.504  -5.686  -1.461  1.00  0.00     0.211 HD
ENDBRANCH   6  13
BRANCH   7  15
ATOM     15  O   UNL     1      69.289  -4.684   0.384  1.00  0.00    -0.385 OA
ATOM     16  H   UNL     1      70.249  -4.936   0.417  1.00  0.00     0.211 HD
ENDBRANCH   7  15
ENDBRANCH   1   2
BRANCH   1  17
ATOM     17  C   UNL     1      68.297  -3.101   3.398  1.00  0.00     0.224 C 
ATOM     18  C   UNL     1      67.473  -1.821   3.704  1.00  0.00     0.208 C 
ATOM     19  O   UNL     1      68.133  -3.984   4.494  1.00  0.00    -0.337 OA
ATOM     20  C   UNL     1      67.285  -1.858   5.198  1.00  0.00     0.180 C 
ATOM     21  C   UNL     1      67.367  -3.355   5.501  1.00  0.00     0.179 C 
BRANCH  17  22
ATOM     22  C   UNL     1      69.826  -2.851   3.255  1.00  0.00     0.225 C 
BRANCH  22  23
ATOM     23  O   UNL     1      70.122  -2.169   2.064  1.00  0.00    -0.391 OA
ATOM     24  H   UNL     1      70.095  -1.198   2.272  1.00  0.00     0.210 HD
ENDBRANCH  22  23
ENDBRANCH  17  22
BRANCH  18  25
ATOM     25  O   UNL     1      68.060  -0.622   3.250  1.00  0.00    -0.385 OA
ATOM     26  H   UNL     1      67.462   0.137   3.474  1.00  0.00     0.211 HD
ENDBRANCH  18  25
BRANCH  20  27
ATOM     27  O   UNL     1      66.057  -1.283   5.566  1.00  0.00    -0.387 OA
ATOM     28  H   UNL     1      65.395  -1.574   4.885  1.00  0.00     0.211 HD
ENDBRANCH  20  27
BRANCH  21  29
ATOM     29  C   UNL     1      66.004  -4.065   5.628  1.00  0.00     0.191 C 
BRANCH  29  30
ATOM     30  O   UNL     1      65.304  -4.056   4.412  1.00  0.00    -0.394 OA
ATOM     31  H   UNL     1      65.979  -3.941   3.694  1.00  0.00     0.210 HD
ENDBRANCH  29  30
ENDBRANCH  21  29
ENDBRANCH   1  17
TORSDOF 13
ENDMDL
