MODEL 1
REMARK VINA RESULT:    -5.413      0.000      0.000
REMARK INTER + INTRA:          -9.827
REMARK INTER:                  -8.262
REMARK INTRA:                  -1.566
REMARK UNBOUND:                -1.566
REMARK SMILES OC[C@@H]1O[C@H](O[C@]2(CO)O[C@H](CO)[C@@H](O)[C@@H]2O)[C@H](O)[C@@H](O)[C@@H]1O
REMARK SMILES IDX 6 1 5 2 3 3 22 4 4 5 20 6 18 7 2 8 1 9 23 11 21 13 19 15
REMARK SMILES IDX 7 17 16 18 10 19 14 20 11 21 8 22 9 23 17 25 15 27 12 29
REMARK SMILES IDX 13 30
REMARK H PARENT 1 10 23 12 21 14 19 16 9 24 17 26 15 28 13 31
REMARK Flexibility Score: inf
ROOT
ATOM      1  O   UNL     1     -15.446  29.242  19.037  1.00  0.00    -0.313 OA
ENDROOT
BRANCH   1   2
ATOM      2  C   UNL     1     -14.772  30.262  18.306  1.00  0.00     0.285 C 
ATOM      3  C   UNL     1     -16.576  31.832  17.970  1.00  0.00     0.178 C 
ATOM      4  C   UNL     1     -15.866  32.903  18.832  1.00  0.00     0.177 C 
ATOM      5  O   UNL     1     -15.665  30.898  17.389  1.00  0.00    -0.341 OA
ATOM      6  C   UNL     1     -15.031  32.237  19.918  1.00  0.00     0.179 C 
ATOM      7  C   UNL     1     -14.053  31.263  19.246  1.00  0.00     0.202 C 
BRANCH   3   8
ATOM      8  C   UNL     1     -17.771  31.157  18.678  1.00  0.00     0.191 C 
BRANCH   8   9
ATOM      9  O   UNL     1     -18.561  30.486  17.738  1.00  0.00    -0.394 OA
ATOM     10  H   UNL     1     -18.317  30.858  16.852  1.00  0.00     0.210 HD
ENDBRANCH   8   9
ENDBRANCH   3   8
BRANCH   4  11
ATOM     11  O   UNL     1     -16.793  33.780  19.421  1.00  0.00    -0.387 OA
ATOM     12  H   UNL     1     -16.640  33.739  20.402  1.00  0.00     0.211 HD
ENDBRANCH   4  11
BRANCH   6  13
ATOM     13  O   UNL     1     -14.319  33.224  20.622  1.00  0.00    -0.387 OA
ATOM     14  H   UNL     1     -14.149  32.862  21.531  1.00  0.00     0.211 HD
ENDBRANCH   6  13
BRANCH   7  15
ATOM     15  O   UNL     1     -13.267  30.596  20.201  1.00  0.00    -0.385 OA
ATOM     16  H   UNL     1     -12.544  30.117  19.716  1.00  0.00     0.211 HD
ENDBRANCH   7  15
ENDBRANCH   1   2
BRANCH   1  17
ATOM     17  C   UNL     1     -15.083  27.903  18.677  1.00  0.00     0.224 C 
ATOM     18  C   UNL     1     -16.214  27.180  17.911  1.00  0.00     0.208 C 
ATOM     19  O   UNL     1     -13.997  27.994  17.778  1.00  0.00    -0.337 OA
ATOM     20  C   UNL     1     -15.475  26.292  16.925  1.00  0.00     0.180 C 
ATOM     21  C   UNL     1     -14.073  26.913  16.870  1.00  0.00     0.179 C 
BRANCH  17  22
ATOM     22  C   UNL     1     -14.607  27.057  19.895  1.00  0.00     0.225 C 
BRANCH  22  23
ATOM     23  O   UNL     1     -13.460  27.626  20.459  1.00  0.00    -0.391 OA
ATOM     24  H   UNL     1     -13.297  27.138  21.308  1.00  0.00     0.210 HD
ENDBRANCH  22  23
ENDBRANCH  17  22
BRANCH  18  25
ATOM     25  O   UNL     1     -17.046  28.079  17.221  1.00  0.00    -0.385 OA
ATOM     26  H   UNL     1     -16.565  28.383  16.406  1.00  0.00     0.211 HD
ENDBRANCH  18  25
BRANCH  20  27
ATOM     27  O   UNL     1     -15.398  24.974  17.405  1.00  0.00    -0.387 OA
ATOM     28  H   UNL     1     -15.675  25.002  18.358  1.00  0.00     0.211 HD
ENDBRANCH  20  27
BRANCH  21  29
ATOM     29  C   UNL     1     -13.725  27.411  15.461  1.00  0.00     0.191 C 
BRANCH  29  30
ATOM     30  O   UNL     1     -12.960  26.455  14.777  1.00  0.00    -0.394 OA
ATOM     31  H   UNL     1     -12.259  26.952  14.282  1.00  0.00     0.210 HD
ENDBRANCH  29  30
ENDBRANCH  21  29
ENDBRANCH   1  17
TORSDOF 13
ENDMDL
MODEL 2
REMARK VINA RESULT:    -4.989      1.885      3.206
REMARK INTER + INTRA:          -9.180
REMARK INTER:                  -7.282
REMARK INTRA:                  -1.898
REMARK UNBOUND:                -1.566
REMARK SMILES OC[C@@H]1O[C@H](O[C@]2(CO)O[C@H](CO)[C@@H](O)[C@@H]2O)[C@H](O)[C@@H](O)[C@@H]1O
REMARK SMILES IDX 6 1 5 2 3 3 22 4 4 5 20 6 18 7 2 8 1 9 23 11 21 13 19 15
REMARK SMILES IDX 7 17 16 18 10 19 14 20 11 21 8 22 9 23 17 25 15 27 12 29
REMARK SMILES IDX 13 30
REMARK H PARENT 1 10 23 12 21 14 19 16 9 24 17 26 15 28 13 31
REMARK Flexibility Score: inf
ROOT
ATOM      1  O   UNL     1     -15.780  27.636  18.041  1.00  0.00    -0.313 OA
ENDROOT
BRANCH   1   2
ATOM      2  C   UNL     1     -14.362  27.607  18.169  1.00  0.00     0.285 C 
ATOM      3  C   UNL     1     -13.870  29.971  18.189  1.00  0.00     0.178 C 
ATOM      4  C   UNL     1     -13.340  29.896  19.640  1.00  0.00     0.177 C 
ATOM      5  O   UNL     1     -13.773  28.724  17.500  1.00  0.00    -0.341 OA
ATOM      6  C   UNL     1     -14.073  28.808  20.414  1.00  0.00     0.179 C 
ATOM      7  C   UNL     1     -13.921  27.486  19.650  1.00  0.00     0.202 C 
BRANCH   3   8
ATOM      8  C   UNL     1     -15.264  30.625  18.071  1.00  0.00     0.191 C 
BRANCH   8   9
ATOM      9  O   UNL     1     -15.703  30.570  16.743  1.00  0.00    -0.394 OA
ATOM     10  H   UNL     1     -14.974  30.138  16.227  1.00  0.00     0.210 HD
ENDBRANCH   8   9
ENDBRANCH   3   8
BRANCH   4  11
ATOM     11  O   UNL     1     -13.487  31.127  20.302  1.00  0.00    -0.387 OA
ATOM     12  H   UNL     1     -12.654  31.270  20.825  1.00  0.00     0.211 HD
ENDBRANCH   4  11
BRANCH   6  13
ATOM     13  O   UNL     1     -13.506  28.691  21.695  1.00  0.00    -0.387 OA
ATOM     14  H   UNL     1     -13.088  27.792  21.742  1.00  0.00     0.211 HD
ENDBRANCH   6  13
BRANCH   7  15
ATOM     15  O   UNL     1     -14.599  26.442  20.303  1.00  0.00    -0.385 OA
ATOM     16  H   UNL     1     -14.261  26.398  21.236  1.00  0.00     0.211 HD
ENDBRANCH   7  15
ENDBRANCH   1   2
BRANCH   1  17
ATOM     17  C   UNL     1     -16.334  26.585  17.239  1.00  0.00     0.224 C 
ATOM     18  C   UNL     1     -16.805  27.093  15.858  1.00  0.00     0.208 C 
ATOM     19  O   UNL     1     -15.293  25.664  16.984  1.00  0.00    -0.337 OA
ATOM     20  C   UNL     1     -16.518  25.930  14.925  1.00  0.00     0.180 C 
ATOM     21  C   UNL     1     -15.507  25.085  15.711  1.00  0.00     0.179 C 
BRANCH  17  22
ATOM     22  C   UNL     1     -17.473  25.807  17.964  1.00  0.00     0.225 C 
BRANCH  22  23
ATOM     23  O   UNL     1     -16.989  25.231  19.143  1.00  0.00    -0.391 OA
ATOM     24  H   UNL     1     -17.672  25.410  19.840  1.00  0.00     0.210 HD
ENDBRANCH  22  23
ENDBRANCH  17  22
BRANCH  18  25
ATOM     25  O   UNL     1     -16.094  28.232  15.442  1.00  0.00    -0.385 OA
ATOM     26  H   UNL     1     -15.188  28.199  15.851  1.00  0.00     0.211 HD
ENDBRANCH  18  25
BRANCH  20  27
ATOM     27  O   UNL     1     -17.685  25.184  14.688  1.00  0.00    -0.387 OA
ATOM     28  H   UNL     1     -18.435  25.695  15.090  1.00  0.00     0.211 HD
ENDBRANCH  20  27
BRANCH  21  29
ATOM     29  C   UNL     1     -14.165  24.970  14.976  1.00  0.00     0.191 C 
BRANCH  29  30
ATOM     30  O   UNL     1     -13.601  26.239  14.784  1.00  0.00    -0.394 OA
ATOM     31  H   UNL     1     -13.274  26.542  15.670  1.00  0.00     0.210 HD
ENDBRANCH  29  30
ENDBRANCH  21  29
ENDBRANCH   1  17
TORSDOF 13
ENDMDL
MODEL 3
REMARK VINA RESULT:    -4.974      1.577      6.021
REMARK INTER + INTRA:          -9.156
REMARK INTER:                  -7.500
REMARK INTRA:                  -1.656
REMARK UNBOUND:                -1.566
REMARK SMILES OC[C@@H]1O[C@H](O[C@]2(CO)O[C@H](CO)[C@@H](O)[C@@H]2O)[C@H](O)[C@@H](O)[C@@H]1O
REMARK SMILES IDX 6 1 5 2 3 3 22 4 4 5 20 6 18 7 2 8 1 9 23 11 21 13 19 15
REMARK SMILES IDX 7 17 16 18 10 19 14 20 11 21 8 22 9 23 17 25 15 27 12 29
REMARK SMILES IDX 13 30
REMARK H PARENT 1 10 23 12 21 14 19 16 9 24 17 26 15 28 13 31
REMARK Flexibility Score: inf
ROOT
ATOM      1  O   UNL     1     -14.715  27.124  18.276  1.00  0.00    -0.313 OA
ENDROOT
BRANCH   1   2
ATOM      2  C   UNL     1     -15.941  27.112  17.552  1.00  0.00     0.285 C 
ATOM      3  C   UNL     1     -15.175  26.350  15.393  1.00  0.00     0.178 C 
ATOM      4  C   UNL     1     -15.997  25.046  15.508  1.00  0.00     0.177 C 
ATOM      5  O   UNL     1     -15.716  27.416  16.174  1.00  0.00    -0.341 OA
ATOM      6  C   UNL     1     -16.112  24.623  16.967  1.00  0.00     0.179 C 
ATOM      7  C   UNL     1     -16.720  25.787  17.761  1.00  0.00     0.202 C 
BRANCH   3   8
ATOM      8  C   UNL     1     -13.658  26.149  15.604  1.00  0.00     0.191 C 
BRANCH   8   9
ATOM      9  O   UNL     1     -13.063  25.729  14.410  1.00  0.00    -0.394 OA
ATOM     10  H   UNL     1     -13.795  25.362  13.849  1.00  0.00     0.210 HD
ENDBRANCH   8   9
ENDBRANCH   3   8
BRANCH   4  11
ATOM     11  O   UNL     1     -15.416  24.007  14.761  1.00  0.00    -0.387 OA
ATOM     12  H   UNL     1     -15.861  23.166  15.048  1.00  0.00     0.211 HD
ENDBRANCH   4  11
BRANCH   6  13
ATOM     13  O   UNL     1     -16.947  23.495  17.056  1.00  0.00    -0.387 OA
ATOM     14  H   UNL     1     -16.356  22.713  17.216  1.00  0.00     0.211 HD
ENDBRANCH   6  13
BRANCH   7  15
ATOM     15  O   UNL     1     -16.831  25.468  19.125  1.00  0.00    -0.385 OA
ATOM     16  H   UNL     1     -17.496  26.086  19.528  1.00  0.00     0.211 HD
ENDBRANCH   7  15
ENDBRANCH   1   2
BRANCH   1  17
ATOM     17  C   UNL     1     -14.544  28.244  19.153  1.00  0.00     0.224 C 
ATOM     18  C   UNL     1     -13.502  29.250  18.615  1.00  0.00     0.208 C 
ATOM     19  O   UNL     1     -15.775  28.936  19.188  1.00  0.00    -0.337 OA
ATOM     20  C   UNL     1     -14.036  30.600  19.059  1.00  0.00     0.180 C 
ATOM     21  C   UNL     1     -15.512  30.314  19.369  1.00  0.00     0.179 C 
BRANCH  17  22
ATOM     22  C   UNL     1     -14.208  27.823  20.614  1.00  0.00     0.225 C 
BRANCH  22  23
ATOM     23  O   UNL     1     -12.849  28.028  20.876  1.00  0.00    -0.391 OA
ATOM     24  H   UNL     1     -12.670  28.983  20.677  1.00  0.00     0.210 HD
ENDBRANCH  22  23
ENDBRANCH  17  22
BRANCH  18  25
ATOM     25  O   UNL     1     -13.400  29.210  17.213  1.00  0.00    -0.385 OA
ATOM     26  H   UNL     1     -12.847  28.422  16.965  1.00  0.00     0.211 HD
ENDBRANCH  18  25
BRANCH  20  27
ATOM     27  O   UNL     1     -13.378  31.036  20.223  1.00  0.00    -0.387 OA
ATOM     28  H   UNL     1     -13.763  30.518  20.977  1.00  0.00     0.211 HD
ENDBRANCH  20  27
BRANCH  21  29
ATOM     29  C   UNL     1     -16.451  31.131  18.471  1.00  0.00     0.191 C 
BRANCH  29  30
ATOM     30  O   UNL     1     -16.130  30.937  17.120  1.00  0.00    -0.394 OA
ATOM     31  H   UNL     1     -16.982  30.742  16.650  1.00  0.00     0.210 HD
ENDBRANCH  29  30
ENDBRANCH  21  29
ENDBRANCH   1  17
TORSDOF 13
ENDMDL
MODEL 4
REMARK VINA RESULT:    -4.885      3.264      7.575
REMARK INTER + INTRA:          -9.021
REMARK INTER:                  -7.250
REMARK INTRA:                  -1.771
REMARK UNBOUND:                -1.566
REMARK SMILES OC[C@@H]1O[C@H](O[C@]2(CO)O[C@H](CO)[C@@H](O)[C@@H]2O)[C@H](O)[C@@H](O)[C@@H]1O
REMARK SMILES IDX 6 1 5 2 3 3 22 4 4 5 20 6 18 7 2 8 1 9 23 11 21 13 19 15
REMARK SMILES IDX 7 17 16 18 10 19 14 20 11 21 8 22 9 23 17 25 15 27 12 29
REMARK SMILES IDX 13 30
REMARK H PARENT 1 10 23 12 21 14 19 16 9 24 17 26 15 28 13 31
REMARK Flexibility Score: inf
ROOT
ATOM      1  O   UNL     1     -16.594  34.567  18.585  1.00  0.00    -0.313 OA
ENDROOT
BRANCH   1   2
ATOM      2  C   UNL     1     -16.880  33.478  19.458  1.00  0.00     0.285 C 
ATOM      3  C   UNL     1     -16.876  31.641  17.891  1.00  0.00     0.178 C 
ATOM      4  C   UNL     1     -15.644  31.001  18.572  1.00  0.00     0.177 C 
ATOM      5  O   UNL     1     -17.629  32.470  18.777  1.00  0.00    -0.341 OA
ATOM      6  C   UNL     1     -14.751  32.081  19.169  1.00  0.00     0.179 C 
ATOM      7  C   UNL     1     -15.595  32.928  20.130  1.00  0.00     0.202 C 
BRANCH   3   8
ATOM      8  C   UNL     1     -16.555  32.324  16.543  1.00  0.00     0.191 C 
BRANCH   8   9
ATOM      9  O   UNL     1     -17.573  33.226  16.214  1.00  0.00    -0.394 OA
ATOM     10  H   UNL     1     -18.412  32.847  16.585  1.00  0.00     0.210 HD
ENDBRANCH   8   9
ENDBRANCH   3   8
BRANCH   4  11
ATOM     11  O   UNL     1     -14.904  30.225  17.664  1.00  0.00    -0.387 OA
ATOM     12  H   UNL     1     -14.802  29.326  18.074  1.00  0.00     0.211 HD
ENDBRANCH   4  11
BRANCH   6  13
ATOM     13  O   UNL     1     -13.695  31.471  19.868  1.00  0.00    -0.387 OA
ATOM     14  H   UNL     1     -12.977  32.152  19.955  1.00  0.00     0.211 HD
ENDBRANCH   6  13
BRANCH   7  15
ATOM     15  O   UNL     1     -14.831  33.963  20.698  1.00  0.00    -0.385 OA
ATOM     16  H   UNL     1     -14.872  34.742  20.084  1.00  0.00     0.211 HD
ENDBRANCH   7  15
ENDBRANCH   1   2
BRANCH   1  17
ATOM     17  C   UNL     1     -17.428  35.719  18.766  1.00  0.00     0.224 C 
ATOM     18  C   UNL     1     -16.799  36.993  18.159  1.00  0.00     0.208 C 
ATOM     19  O   UNL     1     -18.619  35.487  18.044  1.00  0.00    -0.337 OA
ATOM     20  C   UNL     1     -17.993  37.781  17.651  1.00  0.00     0.180 C 
ATOM     21  C   UNL     1     -19.106  36.727  17.569  1.00  0.00     0.179 C 
BRANCH  17  22
ATOM     22  C   UNL     1     -17.825  35.949  20.255  1.00  0.00     0.225 C 
BRANCH  22  23
ATOM     23  O   UNL     1     -16.747  36.487  20.965  1.00  0.00    -0.391 OA
ATOM     24  H   UNL     1     -16.158  36.917  20.292  1.00  0.00     0.210 HD
ENDBRANCH  22  23
ENDBRANCH  17  22
BRANCH  18  25
ATOM     25  O   UNL     1     -15.928  36.699  17.095  1.00  0.00    -0.385 OA
ATOM     26  H   UNL     1     -15.605  35.766  17.208  1.00  0.00     0.211 HD
ENDBRANCH  18  25
BRANCH  20  27
ATOM     27  O   UNL     1     -18.351  38.785  18.567  1.00  0.00    -0.387 OA
ATOM     28  H   UNL     1     -18.730  39.533  18.035  1.00  0.00     0.211 HD
ENDBRANCH  20  27
BRANCH  21  29
ATOM     29  C   UNL     1     -19.620  36.552  16.134  1.00  0.00     0.191 C 
BRANCH  29  30
ATOM     30  O   UNL     1     -18.630  35.981  15.323  1.00  0.00    -0.394 OA
ATOM     31  H   UNL     1     -18.711  36.407  14.431  1.00  0.00     0.210 HD
ENDBRANCH  29  30
ENDBRANCH  21  29
ENDBRANCH   1  17
TORSDOF 13
ENDMDL
MODEL 5
REMARK VINA RESULT:    -4.820      1.857      2.953
REMARK INTER + INTRA:          -8.922
REMARK INTER:                  -7.688
REMARK INTRA:                  -1.234
REMARK UNBOUND:                -1.566
REMARK SMILES OC[C@@H]1O[C@H](O[C@]2(CO)O[C@H](CO)[C@@H](O)[C@@H]2O)[C@H](O)[C@@H](O)[C@@H]1O
REMARK SMILES IDX 6 1 5 2 3 3 22 4 4 5 20 6 18 7 2 8 1 9 23 11 21 13 19 15
REMARK SMILES IDX 7 17 16 18 10 19 14 20 11 21 8 22 9 23 17 25 15 27 12 29
REMARK SMILES IDX 13 30
REMARK H PARENT 1 10 23 12 21 14 19 16 9 24 17 26 15 28 13 31
REMARK Flexibility Score: inf
ROOT
ATOM      1  O   UNL     1     -15.818  30.739  18.757  1.00  0.00    -0.313 OA
ENDROOT
BRANCH   1   2
ATOM      2  C   UNL     1     -15.383  31.940  18.126  1.00  0.00     0.285 C 
ATOM      3  C   UNL     1     -17.497  32.839  17.381  1.00  0.00     0.178 C 
ATOM      4  C   UNL     1     -17.359  34.063  18.316  1.00  0.00     0.177 C 
ATOM      5  O   UNL     1     -16.236  32.268  17.028  1.00  0.00    -0.341 OA
ATOM      6  C   UNL     1     -16.583  33.683  19.571  1.00  0.00     0.179 C 
ATOM      7  C   UNL     1     -15.230  33.100  19.143  1.00  0.00     0.202 C 
BRANCH   3   8
ATOM      8  C   UNL     1     -18.521  31.793  17.873  1.00  0.00     0.191 C 
BRANCH   8   9
ATOM      9  O   UNL     1     -19.817  32.211  17.553  1.00  0.00    -0.394 OA
ATOM     10  H   UNL     1     -20.118  31.637  16.802  1.00  0.00     0.210 HD
ENDBRANCH   8   9
ENDBRANCH   3   8
BRANCH   4  11
ATOM     11  O   UNL     1     -18.617  34.574  18.677  1.00  0.00    -0.387 OA
ATOM     12  H   UNL     1     -19.293  34.060  18.159  1.00  0.00     0.211 HD
ENDBRANCH   4  11
BRANCH   6  13
ATOM     13  O   UNL     1     -16.384  34.832  20.355  1.00  0.00    -0.387 OA
ATOM     14  H   UNL     1     -17.173  34.913  20.952  1.00  0.00     0.211 HD
ENDBRANCH   6  13
BRANCH   7  15
ATOM     15  O   UNL     1     -14.472  32.706  20.260  1.00  0.00    -0.385 OA
ATOM     16  H   UNL     1     -15.096  32.589  21.024  1.00  0.00     0.211 HD
ENDBRANCH   7  15
ENDBRANCH   1   2
BRANCH   1  17
ATOM     17  C   UNL     1     -14.794  29.753  18.946  1.00  0.00     0.224 C 
ATOM     18  C   UNL     1     -14.718  29.267  20.410  1.00  0.00     0.208 C 
ATOM     19  O   UNL     1     -15.156  28.625  18.177  1.00  0.00    -0.337 OA
ATOM     20  C   UNL     1     -14.335  27.803  20.289  1.00  0.00     0.180 C 
ATOM     21  C   UNL     1     -14.688  27.463  18.835  1.00  0.00     0.179 C 
BRANCH  17  22
ATOM     22  C   UNL     1     -13.398  30.228  18.443  1.00  0.00     0.225 C 
BRANCH  22  23
ATOM     23  O   UNL     1     -12.565  30.514  19.530  1.00  0.00    -0.391 OA
ATOM     24  H   UNL     1     -11.652  30.625  19.158  1.00  0.00     0.210 HD
ENDBRANCH  22  23
ENDBRANCH  17  22
BRANCH  18  25
ATOM     25  O   UNL     1     -15.951  29.390  21.075  1.00  0.00    -0.385 OA
ATOM     26  H   UNL     1     -15.771  29.658  22.015  1.00  0.00     0.211 HD
ENDBRANCH  18  25
BRANCH  20  27
ATOM     27  O   UNL     1     -12.956  27.631  20.500  1.00  0.00    -0.387 OA
ATOM     28  H   UNL     1     -12.766  26.667  20.358  1.00  0.00     0.211 HD
ENDBRANCH  20  27
BRANCH  21  29
ATOM     29  C   UNL     1     -15.759  26.368  18.749  1.00  0.00     0.191 C 
BRANCH  29  30
ATOM     30  O   UNL     1     -17.003  26.863  19.167  1.00  0.00    -0.394 OA
ATOM     31  H   UNL     1     -17.515  27.077  18.345  1.00  0.00     0.210 HD
ENDBRANCH  29  30
ENDBRANCH  21  29
ENDBRANCH   1  17
TORSDOF 13
ENDMDL
MODEL 6
REMARK VINA RESULT:    -4.809      2.002      2.756
REMARK INTER + INTRA:          -8.905
REMARK INTER:                  -7.345
REMARK INTRA:                  -1.560
REMARK UNBOUND:                -1.566
REMARK SMILES OC[C@@H]1O[C@H](O[C@]2(CO)O[C@H](CO)[C@@H](O)[C@@H]2O)[C@H](O)[C@@H](O)[C@@H]1O
REMARK SMILES IDX 6 1 5 2 3 3 22 4 4 5 20 6 18 7 2 8 1 9 23 11 21 13 19 15
REMARK SMILES IDX 7 17 16 18 10 19 14 20 11 21 8 22 9 23 17 25 15 27 12 29
REMARK SMILES IDX 13 30
REMARK H PARENT 1 10 23 12 21 14 19 16 9 24 17 26 15 28 13 31
REMARK Flexibility Score: inf
ROOT
ATOM      1  O   UNL     1     -15.375  26.876  19.440  1.00  0.00    -0.313 OA
ENDROOT
BRANCH   1   2
ATOM      2  C   UNL     1     -14.452  27.549  18.589  1.00  0.00     0.285 C 
ATOM      3  C   UNL     1     -15.797  29.422  17.873  1.00  0.00     0.178 C 
ATOM      4  C   UNL     1     -14.857  30.427  18.580  1.00  0.00     0.177 C 
ATOM      5  O   UNL     1     -15.139  28.204  17.521  1.00  0.00    -0.341 OA
ATOM      6  C   UNL     1     -14.237  29.789  19.816  1.00  0.00     0.179 C 
ATOM      7  C   UNL     1     -13.523  28.500  19.387  1.00  0.00     0.202 C 
BRANCH   3   8
ATOM      8  C   UNL     1     -17.136  29.201  18.608  1.00  0.00     0.191 C 
BRANCH   8   9
ATOM      9  O   UNL     1     -18.142  28.902  17.682  1.00  0.00    -0.394 OA
ATOM     10  H   UNL     1     -17.863  28.066  17.228  1.00  0.00     0.210 HD
ENDBRANCH   8   9
ENDBRANCH   3   8
BRANCH   4  11
ATOM     11  O   UNL     1     -15.545  31.596  18.948  1.00  0.00    -0.387 OA
ATOM     12  H   UNL     1     -14.913  32.352  18.815  1.00  0.00     0.211 HD
ENDBRANCH   4  11
BRANCH   6  13
ATOM     13  O   UNL     1     -13.313  30.683  20.383  1.00  0.00    -0.387 OA
ATOM     14  H   UNL     1     -12.546  30.740  19.755  1.00  0.00     0.211 HD
ENDBRANCH   6  13
BRANCH   7  15
ATOM     15  O   UNL     1     -12.947  27.847  20.490  1.00  0.00    -0.385 OA
ATOM     16  H   UNL     1     -13.330  28.249  21.314  1.00  0.00     0.211 HD
ENDBRANCH   7  15
ENDBRANCH   1   2
BRANCH   1  17
ATOM     17  C   UNL     1     -15.475  25.462  19.221  1.00  0.00     0.224 C 
ATOM     18  C   UNL     1     -16.885  25.047  18.744  1.00  0.00     0.208 C 
ATOM     19  O   UNL     1     -14.594  25.142  18.166  1.00  0.00    -0.337 OA
ATOM     20  C   UNL     1     -16.622  23.894  17.793  1.00  0.00     0.180 C 
ATOM     21  C   UNL     1     -15.137  24.056  17.440  1.00  0.00     0.179 C 
BRANCH  17  22
ATOM     22  C   UNL     1     -15.038  24.626  20.461  1.00  0.00     0.225 C 
BRANCH  22  23
ATOM     23  O   UNL     1     -16.155  24.049  21.073  1.00  0.00    -0.391 OA
ATOM     24  H   UNL     1     -16.614  24.782  21.561  1.00  0.00     0.210 HD
ENDBRANCH  22  23
ENDBRANCH  17  22
BRANCH  18  25
ATOM     25  O   UNL     1     -17.545  26.089  18.068  1.00  0.00    -0.385 OA
ATOM     26  H   UNL     1     -18.077  25.690  17.330  1.00  0.00     0.211 HD
ENDBRANCH  18  25
BRANCH  20  27
ATOM     27  O   UNL     1     -16.829  22.662  18.436  1.00  0.00    -0.387 OA
ATOM     28  H   UNL     1     -16.916  21.979  17.720  1.00  0.00     0.211 HD
ENDBRANCH  20  27
BRANCH  21  29
ATOM     29  C   UNL     1     -14.931  24.297  15.939  1.00  0.00     0.191 C 
BRANCH  29  30
ATOM     30  O   UNL     1     -15.345  25.590  15.587  1.00  0.00    -0.394 OA
ATOM     31  H   UNL     1     -14.526  26.148  15.539  1.00  0.00     0.210 HD
ENDBRANCH  29  30
ENDBRANCH  21  29
ENDBRANCH   1  17
TORSDOF 13
ENDMDL
MODEL 7
REMARK VINA RESULT:    -4.776      2.011      3.596
REMARK INTER + INTRA:          -8.854
REMARK INTER:                  -7.571
REMARK INTRA:                  -1.284
REMARK UNBOUND:                -1.566
REMARK SMILES OC[C@@H]1O[C@H](O[C@]2(CO)O[C@H](CO)[C@@H](O)[C@@H]2O)[C@H](O)[C@@H](O)[C@@H]1O
REMARK SMILES IDX 6 1 5 2 3 3 22 4 4 5 20 6 18 7 2 8 1 9 23 11 21 13 19 15
REMARK SMILES IDX 7 17 16 18 10 19 14 20 11 21 8 22 9 23 17 25 15 27 12 29
REMARK SMILES IDX 13 30
REMARK H PARENT 1 10 23 12 21 14 19 16 9 24 17 26 15 28 13 31
REMARK Flexibility Score: inf
ROOT
ATOM      1  O   UNL     1     -15.131  31.037  18.531  1.00  0.00    -0.313 OA
ENDROOT
BRANCH   1   2
ATOM      2  C   UNL     1     -16.470  31.066  18.047  1.00  0.00     0.285 C 
ATOM      3  C   UNL     1     -17.272  33.096  19.079  1.00  0.00     0.178 C 
ATOM      4  C   UNL     1     -17.462  33.776  17.703  1.00  0.00     0.177 C 
ATOM      5  O   UNL     1     -17.339  31.671  19.005  1.00  0.00    -0.341 OA
ATOM      6  C   UNL     1     -16.434  33.252  16.709  1.00  0.00     0.179 C 
ATOM      7  C   UNL     1     -16.561  31.724  16.645  1.00  0.00     0.202 C 
BRANCH   3   8
ATOM      8  C   UNL     1     -16.042  33.607  19.860  1.00  0.00     0.191 C 
BRANCH   8   9
ATOM      9  O   UNL     1     -16.317  34.865  20.409  1.00  0.00    -0.394 OA
ATOM     10  H   UNL     1     -15.837  34.901  21.277  1.00  0.00     0.210 HD
ENDBRANCH   8   9
ENDBRANCH   3   8
BRANCH   4  11
ATOM     11  O   UNL     1     -17.349  35.173  17.804  1.00  0.00    -0.387 OA
ATOM     12  H   UNL     1     -18.206  35.502  18.185  1.00  0.00     0.211 HD
ENDBRANCH   4  11
BRANCH   6  13
ATOM     13  O   UNL     1     -16.690  33.808  15.444  1.00  0.00    -0.387 OA
ATOM     14  H   UNL     1     -17.147  33.107  14.909  1.00  0.00     0.211 HD
ENDBRANCH   6  13
BRANCH   7  15
ATOM     15  O   UNL     1     -15.618  31.173  15.759  1.00  0.00    -0.385 OA
ATOM     16  H   UNL     1     -15.058  31.916  15.413  1.00  0.00     0.211 HD
ENDBRANCH   7  15
ENDBRANCH   1   2
BRANCH   1  17
ATOM     17  C   UNL     1     -14.600  29.725  18.758  1.00  0.00     0.224 C 
ATOM     18  C   UNL     1     -14.893  29.219  20.189  1.00  0.00     0.208 C 
ATOM     19  O   UNL     1     -15.279  28.846  17.886  1.00  0.00    -0.337 OA
ATOM     20  C   UNL     1     -15.097  27.726  20.012  1.00  0.00     0.180 C 
ATOM     21  C   UNL     1     -15.380  27.581  18.510  1.00  0.00     0.179 C 
BRANCH  17  22
ATOM     22  C   UNL     1     -13.081  29.622  18.430  1.00  0.00     0.225 C 
BRANCH  22  23
ATOM     23  O   UNL     1     -12.347  30.458  19.278  1.00  0.00    -0.391 OA
ATOM     24  H   UNL     1     -12.476  31.381  18.937  1.00  0.00     0.210 HD
ENDBRANCH  22  23
ENDBRANCH  17  22
BRANCH  18  25
ATOM     25  O   UNL     1     -16.050  29.804  20.732  1.00  0.00    -0.385 OA
ATOM     26  H   UNL     1     -15.771  30.461  21.423  1.00  0.00     0.211 HD
ENDBRANCH  18  25
BRANCH  20  27
ATOM     27  O   UNL     1     -13.929  27.021  20.349  1.00  0.00    -0.387 OA
ATOM     28  H   UNL     1     -13.172  27.653  20.231  1.00  0.00     0.211 HD
ENDBRANCH  20  27
BRANCH  21  29
ATOM     29  C   UNL     1     -16.775  26.997  18.247  1.00  0.00     0.191 C 
BRANCH  29  30
ATOM     30  O   UNL     1     -17.767  27.838  18.770  1.00  0.00    -0.394 OA
ATOM     31  H   UNL     1     -18.058  28.430  18.028  1.00  0.00     0.210 HD
ENDBRANCH  29  30
ENDBRANCH  21  29
ENDBRANCH   1  17
TORSDOF 13
ENDMDL
MODEL 8
REMARK VINA RESULT:    -4.768      3.206      7.943
REMARK INTER + INTRA:          -8.843
REMARK INTER:                  -7.148
REMARK INTRA:                  -1.695
REMARK UNBOUND:                -1.566
REMARK SMILES OC[C@@H]1O[C@H](O[C@]2(CO)O[C@H](CO)[C@@H](O)[C@@H]2O)[C@H](O)[C@@H](O)[C@@H]1O
REMARK SMILES IDX 6 1 5 2 3 3 22 4 4 5 20 6 18 7 2 8 1 9 23 11 21 13 19 15
REMARK SMILES IDX 7 17 16 18 10 19 14 20 11 21 8 22 9 23 17 25 15 27 12 29
REMARK SMILES IDX 13 30
REMARK H PARENT 1 10 23 12 21 14 19 16 9 24 17 26 15 28 13 31
REMARK Flexibility Score: inf
ROOT
ATOM      1  O   UNL     1     -17.934  34.069  19.430  1.00  0.00    -0.313 OA
ENDROOT
BRANCH   1   2
ATOM      2  C   UNL     1     -17.617  33.733  18.083  1.00  0.00     0.285 C 
ATOM      3  C   UNL     1     -15.702  32.302  18.422  1.00  0.00     0.178 C 
ATOM      4  C   UNL     1     -16.456  31.078  17.851  1.00  0.00     0.177 C 
ATOM      5  O   UNL     1     -16.209  33.543  17.929  1.00  0.00    -0.341 OA
ATOM      6  C   UNL     1     -17.946  31.192  18.148  1.00  0.00     0.179 C 
ATOM      7  C   UNL     1     -18.450  32.526  17.580  1.00  0.00     0.202 C 
BRANCH   3   8
ATOM      8  C   UNL     1     -15.546  32.275  19.958  1.00  0.00     0.191 C 
BRANCH   8   9
ATOM      9  O   UNL     1     -14.397  32.981  20.331  1.00  0.00    -0.394 OA
ATOM     10  H   UNL     1     -13.626  32.400  20.100  1.00  0.00     0.210 HD
ENDBRANCH   8   9
ENDBRANCH   3   8
BRANCH   4  11
ATOM     11  O   UNL     1     -15.960  29.877  18.386  1.00  0.00    -0.387 OA
ATOM     12  H   UNL     1     -15.693  30.072  19.323  1.00  0.00     0.211 HD
ENDBRANCH   4  11
BRANCH   6  13
ATOM     13  O   UNL     1     -18.622  30.124  17.533  1.00  0.00    -0.387 OA
ATOM     14  H   UNL     1     -19.543  30.116  17.904  1.00  0.00     0.211 HD
ENDBRANCH   6  13
BRANCH   7  15
ATOM     15  O   UNL     1     -19.820  32.705  17.842  1.00  0.00    -0.385 OA
ATOM     16  H   UNL     1     -20.039  32.194  18.665  1.00  0.00     0.211 HD
ENDBRANCH   7  15
ENDBRANCH   1   2
BRANCH   1  17
ATOM     17  C   UNL     1     -18.228  35.455  19.652  1.00  0.00     0.224 C 
ATOM     18  C   UNL     1     -17.183  36.132  20.566  1.00  0.00     0.208 C 
ATOM     19  O   UNL     1     -18.134  36.105  18.402  1.00  0.00    -0.337 OA
ATOM     20  C   UNL     1     -17.087  37.546  20.024  1.00  0.00     0.180 C 
ATOM     21  C   UNL     1     -17.683  37.428  18.615  1.00  0.00     0.179 C 
BRANCH  17  22
ATOM     22  C   UNL     1     -19.671  35.688  20.188  1.00  0.00     0.225 C 
BRANCH  22  23
ATOM     23  O   UNL     1     -20.401  34.496  20.146  1.00  0.00    -0.391 OA
ATOM     24  H   UNL     1     -20.694  34.383  19.204  1.00  0.00     0.210 HD
ENDBRANCH  22  23
ENDBRANCH  17  22
BRANCH  18  25
ATOM     25  O   UNL     1     -15.928  35.502  20.494  1.00  0.00    -0.385 OA
ATOM     26  H   UNL     1     -15.291  36.128  20.058  1.00  0.00     0.211 HD
ENDBRANCH  18  25
BRANCH  20  27
ATOM     27  O   UNL     1     -17.859  38.429  20.799  1.00  0.00    -0.387 OA
ATOM     28  H   UNL     1     -18.810  38.220  20.603  1.00  0.00     0.211 HD
ENDBRANCH  20  27
BRANCH  21  29
ATOM     29  C   UNL     1     -16.660  37.795  17.531  1.00  0.00     0.191 C 
BRANCH  29  30
ATOM     30  O   UNL     1     -15.880  36.680  17.195  1.00  0.00    -0.394 OA
ATOM     31  H   UNL     1     -16.208  36.357  16.316  1.00  0.00     0.210 HD
ENDBRANCH  29  30
ENDBRANCH  21  29
ENDBRANCH   1  17
TORSDOF 13
ENDMDL
MODEL 9
REMARK VINA RESULT:    -4.736      2.470      6.814
REMARK INTER + INTRA:          -8.793
REMARK INTER:                  -7.510
REMARK INTRA:                  -1.283
REMARK UNBOUND:                -1.566
REMARK SMILES OC[C@@H]1O[C@H](O[C@]2(CO)O[C@H](CO)[C@@H](O)[C@@H]2O)[C@H](O)[C@@H](O)[C@@H]1O
REMARK SMILES IDX 6 1 5 2 3 3 22 4 4 5 20 6 18 7 2 8 1 9 23 11 21 13 19 15
REMARK SMILES IDX 7 17 16 18 10 19 14 20 11 21 8 22 9 23 17 25 15 27 12 29
REMARK SMILES IDX 13 30
REMARK H PARENT 1 10 23 12 21 14 19 16 9 24 17 26 15 28 13 31
REMARK Flexibility Score: inf
ROOT
ATOM      1  O   UNL     1     -16.261  33.089  18.537  1.00  0.00    -0.313 OA
ENDROOT
BRANCH   1   2
ATOM      2  C   UNL     1     -16.256  31.982  19.433  1.00  0.00     0.285 C 
ATOM      3  C   UNL     1     -16.037  30.151  17.873  1.00  0.00     0.178 C 
ATOM      4  C   UNL     1     -14.651  29.770  18.444  1.00  0.00     0.177 C 
ATOM      5  O   UNL     1     -16.855  30.838  18.822  1.00  0.00    -0.341 OA
ATOM      6  C   UNL     1     -13.932  31.011  18.958  1.00  0.00     0.179 C 
ATOM      7  C   UNL     1     -14.837  31.699  19.989  1.00  0.00     0.202 C 
BRANCH   3   8
ATOM      8  C   UNL     1     -15.970  30.858  16.502  1.00  0.00     0.191 C 
BRANCH   8   9
ATOM      9  O   UNL     1     -15.945  29.906  15.478  1.00  0.00    -0.394 OA
ATOM     10  H   UNL     1     -16.891  29.732  15.236  1.00  0.00     0.210 HD
ENDBRANCH   8   9
ENDBRANCH   3   8
BRANCH   4  11
ATOM     11  O   UNL     1     -13.857  29.134  17.475  1.00  0.00    -0.387 OA
ATOM     12  H   UNL     1     -13.095  28.719  17.958  1.00  0.00     0.211 HD
ENDBRANCH   4  11
BRANCH   6  13
ATOM     13  O   UNL     1     -12.723  30.626  19.562  1.00  0.00    -0.387 OA
ATOM     14  H   UNL     1     -12.957  30.028  20.319  1.00  0.00     0.211 HD
ENDBRANCH   6  13
BRANCH   7  15
ATOM     15  O   UNL     1     -14.239  32.870  20.487  1.00  0.00    -0.385 OA
ATOM     16  H   UNL     1     -13.337  32.947  20.079  1.00  0.00     0.211 HD
ENDBRANCH   7  15
ENDBRANCH   1   2
BRANCH   1  17
ATOM     17  C   UNL     1     -17.401  33.951  18.650  1.00  0.00     0.224 C 
ATOM     18  C   UNL     1     -17.317  34.867  19.891  1.00  0.00     0.208 C 
ATOM     19  O   UNL     1     -17.386  34.809  17.528  1.00  0.00    -0.337 OA
ATOM     20  C   UNL     1     -17.976  36.157  19.437  1.00  0.00     0.180 C 
ATOM     21  C   UNL     1     -17.941  36.054  17.906  1.00  0.00     0.179 C 
BRANCH  17  22
ATOM     22  C   UNL     1     -18.751  33.174  18.622  1.00  0.00     0.225 C 
BRANCH  22  23
ATOM     23  O   UNL     1     -18.956  32.608  17.359  1.00  0.00    -0.391 OA
ATOM     24  H   UNL     1     -19.461  31.767  17.511  1.00  0.00     0.210 HD
ENDBRANCH  22  23
ENDBRANCH  17  22
BRANCH  18  25
ATOM     25  O   UNL     1     -15.988  35.115  20.278  1.00  0.00    -0.385 OA
ATOM     26  H   UNL     1     -15.967  35.218  21.267  1.00  0.00     0.211 HD
ENDBRANCH  18  25
BRANCH  20  27
ATOM     27  O   UNL     1     -19.307  36.218  19.883  1.00  0.00    -0.387 OA
ATOM     28  H   UNL     1     -19.806  35.520  19.384  1.00  0.00     0.211 HD
ENDBRANCH  20  27
BRANCH  21  29
ATOM     29  C   UNL     1     -17.119  37.186  17.277  1.00  0.00     0.191 C 
BRANCH  29  30
ATOM     30  O   UNL     1     -15.938  37.397  18.002  1.00  0.00    -0.394 OA
ATOM     31  H   UNL     1     -15.209  36.956  17.495  1.00  0.00     0.210 HD
ENDBRANCH  29  30
ENDBRANCH  21  29
ENDBRANCH   1  17
TORSDOF 13
ENDMDL
