MODEL 1
REMARK VINA RESULT:    -3.632      0.000      0.000
REMARK INTER + INTRA:          -6.755
REMARK INTER:                  -5.542
REMARK INTRA:                  -1.213
REMARK UNBOUND:                -1.213
REMARK SMILES CCCCCCCCCCC(=O)[O-]
REMARK SMILES IDX 7 1 8 2 9 3 10 4 11 5 12 6 13 7 6 8 5 9 4 10 3 11 2 12 1 13
REMARK H PARENT
REMARK Flexibility Score: inf
ROOT
ATOM      1  C   UNL     1      -7.453   3.276  51.549  1.00  0.00     0.000 C 
ENDROOT
BRANCH   1   2
ATOM      2  C   UNL     1      -7.124   4.743  51.208  1.00  0.00     0.000 C 
BRANCH   2   3
ATOM      3  C   UNL     1      -8.077   5.786  51.826  1.00  0.00     0.006 C 
BRANCH   3   4
ATOM      4  C   UNL     1      -9.488   5.255  52.129  1.00  0.00     0.053 C 
BRANCH   4   5
ATOM      5  C   UNL     1     -10.353   5.233  50.907  1.00  0.00     0.041 C 
ATOM      6  O   UNL     1     -10.785   6.310  50.417  1.00  0.00    -0.550 OA
ATOM      7  O   UNL     1     -10.654   4.026  50.287  1.00  0.00    -0.550 OA
ENDBRANCH   4   5
ENDBRANCH   3   4
ENDBRANCH   2   3
ENDBRANCH   1   2
BRANCH   1   8
ATOM      8  C   UNL     1      -6.885   2.772  52.890  1.00  0.00     0.000 C 
BRANCH   8   9
ATOM      9  C   UNL     1      -5.695   3.578  53.441  1.00  0.00    -0.000 C 
BRANCH   9  10
ATOM     10  C   UNL     1      -5.921   4.066  54.882  1.00  0.00    -0.000 C 
BRANCH  10  11
ATOM     11  C   UNL     1      -7.306   3.680  55.424  1.00  0.00    -0.000 C 
BRANCH  11  12
ATOM     12  C   UNL     1      -8.232   4.892  55.601  1.00  0.00    -0.003 C 
ATOM     13  C   UNL     1      -7.444   6.198  55.541  1.00  0.00     0.004 C 
ENDBRANCH  11  12
ENDBRANCH  10  11
ENDBRANCH   9  10
ENDBRANCH   8   9
ENDBRANCH   1   8
TORSDOF 9
ENDMDL
MODEL 2
REMARK VINA RESULT:    -3.546     11.104     12.608
REMARK INTER + INTRA:          -6.624
REMARK INTER:                  -5.792
REMARK INTRA:                  -0.832
REMARK UNBOUND:                -1.213
REMARK SMILES CCCCCCCCCCC(=O)[O-]
REMARK SMILES IDX 7 1 8 2 9 3 10 4 11 5 12 6 13 7 6 8 5 9 4 10 3 11 2 12 1 13
REMARK H PARENT
REMARK Flexibility Score: inf
ROOT
ATOM      1  C   UNL     1       1.000  -0.045  57.048  1.00  0.00     0.000 C 
ENDROOT
BRANCH   1   2
ATOM      2  C   UNL     1       2.343  -0.198  57.788  1.00  0.00     0.000 C 
BRANCH   2   3
ATOM      3  C   UNL     1       2.308   0.174  59.285  1.00  0.00     0.006 C 
BRANCH   3   4
ATOM      4  C   UNL     1       1.566   1.484  59.596  1.00  0.00     0.053 C 
BRANCH   4   5
ATOM      5  C   UNL     1       0.677   1.353  60.795  1.00  0.00     0.041 C 
ATOM      6  O   UNL     1       0.280   2.381  61.405  1.00  0.00    -0.550 OA
ATOM      7  O   UNL     1       0.258   0.098  61.219  1.00  0.00    -0.550 OA
ENDBRANCH   4   5
ENDBRANCH   3   4
ENDBRANCH   2   3
ENDBRANCH   1   2
BRANCH   1   8
ATOM      8  C   UNL     1       0.992   1.000  55.914  1.00  0.00     0.000 C 
BRANCH   8   9
ATOM      9  C   UNL     1       2.335   1.184  55.184  1.00  0.00    -0.000 C 
BRANCH   9  10
ATOM     10  C   UNL     1       2.244   0.875  53.680  1.00  0.00    -0.000 C 
BRANCH  10  11
ATOM     11  C   UNL     1       3.087  -0.345  53.277  1.00  0.00    -0.000 C 
BRANCH  11  12
ATOM     12  C   UNL     1       2.565  -1.654  53.887  1.00  0.00    -0.003 C 
ATOM     13  C   UNL     1       1.151  -1.960  53.401  1.00  0.00     0.004 C 
ENDBRANCH  11  12
ENDBRANCH  10  11
ENDBRANCH   9  10
ENDBRANCH   8   9
ENDBRANCH   1   8
TORSDOF 9
ENDMDL
MODEL 3
REMARK VINA RESULT:    -3.544      3.187      4.963
REMARK INTER + INTRA:          -6.621
REMARK INTER:                  -5.631
REMARK INTRA:                  -0.990
REMARK UNBOUND:                -1.213
REMARK SMILES CCCCCCCCCCC(=O)[O-]
REMARK SMILES IDX 7 1 8 2 9 3 10 4 11 5 12 6 13 7 6 8 5 9 4 10 3 11 2 12 1 13
REMARK H PARENT
REMARK Flexibility Score: inf
ROOT
ATOM      1  C   UNL     1      -5.824   3.497  53.253  1.00  0.00     0.000 C 
ENDROOT
BRANCH   1   2
ATOM      2  C   UNL     1      -5.997   4.044  54.684  1.00  0.00     0.000 C 
BRANCH   2   3
ATOM      3  C   UNL     1      -7.406   4.579  55.011  1.00  0.00     0.006 C 
BRANCH   3   4
ATOM      4  C   UNL     1      -7.435   6.037  55.498  1.00  0.00     0.053 C 
BRANCH   4   5
ATOM      5  C   UNL     1      -7.504   6.128  56.991  1.00  0.00     0.041 C 
ATOM      6  O   UNL     1      -6.458   6.013  57.682  1.00  0.00    -0.550 OA
ATOM      7  O   UNL     1      -8.719   6.376  57.619  1.00  0.00    -0.550 OA
ENDBRANCH   4   5
ENDBRANCH   3   4
ENDBRANCH   2   3
ENDBRANCH   1   2
BRANCH   1   8
ATOM      8  C   UNL     1      -6.984   2.620  52.742  1.00  0.00     0.000 C 
BRANCH   8   9
ATOM      9  C   UNL     1      -7.736   3.178  51.520  1.00  0.00    -0.000 C 
BRANCH   9  10
ATOM     10  C   UNL     1      -7.179   4.531  51.043  1.00  0.00    -0.000 C 
BRANCH  10  11
ATOM     11  C   UNL     1      -8.041   5.718  51.501  1.00  0.00    -0.000 C 
BRANCH  11  12
ATOM     12  C   UNL     1      -9.490   5.314  51.809  1.00  0.00    -0.003 C 
ATOM     13  C   UNL     1     -10.465   5.996  50.853  1.00  0.00     0.004 C 
ENDBRANCH  11  12
ENDBRANCH  10  11
ENDBRANCH   9  10
ENDBRANCH   8   9
ENDBRANCH   1   8
TORSDOF 9
ENDMDL
MODEL 4
REMARK VINA RESULT:    -3.498      3.850      5.565
REMARK INTER + INTRA:          -6.551
REMARK INTER:                  -5.691
REMARK INTRA:                  -0.860
REMARK UNBOUND:                -1.213
REMARK SMILES CCCCCCCCCCC(=O)[O-]
REMARK SMILES IDX 7 1 8 2 9 3 10 4 11 5 12 6 13 7 6 8 5 9 4 10 3 11 2 12 1 13
REMARK H PARENT
REMARK Flexibility Score: inf
ROOT
ATOM      1  C   UNL     1      -5.897   3.993  54.706  1.00  0.00     0.000 C 
ENDROOT
BRANCH   1   2
ATOM      2  C   UNL     1      -7.237   4.605  55.159  1.00  0.00     0.000 C 
BRANCH   2   3
ATOM      3  C   UNL     1      -7.139   6.031  55.738  1.00  0.00     0.006 C 
BRANCH   3   4
ATOM      4  C   UNL     1      -7.405   6.121  57.250  1.00  0.00     0.053 C 
BRANCH   4   5
ATOM      5  C   UNL     1      -6.342   5.432  58.048  1.00  0.00     0.041 C 
ATOM      6  O   UNL     1      -5.172   5.896  58.081  1.00  0.00    -0.550 OA
ATOM      7  O   UNL     1      -6.651   4.294  58.784  1.00  0.00    -0.550 OA
ENDBRANCH   4   5
ENDBRANCH   3   4
ENDBRANCH   2   3
ENDBRANCH   1   2
BRANCH   1   8
ATOM      8  C   UNL     1      -5.851   3.528  53.237  1.00  0.00     0.000 C 
BRANCH   8   9
ATOM      9  C   UNL     1      -7.202   3.074  52.653  1.00  0.00    -0.000 C 
BRANCH   9  10
ATOM     10  C   UNL     1      -7.507   3.714  51.288  1.00  0.00    -0.000 C 
BRANCH  10  11
ATOM     11  C   UNL     1      -7.385   5.246  51.315  1.00  0.00    -0.000 C 
BRANCH  11  12
ATOM     12  C   UNL     1      -8.613   5.927  51.937  1.00  0.00    -0.003 C 
ATOM     13  C   UNL     1      -9.827   5.810  51.021  1.00  0.00     0.004 C 
ENDBRANCH  11  12
ENDBRANCH  10  11
ENDBRANCH   9  10
ENDBRANCH   8   9
ENDBRANCH   1   8
TORSDOF 9
ENDMDL
MODEL 5
REMARK VINA RESULT:    -3.497      2.918      4.501
REMARK INTER + INTRA:          -6.550
REMARK INTER:                  -5.327
REMARK INTRA:                  -1.223
REMARK UNBOUND:                -1.213
REMARK SMILES CCCCCCCCCCC(=O)[O-]
REMARK SMILES IDX 7 1 8 2 9 3 10 4 11 5 12 6 13 7 6 8 5 9 4 10 3 11 2 12 1 13
REMARK H PARENT
REMARK Flexibility Score: inf
ROOT
ATOM      1  C   UNL     1      -7.627   2.778  52.811  1.00  0.00     0.000 C 
ENDROOT
BRANCH   1   2
ATOM      2  C   UNL     1      -6.167   2.976  53.266  1.00  0.00     0.000 C 
BRANCH   2   3
ATOM      3  C   UNL     1      -5.972   4.003  54.400  1.00  0.00     0.006 C 
BRANCH   3   4
ATOM      4  C   UNL     1      -7.280   4.558  54.987  1.00  0.00     0.053 C 
BRANCH   4   5
ATOM      5  C   UNL     1      -7.041   5.745  55.867  1.00  0.00     0.041 C 
ATOM      6  O   UNL     1      -7.862   6.699  55.882  1.00  0.00    -0.550 OA
ATOM      7  O   UNL     1      -5.929   5.782  56.700  1.00  0.00    -0.550 OA
ENDBRANCH   4   5
ENDBRANCH   3   4
ENDBRANCH   2   3
ENDBRANCH   1   2
BRANCH   1   8
ATOM      8  C   UNL     1      -7.914   3.161  51.345  1.00  0.00     0.000 C 
BRANCH   8   9
ATOM      9  C   UNL     1      -7.213   4.441  50.854  1.00  0.00    -0.000 C 
BRANCH   9  10
ATOM     10  C   UNL     1      -7.793   5.718  51.488  1.00  0.00    -0.000 C 
BRANCH  10  11
ATOM     11  C   UNL     1      -9.329   5.748  51.454  1.00  0.00    -0.000 C 
BRANCH  11  12
ATOM     12  C   UNL     1      -9.946   6.054  52.826  1.00  0.00    -0.003 C 
ATOM     13  C   UNL     1     -10.733   4.859  53.354  1.00  0.00     0.004 C 
ENDBRANCH  11  12
ENDBRANCH  10  11
ENDBRANCH   9  10
ENDBRANCH   8   9
ENDBRANCH   1   8
TORSDOF 9
ENDMDL
MODEL 6
REMARK VINA RESULT:    -3.475     10.011     11.574
REMARK INTER + INTRA:          -6.517
REMARK INTER:                  -5.972
REMARK INTRA:                  -0.544
REMARK UNBOUND:                -1.213
REMARK SMILES CCCCCCCCCCC(=O)[O-]
REMARK SMILES IDX 7 1 8 2 9 3 10 4 11 5 12 6 13 7 6 8 5 9 4 10 3 11 2 12 1 13
REMARK H PARENT
REMARK Flexibility Score: inf
ROOT
ATOM      1  C   UNL     1       1.663   1.299  55.250  1.00  0.00     0.000 C 
ENDROOT
BRANCH   1   2
ATOM      2  C   UNL     1       3.005   0.634  54.884  1.00  0.00     0.000 C 
BRANCH   2   3
ATOM      3  C   UNL     1       2.996  -0.172  53.569  1.00  0.00     0.006 C 
BRANCH   3   4
ATOM      4  C   UNL     1       3.047  -1.697  53.760  1.00  0.00     0.053 C 
BRANCH   4   5
ATOM      5  C   UNL     1       1.708  -2.333  53.550  1.00  0.00     0.041 C 
ATOM      6  O   UNL     1       0.759  -1.666  53.060  1.00  0.00    -0.550 OA
ATOM      7  O   UNL     1       1.516  -3.674  53.861  1.00  0.00    -0.550 OA
ENDBRANCH   4   5
ENDBRANCH   3   4
ENDBRANCH   2   3
ENDBRANCH   1   2
BRANCH   1   8
ATOM      8  C   UNL     1       0.863   0.591  56.361  1.00  0.00     0.000 C 
BRANCH   8   9
ATOM      9  C   UNL     1      -0.237   1.444  57.019  1.00  0.00    -0.000 C 
BRANCH   9  10
ATOM     10  C   UNL     1      -0.149   1.450  58.554  1.00  0.00    -0.000 C 
BRANCH  10  11
ATOM     11  C   UNL     1       1.289   1.258  59.062  1.00  0.00    -0.000 C 
BRANCH  11  12
ATOM     12  C   UNL     1       1.594   2.099  60.310  1.00  0.00    -0.003 C 
ATOM     13  C   UNL     1       0.345   2.282  61.167  1.00  0.00     0.004 C 
ENDBRANCH  11  12
ENDBRANCH  10  11
ENDBRANCH   9  10
ENDBRANCH   8   9
ENDBRANCH   1   8
TORSDOF 9
ENDMDL
MODEL 7
REMARK VINA RESULT:    -3.449      1.379      1.727
REMARK INTER + INTRA:          -6.477
REMARK INTER:                  -5.776
REMARK INTRA:                  -0.701
REMARK UNBOUND:                -1.213
REMARK SMILES CCCCCCCCCCC(=O)[O-]
REMARK SMILES IDX 7 1 8 2 9 3 10 4 11 5 12 6 13 7 6 8 5 9 4 10 3 11 2 12 1 13
REMARK H PARENT
REMARK Flexibility Score: inf
ROOT
ATOM      1  C   UNL     1      -7.165   3.303  52.710  1.00  0.00     0.000 C 
ENDROOT
BRANCH   1   2
ATOM      2  C   UNL     1      -7.372   3.870  51.292  1.00  0.00     0.000 C 
BRANCH   2   3
ATOM      3  C   UNL     1      -7.659   5.384  51.231  1.00  0.00     0.006 C 
BRANCH   3   4
ATOM      4  C   UNL     1      -8.899   5.828  52.025  1.00  0.00     0.053 C 
BRANCH   4   5
ATOM      5  C   UNL     1     -10.172   5.491  51.312  1.00  0.00     0.041 C 
ATOM      6  O   UNL     1     -10.639   6.275  50.444  1.00  0.00    -0.550 OA
ATOM      7  O   UNL     1     -10.825   4.293  51.579  1.00  0.00    -0.550 OA
ENDBRANCH   4   5
ENDBRANCH   3   4
ENDBRANCH   2   3
ENDBRANCH   1   2
BRANCH   1   8
ATOM      8  C   UNL     1      -5.837   3.697  53.387  1.00  0.00     0.000 C 
BRANCH   8   9
ATOM      9  C   UNL     1      -5.952   4.095  54.870  1.00  0.00    -0.000 C 
BRANCH   9  10
ATOM     10  C   UNL     1      -7.093   5.092  55.133  1.00  0.00    -0.000 C 
BRANCH  10  11
ATOM     11  C   UNL     1      -6.757   6.090  56.252  1.00  0.00    -0.000 C 
BRANCH  11  12
ATOM     12  C   UNL     1      -6.656   5.423  57.631  1.00  0.00    -0.003 C 
ATOM     13  C   UNL     1      -5.290   5.674  58.263  1.00  0.00     0.004 C 
ENDBRANCH  11  12
ENDBRANCH  10  11
ENDBRANCH   9  10
ENDBRANCH   8   9
ENDBRANCH   1   8
TORSDOF 9
ENDMDL
MODEL 8
REMARK VINA RESULT:    -3.424     10.735     12.327
REMARK INTER + INTRA:          -6.438
REMARK INTER:                  -5.834
REMARK INTRA:                  -0.604
REMARK UNBOUND:                -1.213
REMARK SMILES CCCCCCCCCCC(=O)[O-]
REMARK SMILES IDX 7 1 8 2 9 3 10 4 11 5 12 6 13 7 6 8 5 9 4 10 3 11 2 12 1 13
REMARK H PARENT
REMARK Flexibility Score: inf
ROOT
ATOM      1  C   UNL     1       1.388   0.853  55.628  1.00  0.00     0.000 C 
ENDROOT
BRANCH   1   2
ATOM      2  C   UNL     1       0.907   1.955  56.592  1.00  0.00     0.000 C 
BRANCH   2   3
ATOM      3  C   UNL     1       0.452   1.455  57.978  1.00  0.00     0.006 C 
BRANCH   3   4
ATOM      4  C   UNL     1       0.998   2.274  59.159  1.00  0.00     0.053 C 
BRANCH   4   5
ATOM      5  C   UNL     1       0.201   2.058  60.408  1.00  0.00     0.041 C 
ATOM      6  O   UNL     1       0.341   0.997  61.074  1.00  0.00    -0.550 OA
ATOM      7  O   UNL     1      -0.670   3.042  60.858  1.00  0.00    -0.550 OA
ENDBRANCH   4   5
ENDBRANCH   3   4
ENDBRANCH   2   3
ENDBRANCH   1   2
BRANCH   1   8
ATOM      8  C   UNL     1       2.388   1.315  54.550  1.00  0.00     0.000 C 
BRANCH   8   9
ATOM      9  C   UNL     1       2.905   0.204  53.618  1.00  0.00    -0.000 C 
BRANCH   9  10
ATOM     10  C   UNL     1       1.952  -1.001  53.540  1.00  0.00    -0.000 C 
BRANCH  10  11
ATOM     11  C   UNL     1       2.633  -2.319  53.941  1.00  0.00    -0.000 C 
BRANCH  11  12
ATOM     12  C   UNL     1       3.806  -2.108  54.910  1.00  0.00    -0.003 C 
ATOM     13  C   UNL     1       3.357  -2.276  56.359  1.00  0.00     0.004 C 
ENDBRANCH  11  12
ENDBRANCH  10  11
ENDBRANCH   9  10
ENDBRANCH   8   9
ENDBRANCH   1   8
TORSDOF 9
ENDMDL
MODEL 9
REMARK VINA RESULT:    -3.339      9.663     10.875
REMARK INTER + INTRA:          -6.308
REMARK INTER:                  -5.332
REMARK INTRA:                  -0.977
REMARK UNBOUND:                -1.213
REMARK SMILES CCCCCCCCCCC(=O)[O-]
REMARK SMILES IDX 7 1 8 2 9 3 10 4 11 5 12 6 13 7 6 8 5 9 4 10 3 11 2 12 1 13
REMARK H PARENT
REMARK Flexibility Score: inf
ROOT
ATOM      1  C   UNL     1       2.673  -2.385  53.959  1.00  0.00     0.000 C 
ENDROOT
BRANCH   1   2
ATOM      2  C   UNL     1       1.304  -3.057  53.732  1.00  0.00     0.000 C 
BRANCH   2   3
ATOM      3  C   UNL     1       0.225  -2.144  53.116  1.00  0.00     0.006 C 
BRANCH   3   4
ATOM      4  C   UNL     1      -0.669  -2.832  52.072  1.00  0.00     0.053 C 
BRANCH   4   5
ATOM      5  C   UNL     1      -2.105  -2.860  52.493  1.00  0.00     0.041 C 
ATOM      6  O   UNL     1      -2.427  -2.543  53.669  1.00  0.00    -0.550 OA
ATOM      7  O   UNL     1      -3.094  -3.201  51.578  1.00  0.00    -0.550 OA
ENDBRANCH   4   5
ENDBRANCH   3   4
ENDBRANCH   2   3
ENDBRANCH   1   2
BRANCH   1   8
ATOM      8  C   UNL     1       2.849  -1.011  53.284  1.00  0.00     0.000 C 
BRANCH   8   9
ATOM      9  C   UNL     1       3.269   0.132  54.226  1.00  0.00    -0.000 C 
BRANCH   9  10
ATOM     10  C   UNL     1       2.327   1.346  54.149  1.00  0.00    -0.000 C 
BRANCH  10  11
ATOM     11  C   UNL     1       1.597   1.610  55.475  1.00  0.00    -0.000 C 
BRANCH  11  12
ATOM     12  C   UNL     1       1.491   0.355  56.353  1.00  0.00    -0.003 C 
ATOM     13  C   UNL     1       0.092  -0.248  56.283  1.00  0.00     0.004 C 
ENDBRANCH  11  12
ENDBRANCH  10  11
ENDBRANCH   9  10
ENDBRANCH   8   9
ENDBRANCH   1   8
TORSDOF 9
ENDMDL
