MODEL 1
REMARK VINA RESULT:    -5.165      0.000      0.000
REMARK INTER + INTRA:          -8.417
REMARK INTER:                  -7.279
REMARK INTRA:                  -1.138
REMARK UNBOUND:                -1.138
REMARK SMILES OCC1=C[C@H](O)[C@@H]2C=CO[C@@H](O[C@@H]3O[C@H](CO)[C@H](O)[C@@H](O)[C@H]3O)[C@@H]12
REMARK SMILES IDX 12 1 11 2 8 3 9 4 7 5 10 6 24 7 5 8 3 9 4 10 6 11 2 13 1 14
REMARK SMILES IDX 13 16 22 17 14 18 20 19 15 20 18 21 23 22 21 24 16 26 17 27
REMARK SMILES IDX 19 29
REMARK H PARENT 6 12 1 15 23 23 21 25 17 28 19 30
REMARK Flexibility Score: inf
ROOT
ATOM      1  O   UNL     1      22.517  53.090  53.472  1.00  0.00    -0.310 OA
ENDROOT
BRANCH   1   2
ATOM      2  C   UNL     1      23.437  53.621  52.533  1.00  0.00     0.316 C 
ATOM      3  C   UNL     1      21.871  54.893  50.415  1.00  0.00     0.018 C 
ATOM      4  C   UNL     1      22.488  55.644  51.342  1.00  0.00     0.186 C 
ATOM      5  C   UNL     1      21.844  53.417  50.652  1.00  0.00     0.061 C 
ATOM      6  O   UNL     1      23.219  55.045  52.401  1.00  0.00    -0.472 OA
ATOM      7  C   UNL     1      23.208  52.976  51.160  1.00  0.00     0.096 C 
ATOM      8  C   UNL     1      21.536  52.426  49.527  1.00  0.00     0.145 C 
ATOM      9  C   UNL     1      23.123  51.495  51.003  1.00  0.00    -0.036 C 
ATOM     10  C   UNL     1      22.256  51.197  50.026  1.00  0.00     0.007 C 
BRANCH   8  11
ATOM     11  O   UNL     1      22.026  52.847  48.277  1.00  0.00    -0.388 OA
ATOM     12  H   UNL     1      21.257  52.976  47.664  1.00  0.00     0.211 HD
ENDBRANCH   8  11
BRANCH   9  13
ATOM     13  C   UNL     1      24.042  50.498  51.648  1.00  0.00     0.187 C 
BRANCH  13  14
ATOM     14  O   UNL     1      23.837  50.481  53.034  1.00  0.00    -0.392 OA
ATOM     15  H   UNL     1      23.226  51.236  53.242  1.00  0.00     0.211 HD
ENDBRANCH  13  14
ENDBRANCH   9  13
ENDBRANCH   1   2
BRANCH   1  16
ATOM     16  C   UNL     1      22.007  54.070  54.360  1.00  0.00     0.286 C 
ATOM     17  C   UNL     1      20.528  54.409  54.076  1.00  0.00     0.202 C 
ATOM     18  O   UNL     1      22.199  53.654  55.704  1.00  0.00    -0.341 OA
ATOM     19  C   UNL     1      19.646  53.189  54.364  1.00  0.00     0.179 C 
ATOM     20  C   UNL     1      21.416  52.527  56.090  1.00  0.00     0.178 C 
ATOM     21  C   UNL     1      19.901  52.696  55.799  1.00  0.00     0.177 C 
BRANCH  17  22
ATOM     22  O   UNL     1      20.147  55.495  54.887  1.00  0.00    -0.385 OA
ATOM     23  H   UNL     1      20.841  56.197  54.779  1.00  0.00     0.211 HD
ENDBRANCH  17  22
BRANCH  19  24
ATOM     24  O   UNL     1      18.295  53.541  54.205  1.00  0.00    -0.387 OA
ATOM     25  H   UNL     1      18.098  54.245  54.875  1.00  0.00     0.211 HD
ENDBRANCH  19  24
BRANCH  20  26
ATOM     26  C   UNL     1      22.052  51.180  55.658  1.00  0.00     0.191 C 
BRANCH  26  27
ATOM     27  O   UNL     1      21.389  50.593  54.570  1.00  0.00    -0.394 OA
ATOM     28  H   UNL     1      22.002  49.919  54.177  1.00  0.00     0.210 HD
ENDBRANCH  26  27
ENDBRANCH  20  26
BRANCH  21  29
ATOM     29  O   UNL     1      19.227  51.484  56.033  1.00  0.00    -0.387 OA
ATOM     30  H   UNL     1      18.260  51.655  55.885  1.00  0.00     0.211 HD
ENDBRANCH  21  29
ENDBRANCH   1  16
TORSDOF 10
ENDMDL
MODEL 2
REMARK VINA RESULT:    -3.898      1.451      1.906
REMARK INTER + INTRA:          -6.631
REMARK INTER:                  -5.550
REMARK INTRA:                  -1.081
REMARK UNBOUND:                -1.138
REMARK SMILES OCC1=C[C@H](O)[C@@H]2C=CO[C@@H](O[C@@H]3O[C@H](CO)[C@H](O)[C@@H](O)[C@H]3O)[C@@H]12
REMARK SMILES IDX 12 1 11 2 8 3 9 4 7 5 10 6 24 7 5 8 3 9 4 10 6 11 2 13 1 14
REMARK SMILES IDX 13 16 22 17 14 18 20 19 15 20 18 21 23 22 21 24 16 26 17 27
REMARK SMILES IDX 19 29
REMARK H PARENT 6 12 1 15 23 23 21 25 17 28 19 30
REMARK Flexibility Score: inf
ROOT
ATOM      1  O   UNL     1      23.271  53.173  52.728  1.00  0.00    -0.310 OA
ENDROOT
BRANCH   1   2
ATOM      2  C   UNL     1      24.109  53.524  51.639  1.00  0.00     0.316 C 
ATOM      3  C   UNL     1      22.461  54.993  49.720  1.00  0.00     0.018 C 
ATOM      4  C   UNL     1      23.327  55.651  50.510  1.00  0.00     0.186 C 
ATOM      5  C   UNL     1      22.234  53.548  50.026  1.00  0.00     0.061 C 
ATOM      6  O   UNL     1      24.106  54.962  51.474  1.00  0.00    -0.472 OA
ATOM      7  C   UNL     1      23.571  52.896  50.346  1.00  0.00     0.096 C 
ATOM      8  C   UNL     1      21.600  52.598  49.006  1.00  0.00     0.145 C 
ATOM      9  C   UNL     1      23.224  51.448  50.272  1.00  0.00    -0.036 C 
ATOM     10  C   UNL     1      22.181  51.277  49.450  1.00  0.00     0.007 C 
BRANCH   8  11
ATOM     11  O   UNL     1      21.954  52.905  47.680  1.00  0.00    -0.388 OA
ATOM     12  H   UNL     1      21.840  53.881  47.541  1.00  0.00     0.211 HD
ENDBRANCH   8  11
BRANCH   9  13
ATOM     13  C   UNL     1      24.060  50.325  50.820  1.00  0.00     0.187 C 
BRANCH  13  14
ATOM     14  O   UNL     1      24.105  49.268  49.903  1.00  0.00    -0.392 OA
ATOM     15  H   UNL     1      23.822  48.452  50.393  1.00  0.00     0.211 HD
ENDBRANCH  13  14
ENDBRANCH   9  13
ENDBRANCH   1   2
BRANCH   1  16
ATOM     16  C   UNL     1      23.867  53.430  53.987  1.00  0.00     0.286 C 
ATOM     17  C   UNL     1      23.126  54.530  54.777  1.00  0.00     0.202 C 
ATOM     18  O   UNL     1      23.961  52.225  54.734  1.00  0.00    -0.341 OA
ATOM     19  C   UNL     1      21.719  54.050  55.151  1.00  0.00     0.179 C 
ATOM     20  C   UNL     1      22.707  51.689  55.149  1.00  0.00     0.178 C 
ATOM     21  C   UNL     1      21.815  52.711  55.903  1.00  0.00     0.177 C 
BRANCH  17  22
ATOM     22  O   UNL     1      23.866  54.837  55.934  1.00  0.00    -0.385 OA
ATOM     23  H   UNL     1      23.836  55.822  56.047  1.00  0.00     0.211 HD
ENDBRANCH  17  22
BRANCH  19  24
ATOM     24  O   UNL     1      21.095  55.016  55.958  1.00  0.00    -0.387 OA
ATOM     25  H   UNL     1      20.840  54.566  56.805  1.00  0.00     0.211 HD
ENDBRANCH  19  24
BRANCH  20  26
ATOM     26  C   UNL     1      22.013  50.861  54.037  1.00  0.00     0.191 C 
BRANCH  26  27
ATOM     27  O   UNL     1      21.038  51.595  53.344  1.00  0.00    -0.394 OA
ATOM     28  H   UNL     1      20.808  51.084  52.525  1.00  0.00     0.210 HD
ENDBRANCH  26  27
ENDBRANCH  20  26
BRANCH  21  29
ATOM     29  O   UNL     1      20.534  52.170  56.113  1.00  0.00    -0.387 OA
ATOM     30  H   UNL     1      20.220  51.814  55.241  1.00  0.00     0.211 HD
ENDBRANCH  21  29
ENDBRANCH   1  16
TORSDOF 10
ENDMDL
MODEL 3
REMARK VINA RESULT:    -3.885     11.719     15.767
REMARK INTER + INTRA:          -6.613
REMARK INTER:                  -5.340
REMARK INTRA:                  -1.273
REMARK UNBOUND:                -1.138
REMARK SMILES OCC1=C[C@H](O)[C@@H]2C=CO[C@@H](O[C@@H]3O[C@H](CO)[C@H](O)[C@@H](O)[C@H]3O)[C@@H]12
REMARK SMILES IDX 12 1 11 2 8 3 9 4 7 5 10 6 24 7 5 8 3 9 4 10 6 11 2 13 1 14
REMARK SMILES IDX 13 16 22 17 14 18 20 19 15 20 18 21 23 22 21 24 16 26 17 27
REMARK SMILES IDX 19 29
REMARK H PARENT 6 12 1 15 23 23 21 25 17 28 19 30
REMARK Flexibility Score: inf
ROOT
ATOM      1  O   UNL     1      21.562  53.479  38.211  1.00  0.00    -0.310 OA
ENDROOT
BRANCH   1   2
ATOM      2  C   UNL     1      21.929  54.611  38.985  1.00  0.00     0.316 C 
ATOM      3  C   UNL     1      21.317  53.982  41.775  1.00  0.00     0.018 C 
ATOM      4  C   UNL     1      22.588  53.953  41.339  1.00  0.00     0.186 C 
ATOM      5  C   UNL     1      20.252  54.126  40.737  1.00  0.00     0.061 C 
ATOM      6  O   UNL     1      22.901  54.215  39.981  1.00  0.00    -0.472 OA
ATOM      7  C   UNL     1      20.697  55.161  39.715  1.00  0.00     0.096 C 
ATOM      8  C   UNL     1      18.828  54.558  41.098  1.00  0.00     0.145 C 
ATOM      9  C   UNL     1      19.423  55.435  38.990  1.00  0.00    -0.036 C 
ATOM     10  C   UNL     1      18.384  55.185  39.798  1.00  0.00     0.007 C 
BRANCH   8  11
ATOM     11  O   UNL     1      18.789  55.479  42.161  1.00  0.00    -0.388 OA
ATOM     12  H   UNL     1      19.710  55.589  42.515  1.00  0.00     0.211 HD
ENDBRANCH   8  11
BRANCH   9  13
ATOM     13  C   UNL     1      19.311  56.125  37.660  1.00  0.00     0.187 C 
BRANCH  13  14
ATOM     14  O   UNL     1      19.439  55.192  36.622  1.00  0.00    -0.392 OA
ATOM     15  H   UNL     1      20.279  55.414  36.142  1.00  0.00     0.211 HD
ENDBRANCH  13  14
ENDBRANCH   9  13
ENDBRANCH   1   2
BRANCH   1  16
ATOM     16  C   UNL     1      22.297  53.377  37.003  1.00  0.00     0.286 C 
ATOM     17  C   UNL     1      23.332  52.232  37.039  1.00  0.00     0.202 C 
ATOM     18  O   UNL     1      21.406  53.241  35.904  1.00  0.00    -0.341 OA
ATOM     19  C   UNL     1      22.616  50.879  37.126  1.00  0.00     0.179 C 
ATOM     20  C   UNL     1      20.690  52.008  35.875  1.00  0.00     0.178 C 
ATOM     21  C   UNL     1      21.603  50.758  35.974  1.00  0.00     0.177 C 
BRANCH  17  22
ATOM     22  O   UNL     1      24.123  52.298  35.877  1.00  0.00    -0.385 OA
ATOM     23  H   UNL     1      24.297  51.363  35.590  1.00  0.00     0.211 HD
ENDBRANCH  17  22
BRANCH  19  24
ATOM     24  O   UNL     1      23.563  49.844  37.051  1.00  0.00    -0.387 OA
ATOM     25  H   UNL     1      23.422  49.384  36.184  1.00  0.00     0.211 HD
ENDBRANCH  19  24
BRANCH  20  26
ATOM     26  C   UNL     1      19.440  52.020  36.793  1.00  0.00     0.191 C 
BRANCH  26  27
ATOM     27  O   UNL     1      18.262  52.339  36.100  1.00  0.00    -0.394 OA
ATOM     28  H   UNL     1      17.619  52.705  36.762  1.00  0.00     0.210 HD
ENDBRANCH  26  27
ENDBRANCH  20  26
BRANCH  21  29
ATOM     29  O   UNL     1      20.820  49.599  36.125  1.00  0.00    -0.387 OA
ATOM     30  H   UNL     1      21.323  48.983  36.719  1.00  0.00     0.211 HD
ENDBRANCH  21  29
ENDBRANCH   1  16
TORSDOF 10
ENDMDL
MODEL 4
REMARK VINA RESULT:    -3.759     11.221     15.385
REMARK INTER + INTRA:          -6.435
REMARK INTER:                  -5.272
REMARK INTRA:                  -1.163
REMARK UNBOUND:                -1.138
REMARK SMILES OCC1=C[C@H](O)[C@@H]2C=CO[C@@H](O[C@@H]3O[C@H](CO)[C@H](O)[C@@H](O)[C@H]3O)[C@@H]12
REMARK SMILES IDX 12 1 11 2 8 3 9 4 7 5 10 6 24 7 5 8 3 9 4 10 6 11 2 13 1 14
REMARK SMILES IDX 13 16 22 17 14 18 20 19 15 20 18 21 23 22 21 24 16 26 17 27
REMARK SMILES IDX 19 29
REMARK H PARENT 6 12 1 15 23 23 21 25 17 28 19 30
REMARK Flexibility Score: inf
ROOT
ATOM      1  O   UNL     1      21.349  53.783  38.174  1.00  0.00    -0.310 OA
ENDROOT
BRANCH   1   2
ATOM      2  C   UNL     1      21.359  55.110  38.675  1.00  0.00     0.316 C 
ATOM      3  C   UNL     1      23.985  55.556  39.882  1.00  0.00     0.018 C 
ATOM      4  C   UNL     1      23.696  56.084  38.681  1.00  0.00     0.186 C 
ATOM      5  C   UNL     1      23.006  54.576  40.441  1.00  0.00     0.061 C 
ATOM      6  O   UNL     1      22.443  55.846  38.060  1.00  0.00    -0.472 OA
ATOM      7  C   UNL     1      21.597  55.090  40.190  1.00  0.00     0.096 C 
ATOM      8  C   UNL     1      22.999  54.200  41.925  1.00  0.00     0.145 C 
ATOM      9  C   UNL     1      20.793  54.216  41.091  1.00  0.00    -0.036 C 
ATOM     10  C   UNL     1      21.556  53.796  42.108  1.00  0.00     0.007 C 
BRANCH   8  11
ATOM     11  O   UNL     1      23.350  55.276  42.762  1.00  0.00    -0.388 OA
ATOM     12  H   UNL     1      23.226  54.994  43.706  1.00  0.00     0.211 HD
ENDBRANCH   8  11
BRANCH   9  13
ATOM     13  C   UNL     1      19.303  54.034  41.023  1.00  0.00     0.187 C 
BRANCH  13  14
ATOM     14  O   UNL     1      18.956  53.336  39.859  1.00  0.00    -0.392 OA
ATOM     15  H   UNL     1      19.266  52.401  39.983  1.00  0.00     0.211 HD
ENDBRANCH  13  14
ENDBRANCH   9  13
ENDBRANCH   1   2
BRANCH   1  16
ATOM     16  C   UNL     1      22.166  53.620  37.027  1.00  0.00     0.286 C 
ATOM     17  C   UNL     1      23.209  52.496  37.201  1.00  0.00     0.202 C 
ATOM     18  O   UNL     1      21.355  53.407  35.880  1.00  0.00    -0.341 OA
ATOM     19  C   UNL     1      22.504  51.140  37.319  1.00  0.00     0.179 C 
ATOM     20  C   UNL     1      20.656  52.164  35.875  1.00  0.00     0.178 C 
ATOM     21  C   UNL     1      21.574  50.936  36.111  1.00  0.00     0.177 C 
BRANCH  17  22
ATOM     22  O   UNL     1      24.077  52.505  36.093  1.00  0.00    -0.385 OA
ATOM     23  H   UNL     1      23.513  52.421  35.280  1.00  0.00     0.211 HD
ENDBRANCH  17  22
BRANCH  19  24
ATOM     24  O   UNL     1      23.466  50.116  37.371  1.00  0.00    -0.387 OA
ATOM     25  H   UNL     1      24.303  50.485  36.987  1.00  0.00     0.211 HD
ENDBRANCH  19  24
BRANCH  20  26
ATOM     26  C   UNL     1      19.346  52.210  36.704  1.00  0.00     0.191 C 
BRANCH  26  27
ATOM     27  O   UNL     1      18.780  53.494  36.751  1.00  0.00    -0.394 OA
ATOM     28  H   UNL     1      18.174  53.579  35.970  1.00  0.00     0.210 HD
ENDBRANCH  26  27
ENDBRANCH  20  26
BRANCH  21  29
ATOM     29  O   UNL     1      20.796  49.776  36.276  1.00  0.00    -0.387 OA
ATOM     30  H   UNL     1      19.853  50.029  36.098  1.00  0.00     0.211 HD
ENDBRANCH  21  29
ENDBRANCH   1  16
TORSDOF 10
ENDMDL
MODEL 5
REMARK VINA RESULT:    -3.346      1.272      2.749
REMARK INTER + INTRA:          -5.852
REMARK INTER:                  -5.730
REMARK INTRA:                  -0.123
REMARK UNBOUND:                -1.138
REMARK SMILES OCC1=C[C@H](O)[C@@H]2C=CO[C@@H](O[C@@H]3O[C@H](CO)[C@H](O)[C@@H](O)[C@H]3O)[C@@H]12
REMARK SMILES IDX 12 1 11 2 8 3 9 4 7 5 10 6 24 7 5 8 3 9 4 10 6 11 2 13 1 14
REMARK SMILES IDX 13 16 22 17 14 18 20 19 15 20 18 21 23 22 21 24 16 26 17 27
REMARK SMILES IDX 19 29
REMARK H PARENT 6 12 1 15 23 23 21 25 17 28 19 30
REMARK Flexibility Score: inf
ROOT
ATOM      1  O   UNL     1      22.300  52.788  53.263  1.00  0.00    -0.310 OA
ENDROOT
BRANCH   1   2
ATOM      2  C   UNL     1      21.387  52.956  52.189  1.00  0.00     0.316 C 
ATOM      3  C   UNL     1      22.547  51.626  49.856  1.00  0.00     0.018 C 
ATOM      4  C   UNL     1      21.539  51.048  50.532  1.00  0.00     0.186 C 
ATOM      5  C   UNL     1      23.169  52.835  50.477  1.00  0.00     0.061 C 
ATOM      6  O   UNL     1      20.990  51.658  51.690  1.00  0.00    -0.472 OA
ATOM      7  C   UNL     1      22.068  53.718  51.045  1.00  0.00     0.096 C 
ATOM      8  C   UNL     1      24.033  53.804  49.666  1.00  0.00     0.145 C 
ATOM      9  C   UNL     1      22.802  54.993  51.289  1.00  0.00    -0.036 C 
ATOM     10  C   UNL     1      23.845  55.078  50.453  1.00  0.00     0.007 C 
BRANCH   8  11
ATOM     11  O   UNL     1      23.596  53.942  48.335  1.00  0.00    -0.388 OA
ATOM     12  H   UNL     1      22.721  54.410  48.339  1.00  0.00     0.211 HD
ENDBRANCH   8  11
BRANCH   9  13
ATOM     13  C   UNL     1      22.316  56.125  52.149  1.00  0.00     0.187 C 
BRANCH  13  14
ATOM     14  O   UNL     1      20.916  56.119  52.207  1.00  0.00    -0.392 OA
ATOM     15  H   UNL     1      20.630  57.063  52.321  1.00  0.00     0.211 HD
ENDBRANCH  13  14
ENDBRANCH   9  13
ENDBRANCH   1   2
BRANCH   1  16
ATOM     16  C   UNL     1      22.037  53.659  54.350  1.00  0.00     0.286 C 
ATOM     17  C   UNL     1      20.569  54.135  54.381  1.00  0.00     0.202 C 
ATOM     18  O   UNL     1      22.409  53.035  55.571  1.00  0.00    -0.341 OA
ATOM     19  C   UNL     1      19.637  52.948  54.654  1.00  0.00     0.179 C 
ATOM     20  C   UNL     1      21.600  51.919  55.934  1.00  0.00     0.178 C 
ATOM     21  C   UNL     1      20.080  52.231  55.941  1.00  0.00     0.177 C 
BRANCH  17  22
ATOM     22  O   UNL     1      20.429  55.112  55.385  1.00  0.00    -0.385 OA
ATOM     23  H   UNL     1      20.900  55.926  55.067  1.00  0.00     0.211 HD
ENDBRANCH  17  22
BRANCH  19  24
ATOM     24  O   UNL     1      18.317  53.411  54.785  1.00  0.00    -0.387 OA
ATOM     25  H   UNL     1      18.340  54.181  55.411  1.00  0.00     0.211 HD
ENDBRANCH  19  24
BRANCH  20  26
ATOM     26  C   UNL     1      22.028  50.611  55.219  1.00  0.00     0.191 C 
BRANCH  26  27
ATOM     27  O   UNL     1      21.138  50.234  54.202  1.00  0.00    -0.394 OA
ATOM     28  H   UNL     1      20.367  49.783  54.636  1.00  0.00     0.210 HD
ENDBRANCH  26  27
ENDBRANCH  20  26
BRANCH  21  29
ATOM     29  O   UNL     1      19.344  51.047  56.125  1.00  0.00    -0.387 OA
ATOM     30  H   UNL     1      19.839  50.496  56.787  1.00  0.00     0.211 HD
ENDBRANCH  21  29
ENDBRANCH   1  16
TORSDOF 10
ENDMDL
MODEL 6
REMARK VINA RESULT:    -3.300     11.638     14.820
REMARK INTER + INTRA:          -5.788
REMARK INTER:                  -4.714
REMARK INTRA:                  -1.075
REMARK UNBOUND:                -1.138
REMARK SMILES OCC1=C[C@H](O)[C@@H]2C=CO[C@@H](O[C@@H]3O[C@H](CO)[C@H](O)[C@@H](O)[C@H]3O)[C@@H]12
REMARK SMILES IDX 12 1 11 2 8 3 9 4 7 5 10 6 24 7 5 8 3 9 4 10 6 11 2 13 1 14
REMARK SMILES IDX 13 16 22 17 14 18 20 19 15 20 18 21 23 22 21 24 16 26 17 27
REMARK SMILES IDX 19 29
REMARK H PARENT 6 12 1 15 23 23 21 25 17 28 19 30
REMARK Flexibility Score: inf
ROOT
ATOM      1  O   UNL     1      20.441  53.398  38.195  1.00  0.00    -0.310 OA
ENDROOT
BRANCH   1   2
ATOM      2  C   UNL     1      20.675  53.301  36.799  1.00  0.00     0.316 C 
ATOM      3  C   UNL     1      21.057  50.468  36.183  1.00  0.00     0.018 C 
ATOM      4  C   UNL     1      19.897  51.075  35.878  1.00  0.00     0.186 C 
ATOM      5  C   UNL     1      22.018  51.237  37.030  1.00  0.00     0.061 C 
ATOM      6  O   UNL     1      19.678  52.438  36.205  1.00  0.00    -0.472 OA
ATOM      7  C   UNL     1      22.054  52.679  36.546  1.00  0.00     0.096 C 
ATOM      8  C   UNL     1      23.496  50.848  37.128  1.00  0.00     0.145 C 
ATOM      9  C   UNL     1      23.275  53.194  37.230  1.00  0.00    -0.036 C 
ATOM     10  C   UNL     1      24.118  52.181  37.469  1.00  0.00     0.007 C 
BRANCH   8  11
ATOM     11  O   UNL     1      24.005  50.327  35.924  1.00  0.00    -0.388 OA
ATOM     12  H   UNL     1      24.930  50.665  35.802  1.00  0.00     0.211 HD
ENDBRANCH   8  11
BRANCH   9  13
ATOM     13  C   UNL     1      23.631  54.644  37.397  1.00  0.00     0.187 C 
BRANCH  13  14
ATOM     14  O   UNL     1      23.677  55.276  36.147  1.00  0.00    -0.392 OA
ATOM     15  H   UNL     1      23.044  54.788  35.557  1.00  0.00     0.211 HD
ENDBRANCH  13  14
ENDBRANCH   9  13
ENDBRANCH   1   2
BRANCH   1  16
ATOM     16  C   UNL     1      20.117  54.714  38.610  1.00  0.00     0.286 C 
ATOM     17  C   UNL     1      18.784  54.776  39.385  1.00  0.00     0.202 C 
ATOM     18  O   UNL     1      21.188  55.261  39.367  1.00  0.00    -0.341 OA
ATOM     19  C   UNL     1      18.913  54.017  40.711  1.00  0.00     0.179 C 
ATOM     20  C   UNL     1      21.394  54.637  40.632  1.00  0.00     0.178 C 
ATOM     21  C   UNL     1      20.113  54.563  41.504  1.00  0.00     0.177 C 
BRANCH  17  22
ATOM     22  O   UNL     1      18.457  56.125  39.620  1.00  0.00    -0.385 OA
ATOM     23  H   UNL     1      19.294  56.649  39.523  1.00  0.00     0.211 HD
ENDBRANCH  17  22
BRANCH  19  24
ATOM     24  O   UNL     1      17.729  54.170  41.454  1.00  0.00    -0.387 OA
ATOM     25  H   UNL     1      17.994  54.266  42.405  1.00  0.00     0.211 HD
ENDBRANCH  19  24
BRANCH  20  26
ATOM     26  C   UNL     1      22.229  53.334  40.528  1.00  0.00     0.191 C 
BRANCH  26  27
ATOM     27  O   UNL     1      21.447  52.177  40.673  1.00  0.00    -0.394 OA
ATOM     28  H   UNL     1      20.536  52.392  40.342  1.00  0.00     0.210 HD
ENDBRANCH  26  27
ENDBRANCH  20  26
BRANCH  21  29
ATOM     29  O   UNL     1      20.350  53.777  42.646  1.00  0.00    -0.387 OA
ATOM     30  H   UNL     1      20.542  52.856  42.331  1.00  0.00     0.211 HD
ENDBRANCH  21  29
ENDBRANCH   1  16
TORSDOF 10
ENDMDL
MODEL 7
REMARK VINA RESULT:    -2.973      1.599      5.818
REMARK INTER + INTRA:          -5.327
REMARK INTER:                  -4.172
REMARK INTRA:                  -1.156
REMARK UNBOUND:                -1.138
REMARK SMILES OCC1=C[C@H](O)[C@@H]2C=CO[C@@H](O[C@@H]3O[C@H](CO)[C@H](O)[C@@H](O)[C@H]3O)[C@@H]12
REMARK SMILES IDX 12 1 11 2 8 3 9 4 7 5 10 6 24 7 5 8 3 9 4 10 6 11 2 13 1 14
REMARK SMILES IDX 13 16 22 17 14 18 20 19 15 20 18 21 23 22 21 24 16 26 17 27
REMARK SMILES IDX 19 29
REMARK H PARENT 6 12 1 15 23 23 21 25 17 28 19 30
REMARK Flexibility Score: inf
ROOT
ATOM      1  O   UNL     1      22.750  53.286  52.193  1.00  0.00    -0.310 OA
ENDROOT
BRANCH   1   2
ATOM      2  C   UNL     1      23.098  53.256  53.568  1.00  0.00     0.316 C 
ATOM      3  C   UNL     1      21.770  50.930  54.743  1.00  0.00     0.018 C 
ATOM      4  C   UNL     1      23.087  50.893  54.479  1.00  0.00     0.186 C 
ATOM      5  C   UNL     1      21.008  52.100  54.212  1.00  0.00     0.061 C 
ATOM      6  O   UNL     1      23.742  51.996  53.872  1.00  0.00    -0.472 OA
ATOM      7  C   UNL     1      21.831  53.362  54.427  1.00  0.00     0.096 C 
ATOM      8  C   UNL     1      19.624  52.472  54.750  1.00  0.00     0.145 C 
ATOM      9  C   UNL     1      20.816  54.427  54.185  1.00  0.00    -0.036 C 
ATOM     10  C   UNL     1      19.593  53.952  54.456  1.00  0.00     0.007 C 
BRANCH   8  11
ATOM     11  O   UNL     1      19.483  52.210  56.125  1.00  0.00    -0.388 OA
ATOM     12  H   UNL     1      19.287  53.064  56.590  1.00  0.00     0.211 HD
ENDBRANCH   8  11
BRANCH   9  13
ATOM     13  C   UNL     1      21.121  55.876  53.929  1.00  0.00     0.187 C 
BRANCH  13  14
ATOM     14  O   UNL     1      21.149  56.125  52.550  1.00  0.00    -0.392 OA
ATOM     15  H   UNL     1      21.407  57.077  52.437  1.00  0.00     0.211 HD
ENDBRANCH  13  14
ENDBRANCH   9  13
ENDBRANCH   1   2
BRANCH   1  16
ATOM     16  C   UNL     1      23.464  52.334  51.423  1.00  0.00     0.286 C 
ATOM     17  C   UNL     1      22.563  51.183  50.927  1.00  0.00     0.202 C 
ATOM     18  O   UNL     1      24.125  52.981  50.344  1.00  0.00    -0.341 OA
ATOM     19  C   UNL     1      21.522  51.719  49.938  1.00  0.00     0.179 C 
ATOM     20  C   UNL     1      23.251  53.512  49.351  1.00  0.00     0.178 C 
ATOM     21  C   UNL     1      22.233  52.478  48.803  1.00  0.00     0.177 C 
BRANCH  17  22
ATOM     22  O   UNL     1      23.370  50.207  50.313  1.00  0.00    -0.385 OA
ATOM     23  H   UNL     1      24.182  50.668  49.979  1.00  0.00     0.211 HD
ENDBRANCH  17  22
BRANCH  19  24
ATOM     24  O   UNL     1      20.779  50.648  49.414  1.00  0.00    -0.387 OA
ATOM     25  H   UNL     1      19.859  50.728  49.777  1.00  0.00     0.211 HD
ENDBRANCH  19  24
BRANCH  20  26
ATOM     26  C   UNL     1      22.678  54.901  49.737  1.00  0.00     0.191 C 
BRANCH  26  27
ATOM     27  O   UNL     1      23.474  55.571  50.680  1.00  0.00    -0.394 OA
ATOM     28  H   UNL     1      24.371  55.148  50.664  1.00  0.00     0.210 HD
ENDBRANCH  26  27
ENDBRANCH  20  26
BRANCH  21  29
ATOM     29  O   UNL     1      21.295  53.117  47.973  1.00  0.00    -0.387 OA
ATOM     30  H   UNL     1      21.625  54.039  47.815  1.00  0.00     0.211 HD
ENDBRANCH  21  29
ENDBRANCH   1  16
TORSDOF 10
ENDMDL
MODEL 8
REMARK VINA RESULT:    -2.913      1.603      3.034
REMARK INTER + INTRA:          -5.243
REMARK INTER:                  -5.346
REMARK INTRA:                   0.103
REMARK UNBOUND:                -1.138
REMARK SMILES OCC1=C[C@H](O)[C@@H]2C=CO[C@@H](O[C@@H]3O[C@H](CO)[C@H](O)[C@@H](O)[C@H]3O)[C@@H]12
REMARK SMILES IDX 12 1 11 2 8 3 9 4 7 5 10 6 24 7 5 8 3 9 4 10 6 11 2 13 1 14
REMARK SMILES IDX 13 16 22 17 14 18 20 19 15 20 18 21 23 22 21 24 16 26 17 27
REMARK SMILES IDX 19 29
REMARK H PARENT 6 12 1 15 23 23 21 25 17 28 19 30
REMARK Flexibility Score: inf
ROOT
ATOM      1  O   UNL     1      21.970  52.621  52.214  1.00  0.00    -0.310 OA
ENDROOT
BRANCH   1   2
ATOM      2  C   UNL     1      23.329  52.909  51.926  1.00  0.00     0.316 C 
ATOM      3  C   UNL     1      23.422  55.613  50.816  1.00  0.00     0.018 C 
ATOM      4  C   UNL     1      23.809  55.390  52.084  1.00  0.00     0.186 C 
ATOM      5  C   UNL     1      22.753  54.481  50.106  1.00  0.00     0.061 C 
ATOM      6  O   UNL     1      23.733  54.093  52.654  1.00  0.00    -0.472 OA
ATOM      7  C   UNL     1      23.493  53.192  50.428  1.00  0.00     0.096 C 
ATOM      8  C   UNL     1      22.617  54.454  48.582  1.00  0.00     0.145 C 
ATOM      9  C   UNL     1      22.943  52.265  49.397  1.00  0.00    -0.036 C 
ATOM     10  C   UNL     1      22.540  52.967  48.331  1.00  0.00     0.007 C 
BRANCH   8  11
ATOM     11  O   UNL     1      23.715  55.039  47.924  1.00  0.00    -0.388 OA
ATOM     12  H   UNL     1      23.679  54.785  46.966  1.00  0.00     0.211 HD
ENDBRANCH   8  11
BRANCH   9  13
ATOM     13  C   UNL     1      23.053  50.767  49.429  1.00  0.00     0.187 C 
BRANCH  13  14
ATOM     14  O   UNL     1      21.866  50.208  49.919  1.00  0.00    -0.392 OA
ATOM     15  H   UNL     1      21.966  50.142  50.905  1.00  0.00     0.211 HD
ENDBRANCH  13  14
ENDBRANCH   9  13
ENDBRANCH   1   2
BRANCH   1  16
ATOM     16  C   UNL     1      21.816  51.685  53.266  1.00  0.00     0.286 C 
ATOM     17  C   UNL     1      22.909  51.828  54.347  1.00  0.00     0.202 C 
ATOM     18  O   UNL     1      20.513  51.792  53.824  1.00  0.00    -0.341 OA
ATOM     19  C   UNL     1      22.768  53.177  55.060  1.00  0.00     0.179 C 
ATOM     20  C   UNL     1      20.271  53.009  54.526  1.00  0.00     0.178 C 
ATOM     21  C   UNL     1      21.338  53.324  55.608  1.00  0.00     0.177 C 
BRANCH  17  22
ATOM     22  O   UNL     1      22.781  50.769  55.266  1.00  0.00    -0.385 OA
ATOM     23  H   UNL     1      23.617  50.236  55.214  1.00  0.00     0.211 HD
ENDBRANCH  17  22
BRANCH  19  24
ATOM     24  O   UNL     1      23.700  53.250  56.110  1.00  0.00    -0.387 OA
ATOM     25  H   UNL     1      23.198  53.108  56.954  1.00  0.00     0.211 HD
ENDBRANCH  19  24
BRANCH  20  26
ATOM     26  C   UNL     1      19.885  54.178  53.583  1.00  0.00     0.191 C 
BRANCH  26  27
ATOM     27  O   UNL     1      18.804  54.930  54.068  1.00  0.00    -0.394 OA
ATOM     28  H   UNL     1      18.127  54.976  53.344  1.00  0.00     0.210 HD
ENDBRANCH  26  27
ENDBRANCH  20  26
BRANCH  21  29
ATOM     29  O   UNL     1      21.136  54.617  56.123  1.00  0.00    -0.387 OA
ATOM     30  H   UNL     1      22.023  54.956  56.414  1.00  0.00     0.211 HD
ENDBRANCH  21  29
ENDBRANCH   1  16
TORSDOF 10
ENDMDL
MODEL 9
REMARK VINA RESULT:    -2.275     10.922     15.040
REMARK INTER + INTRA:          -4.344
REMARK INTER:                  -3.057
REMARK INTRA:                  -1.287
REMARK UNBOUND:                -1.138
REMARK SMILES OCC1=C[C@H](O)[C@@H]2C=CO[C@@H](O[C@@H]3O[C@H](CO)[C@H](O)[C@@H](O)[C@H]3O)[C@@H]12
REMARK SMILES IDX 12 1 11 2 8 3 9 4 7 5 10 6 24 7 5 8 3 9 4 10 6 11 2 13 1 14
REMARK SMILES IDX 13 16 22 17 14 18 20 19 15 20 18 21 23 22 21 24 16 26 17 27
REMARK SMILES IDX 19 29
REMARK H PARENT 6 12 1 15 23 23 21 25 17 28 19 30
REMARK Flexibility Score: inf
ROOT
ATOM      1  O   UNL     1      20.636  53.383  39.031  1.00  0.00    -0.310 OA
ENDROOT
BRANCH   1   2
ATOM      2  C   UNL     1      21.281  52.644  40.056  1.00  0.00     0.316 C 
ATOM      3  C   UNL     1      20.760  54.032  42.577  1.00  0.00     0.018 C 
ATOM      4  C   UNL     1      20.094  52.904  42.277  1.00  0.00     0.186 C 
ATOM      5  C   UNL     1      21.586  54.637  41.488  1.00  0.00     0.061 C 
ATOM      6  O   UNL     1      20.303  52.238  41.042  1.00  0.00    -0.472 OA
ATOM      7  C   UNL     1      22.323  53.527  40.754  1.00  0.00     0.096 C 
ATOM      8  C   UNL     1      22.679  55.668  41.783  1.00  0.00     0.145 C 
ATOM      9  C   UNL     1      23.332  54.301  39.976  1.00  0.00    -0.036 C 
ATOM     10  C   UNL     1      23.596  55.454  40.604  1.00  0.00     0.007 C 
BRANCH   8  11
ATOM     11  O   UNL     1      23.336  55.433  43.005  1.00  0.00    -0.388 OA
ATOM     12  H   UNL     1      23.017  54.568  43.373  1.00  0.00     0.211 HD
ENDBRANCH   8  11
BRANCH   9  13
ATOM     13  C   UNL     1      24.125  53.773  38.814  1.00  0.00     0.187 C 
BRANCH  13  14
ATOM     14  O   UNL     1      24.102  54.694  37.758  1.00  0.00    -0.392 OA
ATOM     15  H   UNL     1      24.918  55.252  37.849  1.00  0.00     0.211 HD
ENDBRANCH  13  14
ENDBRANCH   9  13
ENDBRANCH   1   2
BRANCH   1  16
ATOM     16  C   UNL     1      20.878  52.857  37.737  1.00  0.00     0.286 C 
ATOM     17  C   UNL     1      19.606  52.261  37.096  1.00  0.00     0.202 C 
ATOM     18  O   UNL     1      21.461  53.855  36.910  1.00  0.00    -0.341 OA
ATOM     19  C   UNL     1      18.581  53.371  36.834  1.00  0.00     0.179 C 
ATOM     20  C   UNL     1      20.591  54.937  36.588  1.00  0.00     0.178 C 
ATOM     21  C   UNL     1      19.231  54.484  35.993  1.00  0.00     0.177 C 
BRANCH  17  22
ATOM     22  O   UNL     1      19.960  51.623  35.893  1.00  0.00    -0.385 OA
ATOM     23  H   UNL     1      19.547  52.142  35.155  1.00  0.00     0.211 HD
ENDBRANCH  17  22
BRANCH  19  24
ATOM     24  O   UNL     1      17.475  52.834  36.155  1.00  0.00    -0.387 OA
ATOM     25  H   UNL     1      16.914  53.598  35.863  1.00  0.00     0.211 HD
ENDBRANCH  19  24
BRANCH  20  26
ATOM     26  C   UNL     1      20.526  56.007  37.709  1.00  0.00     0.191 C 
BRANCH  26  27
ATOM     27  O   UNL     1      19.360  55.911  38.483  1.00  0.00    -0.394 OA
ATOM     28  H   UNL     1      19.592  55.410  39.308  1.00  0.00     0.210 HD
ENDBRANCH  26  27
ENDBRANCH  20  26
BRANCH  21  29
ATOM     29  O   UNL     1      18.364  55.585  35.876  1.00  0.00    -0.387 OA
ATOM     30  H   UNL     1      18.592  56.215  36.609  1.00  0.00     0.211 HD
ENDBRANCH  21  29
ENDBRANCH   1  16
TORSDOF 10
ENDMDL
