MODEL 1
REMARK VINA RESULT:    -3.638      0.000      0.000
REMARK INTER + INTRA:          -4.069
REMARK INTER:                  -4.063
REMARK INTRA:                  -0.006
REMARK UNBOUND:                -0.006
REMARK SMILES CCCC(=O)[O-]
REMARK SMILES IDX 3 1 4 2 5 3 6 4 2 5 1 6
REMARK H PARENT
REMARK Flexibility Score: inf
ROOT
ATOM      1  C   UNL     1      45.539  12.986 -31.450  1.00  0.00     0.052 C 
ENDROOT
BRANCH   1   2
ATOM      2  C   UNL     1      45.548  12.864 -32.944  1.00  0.00     0.041 C 
ATOM      3  O   UNL     1      46.624  12.998 -33.583  1.00  0.00    -0.550 OA
ATOM      4  O   UNL     1      44.362  12.636 -33.631  1.00  0.00    -0.550 OA
ENDBRANCH   1   2
BRANCH   1   5
ATOM      5  C   UNL     1      46.363  11.877 -30.784  1.00  0.00     0.003 C 
ATOM      6  C   UNL     1      46.246  11.901 -29.260  1.00  0.00     0.004 C 
ENDBRANCH   1   5
TORSDOF 2
ENDMDL
MODEL 2
REMARK VINA RESULT:    -3.619      2.471      3.421
REMARK INTER + INTRA:          -4.048
REMARK INTER:                  -4.010
REMARK INTRA:                  -0.038
REMARK UNBOUND:                -0.006
REMARK SMILES CCCC(=O)[O-]
REMARK SMILES IDX 3 1 4 2 5 3 6 4 2 5 1 6
REMARK H PARENT
REMARK Flexibility Score: inf
ROOT
ATOM      1  C   UNL     1      46.253  11.923 -31.649  1.00  0.00     0.052 C 
ENDROOT
BRANCH   1   2
ATOM      2  C   UNL     1      46.120  12.508 -30.276  1.00  0.00     0.041 C 
ATOM      3  O   UNL     1      46.546  11.875 -29.274  1.00  0.00    -0.550 OA
ATOM      4  O   UNL     1      45.496  13.736 -30.100  1.00  0.00    -0.550 OA
ENDBRANCH   1   2
BRANCH   1   5
ATOM      5  C   UNL     1      45.940  12.955 -32.740  1.00  0.00     0.003 C 
ATOM      6  C   UNL     1      44.647  12.634 -33.491  1.00  0.00     0.004 C 
ENDBRANCH   1   5
TORSDOF 2
ENDMDL
MODEL 3
REMARK VINA RESULT:    -3.106      5.976      6.745
REMARK INTER + INTRA:          -3.475
REMARK INTER:                  -3.467
REMARK INTRA:                  -0.008
REMARK UNBOUND:                -0.006
REMARK SMILES CCCC(=O)[O-]
REMARK SMILES IDX 3 1 4 2 5 3 6 4 2 5 1 6
REMARK H PARENT
REMARK Flexibility Score: inf
ROOT
ATOM      1  C   UNL     1      41.390  13.582 -36.120  1.00  0.00     0.052 C 
ENDROOT
BRANCH   1   2
ATOM      2  C   UNL     1      39.929  13.792 -35.859  1.00  0.00     0.041 C 
ATOM      3  O   UNL     1      39.523  14.881 -35.375  1.00  0.00    -0.550 OA
ATOM      4  O   UNL     1      39.022  12.772 -36.118  1.00  0.00    -0.550 OA
ENDBRANCH   1   2
BRANCH   1   5
ATOM      5  C   UNL     1      41.765  12.095 -36.088  1.00  0.00     0.003 C 
ATOM      6  C   UNL     1      43.246  11.875 -35.775  1.00  0.00     0.004 C 
ENDBRANCH   1   5
TORSDOF 2
ENDMDL
MODEL 4
REMARK VINA RESULT:    -3.007      7.161      8.347
REMARK INTER + INTRA:          -3.364
REMARK INTER:                  -3.327
REMARK INTRA:                  -0.037
REMARK UNBOUND:                -0.006
REMARK SMILES CCCC(=O)[O-]
REMARK SMILES IDX 3 1 4 2 5 3 6 4 2 5 1 6
REMARK H PARENT
REMARK Flexibility Score: inf
ROOT
ATOM      1  C   UNL     1      38.626  14.490 -35.634  1.00  0.00     0.052 C 
ENDROOT
BRANCH   1   2
ATOM      2  C   UNL     1      40.088  14.204 -35.798  1.00  0.00     0.041 C 
ATOM      3  O   UNL     1      40.503  13.015 -35.806  1.00  0.00    -0.550 OA
ATOM      4  O   UNL     1      40.995  15.251 -35.906  1.00  0.00    -0.550 OA
ENDBRANCH   1   2
BRANCH   1   5
ATOM      5  C   UNL     1      37.782  13.213 -35.731  1.00  0.00     0.003 C 
ATOM      6  C   UNL     1      37.194  13.007 -37.127  1.00  0.00     0.004 C 
ENDBRANCH   1   5
TORSDOF 2
ENDMDL
MODEL 5
REMARK VINA RESULT:    -2.900      4.880      5.964
REMARK INTER + INTRA:          -3.245
REMARK INTER:                  -3.178
REMARK INTRA:                  -0.066
REMARK UNBOUND:                -0.006
REMARK SMILES CCCC(=O)[O-]
REMARK SMILES IDX 3 1 4 2 5 3 6 4 2 5 1 6
REMARK H PARENT
REMARK Flexibility Score: inf
ROOT
ATOM      1  C   UNL     1      41.703  11.875 -36.271  1.00  0.00     0.052 C 
ENDROOT
BRANCH   1   2
ATOM      2  C   UNL     1      43.116  11.980 -35.782  1.00  0.00     0.041 C 
ATOM      3  O   UNL     1      43.353  12.092 -34.551  1.00  0.00    -0.550 OA
ATOM      4  O   UNL     1      44.167  11.991 -36.689  1.00  0.00    -0.550 OA
ENDBRANCH   1   2
BRANCH   1   5
ATOM      5  C   UNL     1      40.827  13.011 -35.727  1.00  0.00     0.003 C 
ATOM      6  C   UNL     1      41.224  14.374 -36.294  1.00  0.00     0.004 C 
ENDBRANCH   1   5
TORSDOF 2
ENDMDL
MODEL 6
REMARK VINA RESULT:    -2.854      6.538      7.375
REMARK INTER + INTRA:          -3.194
REMARK INTER:                  -3.182
REMARK INTRA:                  -0.011
REMARK UNBOUND:                -0.006
REMARK SMILES CCCC(=O)[O-]
REMARK SMILES IDX 3 1 4 2 5 3 6 4 2 5 1 6
REMARK H PARENT
REMARK Flexibility Score: inf
ROOT
ATOM      1  C   UNL     1      40.562  13.634 -35.815  1.00  0.00     0.052 C 
ENDROOT
BRANCH   1   2
ATOM      2  C   UNL     1      39.063  13.628 -35.838  1.00  0.00     0.041 C 
ATOM      3  O   UNL     1      38.436  12.541 -35.938  1.00  0.00    -0.550 OA
ATOM      4  O   UNL     1      38.361  14.825 -35.784  1.00  0.00    -0.550 OA
ENDBRANCH   1   2
BRANCH   1   5
ATOM      5  C   UNL     1      41.141  12.247 -36.119  1.00  0.00     0.003 C 
ATOM      6  C   UNL     1      42.652  12.185 -35.893  1.00  0.00     0.004 C 
ENDBRANCH   1   5
TORSDOF 2
ENDMDL
MODEL 7
REMARK VINA RESULT:    -2.695     19.458     20.289
REMARK INTER + INTRA:          -3.016
REMARK INTER:                  -2.978
REMARK INTRA:                  -0.038
REMARK UNBOUND:                -0.006
REMARK SMILES CCCC(=O)[O-]
REMARK SMILES IDX 3 1 4 2 5 3 6 4 2 5 1 6
REMARK H PARENT
REMARK Flexibility Score: inf
ROOT
ATOM      1  C   UNL     1      54.490  29.868 -38.012  1.00  0.00     0.052 C 
ENDROOT
BRANCH   1   2
ATOM      2  C   UNL     1      55.478  29.918 -36.887  1.00  0.00     0.041 C 
ATOM      3  O   UNL     1      55.890  31.027 -36.455  1.00  0.00    -0.550 OA
ATOM      4  O   UNL     1      55.971  28.740 -36.340  1.00  0.00    -0.550 OA
ENDBRANCH   1   2
BRANCH   1   5
ATOM      5  C   UNL     1      54.915  28.870 -39.098  1.00  0.00     0.003 C 
ATOM      6  C   UNL     1      54.027  27.626 -39.125  1.00  0.00     0.004 C 
ENDBRANCH   1   5
TORSDOF 2
ENDMDL
MODEL 8
REMARK VINA RESULT:    -2.665     17.960     18.447
REMARK INTER + INTRA:          -2.982
REMARK INTER:                  -2.917
REMARK INTRA:                  -0.065
REMARK UNBOUND:                -0.006
REMARK SMILES CCCC(=O)[O-]
REMARK SMILES IDX 3 1 4 2 5 3 6 4 2 5 1 6
REMARK H PARENT
REMARK Flexibility Score: inf
ROOT
ATOM      1  C   UNL     1      57.125  27.133 -34.241  1.00  0.00     0.052 C 
ENDROOT
BRANCH   1   2
ATOM      2  C   UNL     1      55.942  27.192 -35.159  1.00  0.00     0.041 C 
ATOM      3  O   UNL     1      55.250  26.162 -35.367  1.00  0.00    -0.550 OA
ATOM      4  O   UNL     1      55.627  28.377 -35.813  1.00  0.00    -0.550 OA
ENDBRANCH   1   2
BRANCH   1   5
ATOM      5  C   UNL     1      57.080  28.243 -33.183  1.00  0.00     0.003 C 
ATOM      6  C   UNL     1      55.998  28.000 -32.130  1.00  0.00     0.004 C 
ENDBRANCH   1   5
TORSDOF 2
ENDMDL
MODEL 9
REMARK VINA RESULT:    -2.527     18.646     19.241
REMARK INTER + INTRA:          -2.828
REMARK INTER:                  -2.788
REMARK INTRA:                  -0.040
REMARK UNBOUND:                -0.006
REMARK SMILES CCCC(=O)[O-]
REMARK SMILES IDX 3 1 4 2 5 3 6 4 2 5 1 6
REMARK H PARENT
REMARK Flexibility Score: inf
ROOT
ATOM      1  C   UNL     1      56.945  27.963 -35.352  1.00  0.00     0.052 C 
ENDROOT
BRANCH   1   2
ATOM      2  C   UNL     1      56.256  29.163 -35.929  1.00  0.00     0.041 C 
ATOM      3  O   UNL     1      56.051  30.179 -35.216  1.00  0.00    -0.550 OA
ATOM      4  O   UNL     1      55.810  29.143 -37.245  1.00  0.00    -0.550 OA
ENDBRANCH   1   2
BRANCH   1   5
ATOM      5  C   UNL     1      55.959  27.030 -34.638  1.00  0.00     0.003 C 
ATOM      6  C   UNL     1      55.252  26.080 -35.605  1.00  0.00     0.004 C 
ENDBRANCH   1   5
TORSDOF 2
ENDMDL
