MODEL 1
REMARK VINA RESULT:    -5.812      0.000      0.000
REMARK INTER + INTRA:          -9.556
REMARK INTER:                  -8.531
REMARK INTRA:                  -1.025
REMARK UNBOUND:                -1.025
REMARK SMILES CC(C)COC(=O)c1ccccc1C(=O)OCC(C)C
REMARK SMILES IDX 8 1 9 2 10 3 11 4 12 5 13 6 6 7 7 8 5 9 4 10 2 11 1 12 3 13
REMARK SMILES IDX 14 14 15 15 16 16 17 17 18 18 19 19 20 20
REMARK H PARENT
REMARK Flexibility Score: inf
ROOT
ATOM      1  C   UNL     1       9.703  31.886  26.001  1.00  0.00     0.074 A 
ATOM      2  C   UNL     1       9.871  32.364  24.689  1.00  0.00     0.016 A 
ATOM      3  C   UNL     1      10.636  33.503  24.437  1.00  0.00     0.001 A 
ATOM      4  C   UNL     1      11.243  34.184  25.491  1.00  0.00     0.001 A 
ATOM      5  C   UNL     1      11.103  33.718  26.798  1.00  0.00     0.016 A 
ATOM      6  C   UNL     1      10.356  32.557  27.071  1.00  0.00     0.074 A 
ENDROOT
BRANCH   1   7
ATOM      7  C   UNL     1       8.797  30.732  26.207  1.00  0.00     0.339 C 
ATOM      8  O   UNL     1       7.558  30.915  26.360  1.00  0.00    -0.246 OA
BRANCH   7   9
ATOM      9  O   UNL     1       9.319  29.433  26.177  1.00  0.00    -0.462 OA
BRANCH   9  10
ATOM     10  C   UNL     1       8.508  28.259  26.119  1.00  0.00     0.236 C 
BRANCH  10  11
ATOM     11  C   UNL     1       8.616  27.438  27.418  1.00  0.00     0.021 C 
ATOM     12  C   UNL     1       7.476  27.782  28.386  1.00  0.00     0.011 C 
ATOM     13  C   UNL     1       8.614  25.940  27.100  1.00  0.00     0.011 C 
ENDBRANCH  10  11
ENDBRANCH   9  10
ENDBRANCH   7   9
ENDBRANCH   1   7
BRANCH   6  14
ATOM     14  C   UNL     1      10.344  32.042  28.459  1.00  0.00     0.339 C 
ATOM     15  O   UNL     1       9.775  32.705  29.371  1.00  0.00    -0.246 OA
BRANCH  14  16
ATOM     16  O   UNL     1      11.005  30.849  28.767  1.00  0.00    -0.462 OA
BRANCH  16  17
ATOM     17  C   UNL     1      12.057  30.773  29.725  1.00  0.00     0.236 C 
BRANCH  17  18
ATOM     18  C   UNL     1      13.181  31.747  29.341  1.00  0.00     0.021 C 
ATOM     19  C   UNL     1      14.018  32.132  30.567  1.00  0.00     0.011 C 
ATOM     20  C   UNL     1      14.075  31.132  28.258  1.00  0.00     0.011 C 
ENDBRANCH  17  18
ENDBRANCH  16  17
ENDBRANCH  14  16
ENDBRANCH   6  14
TORSDOF 8
ENDMDL
MODEL 2
REMARK VINA RESULT:    -5.644      1.763      5.735
REMARK INTER + INTRA:          -9.308
REMARK INTER:                  -8.293
REMARK INTRA:                  -1.015
REMARK UNBOUND:                -1.025
REMARK SMILES CC(C)COC(=O)c1ccccc1C(=O)OCC(C)C
REMARK SMILES IDX 8 1 9 2 10 3 11 4 12 5 13 6 6 7 7 8 5 9 4 10 2 11 1 12 3 13
REMARK SMILES IDX 14 14 15 15 16 16 17 17 18 18 19 19 20 20
REMARK H PARENT
REMARK Flexibility Score: inf
ROOT
ATOM      1  C   UNL     1      10.110  32.105  27.416  1.00  0.00     0.074 A 
ATOM      2  C   UNL     1      10.898  33.213  27.056  1.00  0.00     0.016 A 
ATOM      3  C   UNL     1      11.012  33.603  25.722  1.00  0.00     0.001 A 
ATOM      4  C   UNL     1      10.345  32.891  24.726  1.00  0.00     0.001 A 
ATOM      5  C   UNL     1       9.545  31.800  25.062  1.00  0.00     0.016 A 
ATOM      6  C   UNL     1       9.397  31.404  26.404  1.00  0.00     0.074 A 
ENDROOT
BRANCH   1   7
ATOM      7  C   UNL     1      10.113  31.684  28.837  1.00  0.00     0.339 C 
ATOM      8  O   UNL     1       9.402  32.294  29.683  1.00  0.00    -0.246 OA
BRANCH   7   9
ATOM      9  O   UNL     1      10.870  30.571  29.223  1.00  0.00    -0.462 OA
BRANCH   9  10
ATOM     10  C   UNL     1      12.015  30.655  30.074  1.00  0.00     0.236 C 
BRANCH  10  11
ATOM     11  C   UNL     1      13.020  31.702  29.559  1.00  0.00     0.021 C 
ATOM     12  C   UNL     1      13.873  32.261  30.706  1.00  0.00     0.011 C 
ATOM     13  C   UNL     1      13.914  31.091  28.476  1.00  0.00     0.011 C 
ENDBRANCH  10  11
ENDBRANCH   9  10
ENDBRANCH   7   9
ENDBRANCH   1   7
BRANCH   6  14
ATOM     14  C   UNL     1       8.440  30.316  26.713  1.00  0.00     0.339 C 
ATOM     15  O   UNL     1       8.674  29.142  26.311  1.00  0.00    -0.246 OA
BRANCH  14  16
ATOM     16  O   UNL     1       7.258  30.601  27.404  1.00  0.00    -0.462 OA
BRANCH  16  17
ATOM     17  C   UNL     1       6.182  29.673  27.508  1.00  0.00     0.236 C 
BRANCH  17  18
ATOM     18  C   UNL     1       5.022  30.118  26.604  1.00  0.00     0.021 C 
ATOM     19  C   UNL     1       4.923  29.226  25.360  1.00  0.00     0.011 C 
ATOM     20  C   UNL     1       3.701  30.100  27.380  1.00  0.00     0.011 C 
ENDBRANCH  17  18
ENDBRANCH  16  17
ENDBRANCH  14  16
ENDBRANCH   6  14
TORSDOF 8
ENDMDL
MODEL 3
REMARK VINA RESULT:    -5.623      1.310      1.962
REMARK INTER + INTRA:          -9.277
REMARK INTER:                  -8.093
REMARK INTRA:                  -1.184
REMARK UNBOUND:                -1.025
REMARK SMILES CC(C)COC(=O)c1ccccc1C(=O)OCC(C)C
REMARK SMILES IDX 8 1 9 2 10 3 11 4 12 5 13 6 6 7 7 8 5 9 4 10 2 11 1 12 3 13
REMARK SMILES IDX 14 14 15 15 16 16 17 17 18 18 19 19 20 20
REMARK H PARENT
REMARK Flexibility Score: inf
ROOT
ATOM      1  C   UNL     1      10.541  31.749  24.986  1.00  0.00     0.074 A 
ATOM      2  C   UNL     1      10.846  32.739  24.036  1.00  0.00     0.016 A 
ATOM      3  C   UNL     1      11.189  34.031  24.436  1.00  0.00     0.001 A 
ATOM      4  C   UNL     1      11.230  34.354  25.791  1.00  0.00     0.001 A 
ATOM      5  C   UNL     1      10.947  33.384  26.751  1.00  0.00     0.016 A 
ATOM      6  C   UNL     1      10.622  32.069  26.370  1.00  0.00     0.074 A 
ENDROOT
BRANCH   1   7
ATOM      7  C   UNL     1      10.087  30.428  24.491  1.00  0.00     0.339 C 
ATOM      8  O   UNL     1      10.837  29.734  23.750  1.00  0.00    -0.246 OA
BRANCH   7   9
ATOM      9  O   UNL     1       8.841  29.933  24.895  1.00  0.00    -0.462 OA
BRANCH   9  10
ATOM     10  C   UNL     1       8.487  28.551  24.836  1.00  0.00     0.236 C 
BRANCH  10  11
ATOM     11  C   UNL     1       7.700  28.121  26.089  1.00  0.00     0.021 C 
ATOM     12  C   UNL     1       8.649  27.753  27.238  1.00  0.00     0.011 C 
ATOM     13  C   UNL     1       6.743  29.236  26.522  1.00  0.00     0.011 C 
ENDBRANCH  10  11
ENDBRANCH   9  10
ENDBRANCH   7   9
ENDBRANCH   1   7
BRANCH   6  14
ATOM     14  C   UNL     1      10.452  31.052  27.433  1.00  0.00     0.339 C 
ATOM     15  O   UNL     1       9.396  31.039  28.126  1.00  0.00    -0.246 OA
BRANCH  14  16
ATOM     16  O   UNL     1      11.480  30.143  27.701  1.00  0.00    -0.462 OA
BRANCH  16  17
ATOM     17  C   UNL     1      11.998  29.926  29.011  1.00  0.00     0.236 C 
BRANCH  17  18
ATOM     18  C   UNL     1      13.263  30.773  29.216  1.00  0.00     0.021 C 
ATOM     19  C   UNL     1      13.877  31.178  27.870  1.00  0.00     0.011 C 
ATOM     20  C   UNL     1      12.945  32.017  30.053  1.00  0.00     0.011 C 
ENDBRANCH  17  18
ENDBRANCH  16  17
ENDBRANCH  14  16
ENDBRANCH   6  14
TORSDOF 8
ENDMDL
MODEL 4
REMARK VINA RESULT:    -5.615      2.320      4.950
REMARK INTER + INTRA:          -9.266
REMARK INTER:                  -7.825
REMARK INTRA:                  -1.440
REMARK UNBOUND:                -1.025
REMARK SMILES CC(C)COC(=O)c1ccccc1C(=O)OCC(C)C
REMARK SMILES IDX 8 1 9 2 10 3 11 4 12 5 13 6 6 7 7 8 5 9 4 10 2 11 1 12 3 13
REMARK SMILES IDX 14 14 15 15 16 16 17 17 18 18 19 19 20 20
REMARK H PARENT
REMARK Flexibility Score: inf
ROOT
ATOM      1  C   UNL     1       7.454  28.578  28.510  1.00  0.00     0.074 A 
ATOM      2  C   UNL     1       6.686  27.527  29.043  1.00  0.00     0.016 A 
ATOM      3  C   UNL     1       6.937  26.205  28.677  1.00  0.00     0.001 A 
ATOM      4  C   UNL     1       7.955  25.911  27.772  1.00  0.00     0.001 A 
ATOM      5  C   UNL     1       8.739  26.936  27.244  1.00  0.00     0.016 A 
ATOM      6  C   UNL     1       8.519  28.274  27.618  1.00  0.00     0.074 A 
ENDROOT
BRANCH   1   7
ATOM      7  C   UNL     1       7.069  29.965  28.863  1.00  0.00     0.339 C 
ATOM      8  O   UNL     1       7.757  30.626  29.690  1.00  0.00    -0.246 OA
BRANCH   7   9
ATOM      9  O   UNL     1       5.969  30.556  28.229  1.00  0.00    -0.462 OA
BRANCH   9  10
ATOM     10  C   UNL     1       5.903  30.791  26.823  1.00  0.00     0.236 C 
BRANCH  10  11
ATOM     11  C   UNL     1       4.808  29.932  26.162  1.00  0.00     0.021 C 
ATOM     12  C   UNL     1       5.409  28.687  25.496  1.00  0.00     0.011 C 
ATOM     13  C   UNL     1       3.754  29.530  27.197  1.00  0.00     0.011 C 
ENDBRANCH  10  11
ENDBRANCH   9  10
ENDBRANCH   7   9
ENDBRANCH   1   7
BRANCH   6  14
ATOM     14  C   UNL     1       9.459  29.305  27.121  1.00  0.00     0.339 C 
ATOM     15  O   UNL     1       9.227  29.893  26.028  1.00  0.00    -0.246 OA
BRANCH  14  16
ATOM     16  O   UNL     1      10.627  29.588  27.836  1.00  0.00    -0.462 OA
BRANCH  16  17
ATOM     17  C   UNL     1      11.607  30.517  27.380  1.00  0.00     0.236 C 
BRANCH  17  18
ATOM     18  C   UNL     1      12.263  31.213  28.581  1.00  0.00     0.021 C 
ATOM     19  C   UNL     1      11.680  30.695  29.902  1.00  0.00     0.011 C 
ATOM     20  C   UNL     1      13.782  31.011  28.553  1.00  0.00     0.011 C 
ENDBRANCH  17  18
ENDBRANCH  16  17
ENDBRANCH  14  16
ENDBRANCH   6  14
TORSDOF 8
ENDMDL
MODEL 5
REMARK VINA RESULT:    -5.575      2.242      6.549
REMARK INTER + INTRA:          -9.207
REMARK INTER:                  -7.757
REMARK INTRA:                  -1.451
REMARK UNBOUND:                -1.025
REMARK SMILES CC(C)COC(=O)c1ccccc1C(=O)OCC(C)C
REMARK SMILES IDX 8 1 9 2 10 3 11 4 12 5 13 6 6 7 7 8 5 9 4 10 2 11 1 12 3 13
REMARK SMILES IDX 14 14 15 15 16 16 17 17 18 18 19 19 20 20
REMARK H PARENT
REMARK Flexibility Score: inf
ROOT
ATOM      1  C   UNL     1       8.433  28.240  27.571  1.00  0.00     0.074 A 
ATOM      2  C   UNL     1       8.618  26.894  27.205  1.00  0.00     0.016 A 
ATOM      3  C   UNL     1       7.850  25.885  27.785  1.00  0.00     0.001 A 
ATOM      4  C   UNL     1       6.887  26.202  28.741  1.00  0.00     0.001 A 
ATOM      5  C   UNL     1       6.675  27.530  29.108  1.00  0.00     0.016 A 
ATOM      6  C   UNL     1       7.423  28.566  28.517  1.00  0.00     0.074 A 
ENDROOT
BRANCH   1   7
ATOM      7  C   UNL     1       9.350  29.249  26.992  1.00  0.00     0.339 C 
ATOM      8  O   UNL     1       9.035  29.864  25.936  1.00  0.00    -0.246 OA
BRANCH   7   9
ATOM      9  O   UNL     1      10.546  29.552  27.655  1.00  0.00    -0.462 OA
BRANCH   9  10
ATOM     10  C   UNL     1      11.420  30.610  27.258  1.00  0.00     0.236 C 
BRANCH  10  11
ATOM     11  C   UNL     1      12.118  31.245  28.475  1.00  0.00     0.021 C 
ATOM     12  C   UNL     1      11.578  30.664  29.789  1.00  0.00     0.011 C 
ATOM     13  C   UNL     1      13.633  31.041  28.383  1.00  0.00     0.011 C 
ENDBRANCH  10  11
ENDBRANCH   9  10
ENDBRANCH   7   9
ENDBRANCH   1   7
BRANCH   6  14
ATOM     14  C   UNL     1       7.070  29.965  28.855  1.00  0.00     0.339 C 
ATOM     15  O   UNL     1       7.774  30.608  29.683  1.00  0.00    -0.246 OA
BRANCH  14  16
ATOM     16  O   UNL     1       5.932  30.553  28.294  1.00  0.00    -0.462 OA
BRANCH  16  17
ATOM     17  C   UNL     1       5.794  30.788  26.895  1.00  0.00     0.236 C 
BRANCH  17  18
ATOM     18  C   UNL     1       4.625  29.959  26.341  1.00  0.00     0.021 C 
ATOM     19  C   UNL     1       5.132  28.692  25.642  1.00  0.00     0.011 C 
ATOM     20  C   UNL     1       3.649  29.594  27.465  1.00  0.00     0.011 C 
ENDBRANCH  17  18
ENDBRANCH  16  17
ENDBRANCH  14  16
ENDBRANCH   6  14
TORSDOF 8
ENDMDL
MODEL 6
REMARK VINA RESULT:    -5.574      2.696      4.636
REMARK INTER + INTRA:          -9.206
REMARK INTER:                  -7.866
REMARK INTRA:                  -1.340
REMARK UNBOUND:                -1.025
REMARK SMILES CC(C)COC(=O)c1ccccc1C(=O)OCC(C)C
REMARK SMILES IDX 8 1 9 2 10 3 11 4 12 5 13 6 6 7 7 8 5 9 4 10 2 11 1 12 3 13
REMARK SMILES IDX 14 14 15 15 16 16 17 17 18 18 19 19 20 20
REMARK H PARENT
REMARK Flexibility Score: inf
ROOT
ATOM      1  C   UNL     1       6.832  28.959  25.564  1.00  0.00     0.074 A 
ATOM      2  C   UNL     1       5.562  28.443  25.247  1.00  0.00     0.016 A 
ATOM      3  C   UNL     1       4.406  29.029  25.762  1.00  0.00     0.001 A 
ATOM      4  C   UNL     1       4.499  30.136  26.603  1.00  0.00     0.001 A 
ATOM      5  C   UNL     1       5.746  30.673  26.918  1.00  0.00     0.016 A 
ATOM      6  C   UNL     1       6.924  30.113  26.390  1.00  0.00     0.074 A 
ENDROOT
BRANCH   1   7
ATOM      7  C   UNL     1       8.021  28.228  25.066  1.00  0.00     0.339 C 
ATOM      8  O   UNL     1       8.699  28.694  24.108  1.00  0.00    -0.246 OA
BRANCH   7   9
ATOM      9  O   UNL     1       8.418  27.045  25.701  1.00  0.00    -0.462 OA
BRANCH   9  10
ATOM     10  C   UNL     1       8.791  26.978  27.078  1.00  0.00     0.236 C 
BRANCH  10  11
ATOM     11  C   UNL     1       7.793  26.128  27.887  1.00  0.00     0.021 C 
ATOM     12  C   UNL     1       6.804  27.016  28.653  1.00  0.00     0.011 C 
ATOM     13  C   UNL     1       7.042  25.167  26.961  1.00  0.00     0.011 C 
ENDBRANCH  10  11
ENDBRANCH   9  10
ENDBRANCH   7   9
ENDBRANCH   1   7
BRANCH   6  14
ATOM     14  C   UNL     1       8.209  30.799  26.660  1.00  0.00     0.339 C 
ATOM     15  O   UNL     1       8.893  30.476  27.670  1.00  0.00    -0.246 OA
BRANCH  14  16
ATOM     16  O   UNL     1       8.635  31.835  25.824  1.00  0.00    -0.462 OA
BRANCH  16  17
ATOM     17  C   UNL     1       9.907  32.464  25.961  1.00  0.00     0.236 C 
BRANCH  17  18
ATOM     18  C   UNL     1      10.314  33.110  24.628  1.00  0.00     0.021 C 
ATOM     19  C   UNL     1      11.117  34.396  24.862  1.00  0.00     0.011 C 
ATOM     20  C   UNL     1      11.123  32.123  23.780  1.00  0.00     0.011 C 
ENDBRANCH  17  18
ENDBRANCH  16  17
ENDBRANCH  14  16
ENDBRANCH   6  14
TORSDOF 8
ENDMDL
MODEL 7
REMARK VINA RESULT:    -5.543      2.502      6.423
REMARK INTER + INTRA:          -9.161
REMARK INTER:                  -7.547
REMARK INTRA:                  -1.614
REMARK UNBOUND:                -1.025
REMARK SMILES CC(C)COC(=O)c1ccccc1C(=O)OCC(C)C
REMARK SMILES IDX 8 1 9 2 10 3 11 4 12 5 13 6 6 7 7 8 5 9 4 10 2 11 1 12 3 13
REMARK SMILES IDX 14 14 15 15 16 16 17 17 18 18 19 19 20 20
REMARK H PARENT
REMARK Flexibility Score: inf
ROOT
ATOM      1  C   UNL     1       8.431  29.970  28.598  1.00  0.00     0.074 A 
ATOM      2  C   UNL     1       8.580  30.797  29.726  1.00  0.00     0.016 A 
ATOM      3  C   UNL     1       7.860  30.547  30.895  1.00  0.00     0.001 A 
ATOM      4  C   UNL     1       6.978  29.469  30.954  1.00  0.00     0.001 A 
ATOM      5  C   UNL     1       6.827  28.627  29.854  1.00  0.00     0.016 A 
ATOM      6  C   UNL     1       7.561  28.847  28.674  1.00  0.00     0.074 A 
ENDROOT
BRANCH   1   7
ATOM      7  C   UNL     1       9.147  30.352  27.359  1.00  0.00     0.339 C 
ATOM      8  O   UNL     1       8.625  31.163  26.546  1.00  0.00    -0.246 OA
BRANCH   7   9
ATOM      9  O   UNL     1      10.432  29.847  27.125  1.00  0.00    -0.462 OA
BRANCH   9  10
ATOM     10  C   UNL     1      11.577  30.674  26.917  1.00  0.00     0.236 C 
BRANCH  10  11
ATOM     11  C   UNL     1      12.306  30.967  28.242  1.00  0.00     0.021 C 
ATOM     12  C   UNL     1      12.171  29.789  29.218  1.00  0.00     0.011 C 
ATOM     13  C   UNL     1      13.782  31.277  27.979  1.00  0.00     0.011 C 
ENDBRANCH  10  11
ENDBRANCH   9  10
ENDBRANCH   7   9
ENDBRANCH   1   7
BRANCH   6  14
ATOM     14  C   UNL     1       7.451  27.851  27.583  1.00  0.00     0.339 C 
ATOM     15  O   UNL     1       8.394  27.037  27.379  1.00  0.00    -0.246 OA
BRANCH  14  16
ATOM     16  O   UNL     1       6.326  27.847  26.752  1.00  0.00    -0.462 OA
BRANCH  16  17
ATOM     17  C   UNL     1       6.049  28.892  25.823  1.00  0.00     0.236 C 
BRANCH  17  18
ATOM     18  C   UNL     1       4.764  29.625  26.234  1.00  0.00     0.021 C 
ATOM     19  C   UNL     1       3.911  28.758  27.168  1.00  0.00     0.011 C 
ATOM     20  C   UNL     1       5.102  30.961  26.907  1.00  0.00     0.011 C 
ENDBRANCH  17  18
ENDBRANCH  16  17
ENDBRANCH  14  16
ENDBRANCH   6  14
TORSDOF 8
ENDMDL
MODEL 8
REMARK VINA RESULT:    -5.509      2.608      6.638
REMARK INTER + INTRA:          -9.110
REMARK INTER:                  -7.627
REMARK INTRA:                  -1.484
REMARK UNBOUND:                -1.025
REMARK SMILES CC(C)COC(=O)c1ccccc1C(=O)OCC(C)C
REMARK SMILES IDX 8 1 9 2 10 3 11 4 12 5 13 6 6 7 7 8 5 9 4 10 2 11 1 12 3 13
REMARK SMILES IDX 14 14 15 15 16 16 17 17 18 18 19 19 20 20
REMARK H PARENT
REMARK Flexibility Score: inf
ROOT
ATOM      1  C   UNL     1       8.574  28.371  27.716  1.00  0.00     0.074 A 
ATOM      2  C   UNL     1       8.859  27.067  27.272  1.00  0.00     0.016 A 
ATOM      3  C   UNL     1       8.042  25.996  27.633  1.00  0.00     0.001 A 
ATOM      4  C   UNL     1       6.930  26.209  28.446  1.00  0.00     0.001 A 
ATOM      5  C   UNL     1       6.619  27.495  28.884  1.00  0.00     0.016 A 
ATOM      6  C   UNL     1       7.416  28.593  28.512  1.00  0.00     0.074 A 
ENDROOT
BRANCH   1   7
ATOM      7  C   UNL     1       9.538  29.445  27.379  1.00  0.00     0.339 C 
ATOM      8  O   UNL     1      10.603  29.575  28.043  1.00  0.00    -0.246 OA
BRANCH   7   9
ATOM      9  O   UNL     1       9.283  30.279  26.284  1.00  0.00    -0.462 OA
BRANCH   9  10
ATOM     10  C   UNL     1       9.475  31.694  26.311  1.00  0.00     0.236 C 
BRANCH  10  11
ATOM     11  C   UNL     1      10.498  32.141  25.250  1.00  0.00     0.021 C 
ATOM     12  C   UNL     1      10.881  30.976  24.326  1.00  0.00     0.011 C 
ATOM     13  C   UNL     1       9.938  33.309  24.433  1.00  0.00     0.011 C 
ENDBRANCH  10  11
ENDBRANCH   9  10
ENDBRANCH   7   9
ENDBRANCH   1   7
BRANCH   6  14
ATOM     14  C   UNL     1       6.969  29.949  28.905  1.00  0.00     0.339 C 
ATOM     15  O   UNL     1       7.546  30.550  29.854  1.00  0.00    -0.246 OA
BRANCH  14  16
ATOM     16  O   UNL     1       5.878  30.539  28.259  1.00  0.00    -0.462 OA
BRANCH  16  17
ATOM     17  C   UNL     1       5.827  30.731  26.848  1.00  0.00     0.236 C 
BRANCH  17  18
ATOM     18  C   UNL     1       4.664  29.921  26.255  1.00  0.00     0.021 C 
ATOM     19  C   UNL     1       5.172  28.637  25.588  1.00  0.00     0.011 C 
ATOM     20  C   UNL     1       3.636  29.587  27.342  1.00  0.00     0.011 C 
ENDBRANCH  17  18
ENDBRANCH  16  17
ENDBRANCH  14  16
ENDBRANCH   6  14
TORSDOF 8
ENDMDL
MODEL 9
REMARK VINA RESULT:    -5.472      2.293      4.597
REMARK INTER + INTRA:          -9.056
REMARK INTER:                  -7.639
REMARK INTRA:                  -1.418
REMARK UNBOUND:                -1.025
REMARK SMILES CC(C)COC(=O)c1ccccc1C(=O)OCC(C)C
REMARK SMILES IDX 8 1 9 2 10 3 11 4 12 5 13 6 6 7 7 8 5 9 4 10 2 11 1 12 3 13
REMARK SMILES IDX 14 14 15 15 16 16 17 17 18 18 19 19 20 20
REMARK H PARENT
REMARK Flexibility Score: inf
ROOT
ATOM      1  C   UNL     1       8.536  30.303  29.111  1.00  0.00     0.074 A 
ATOM      2  C   UNL     1       7.483  29.944  29.971  1.00  0.00     0.016 A 
ATOM      3  C   UNL     1       7.427  30.438  31.275  1.00  0.00     0.001 A 
ATOM      4  C   UNL     1       8.423  31.295  31.740  1.00  0.00     0.001 A 
ATOM      5  C   UNL     1       9.467  31.676  30.899  1.00  0.00     0.016 A 
ATOM      6  C   UNL     1       9.529  31.209  29.573  1.00  0.00     0.074 A 
ENDROOT
BRANCH   1   7
ATOM      7  C   UNL     1       8.588  29.663  27.775  1.00  0.00     0.339 C 
ATOM      8  O   UNL     1       9.381  28.706  27.558  1.00  0.00    -0.246 OA
BRANCH   7   9
ATOM      9  O   UNL     1       7.712  30.095  26.771  1.00  0.00    -0.462 OA
BRANCH   9  10
ATOM     10  C   UNL     1       6.818  29.223  26.079  1.00  0.00     0.236 C 
BRANCH  10  11
ATOM     11  C   UNL     1       5.352  29.513  26.451  1.00  0.00     0.021 C 
ATOM     12  C   UNL     1       4.876  28.593  27.583  1.00  0.00     0.011 C 
ATOM     13  C   UNL     1       5.188  30.982  26.851  1.00  0.00     0.011 C 
ENDBRANCH  10  11
ENDBRANCH   9  10
ENDBRANCH   7   9
ENDBRANCH   1   7
BRANCH   6  14
ATOM     14  C   UNL     1      10.592  31.744  28.691  1.00  0.00     0.339 C 
ATOM     15  O   UNL     1      11.751  31.246  28.730  1.00  0.00    -0.246 OA
BRANCH  14  16
ATOM     16  O   UNL     1      10.322  32.831  27.854  1.00  0.00    -0.462 OA
BRANCH  16  17
ATOM     17  C   UNL     1      10.932  32.991  26.575  1.00  0.00     0.236 C 
BRANCH  17  18
ATOM     18  C   UNL     1      10.034  32.377  25.491  1.00  0.00     0.021 C 
ATOM     19  C   UNL     1       9.812  33.363  24.337  1.00  0.00     0.011 C 
ATOM     20  C   UNL     1      10.643  31.071  24.968  1.00  0.00     0.011 C 
ENDBRANCH  17  18
ENDBRANCH  16  17
ENDBRANCH  14  16
ENDBRANCH   6  14
TORSDOF 8
ENDMDL
