MODEL 1
REMARK VINA RESULT:    23.578      0.000      0.000
REMARK INTER + INTRA:          37.876
REMARK INTER:                  35.984
REMARK INTRA:                   1.892
REMARK UNBOUND:                 1.892
REMARK SMILES CC1=CCC[C@H](C)C(=O)C[C@H](C(C)C)C(=O)C1
REMARK SMILES IDX 8 1 9 2 6 3 7 4 5 5 4 6 3 7 2 8 1 9 10 11 11 12 15 13 16 14
REMARK SMILES IDX 17 15 12 17 13 18 14 19
REMARK H PARENT
REMARK Flexibility Score: 70.00
ROOT
ATOM      1  C   UNL     1       3.871  77.078  18.552  1.00  0.00     0.136 C 
ATOM      2  O   UNL     1       3.980  77.907  17.659  1.00  0.00    -0.299 OA
ENDROOT
BRANCH   1   3
ATOM      3  C   UNL     1       2.973  77.402  19.733  1.00  0.00     0.053 C 
ATOM      4  C   UNL     1       2.367  78.809  19.633  1.00  0.00     0.016 C 
BRANCH   3   5
ATOM      5  C   UNL     1       1.949  76.276  20.019  1.00  0.00     0.015 C 
BRANCH   5   6
ATOM      6  C   UNL     1       0.993  75.933  18.860  1.00  0.00     0.028 C 
BRANCH   6   7
ATOM      7  C   UNL     1       0.531  74.503  18.956  1.00  0.00    -0.028 C 
ATOM      8  C   UNL     1       0.915  73.515  18.114  1.00  0.00    -0.070 CG0
ATOM      9  C   UNL     1       0.416  72.119  18.388  1.00  0.00     0.039 C 
ATOM     10  G   UNL     1       1.805  73.756  16.903  1.00  0.00     0.000 G0
ENDBRANCH   6   7
ENDBRANCH   5   6
ENDBRANCH   3   5
ENDBRANCH   1   3
BRANCH   1  11
ATOM     11  C   UNL     1       4.622  75.773  18.410  1.00  0.00     0.087 C 
BRANCH  11  12
ATOM     12  C   UNL     1       3.689  74.543  18.547  1.00  0.00     0.066 C 
BRANCH  12  13
ATOM     13  C   UNL     1       3.229  73.997  17.198  1.00  0.00     0.140 C 
ATOM     14  O   UNL     1       4.064  73.847  16.316  1.00  0.00    -0.299 OA
BRANCH  13  15
ATOM     15  C   UNL     1       1.778  73.732  16.872  1.00  0.00     0.106 CG0
ATOM     16  G   UNL     1       0.923  73.550  18.118  1.00  0.00     0.000 G0
ENDBRANCH  13  15
ENDBRANCH  12  13
BRANCH  12  17
ATOM     17  C   UNL     1       4.263  73.457  19.511  1.00  0.00    -0.006 C 
ATOM     18  C   UNL     1       5.373  73.948  20.456  1.00  0.00     0.008 C 
ATOM     19  C   UNL     1       4.731  72.209  18.746  1.00  0.00     0.008 C 
ENDBRANCH  12  17
ENDBRANCH  11  12
ENDBRANCH   1  11
TORSDOF 1
ENDMDL
MODEL 2
REMARK VINA RESULT:    24.235      1.829      3.815
REMARK INTER + INTRA:          38.878
REMARK INTER:                  38.292
REMARK INTRA:                   0.586
REMARK UNBOUND:                 1.892
REMARK SMILES CC1=CCC[C@H](C)C(=O)C[C@H](C(C)C)C(=O)C1
REMARK SMILES IDX 8 1 9 2 6 3 7 4 5 5 4 6 3 7 2 8 1 9 10 11 11 12 15 13 16 14
REMARK SMILES IDX 17 15 12 17 13 18 14 19
REMARK H PARENT
REMARK Flexibility Score: 70.00
ROOT
ATOM      1  C   UNL     1       4.212  73.564  18.166  1.00  0.00     0.136 C 
ATOM      2  O   UNL     1       4.395  72.390  18.456  1.00  0.00    -0.299 OA
ENDROOT
BRANCH   1   3
ATOM      3  C   UNL     1       4.327  74.606  19.264  1.00  0.00     0.053 C 
ATOM      4  C   UNL     1       5.475  74.301  20.236  1.00  0.00     0.016 C 
BRANCH   3   5
ATOM      5  C   UNL     1       4.319  76.051  18.708  1.00  0.00     0.015 C 
BRANCH   5   6
ATOM      6  C   UNL     1       3.118  76.921  19.126  1.00  0.00     0.028 C 
BRANCH   6   7
ATOM      7  C   UNL     1       2.170  76.138  19.995  1.00  0.00    -0.028 C 
ATOM      8  C   UNL     1       1.251  75.261  19.529  1.00  0.00    -0.070 CG0
ATOM      9  C   UNL     1       0.422  74.504  20.537  1.00  0.00     0.039 C 
ATOM     10  G   UNL     1       1.006  75.024  18.046  1.00  0.00     0.000 G0
ENDBRANCH   6   7
ENDBRANCH   5   6
ENDBRANCH   3   5
ENDBRANCH   1   3
BRANCH   1  11
ATOM     11  C   UNL     1       3.905  73.904  16.724  1.00  0.00     0.087 C 
BRANCH  11  12
ATOM     12  C   UNL     1       2.443  73.560  16.340  1.00  0.00     0.066 C 
BRANCH  12  13
ATOM     13  C   UNL     1       1.478  73.690  17.515  1.00  0.00     0.140 C 
ATOM     14  O   UNL     1       1.025  72.668  18.011  1.00  0.00    -0.299 OA
BRANCH  13  15
ATOM     15  C   UNL     1       0.981  75.023  18.025  1.00  0.00     0.106 CG0
ATOM     16  G   UNL     1       1.269  75.227  19.505  1.00  0.00     0.000 G0
ENDBRANCH  13  15
ENDBRANCH  12  13
BRANCH  12  17
ATOM     17  C   UNL     1       1.972  74.296  15.046  1.00  0.00    -0.006 C 
ATOM     18  C   UNL     1       0.977  73.508  14.175  1.00  0.00     0.008 C 
ATOM     19  C   UNL     1       3.162  74.769  14.196  1.00  0.00     0.008 C 
ENDBRANCH  12  17
ENDBRANCH  11  12
ENDBRANCH   1  11
TORSDOF 1
ENDMDL
MODEL 3
REMARK VINA RESULT:    24.901      2.131      4.079
REMARK INTER + INTRA:          39.894
REMARK INTER:                  39.815
REMARK INTRA:                   0.079
REMARK UNBOUND:                 1.892
REMARK SMILES CC1=CCC[C@H](C)C(=O)C[C@H](C(C)C)C(=O)C1
REMARK SMILES IDX 8 1 9 2 6 3 7 4 5 5 4 6 3 7 2 8 1 9 10 11 11 12 15 13 16 14
REMARK SMILES IDX 17 15 12 17 13 18 14 19
REMARK H PARENT
REMARK Flexibility Score: 70.00
ROOT
ATOM      1  C   UNL     1       0.499  73.621  18.078  1.00  0.00     0.136 C 
ATOM      2  O   UNL     1      -0.401  72.957  18.573  1.00  0.00    -0.299 OA
ENDROOT
BRANCH   1   3
ATOM      3  C   UNL     1       0.511  75.120  18.323  1.00  0.00     0.053 C 
ATOM      4  C   UNL     1      -0.601  75.842  17.549  1.00  0.00     0.016 C 
BRANCH   3   5
ATOM      5  C   UNL     1       0.582  75.470  19.829  1.00  0.00     0.015 C 
BRANCH   5   6
ATOM      6  C   UNL     1       1.997  75.515  20.437  1.00  0.00     0.028 C 
BRANCH   6   7
ATOM      7  C   UNL     1       2.936  76.285  19.546  1.00  0.00    -0.028 C 
ATOM      8  C   UNL     1       4.003  75.748  18.911  1.00  0.00    -0.070 CG0
ATOM      9  C   UNL     1       4.805  76.640  17.998  1.00  0.00     0.039 C 
ATOM     10  G   UNL     1       4.436  74.300  19.094  1.00  0.00     0.000 G0
ENDBRANCH   6   7
ENDBRANCH   5   6
ENDBRANCH   3   5
ENDBRANCH   1   3
BRANCH   1  11
ATOM     11  C   UNL     1       1.558  72.900  17.273  1.00  0.00     0.087 C 
BRANCH  11  12
ATOM     12  C   UNL     1       2.816  73.777  17.043  1.00  0.00     0.066 C 
BRANCH  12  13
ATOM     13  C   UNL     1       3.968  73.411  17.974  1.00  0.00     0.140 C 
ATOM     14  O   UNL     1       4.477  72.304  17.863  1.00  0.00    -0.299 OA
BRANCH  13  15
ATOM     15  C   UNL     1       4.438  74.314  19.091  1.00  0.00     0.106 CG0
ATOM     16  G   UNL     1       4.015  75.762  18.889  1.00  0.00     0.000 G0
ENDBRANCH  13  15
ENDBRANCH  12  13
BRANCH  12  17
ATOM     17  C   UNL     1       3.219  73.868  15.537  1.00  0.00    -0.006 C 
ATOM     18  C   UNL     1       4.478  74.705  15.251  1.00  0.00     0.008 C 
ATOM     19  C   UNL     1       2.050  74.351  14.665  1.00  0.00     0.008 C 
ENDBRANCH  12  17
ENDBRANCH  11  12
ENDBRANCH   1  11
TORSDOF 1
ENDMDL
MODEL 4
REMARK VINA RESULT:    25.101      1.786      4.163
REMARK INTER + INTRA:          40.199
REMARK INTER:                  38.874
REMARK INTRA:                   1.325
REMARK UNBOUND:                 1.892
REMARK SMILES CC1=CCC[C@H](C)C(=O)C[C@H](C(C)C)C(=O)C1
REMARK SMILES IDX 8 1 9 2 6 3 7 4 5 5 4 6 3 7 2 8 1 9 10 11 11 12 15 13 16 14
REMARK SMILES IDX 17 15 12 17 13 18 14 19
REMARK H PARENT
REMARK Flexibility Score: 70.00
ROOT
ATOM      1  C   UNL     1       4.444  74.482  19.075  1.00  0.00     0.136 C 
ATOM      2  O   UNL     1       4.556  74.018  20.201  1.00  0.00    -0.299 OA
ENDROOT
BRANCH   1   3
ATOM      3  C   UNL     1       4.384  73.522  17.900  1.00  0.00     0.053 C 
ATOM      4  C   UNL     1       4.596  72.064  18.331  1.00  0.00     0.016 C 
BRANCH   3   5
ATOM      5  C   UNL     1       3.139  73.758  17.011  1.00  0.00     0.015 C 
BRANCH   5   6
ATOM      6  C   UNL     1       1.796  73.291  17.604  1.00  0.00     0.028 C 
BRANCH   6   7
ATOM      7  C   UNL     1       0.730  74.334  17.396  1.00  0.00    -0.028 C 
ATOM      8  C   UNL     1       0.292  75.185  18.354  1.00  0.00    -0.070 CG0
ATOM      9  C   UNL     1      -0.733  76.219  17.965  1.00  0.00     0.039 C 
ATOM     10  G   UNL     1       0.772  75.127  19.797  1.00  0.00     0.000 G0
ENDBRANCH   6   7
ENDBRANCH   5   6
ENDBRANCH   3   5
ENDBRANCH   1   3
BRANCH   1  11
ATOM     11  C   UNL     1       4.348  75.985  18.928  1.00  0.00     0.087 C 
BRANCH  11  12
ATOM     12  C   UNL     1       2.880  76.480  18.922  1.00  0.00     0.066 C 
BRANCH  12  13
ATOM     13  C   UNL     1       2.045  75.867  20.043  1.00  0.00     0.140 C 
ATOM     14  O   UNL     1       2.486  75.905  21.183  1.00  0.00    -0.299 OA
BRANCH  13  15
ATOM     15  C   UNL     1       0.751  75.129  19.792  1.00  0.00     0.106 CG0
ATOM     16  G   UNL     1       0.320  75.185  18.334  1.00  0.00     0.000 G0
ENDBRANCH  13  15
ENDBRANCH  12  13
BRANCH  12  17
ATOM     17  C   UNL     1       2.770  78.035  18.823  1.00  0.00    -0.006 C 
ATOM     18  C   UNL     1       3.830  78.706  17.932  1.00  0.00     0.008 C 
ATOM     19  C   UNL     1       2.750  78.692  20.212  1.00  0.00     0.008 C 
ENDBRANCH  12  17
ENDBRANCH  11  12
ENDBRANCH   1  11
TORSDOF 1
ENDMDL
MODEL 5
REMARK VINA RESULT:    25.145      1.773      3.432
REMARK INTER + INTRA:          40.266
REMARK INTER:                  39.395
REMARK INTRA:                   0.872
REMARK UNBOUND:                 1.892
REMARK SMILES CC1=CCC[C@H](C)C(=O)C[C@H](C(C)C)C(=O)C1
REMARK SMILES IDX 8 1 9 2 6 3 7 4 5 5 4 6 3 7 2 8 1 9 10 11 11 12 15 13 16 14
REMARK SMILES IDX 17 15 12 17 13 18 14 19
REMARK H PARENT
REMARK Flexibility Score: 70.00
ROOT
ATOM      1  C   UNL     1       3.010  76.490  19.540  1.00  0.00     0.136 C 
ATOM      2  O   UNL     1       2.732  77.655  19.290  1.00  0.00    -0.299 OA
ENDROOT
BRANCH   1   3
ATOM      3  C   UNL     1       3.981  75.767  18.623  1.00  0.00     0.053 C 
ATOM      4  C   UNL     1       5.006  76.721  17.994  1.00  0.00     0.016 C 
BRANCH   3   5
ATOM      5  C   UNL     1       4.593  74.510  19.289  1.00  0.00     0.015 C 
BRANCH   5   6
ATOM      6  C   UNL     1       4.187  73.160  18.666  1.00  0.00     0.028 C 
BRANCH   6   7
ATOM      7  C   UNL     1       3.516  73.368  17.334  1.00  0.00    -0.028 C 
ATOM      8  C   UNL     1       2.186  73.553  17.166  1.00  0.00    -0.070 CG0
ATOM      9  C   UNL     1       1.680  73.818  15.771  1.00  0.00     0.039 C 
ATOM     10  G   UNL     1       1.187  73.486  18.313  1.00  0.00     0.000 G0
ENDBRANCH   6   7
ENDBRANCH   5   6
ENDBRANCH   3   5
ENDBRANCH   1   3
BRANCH   1  11
ATOM     11  C   UNL     1       2.384  75.852  20.760  1.00  0.00     0.087 C 
BRANCH  11  12
ATOM     12  C   UNL     1       1.056  75.127  20.425  1.00  0.00     0.066 C 
BRANCH  12  13
ATOM     13  C   UNL     1       0.901  74.838  18.935  1.00  0.00     0.140 C 
ATOM     14  O   UNL     1       0.428  75.710  18.219  1.00  0.00    -0.299 OA
BRANCH  13  15
ATOM     15  C   UNL     1       1.209  73.490  18.324  1.00  0.00     0.106 CG0
ATOM     16  G   UNL     1       2.183  73.586  17.159  1.00  0.00     0.000 G0
ENDBRANCH  13  15
ENDBRANCH  12  13
BRANCH  12  17
ATOM     17  C   UNL     1       0.798  73.890  21.343  1.00  0.00    -0.006 C 
ATOM     18  C   UNL     1      -0.646  73.357  21.326  1.00  0.00     0.008 C 
ATOM     19  C   UNL     1       1.251  74.151  22.788  1.00  0.00     0.008 C 
ENDBRANCH  12  17
ENDBRANCH  11  12
ENDBRANCH   1  11
TORSDOF 1
ENDMDL
MODEL 6
REMARK VINA RESULT:    25.310      1.759      4.176
REMARK INTER + INTRA:          40.518
REMARK INTER:                  36.108
REMARK INTRA:                   4.410
REMARK UNBOUND:                 1.892
REMARK SMILES CC1=CCC[C@H](C)C(=O)C[C@H](C(C)C)C(=O)C1
REMARK SMILES IDX 8 1 9 2 6 3 7 4 5 5 4 6 3 7 2 8 1 9 10 11 11 12 15 13 16 14
REMARK SMILES IDX 17 15 12 17 13 18 14 19
REMARK H PARENT
REMARK Flexibility Score: 70.00
ROOT
ATOM      1  C   UNL     1       0.937  75.013  19.017  1.00  0.00     0.136 C 
ATOM      2  O   UNL     1       0.189  75.846  18.525  1.00  0.00    -0.299 OA
ENDROOT
BRANCH   1   3
ATOM      3  C   UNL     1       1.007  73.638  18.376  1.00  0.00     0.053 C 
ATOM      4  C   UNL     1      -0.312  72.865  18.512  1.00  0.00     0.016 C 
BRANCH   3   5
ATOM      5  C   UNL     1       1.582  73.687  16.939  1.00  0.00     0.015 C 
BRANCH   5   6
ATOM      6  C   UNL     1       3.082  74.020  16.831  1.00  0.00     0.028 C 
BRANCH   6   7
ATOM      7  C   UNL     1       3.921  72.836  17.235  1.00  0.00    -0.028 C 
ATOM      8  C   UNL     1       4.425  72.642  18.476  1.00  0.00    -0.070 CG0
ATOM      9  C   UNL     1       5.188  71.368  18.737  1.00  0.00     0.039 C 
ATOM     10  G   UNL     1       4.272  73.654  19.602  1.00  0.00     0.000 G0
ENDBRANCH   6   7
ENDBRANCH   5   6
ENDBRANCH   3   5
ENDBRANCH   1   3
BRANCH   1  11
ATOM     11  C   UNL     1       1.761  75.414  20.220  1.00  0.00     0.087 C 
BRANCH  11  12
ATOM     12  C   UNL     1       3.118  76.046  19.816  1.00  0.00     0.066 C 
BRANCH  12  13
ATOM     13  C   UNL     1       4.050  75.052  19.128  1.00  0.00     0.140 C 
ATOM     14  O   UNL     1       4.601  75.393  18.091  1.00  0.00    -0.299 OA
BRANCH  13  15
ATOM     15  C   UNL     1       4.241  73.634  19.616  1.00  0.00     0.106 CG0
ATOM     16  G   UNL     1       4.464  72.650  18.477  1.00  0.00     0.000 G0
ENDBRANCH  13  15
ENDBRANCH  12  13
BRANCH  12  17
ATOM     17  C   UNL     1       2.948  77.395  19.048  1.00  0.00    -0.006 C 
ATOM     18  C   UNL     1       4.086  77.732  18.068  1.00  0.00     0.008 C 
ATOM     19  C   UNL     1       2.709  78.569  20.010  1.00  0.00     0.008 C 
ENDBRANCH  12  17
ENDBRANCH  11  12
ENDBRANCH   1  11
TORSDOF 1
ENDMDL
MODEL 7
REMARK VINA RESULT:    25.310      1.758      4.568
REMARK INTER + INTRA:          40.519
REMARK INTER:                  40.938
REMARK INTRA:                  -0.419
REMARK UNBOUND:                 1.892
REMARK SMILES CC1=CCC[C@H](C)C(=O)C[C@H](C(C)C)C(=O)C1
REMARK SMILES IDX 8 1 9 2 6 3 7 4 5 5 4 6 3 7 2 8 1 9 10 11 11 12 15 13 16 14
REMARK SMILES IDX 17 15 12 17 13 18 14 19
REMARK H PARENT
REMARK Flexibility Score: 70.00
ROOT
ATOM      1  C   UNL     1       3.309  73.448  17.062  1.00  0.00     0.136 C 
ATOM      2  O   UNL     1       3.956  74.032  16.204  1.00  0.00    -0.299 OA
ENDROOT
BRANCH   1   3
ATOM      3  C   UNL     1       4.060  72.691  18.143  1.00  0.00     0.053 C 
ATOM      4  C   UNL     1       4.729  71.419  17.603  1.00  0.00     0.016 C 
BRANCH   3   5
ATOM      5  C   UNL     1       4.994  73.612  18.966  1.00  0.00     0.015 C 
BRANCH   5   6
ATOM      6  C   UNL     1       4.301  74.489  20.026  1.00  0.00     0.028 C 
BRANCH   6   7
ATOM      7  C   UNL     1       4.048  75.873  19.489  1.00  0.00    -0.028 C 
ATOM      8  C   UNL     1       2.839  76.483  19.481  1.00  0.00    -0.070 CG0
ATOM      9  C   UNL     1       2.766  77.900  18.971  1.00  0.00     0.039 C 
ATOM     10  G   UNL     1       1.561  75.798  19.943  1.00  0.00     0.000 G0
ENDBRANCH   6   7
ENDBRANCH   5   6
ENDBRANCH   3   5
ENDBRANCH   1   3
BRANCH   1  11
ATOM     11  C   UNL     1       1.800  73.537  17.003  1.00  0.00     0.087 C 
BRANCH  11  12
ATOM     12  C   UNL     1       1.165  73.640  18.412  1.00  0.00     0.066 C 
BRANCH  12  13
ATOM     13  C   UNL     1       0.832  75.076  18.807  1.00  0.00     0.140 C 
ATOM     14  O   UNL     1       0.016  75.690  18.134  1.00  0.00    -0.299 OA
BRANCH  13  15
ATOM     15  C   UNL     1       1.540  75.804  19.926  1.00  0.00     0.106 CG0
ATOM     16  G   UNL     1       2.843  76.446  19.473  1.00  0.00     0.000 G0
ENDBRANCH  13  15
ENDBRANCH  12  13
BRANCH  12  17
ATOM     17  C   UNL     1      -0.014  72.635  18.616  1.00  0.00    -0.006 C 
ATOM     18  C   UNL     1      -0.519  72.511  20.064  1.00  0.00     0.008 C 
ATOM     19  C   UNL     1       0.320  71.247  18.049  1.00  0.00     0.008 C 
ENDBRANCH  12  17
ENDBRANCH  11  12
ENDBRANCH   1  11
TORSDOF 1
ENDMDL
MODEL 8
REMARK VINA RESULT:    25.829      1.888      3.850
REMARK INTER + INTRA:          41.311
REMARK INTER:                  41.539
REMARK INTRA:                  -0.227
REMARK UNBOUND:                 1.892
REMARK SMILES CC1=CCC[C@H](C)C(=O)C[C@H](C(C)C)C(=O)C1
REMARK SMILES IDX 8 1 9 2 6 3 7 4 5 5 4 6 3 7 2 8 1 9 10 11 11 12 15 13 16 14
REMARK SMILES IDX 17 15 12 17 13 18 14 19
REMARK H PARENT
REMARK Flexibility Score: 70.00
ROOT
ATOM      1  C   UNL     1       1.894  76.119  20.032  1.00  0.00     0.136 C 
ATOM      2  O   UNL     1       2.285  75.874  21.165  1.00  0.00    -0.299 OA
ENDROOT
BRANCH   1   3
ATOM      3  C   UNL     1       2.583  77.226  19.254  1.00  0.00     0.053 C 
ATOM      4  C   UNL     1       2.370  78.605  19.893  1.00  0.00     0.016 C 
BRANCH   3   5
ATOM      5  C   UNL     1       4.058  76.886  18.929  1.00  0.00     0.015 C 
BRANCH   5   6
ATOM      6  C   UNL     1       4.274  75.868  17.792  1.00  0.00     0.028 C 
BRANCH   6   7
ATOM      7  C   UNL     1       4.537  74.495  18.350  1.00  0.00    -0.028 C 
ATOM      8  C   UNL     1       3.903  73.369  17.946  1.00  0.00    -0.070 CG0
ATOM      9  C   UNL     1       4.331  72.059  18.557  1.00  0.00     0.039 C 
ATOM     10  G   UNL     1       2.773  73.374  16.927  1.00  0.00     0.000 G0
ENDBRANCH   6   7
ENDBRANCH   5   6
ENDBRANCH   3   5
ENDBRANCH   1   3
BRANCH   1  11
ATOM     11  C   UNL     1       0.762  75.287  19.471  1.00  0.00     0.087 C 
BRANCH  11  12
ATOM     12  C   UNL     1       0.916  75.042  17.948  1.00  0.00     0.066 C 
BRANCH  12  13
ATOM     13  C   UNL     1       1.428  73.641  17.624  1.00  0.00     0.140 C 
ATOM     14  O   UNL     1       0.770  72.680  18.000  1.00  0.00    -0.299 OA
BRANCH  13  15
ATOM     15  C   UNL     1       2.757  73.389  16.952  1.00  0.00     0.106 CG0
ATOM     16  G   UNL     1       3.916  73.373  17.938  1.00  0.00     0.000 G0
ENDBRANCH  13  15
ENDBRANCH  12  13
BRANCH  12  17
ATOM     17  C   UNL     1      -0.355  75.457  17.141  1.00  0.00    -0.006 C 
ATOM     18  C   UNL     1      -0.158  75.539  15.617  1.00  0.00     0.008 C 
ATOM     19  C   UNL     1      -0.960  76.767  17.669  1.00  0.00     0.008 C 
ENDBRANCH  12  17
ENDBRANCH  11  12
ENDBRANCH   1  11
TORSDOF 1
ENDMDL
MODEL 9
REMARK VINA RESULT:    26.282      2.031      4.523
REMARK INTER + INTRA:          42.002
REMARK INTER:                  42.113
REMARK INTRA:                  -0.111
REMARK UNBOUND:                 1.892
REMARK SMILES CC1=CCC[C@H](C)C(=O)C[C@H](C(C)C)C(=O)C1
REMARK SMILES IDX 8 1 9 2 6 3 7 4 5 5 4 6 3 7 2 8 1 9 10 11 11 12 15 13 16 14
REMARK SMILES IDX 17 15 12 17 13 18 14 19
REMARK H PARENT
REMARK Flexibility Score: 70.00
ROOT
ATOM      1  C   UNL     1       0.283  74.601  17.988  1.00  0.00     0.136 C 
ATOM      2  O   UNL     1      -0.350  74.861  16.975  1.00  0.00    -0.299 OA
ENDROOT
BRANCH   1   3
ATOM      3  C   UNL     1       0.930  73.232  18.106  1.00  0.00     0.053 C 
ATOM      4  C   UNL     1      -0.105  72.117  18.315  1.00  0.00     0.016 C 
BRANCH   3   5
ATOM      5  C   UNL     1       1.948  72.963  16.971  1.00  0.00     0.015 C 
BRANCH   5   6
ATOM      6  C   UNL     1       3.130  73.948  16.887  1.00  0.00     0.028 C 
BRANCH   6   7
ATOM      7  C   UNL     1       4.055  73.771  18.062  1.00  0.00    -0.028 C 
ATOM      8  C   UNL     1       4.409  74.761  18.915  1.00  0.00    -0.070 CG0
ATOM      9  C   UNL     1       5.292  74.405  20.084  1.00  0.00     0.039 C 
ATOM     10  G   UNL     1       3.974  76.208  18.733  1.00  0.00     0.000 G0
ENDBRANCH   6   7
ENDBRANCH   5   6
ENDBRANCH   3   5
ENDBRANCH   1   3
BRANCH   1  11
ATOM     11  C   UNL     1       0.401  75.671  19.051  1.00  0.00     0.087 C 
BRANCH  11  12
ATOM     12  C   UNL     1       1.686  75.511  19.903  1.00  0.00     0.066 C 
BRANCH  12  13
ATOM     13  C   UNL     1       2.754  76.547  19.561  1.00  0.00     0.140 C 
ATOM     14  O   UNL     1       2.555  77.712  19.875  1.00  0.00    -0.299 OA
BRANCH  13  15
ATOM     15  C   UNL     1       3.994  76.214  18.764  1.00  0.00     0.106 CG0
ATOM     16  G   UNL     1       4.407  74.756  18.909  1.00  0.00     0.000 G0
ENDBRANCH  13  15
ENDBRANCH  12  13
BRANCH  12  17
ATOM     17  C   UNL     1       1.384  75.389  21.430  1.00  0.00    -0.006 C 
ATOM     18  C   UNL     1       2.614  75.122  22.316  1.00  0.00     0.008 C 
ATOM     19  C   UNL     1       0.291  74.346  21.711  1.00  0.00     0.008 C 
ENDBRANCH  12  17
ENDBRANCH  11  12
ENDBRANCH   1  11
TORSDOF 1
ENDMDL
