MODEL 1
REMARK VINA RESULT:    -4.347      0.000      0.000
REMARK INTER + INTRA:          -4.979
REMARK INTER:                  -4.728
REMARK INTRA:                  -0.251
REMARK UNBOUND:                -0.251
REMARK SMILES O=C([O-])c1ccccc1O
REMARK SMILES IDX 4 1 9 2 5 3 8 4 6 5 7 6 2 7 1 8 3 9 10 10
REMARK H PARENT 10 11
REMARK Flexibility Score: inf
ROOT
ATOM      1  C   UNL     1      13.431  49.365  95.608  1.00  0.00     0.039 A 
ATOM      2  C   UNL     1      13.019  49.362  96.962  1.00  0.00     0.124 A 
ATOM      3  C   UNL     1      12.503  48.995  94.615  1.00  0.00     0.014 A 
ATOM      4  C   UNL     1      11.706  48.992  97.292  1.00  0.00     0.047 A 
ATOM      5  C   UNL     1      11.200  48.629  94.958  1.00  0.00     0.001 A 
ATOM      6  C   UNL     1      10.801  48.627  96.295  1.00  0.00     0.004 A 
ENDROOT
BRANCH   1   7
ATOM      7  C   UNL     1      14.809  49.748  95.207  1.00  0.00     0.075 C 
ATOM      8  O   UNL     1      15.344  50.801  95.645  1.00  0.00    -0.545 OA
ATOM      9  O   UNL     1      15.534  48.944  94.334  1.00  0.00    -0.545 OA
ENDBRANCH   1   7
BRANCH   2  10
ATOM     10  O   UNL     1      13.904  49.721  97.980  1.00  0.00    -0.507 OA
ATOM     11  H   UNL     1      13.728  49.479  98.948  1.00  0.00     0.293 HD
ENDBRANCH   2  10
TORSDOF 2
ENDMDL
MODEL 2
REMARK VINA RESULT:    -4.246      1.855      3.544
REMARK INTER + INTRA:          -4.869
REMARK INTER:                  -4.619
REMARK INTRA:                  -0.250
REMARK UNBOUND:                -0.251
REMARK SMILES O=C([O-])c1ccccc1O
REMARK SMILES IDX 4 1 9 2 5 3 8 4 6 5 7 6 2 7 1 8 3 9 10 10
REMARK H PARENT 10 11
REMARK Flexibility Score: inf
ROOT
ATOM      1  C   UNL     1      11.729  48.870  96.484  1.00  0.00     0.039 A 
ATOM      2  C   UNL     1      13.051  49.338  96.672  1.00  0.00     0.124 A 
ATOM      3  C   UNL     1      11.279  48.612  95.174  1.00  0.00     0.014 A 
ATOM      4  C   UNL     1      13.886  49.537  95.562  1.00  0.00     0.047 A 
ATOM      5  C   UNL     1      12.121  48.816  94.079  1.00  0.00     0.001 A 
ATOM      6  C   UNL     1      13.422  49.278  94.272  1.00  0.00     0.004 A 
ENDROOT
BRANCH   1   7
ATOM      7  C   UNL     1      10.806  48.642  97.626  1.00  0.00     0.075 C 
ATOM      8  O   UNL     1      10.684  49.497  98.542  1.00  0.00    -0.545 OA
ATOM      9  O   UNL     1      10.057  47.472  97.700  1.00  0.00    -0.545 OA
ENDBRANCH   1   7
BRANCH   2  10
ATOM     10  O   UNL     1      13.540  49.605  97.951  1.00  0.00    -0.507 OA
ATOM     11  H   UNL     1      13.855  48.864  98.566  1.00  0.00     0.293 HD
ENDBRANCH   2  10
TORSDOF 2
ENDMDL
MODEL 3
REMARK VINA RESULT:    -4.215      2.541      4.155
REMARK INTER + INTRA:          -4.835
REMARK INTER:                  -4.589
REMARK INTRA:                  -0.246
REMARK UNBOUND:                -0.251
REMARK SMILES O=C([O-])c1ccccc1O
REMARK SMILES IDX 4 1 9 2 5 3 8 4 6 5 7 6 2 7 1 8 3 9 10 10
REMARK H PARENT 10 11
REMARK Flexibility Score: inf
ROOT
ATOM      1  C   UNL     1      12.053  49.191  96.948  1.00  0.00     0.039 A 
ATOM      2  C   UNL     1      12.118  48.910  95.562  1.00  0.00     0.124 A 
ATOM      3  C   UNL     1      13.134  49.857  97.558  1.00  0.00     0.014 A 
ATOM      4  C   UNL     1      13.248  49.294  94.824  1.00  0.00     0.047 A 
ATOM      5  C   UNL     1      14.253  50.233  96.810  1.00  0.00     0.001 A 
ATOM      6  C   UNL     1      14.310  49.952  95.445  1.00  0.00     0.004 A 
ENDROOT
BRANCH   1   7
ATOM      7  C   UNL     1      10.881  48.805  97.774  1.00  0.00     0.075 C 
ATOM      8  O   UNL     1      10.456  49.557  98.691  1.00  0.00    -0.545 OA
ATOM      9  O   UNL     1      10.229  47.597  97.547  1.00  0.00    -0.545 OA
ENDBRANCH   1   7
BRANCH   2  10
ATOM     10  O   UNL     1      11.071  48.252  94.917  1.00  0.00    -0.507 OA
ATOM     11  H   UNL     1      11.163  47.297  94.590  1.00  0.00     0.293 HD
ENDBRANCH   2  10
TORSDOF 2
ENDMDL
MODEL 4
REMARK VINA RESULT:    -4.073      1.277      2.324
REMARK INTER + INTRA:          -4.681
REMARK INTER:                  -4.426
REMARK INTRA:                  -0.255
REMARK UNBOUND:                -0.251
REMARK SMILES O=C([O-])c1ccccc1O
REMARK SMILES IDX 4 1 9 2 5 3 8 4 6 5 7 6 2 7 1 8 3 9 10 10
REMARK H PARENT 10 11
REMARK Flexibility Score: inf
ROOT
ATOM      1  C   UNL     1      12.704  49.350  96.464  1.00  0.00     0.039 A 
ATOM      2  C   UNL     1      12.191  48.867  95.236  1.00  0.00     0.124 A 
ATOM      3  C   UNL     1      11.919  49.219  97.626  1.00  0.00     0.014 A 
ATOM      4  C   UNL     1      10.921  48.272  95.195  1.00  0.00     0.047 A 
ATOM      5  C   UNL     1      10.656  48.626  97.570  1.00  0.00     0.001 A 
ATOM      6  C   UNL     1      10.157  48.153  96.357  1.00  0.00     0.004 A 
ENDROOT
BRANCH   1   7
ATOM      7  C   UNL     1      14.042  49.987  96.560  1.00  0.00     0.075 C 
ATOM      8  O   UNL     1      14.205  51.062  97.195  1.00  0.00    -0.545 OA
ATOM      9  O   UNL     1      15.144  49.401  95.945  1.00  0.00    -0.545 OA
ENDBRANCH   1   7
BRANCH   2  10
ATOM     10  O   UNL     1      12.934  48.974  94.059  1.00  0.00    -0.507 OA
ATOM     11  H   UNL     1      13.735  49.591  93.991  1.00  0.00     0.293 HD
ENDBRANCH   2  10
TORSDOF 2
ENDMDL
MODEL 5
REMARK VINA RESULT:    -4.027      2.114      3.512
REMARK INTER + INTRA:          -4.630
REMARK INTER:                  -4.417
REMARK INTRA:                  -0.213
REMARK UNBOUND:                -0.251
REMARK SMILES O=C([O-])c1ccccc1O
REMARK SMILES IDX 4 1 9 2 5 3 8 4 6 5 7 6 2 7 1 8 3 9 10 10
REMARK H PARENT 10 11
REMARK Flexibility Score: inf
ROOT
ATOM      1  C   UNL     1      12.754  49.225  95.582  1.00  0.00     0.039 A 
ATOM      2  C   UNL     1      13.222  49.786  96.795  1.00  0.00     0.124 A 
ATOM      3  C   UNL     1      13.534  49.372  94.419  1.00  0.00     0.014 A 
ATOM      4  C   UNL     1      14.444  50.474  96.819  1.00  0.00     0.047 A 
ATOM      5  C   UNL     1      14.749  50.060  94.459  1.00  0.00     0.001 A 
ATOM      6  C   UNL     1      15.204  50.611  95.657  1.00  0.00     0.004 A 
ENDROOT
BRANCH   1   7
ATOM      7  C   UNL     1      11.467  48.487  95.503  1.00  0.00     0.075 C 
ATOM      8  O   UNL     1      11.262  47.634  94.600  1.00  0.00    -0.545 OA
ATOM      9  O   UNL     1      10.461  48.729  96.433  1.00  0.00    -0.545 OA
ENDBRANCH   1   7
BRANCH   2  10
ATOM     10  O   UNL     1      12.482  49.664  97.971  1.00  0.00    -0.507 OA
ATOM     11  H   UNL     1      12.217  48.759  98.343  1.00  0.00     0.293 HD
ENDBRANCH   2  10
TORSDOF 2
ENDMDL
MODEL 6
REMARK VINA RESULT:    -3.881      3.036      4.123
REMARK INTER + INTRA:          -4.472
REMARK INTER:                  -4.218
REMARK INTRA:                  -0.254
REMARK UNBOUND:                -0.251
REMARK SMILES O=C([O-])c1ccccc1O
REMARK SMILES IDX 4 1 9 2 5 3 8 4 6 5 7 6 2 7 1 8 3 9 10 10
REMARK H PARENT 10 11
REMARK Flexibility Score: inf
ROOT
ATOM      1  C   UNL     1      10.938  48.646  96.395  1.00  0.00     0.039 A 
ATOM      2  C   UNL     1      11.493  49.158  97.592  1.00  0.00     0.124 A 
ATOM      3  C   UNL     1      11.714  48.674  95.220  1.00  0.00     0.014 A 
ATOM      4  C   UNL     1      12.795  49.682  97.590  1.00  0.00     0.047 A 
ATOM      5  C   UNL     1      13.008  49.198  95.233  1.00  0.00     0.001 A 
ATOM      6  C   UNL     1      13.548  49.702  96.416  1.00  0.00     0.004 A 
ENDROOT
BRANCH   1   7
ATOM      7  C   UNL     1       9.565  48.081  96.344  1.00  0.00     0.075 C 
ATOM      8  O   UNL     1       8.779  48.368  95.404  1.00  0.00    -0.545 OA
ATOM      9  O   UNL     1       9.124  47.219  97.343  1.00  0.00    -0.545 OA
ENDBRANCH   1   7
BRANCH   2  10
ATOM     10  O   UNL     1      10.761  49.150  98.780  1.00  0.00    -0.507 OA
ATOM     11  H   UNL     1      11.154  49.493  99.649  1.00  0.00     0.293 HD
ENDBRANCH   2  10
TORSDOF 2
ENDMDL
MODEL 7
REMARK VINA RESULT:    -3.757     11.563     11.865
REMARK INTER + INTRA:          -4.337
REMARK INTER:                  -4.127
REMARK INTRA:                  -0.210
REMARK UNBOUND:                -0.251
REMARK SMILES O=C([O-])c1ccccc1O
REMARK SMILES IDX 4 1 9 2 5 3 8 4 6 5 7 6 2 7 1 8 3 9 10 10
REMARK H PARENT 10 11
REMARK Flexibility Score: inf
ROOT
ATOM      1  C   UNL     1      19.535  39.359  95.354  1.00  0.00     0.039 A 
ATOM      2  C   UNL     1      19.345  38.918  96.686  1.00  0.00     0.124 A 
ATOM      3  C   UNL     1      18.453  39.293  94.455  1.00  0.00     0.014 A 
ATOM      4  C   UNL     1      18.093  38.426  97.086  1.00  0.00     0.047 A 
ATOM      5  C   UNL     1      17.213  38.800  94.868  1.00  0.00     0.001 A 
ATOM      6  C   UNL     1      17.033  38.367  96.181  1.00  0.00     0.004 A 
ENDROOT
BRANCH   1   7
ATOM      7  C   UNL     1      20.840  39.888  94.880  1.00  0.00     0.075 C 
ATOM      8  O   UNL     1      21.145  39.865  93.659  1.00  0.00    -0.545 OA
ATOM      9  O   UNL     1      21.752  40.420  95.786  1.00  0.00    -0.545 OA
ENDBRANCH   1   7
BRANCH   2  10
ATOM     10  O   UNL     1      20.389  38.966  97.611  1.00  0.00    -0.507 OA
ATOM     11  H   UNL     1      20.993  39.776  97.690  1.00  0.00     0.293 HD
ENDBRANCH   2  10
TORSDOF 2
ENDMDL
MODEL 8
REMARK VINA RESULT:    -3.717     11.789     12.162
REMARK INTER + INTRA:          -4.293
REMARK INTER:                  -4.110
REMARK INTRA:                  -0.184
REMARK UNBOUND:                -0.251
REMARK SMILES O=C([O-])c1ccccc1O
REMARK SMILES IDX 4 1 9 2 5 3 8 4 6 5 7 6 2 7 1 8 3 9 10 10
REMARK H PARENT 10 11
REMARK Flexibility Score: inf
ROOT
ATOM      1  C   UNL     1      19.655  39.199  96.490  1.00  0.00     0.039 A 
ATOM      2  C   UNL     1      19.387  39.274  95.102  1.00  0.00     0.124 A 
ATOM      3  C   UNL     1      18.694  38.613  97.337  1.00  0.00     0.014 A 
ATOM      4  C   UNL     1      18.179  38.770  94.596  1.00  0.00     0.047 A 
ATOM      5  C   UNL     1      17.496  38.115  96.819  1.00  0.00     0.001 A 
ATOM      6  C   UNL     1      17.239  38.194  95.450  1.00  0.00     0.004 A 
ENDROOT
BRANCH   1   7
ATOM      7  C   UNL     1      20.918  39.718  97.076  1.00  0.00     0.075 C 
ATOM      8  O   UNL     1      21.315  39.333  98.207  1.00  0.00    -0.545 OA
ATOM      9  O   UNL     1      21.686  40.645  96.378  1.00  0.00    -0.545 OA
ENDBRANCH   1   7
BRANCH   2  10
ATOM     10  O   UNL     1      20.310  39.846  94.226  1.00  0.00    -0.507 OA
ATOM     11  H   UNL     1      21.279  39.983  94.489  1.00  0.00     0.293 HD
ENDBRANCH   2  10
TORSDOF 2
ENDMDL
MODEL 9
REMARK VINA RESULT:    -3.586      2.565      4.010
REMARK INTER + INTRA:          -4.151
REMARK INTER:                  -3.903
REMARK INTRA:                  -0.249
REMARK UNBOUND:                -0.251
REMARK SMILES O=C([O-])c1ccccc1O
REMARK SMILES IDX 4 1 9 2 5 3 8 4 6 5 7 6 2 7 1 8 3 9 10 10
REMARK H PARENT 10 11
REMARK Flexibility Score: inf
ROOT
ATOM      1  C   UNL     1      10.606  48.272  96.961  1.00  0.00     0.039 A 
ATOM      2  C   UNL     1      10.992  48.240  95.599  1.00  0.00     0.124 A 
ATOM      3  C   UNL     1       9.750  47.265  97.448  1.00  0.00     0.014 A 
ATOM      4  C   UNL     1      10.520  47.216  94.763  1.00  0.00     0.047 A 
ATOM      5  C   UNL     1       9.288  46.253  96.604  1.00  0.00     0.001 A 
ATOM      6  C   UNL     1       9.672  46.228  95.263  1.00  0.00     0.004 A 
ENDROOT
BRANCH   1   7
ATOM      7  C   UNL     1      11.077  49.334  97.887  1.00  0.00     0.075 C 
ATOM      8  O   UNL     1      10.308  49.829  98.752  1.00  0.00    -0.545 OA
ATOM      9  O   UNL     1      12.385  49.800  97.811  1.00  0.00    -0.545 OA
ENDBRANCH   1   7
BRANCH   2  10
ATOM     10  O   UNL     1      11.839  49.217  95.074  1.00  0.00    -0.507 OA
ATOM     11  H   UNL     1      11.682  49.620  94.157  1.00  0.00     0.293 HD
ENDBRANCH   2  10
TORSDOF 2
ENDMDL
