MODEL 1
REMARK VINA RESULT:    -4.605      0.000      0.000
REMARK INTER + INTRA:          -6.817
REMARK INTER:                  -6.490
REMARK INTRA:                  -0.327
REMARK UNBOUND:                -0.327
REMARK SMILES CCCCCCCCC(=O)[O-]
REMARK SMILES IDX 6 1 7 2 8 3 9 4 10 5 11 6 5 7 4 8 3 9 2 10 1 11
REMARK H PARENT
REMARK Flexibility Score: inf
ROOT
ATOM      1  C   UNL     1      19.769  30.259  37.047  1.00  0.00     0.000 C 
ENDROOT
BRANCH   1   2
ATOM      2  C   UNL     1      20.503  31.578  36.750  1.00  0.00     0.006 C 
BRANCH   2   3
ATOM      3  C   UNL     1      21.584  31.410  35.674  1.00  0.00     0.053 C 
BRANCH   3   4
ATOM      4  C   UNL     1      21.985  32.723  35.075  1.00  0.00     0.041 C 
ATOM      5  O   UNL     1      23.164  33.144  35.205  1.00  0.00    -0.550 OA
ATOM      6  O   UNL     1      21.048  33.495  34.399  1.00  0.00    -0.550 OA
ENDBRANCH   3   4
ENDBRANCH   2   3
ENDBRANCH   1   2
BRANCH   1   7
ATOM      7  C   UNL     1      20.633  29.023  36.747  1.00  0.00     0.000 C 
BRANCH   7   8
ATOM      8  C   UNL     1      19.802  27.734  36.627  1.00  0.00    -0.000 C 
BRANCH   8   9
ATOM      9  C   UNL     1      18.303  27.974  36.866  1.00  0.00    -0.000 C 
BRANCH   9  10
ATOM     10  C   UNL     1      17.455  26.720  36.603  1.00  0.00    -0.003 C 
ATOM     11  C   UNL     1      18.303  25.600  36.007  1.00  0.00     0.004 C 
ENDBRANCH   9  10
ENDBRANCH   8   9
ENDBRANCH   7   8
ENDBRANCH   1   7
TORSDOF 7
ENDMDL
MODEL 2
REMARK VINA RESULT:    -4.599      4.058      6.283
REMARK INTER + INTRA:          -6.808
REMARK INTER:                  -6.457
REMARK INTRA:                  -0.352
REMARK UNBOUND:                -0.327
REMARK SMILES CCCCCCCCC(=O)[O-]
REMARK SMILES IDX 6 1 7 2 8 3 9 4 10 5 11 6 5 7 4 8 3 9 2 10 1 11
REMARK H PARENT
REMARK Flexibility Score: inf
ROOT
ATOM      1  C   UNL     1      18.652  27.766  36.757  1.00  0.00     0.000 C 
ENDROOT
BRANCH   1   2
ATOM      2  C   UNL     1      18.112  26.376  36.379  1.00  0.00     0.006 C 
BRANCH   2   3
ATOM      3  C   UNL     1      19.212  25.307  36.383  1.00  0.00     0.053 C 
BRANCH   3   4
ATOM      4  C   UNL     1      19.346  24.639  35.049  1.00  0.00     0.041 C 
ATOM      5  O   UNL     1      18.323  24.231  34.440  1.00  0.00    -0.550 OA
ATOM      6  O   UNL     1      20.604  24.441  34.493  1.00  0.00    -0.550 OA
ENDBRANCH   3   4
ENDBRANCH   2   3
ENDBRANCH   1   2
BRANCH   1   7
ATOM      7  C   UNL     1      20.147  27.926  36.433  1.00  0.00     0.000 C 
BRANCH   7   8
ATOM      8  C   UNL     1      20.709  29.286  36.882  1.00  0.00    -0.000 C 
BRANCH   8   9
ATOM      9  C   UNL     1      19.606  30.329  37.125  1.00  0.00    -0.000 C 
BRANCH   9  10
ATOM     10  C   UNL     1      20.066  31.759  36.806  1.00  0.00    -0.003 C 
ATOM     11  C   UNL     1      21.470  31.763  36.206  1.00  0.00     0.004 C 
ENDBRANCH   9  10
ENDBRANCH   8   9
ENDBRANCH   7   8
ENDBRANCH   1   7
TORSDOF 7
ENDMDL
MODEL 3
REMARK VINA RESULT:    -3.961     16.491     17.694
REMARK INTER + INTRA:          -5.910
REMARK INTER:                  -5.301
REMARK INTRA:                  -0.608
REMARK UNBOUND:                -0.327
REMARK SMILES CCCCCCCCC(=O)[O-]
REMARK SMILES IDX 6 1 7 2 8 3 9 4 10 5 11 6 5 7 4 8 3 9 2 10 1 11
REMARK H PARENT
REMARK Flexibility Score: inf
ROOT
ATOM      1  C   UNL     1      20.399  24.930  19.536  1.00  0.00     0.000 C 
ENDROOT
BRANCH   1   2
ATOM      2  C   UNL     1      19.148  24.168  20.006  1.00  0.00     0.006 C 
BRANCH   2   3
ATOM      3  C   UNL     1      19.178  23.881  21.513  1.00  0.00     0.053 C 
BRANCH   3   4
ATOM      4  C   UNL     1      18.516  22.579  21.847  1.00  0.00     0.041 C 
ATOM      5  O   UNL     1      18.659  21.584  21.088  1.00  0.00    -0.550 OA
ATOM      6  O   UNL     1      17.717  22.473  22.978  1.00  0.00    -0.550 OA
ENDBRANCH   3   4
ENDBRANCH   2   3
ENDBRANCH   1   2
BRANCH   1   7
ATOM      7  C   UNL     1      21.161  24.185  18.428  1.00  0.00     0.000 C 
BRANCH   7   8
ATOM      8  C   UNL     1      21.328  22.685  18.729  1.00  0.00    -0.000 C 
BRANCH   8   9
ATOM      9  C   UNL     1      22.563  22.392  19.595  1.00  0.00    -0.000 C 
BRANCH   9  10
ATOM     10  C   UNL     1      22.194  21.987  21.030  1.00  0.00    -0.003 C 
ATOM     11  C   UNL     1      22.633  20.556  21.327  1.00  0.00     0.004 C 
ENDBRANCH   9  10
ENDBRANCH   8   9
ENDBRANCH   7   8
ENDBRANCH   1   7
TORSDOF 7
ENDMDL
MODEL 4
REMARK VINA RESULT:    -3.931     16.524     17.637
REMARK INTER + INTRA:          -5.867
REMARK INTER:                  -5.220
REMARK INTRA:                  -0.646
REMARK UNBOUND:                -0.327
REMARK SMILES CCCCCCCCC(=O)[O-]
REMARK SMILES IDX 6 1 7 2 8 3 9 4 10 5 11 6 5 7 4 8 3 9 2 10 1 11
REMARK H PARENT
REMARK Flexibility Score: inf
ROOT
ATOM      1  C   UNL     1      21.285  22.054  20.455  1.00  0.00     0.000 C 
ENDROOT
BRANCH   1   2
ATOM      2  C   UNL     1      22.155  22.674  19.347  1.00  0.00     0.006 C 
BRANCH   2   3
ATOM      3  C   UNL     1      21.376  22.869  18.040  1.00  0.00     0.053 C 
BRANCH   3   4
ATOM      4  C   UNL     1      20.624  24.165  18.026  1.00  0.00     0.041 C 
ATOM      5  O   UNL     1      21.049  25.149  18.686  1.00  0.00    -0.550 OA
ATOM      6  O   UNL     1      19.439  24.275  17.310  1.00  0.00    -0.550 OA
ENDBRANCH   3   4
ENDBRANCH   2   3
ENDBRANCH   1   2
BRANCH   1   7
ATOM      7  C   UNL     1      20.932  23.062  21.561  1.00  0.00     0.000 C 
BRANCH   7   8
ATOM      8  C   UNL     1      19.443  23.452  21.554  1.00  0.00    -0.000 C 
BRANCH   8   9
ATOM      9  C   UNL     1      18.566  22.417  20.831  1.00  0.00    -0.000 C 
BRANCH   9  10
ATOM     10  C   UNL     1      17.410  21.910  21.707  1.00  0.00    -0.003 C 
ATOM     11  C   UNL     1      17.595  22.336  23.161  1.00  0.00     0.004 C 
ENDBRANCH   9  10
ENDBRANCH   8   9
ENDBRANCH   7   8
ENDBRANCH   1   7
TORSDOF 7
ENDMDL
MODEL 5
REMARK VINA RESULT:    -3.924     17.402     18.561
REMARK INTER + INTRA:          -5.858
REMARK INTER:                  -4.969
REMARK INTRA:                  -0.889
REMARK UNBOUND:                -0.327
REMARK SMILES CCCCCCCCC(=O)[O-]
REMARK SMILES IDX 6 1 7 2 8 3 9 4 10 5 11 6 5 7 4 8 3 9 2 10 1 11
REMARK H PARENT
REMARK Flexibility Score: inf
ROOT
ATOM      1  C   UNL     1      21.712  22.898  18.365  1.00  0.00     0.000 C 
ENDROOT
BRANCH   1   2
ATOM      2  C   UNL     1      22.165  22.760  19.829  1.00  0.00     0.006 C 
BRANCH   2   3
ATOM      3  C   UNL     1      21.166  21.956  20.671  1.00  0.00     0.053 C 
BRANCH   3   4
ATOM      4  C   UNL     1      20.187  22.844  21.375  1.00  0.00     0.041 C 
ATOM      5  O   UNL     1      20.540  23.987  21.770  1.00  0.00    -0.550 OA
ATOM      6  O   UNL     1      18.895  22.399  21.623  1.00  0.00    -0.550 OA
ENDBRANCH   3   4
ENDBRANCH   2   3
ENDBRANCH   1   2
BRANCH   1   7
ATOM      7  C   UNL     1      21.021  24.243  18.085  1.00  0.00     0.000 C 
BRANCH   7   8
ATOM      8  C   UNL     1      19.525  24.085  17.761  1.00  0.00    -0.000 C 
BRANCH   8   9
ATOM      9  C   UNL     1      19.174  22.671  17.270  1.00  0.00    -0.000 C 
BRANCH   9  10
ATOM     10  C   UNL     1      18.138  21.976  18.166  1.00  0.00    -0.003 C 
ATOM     11  C   UNL     1      18.536  20.529  18.445  1.00  0.00     0.004 C 
ENDBRANCH   9  10
ENDBRANCH   8   9
ENDBRANCH   7   8
ENDBRANCH   1   7
TORSDOF 7
ENDMDL
MODEL 6
REMARK VINA RESULT:    -3.919     17.379     18.252
REMARK INTER + INTRA:          -5.851
REMARK INTER:                  -5.520
REMARK INTRA:                  -0.330
REMARK UNBOUND:                -0.327
REMARK SMILES CCCCCCCCC(=O)[O-]
REMARK SMILES IDX 6 1 7 2 8 3 9 4 10 5 11 6 5 7 4 8 3 9 2 10 1 11
REMARK H PARENT
REMARK Flexibility Score: inf
ROOT
ATOM      1  C   UNL     1      22.523  22.388  19.859  1.00  0.00     0.000 C 
ENDROOT
BRANCH   1   2
ATOM      2  C   UNL     1      21.563  22.692  18.696  1.00  0.00     0.006 C 
BRANCH   2   3
ATOM      3  C   UNL     1      21.258  24.190  18.574  1.00  0.00     0.053 C 
BRANCH   3   4
ATOM      4  C   UNL     1      20.016  24.570  19.321  1.00  0.00     0.041 C 
ATOM      5  O   UNL     1      20.101  25.132  20.445  1.00  0.00    -0.550 OA
ATOM      6  O   UNL     1      18.766  24.276  18.791  1.00  0.00    -0.550 OA
ENDBRANCH   3   4
ENDBRANCH   2   3
ENDBRANCH   1   2
BRANCH   1   7
ATOM      7  C   UNL     1      21.869  21.532  20.956  1.00  0.00     0.000 C 
BRANCH   7   8
ATOM      8  C   UNL     1      22.866  20.578  21.636  1.00  0.00    -0.000 C 
BRANCH   8   9
ATOM      9  C   UNL     1      22.485  19.100  21.455  1.00  0.00    -0.000 C 
BRANCH   9  10
ATOM     10  C   UNL     1      23.712  18.177  21.397  1.00  0.00    -0.003 C 
ATOM     11  C   UNL     1      24.687  18.628  20.313  1.00  0.00     0.004 C 
ENDBRANCH   9  10
ENDBRANCH   8   9
ENDBRANCH   7   8
ENDBRANCH   1   7
TORSDOF 7
ENDMDL
MODEL 7
REMARK VINA RESULT:    -3.919     16.954     18.223
REMARK INTER + INTRA:          -5.850
REMARK INTER:                  -5.105
REMARK INTRA:                  -0.744
REMARK UNBOUND:                -0.327
REMARK SMILES CCCCCCCCC(=O)[O-]
REMARK SMILES IDX 6 1 7 2 8 3 9 4 10 5 11 6 5 7 4 8 3 9 2 10 1 11
REMARK H PARENT
REMARK Flexibility Score: inf
ROOT
ATOM      1  C   UNL     1      21.071  22.037  20.475  1.00  0.00     0.000 C 
ENDROOT
BRANCH   1   2
ATOM      2  C   UNL     1      20.351  23.032  21.401  1.00  0.00     0.006 C 
BRANCH   2   3
ATOM      3  C   UNL     1      18.852  23.132  21.091  1.00  0.00     0.053 C 
BRANCH   3   4
ATOM      4  C   UNL     1      18.026  22.358  22.072  1.00  0.00     0.041 C 
ATOM      5  O   UNL     1      17.927  22.752  23.265  1.00  0.00    -0.550 OA
ATOM      6  O   UNL     1      17.391  21.187  21.679  1.00  0.00    -0.550 OA
ENDBRANCH   3   4
ENDBRANCH   2   3
ENDBRANCH   1   2
BRANCH   1   7
ATOM      7  C   UNL     1      22.118  22.717  19.578  1.00  0.00     0.000 C 
BRANCH   7   8
ATOM      8  C   UNL     1      21.622  22.918  18.135  1.00  0.00    -0.000 C 
BRANCH   8   9
ATOM      9  C   UNL     1      20.986  24.301  17.918  1.00  0.00    -0.000 C 
BRANCH   9  10
ATOM     10  C   UNL     1      19.493  24.214  17.565  1.00  0.00    -0.003 C 
ATOM     11  C   UNL     1      19.064  22.765  17.348  1.00  0.00     0.004 C 
ENDBRANCH   9  10
ENDBRANCH   8   9
ENDBRANCH   7   8
ENDBRANCH   1   7
TORSDOF 7
ENDMDL
MODEL 8
REMARK VINA RESULT:    -3.888     17.059     18.070
REMARK INTER + INTRA:          -5.807
REMARK INTER:                  -4.917
REMARK INTRA:                  -0.889
REMARK UNBOUND:                -0.327
REMARK SMILES CCCCCCCCC(=O)[O-]
REMARK SMILES IDX 6 1 7 2 8 3 9 4 10 5 11 6 5 7 4 8 3 9 2 10 1 11
REMARK H PARENT
REMARK Flexibility Score: inf
ROOT
ATOM      1  C   UNL     1      22.477  22.518  19.874  1.00  0.00     0.000 C 
ENDROOT
BRANCH   1   2
ATOM      2  C   UNL     1      21.641  22.759  18.605  1.00  0.00     0.006 C 
BRANCH   2   3
ATOM      3  C   UNL     1      21.340  24.247  18.383  1.00  0.00     0.053 C 
BRANCH   3   4
ATOM      4  C   UNL     1      20.028  24.647  18.984  1.00  0.00     0.041 C 
ATOM      5  O   UNL     1      18.970  24.564  18.306  1.00  0.00    -0.550 OA
ATOM      6  O   UNL     1      19.977  25.141  20.282  1.00  0.00    -0.550 OA
ENDBRANCH   3   4
ENDBRANCH   2   3
ENDBRANCH   1   2
BRANCH   1   7
ATOM      7  C   UNL     1      21.619  22.074  21.070  1.00  0.00     0.000 C 
BRANCH   7   8
ATOM      8  C   UNL     1      20.414  21.214  20.648  1.00  0.00    -0.000 C 
BRANCH   8   9
ATOM      9  C   UNL     1      19.075  21.800  21.123  1.00  0.00    -0.000 C 
BRANCH   9  10
ATOM     10  C   UNL     1      17.982  21.721  20.047  1.00  0.00    -0.003 C 
ATOM     11  C   UNL     1      18.466  20.937  18.830  1.00  0.00     0.004 C 
ENDBRANCH   9  10
ENDBRANCH   8   9
ENDBRANCH   7   8
ENDBRANCH   1   7
TORSDOF 7
ENDMDL
MODEL 9
REMARK VINA RESULT:    -2.399      1.560      2.813
REMARK INTER + INTRA:          -3.709
REMARK INTER:                  -3.373
REMARK INTRA:                  -0.335
REMARK UNBOUND:                -0.327
REMARK SMILES CCCCCCCCC(=O)[O-]
REMARK SMILES IDX 6 1 7 2 8 3 9 4 10 5 11 6 5 7 4 8 3 9 2 10 1 11
REMARK H PARENT
REMARK Flexibility Score: inf
ROOT
ATOM      1  C   UNL     1      20.165  27.927  36.309  1.00  0.00     0.000 C 
ENDROOT
BRANCH   1   2
ATOM      2  C   UNL     1      20.694  29.165  37.055  1.00  0.00     0.006 C 
BRANCH   2   3
ATOM      3  C   UNL     1      19.651  30.288  37.125  1.00  0.00     0.053 C 
BRANCH   3   4
ATOM      4  C   UNL     1      20.234  31.615  36.746  1.00  0.00     0.041 C 
ATOM      5  O   UNL     1      19.519  32.652  36.778  1.00  0.00    -0.550 OA
ATOM      6  O   UNL     1      21.555  31.702  36.329  1.00  0.00    -0.550 OA
ENDBRANCH   3   4
ENDBRANCH   2   3
ENDBRANCH   1   2
BRANCH   1   7
ATOM      7  C   UNL     1      18.709  27.596  36.675  1.00  0.00     0.000 C 
BRANCH   7   8
ATOM      8  C   UNL     1      18.325  26.147  36.327  1.00  0.00    -0.000 C 
BRANCH   8   9
ATOM      9  C   UNL     1      19.549  25.225  36.209  1.00  0.00    -0.000 C 
BRANCH   9  10
ATOM     10  C   UNL     1      19.248  23.944  35.417  1.00  0.00    -0.003 C 
ATOM     11  C   UNL     1      18.408  24.248  34.179  1.00  0.00     0.004 C 
ENDBRANCH   9  10
ENDBRANCH   8   9
ENDBRANCH   7   8
ENDBRANCH   1   7
TORSDOF 7
ENDMDL
