MODEL 1
REMARK VINA RESULT:    -4.277      0.000      0.000
REMARK INTER + INTRA:          -6.071
REMARK INTER:                  -5.527
REMARK INTRA:                  -0.545
REMARK UNBOUND:                -0.545
REMARK SMILES C=CC(=O)CCCCC
REMARK SMILES IDX 6 1 7 2 8 3 9 4 5 5 3 6 4 7 2 8 1 9
REMARK H PARENT
REMARK Flexibility Score: inf
ROOT
ATOM      1  C   UNL     1      -9.437  74.995  30.910  1.00  0.00     0.008 C 
ENDROOT
BRANCH   1   2
ATOM      2  C   UNL     1     -10.575  74.706  31.900  1.00  0.00     0.000 C 
BRANCH   2   3
ATOM      3  C   UNL     1     -10.507  73.263  32.411  1.00  0.00    -0.003 C 
ATOM      4  C   UNL     1     -11.903  72.673  32.584  1.00  0.00     0.004 C 
ENDBRANCH   2   3
ENDBRANCH   1   2
BRANCH   1   5
ATOM      5  C   UNL     1      -9.367  73.954  29.784  1.00  0.00     0.080 C 
BRANCH   5   6
ATOM      6  C   UNL     1     -10.293  74.294  28.650  1.00  0.00     0.155 C 
ATOM      7  O   UNL     1      -9.907  75.103  27.762  1.00  0.00    -0.295 OA
BRANCH   6   8
ATOM      8  C   UNL     1     -11.648  73.713  28.597  1.00  0.00     0.039 C 
ATOM      9  C   UNL     1     -11.879  72.418  28.797  1.00  0.00     0.012 C 
ENDBRANCH   6   8
ENDBRANCH   5   6
ENDBRANCH   1   5
TORSDOF 5
ENDMDL
MODEL 2
REMARK VINA RESULT:    -4.231      1.182      1.614
REMARK INTER + INTRA:          -6.012
REMARK INTER:                  -5.523
REMARK INTRA:                  -0.488
REMARK UNBOUND:                -0.545
REMARK SMILES C=CC(=O)CCCCC
REMARK SMILES IDX 6 1 7 2 8 3 9 4 5 5 3 6 4 7 2 8 1 9
REMARK H PARENT
REMARK Flexibility Score: inf
ROOT
ATOM      1  C   UNL     1     -10.622  75.002  31.131  1.00  0.00     0.008 C 
ENDROOT
BRANCH   1   2
ATOM      2  C   UNL     1     -10.908  74.352  32.493  1.00  0.00     0.000 C 
BRANCH   2   3
ATOM      3  C   UNL     1     -11.655  73.024  32.321  1.00  0.00    -0.003 C 
ATOM      4  C   UNL     1     -10.929  71.888  33.035  1.00  0.00     0.004 C 
ENDBRANCH   2   3
ENDBRANCH   1   2
BRANCH   1   5
ATOM      5  C   UNL     1     -11.146  74.160  29.961  1.00  0.00     0.080 C 
BRANCH   5   6
ATOM      6  C   UNL     1     -10.130  74.037  28.860  1.00  0.00     0.155 C 
ATOM      7  O   UNL     1     -10.004  74.979  28.031  1.00  0.00    -0.295 OA
BRANCH   6   8
ATOM      8  C   UNL     1      -9.314  72.814  28.735  1.00  0.00     0.039 C 
ATOM      9  C   UNL     1      -9.159  71.951  29.736  1.00  0.00     0.012 C 
ENDBRANCH   6   8
ENDBRANCH   5   6
ENDBRANCH   1   5
TORSDOF 5
ENDMDL
MODEL 3
REMARK VINA RESULT:    -4.225      2.144      4.281
REMARK INTER + INTRA:          -6.005
REMARK INTER:                  -5.454
REMARK INTRA:                  -0.551
REMARK UNBOUND:                -0.545
REMARK SMILES C=CC(=O)CCCCC
REMARK SMILES IDX 6 1 7 2 8 3 9 4 5 5 3 6 4 7 2 8 1 9
REMARK H PARENT
REMARK Flexibility Score: inf
ROOT
ATOM      1  C   UNL     1     -11.898  72.027  29.250  1.00  0.00     0.008 C 
ENDROOT
BRANCH   1   2
ATOM      2  C   UNL     1     -11.813  73.167  28.224  1.00  0.00     0.000 C 
BRANCH   2   3
ATOM      3  C   UNL     1     -10.388  73.313  27.680  1.00  0.00    -0.003 C 
ATOM      4  C   UNL     1      -9.988  74.781  27.567  1.00  0.00     0.004 C 
ENDBRANCH   2   3
ENDBRANCH   1   2
BRANCH   1   5
ATOM      5  C   UNL     1     -10.825  72.145  30.342  1.00  0.00     0.080 C 
BRANCH   5   6
ATOM      6  C   UNL     1     -11.250  73.073  31.446  1.00  0.00     0.155 C 
ATOM      7  O   UNL     1     -12.008  72.639  32.356  1.00  0.00    -0.295 OA
BRANCH   6   8
ATOM      8  C   UNL     1     -10.810  74.481  31.445  1.00  0.00     0.039 C 
ATOM      9  C   UNL     1      -9.543  74.835  31.242  1.00  0.00     0.012 C 
ENDBRANCH   6   8
ENDBRANCH   5   6
ENDBRANCH   1   5
TORSDOF 5
ENDMDL
MODEL 4
REMARK VINA RESULT:    -4.173      1.641      3.462
REMARK INTER + INTRA:          -5.938
REMARK INTER:                  -5.365
REMARK INTRA:                  -0.573
REMARK UNBOUND:                -0.545
REMARK SMILES C=CC(=O)CCCCC
REMARK SMILES IDX 6 1 7 2 8 3 9 4 5 5 3 6 4 7 2 8 1 9
REMARK H PARENT
REMARK Flexibility Score: inf
ROOT
ATOM      1  C   UNL     1      -9.853  73.808  29.543  1.00  0.00     0.008 C 
ENDROOT
BRANCH   1   2
ATOM      2  C   UNL     1     -11.254  74.226  29.070  1.00  0.00     0.000 C 
BRANCH   2   3
ATOM      3  C   UNL     1     -12.029  73.024  28.520  1.00  0.00    -0.003 C 
ATOM      4  C   UNL     1     -11.705  71.754  29.300  1.00  0.00     0.004 C 
ENDBRANCH   2   3
ENDBRANCH   1   2
BRANCH   1   5
ATOM      5  C   UNL     1      -9.345  74.679  30.700  1.00  0.00     0.080 C 
BRANCH   5   6
ATOM      6  C   UNL     1     -10.293  74.668  31.866  1.00  0.00     0.155 C 
ATOM      7  O   UNL     1     -10.824  75.751  32.237  1.00  0.00    -0.295 OA
BRANCH   6   8
ATOM      8  C   UNL     1     -10.572  73.411  32.587  1.00  0.00     0.039 C 
ATOM      9  C   UNL     1     -11.808  72.961  32.788  1.00  0.00     0.012 C 
ENDBRANCH   6   8
ENDBRANCH   5   6
ENDBRANCH   1   5
TORSDOF 5
ENDMDL
MODEL 5
REMARK VINA RESULT:    -4.123      1.548      2.724
REMARK INTER + INTRA:          -5.873
REMARK INTER:                  -5.320
REMARK INTRA:                  -0.552
REMARK UNBOUND:                -0.545
REMARK SMILES C=CC(=O)CCCCC
REMARK SMILES IDX 6 1 7 2 8 3 9 4 5 5 3 6 4 7 2 8 1 9
REMARK H PARENT
REMARK Flexibility Score: inf
ROOT
ATOM      1  C   UNL     1     -10.702  72.354  30.312  1.00  0.00     0.008 C 
ENDROOT
BRANCH   1   2
ATOM      2  C   UNL     1     -11.219  73.256  31.444  1.00  0.00     0.000 C 
BRANCH   2   3
ATOM      3  C   UNL     1     -10.806  74.714  31.217  1.00  0.00    -0.003 C 
ATOM      4  C   UNL     1      -9.292  74.841  31.072  1.00  0.00     0.004 C 
ENDBRANCH   2   3
ENDBRANCH   1   2
BRANCH   1   5
ATOM      5  C   UNL     1     -11.779  72.070  29.256  1.00  0.00     0.080 C 
BRANCH   5   6
ATOM      6  C   UNL     1     -11.765  73.093  28.155  1.00  0.00     0.155 C 
ATOM      7  O   UNL     1     -12.858  73.576  27.750  1.00  0.00    -0.295 OA
BRANCH   6   8
ATOM      8  C   UNL     1     -10.490  73.502  27.534  1.00  0.00     0.039 C 
ATOM      9  C   UNL     1     -10.164  74.779  27.345  1.00  0.00     0.012 C 
ENDBRANCH   6   8
ENDBRANCH   5   6
ENDBRANCH   1   5
TORSDOF 5
ENDMDL
MODEL 6
REMARK VINA RESULT:    -4.011      1.854      3.607
REMARK INTER + INTRA:          -5.728
REMARK INTER:                  -5.274
REMARK INTRA:                  -0.455
REMARK UNBOUND:                -0.545
REMARK SMILES C=CC(=O)CCCCC
REMARK SMILES IDX 6 1 7 2 8 3 9 4 5 5 3 6 4 7 2 8 1 9
REMARK H PARENT
REMARK Flexibility Score: inf
ROOT
ATOM      1  C   UNL     1     -10.376  74.655  29.614  1.00  0.00     0.008 C 
ENDROOT
BRANCH   1   2
ATOM      2  C   UNL     1      -9.909  74.523  28.156  1.00  0.00     0.000 C 
BRANCH   2   3
ATOM      3  C   UNL     1     -11.007  73.908  27.282  1.00  0.00    -0.003 C 
ATOM      4  C   UNL     1     -12.234  73.544  28.112  1.00  0.00     0.004 C 
ENDBRANCH   2   3
ENDBRANCH   1   2
BRANCH   1   5
ATOM      5  C   UNL     1      -9.400  73.998  30.600  1.00  0.00     0.080 C 
BRANCH   5   6
ATOM      6  C   UNL     1      -9.667  72.527  30.754  1.00  0.00     0.155 C 
ATOM      7  O   UNL     1      -8.783  71.702  30.395  1.00  0.00    -0.295 OA
BRANCH   6   8
ATOM      8  C   UNL     1     -10.959  72.057  31.289  1.00  0.00     0.039 C 
ATOM      9  C   UNL     1     -11.487  72.541  32.411  1.00  0.00     0.012 C 
ENDBRANCH   6   8
ENDBRANCH   5   6
ENDBRANCH   1   5
TORSDOF 5
ENDMDL
MODEL 7
REMARK VINA RESULT:    -3.965      2.316      3.955
REMARK INTER + INTRA:          -5.668
REMARK INTER:                  -5.270
REMARK INTRA:                  -0.398
REMARK UNBOUND:                -0.545
REMARK SMILES C=CC(=O)CCCCC
REMARK SMILES IDX 6 1 7 2 8 3 9 4 5 5 3 6 4 7 2 8 1 9
REMARK H PARENT
REMARK Flexibility Score: inf
ROOT
ATOM      1  C   UNL     1      -9.605  74.499  29.577  1.00  0.00     0.008 C 
ENDROOT
BRANCH   1   2
ATOM      2  C   UNL     1      -9.874  74.683  28.076  1.00  0.00     0.000 C 
BRANCH   2   3
ATOM      3  C   UNL     1      -9.232  73.555  27.261  1.00  0.00    -0.003 C 
ATOM      4  C   UNL     1      -9.663  73.618  25.798  1.00  0.00     0.004 C 
ENDBRANCH   2   3
ENDBRANCH   1   2
BRANCH   1   5
ATOM      5  C   UNL     1     -10.889  74.583  30.414  1.00  0.00     0.080 C 
BRANCH   5   6
ATOM      6  C   UNL     1     -11.267  73.250  30.996  1.00  0.00     0.155 C 
ATOM      7  O   UNL     1     -11.696  73.195  32.181  1.00  0.00    -0.295 OA
BRANCH   6   8
ATOM      8  C   UNL     1     -11.106  72.018  30.199  1.00  0.00     0.039 C 
ATOM      9  C   UNL     1     -11.913  71.710  29.186  1.00  0.00     0.012 C 
ENDBRANCH   6   8
ENDBRANCH   5   6
ENDBRANCH   1   5
TORSDOF 5
ENDMDL
MODEL 8
REMARK VINA RESULT:    -3.888      1.962      4.337
REMARK INTER + INTRA:          -5.568
REMARK INTER:                  -5.417
REMARK INTRA:                  -0.151
REMARK UNBOUND:                -0.545
REMARK SMILES C=CC(=O)CCCCC
REMARK SMILES IDX 6 1 7 2 8 3 9 4 5 5 3 6 4 7 2 8 1 9
REMARK H PARENT
REMARK Flexibility Score: inf
ROOT
ATOM      1  C   UNL     1     -10.971  74.215  29.438  1.00  0.00     0.008 C 
ENDROOT
BRANCH   1   2
ATOM      2  C   UNL     1      -9.773  74.648  28.578  1.00  0.00     0.000 C 
BRANCH   2   3
ATOM      3  C   UNL     1     -10.167  74.756  27.101  1.00  0.00    -0.003 C 
ATOM      4  C   UNL     1      -9.230  73.936  26.219  1.00  0.00     0.004 C 
ENDBRANCH   2   3
ENDBRANCH   1   2
BRANCH   1   5
ATOM      5  C   UNL     1     -10.644  74.223  30.938  1.00  0.00     0.080 C 
BRANCH   5   6
ATOM      6  C   UNL     1     -10.498  72.831  31.485  1.00  0.00     0.155 C 
ATOM      7  O   UNL     1      -9.605  72.075  31.012  1.00  0.00    -0.295 OA
BRANCH   6   8
ATOM      8  C   UNL     1     -11.409  72.346  32.540  1.00  0.00     0.039 C 
ATOM      9  C   UNL     1     -11.952  73.158  33.444  1.00  0.00     0.012 C 
ENDBRANCH   6   8
ENDBRANCH   5   6
ENDBRANCH   1   5
TORSDOF 5
ENDMDL
MODEL 9
REMARK VINA RESULT:    -3.836      1.577      2.275
REMARK INTER + INTRA:          -5.502
REMARK INTER:                  -5.229
REMARK INTRA:                  -0.273
REMARK UNBOUND:                -0.545
REMARK SMILES C=CC(=O)CCCCC
REMARK SMILES IDX 6 1 7 2 8 3 9 4 5 5 3 6 4 7 2 8 1 9
REMARK H PARENT
REMARK Flexibility Score: inf
ROOT
ATOM      1  C   UNL     1     -11.625  74.022  30.016  1.00  0.00     0.008 C 
ENDROOT
BRANCH   1   2
ATOM      2  C   UNL     1     -10.812  73.735  31.288  1.00  0.00     0.000 C 
BRANCH   2   3
ATOM      3  C   UNL     1     -11.613  72.875  32.270  1.00  0.00    -0.003 C 
ATOM      4  C   UNL     1     -10.701  71.930  33.047  1.00  0.00     0.004 C 
ENDBRANCH   2   3
ENDBRANCH   1   2
BRANCH   1   5
ATOM      5  C   UNL     1     -11.272  73.064  28.870  1.00  0.00     0.080 C 
BRANCH   5   6
ATOM      6  C   UNL     1      -9.902  73.336  28.316  1.00  0.00     0.155 C 
ATOM      7  O   UNL     1      -9.005  72.457  28.434  1.00  0.00    -0.295 OA
BRANCH   6   8
ATOM      8  C   UNL     1      -9.604  74.629  27.670  1.00  0.00     0.039 C 
ATOM      9  C   UNL     1     -10.248  75.053  26.585  1.00  0.00     0.012 C 
ENDBRANCH   6   8
ENDBRANCH   5   6
ENDBRANCH   1   5
TORSDOF 5
ENDMDL
