MODEL 1
REMARK VINA RESULT:    -3.905      0.000      0.000
REMARK INTER + INTRA:          -5.237
REMARK INTER:                  -5.047
REMARK INTRA:                  -0.190
REMARK UNBOUND:                -0.190
REMARK SMILES CCCCCCC(=O)[O-]
REMARK SMILES IDX 5 1 6 2 7 3 8 4 9 5 4 6 3 7 2 8 1 9
REMARK H PARENT
REMARK Flexibility Score: inf
ROOT
ATOM      1  C   UNL     1     -42.425 -35.526  36.965  1.00  0.00     0.006 C 
ENDROOT
BRANCH   1   2
ATOM      2  C   UNL     1     -43.761 -35.462  36.212  1.00  0.00     0.053 C 
BRANCH   2   3
ATOM      3  C   UNL     1     -44.717 -36.513  36.686  1.00  0.00     0.041 C 
ATOM      4  O   UNL     1     -44.513 -37.725  36.411  1.00  0.00    -0.550 OA
ATOM      5  O   UNL     1     -45.851 -36.151  37.402  1.00  0.00    -0.550 OA
ENDBRANCH   2   3
ENDBRANCH   1   2
BRANCH   1   6
ATOM      6  C   UNL     1     -41.235 -35.757  36.017  1.00  0.00     0.000 C 
BRANCH   6   7
ATOM      7  C   UNL     1     -39.885 -35.749  36.751  1.00  0.00    -0.000 C 
BRANCH   7   8
ATOM      8  C   UNL     1     -39.967 -35.076  38.130  1.00  0.00    -0.003 C 
ATOM      9  C   UNL     1     -39.179 -35.864  39.172  1.00  0.00     0.004 C 
ENDBRANCH   7   8
ENDBRANCH   6   7
ENDBRANCH   1   6
TORSDOF 5
ENDMDL
MODEL 2
REMARK VINA RESULT:    -3.853      0.810      1.737
REMARK INTER + INTRA:          -5.170
REMARK INTER:                  -5.022
REMARK INTRA:                  -0.147
REMARK UNBOUND:                -0.190
REMARK SMILES CCCCCCC(=O)[O-]
REMARK SMILES IDX 5 1 6 2 7 3 8 4 9 5 4 6 3 7 2 8 1 9
REMARK H PARENT
REMARK Flexibility Score: inf
ROOT
ATOM      1  C   UNL     1     -43.809 -35.482  36.101  1.00  0.00     0.006 C 
ENDROOT
BRANCH   1   2
ATOM      2  C   UNL     1     -45.051 -35.657  36.985  1.00  0.00     0.053 C 
BRANCH   2   3
ATOM      3  C   UNL     1     -45.538 -37.074  36.985  1.00  0.00     0.041 C 
ATOM      4  O   UNL     1     -46.628 -37.369  37.544  1.00  0.00    -0.550 OA
ATOM      5  O   UNL     1     -44.772 -38.074  36.399  1.00  0.00    -0.550 OA
ENDBRANCH   2   3
ENDBRANCH   1   2
BRANCH   1   6
ATOM      6  C   UNL     1     -42.507 -35.480  36.922  1.00  0.00     0.000 C 
BRANCH   6   7
ATOM      7  C   UNL     1     -41.269 -35.792  36.067  1.00  0.00    -0.000 C 
BRANCH   7   8
ATOM      8  C   UNL     1     -39.955 -35.609  36.843  1.00  0.00    -0.003 C 
ATOM      9  C   UNL     1     -40.219 -35.086  38.251  1.00  0.00     0.004 C 
ENDBRANCH   7   8
ENDBRANCH   6   7
ENDBRANCH   1   6
TORSDOF 5
ENDMDL
MODEL 3
REMARK VINA RESULT:    -3.769      2.937      4.898
REMARK INTER + INTRA:          -5.061
REMARK INTER:                  -4.933
REMARK INTRA:                  -0.128
REMARK UNBOUND:                -0.190
REMARK SMILES CCCCCCC(=O)[O-]
REMARK SMILES IDX 5 1 6 2 7 3 8 4 9 5 4 6 3 7 2 8 1 9
REMARK H PARENT
REMARK Flexibility Score: inf
ROOT
ATOM      1  C   UNL     1     -42.763 -35.313  37.037  1.00  0.00     0.006 C 
ENDROOT
BRANCH   1   2
ATOM      2  C   UNL     1     -41.504 -35.695  36.248  1.00  0.00     0.053 C 
BRANCH   2   3
ATOM      3  C   UNL     1     -40.256 -35.236  36.936  1.00  0.00     0.041 C 
ATOM      4  O   UNL     1     -39.176 -35.864  36.774  1.00  0.00    -0.550 OA
ATOM      5  O   UNL     1     -40.292 -34.136  37.783  1.00  0.00    -0.550 OA
ENDBRANCH   2   3
ENDBRANCH   1   2
BRANCH   1   6
ATOM      6  C   UNL     1     -44.047 -35.497  36.209  1.00  0.00     0.000 C 
BRANCH   6   7
ATOM      7  C   UNL     1     -45.315 -35.500  37.076  1.00  0.00    -0.000 C 
BRANCH   7   8
ATOM      8  C   UNL     1     -45.839 -36.918  37.350  1.00  0.00    -0.003 C 
ATOM      9  C   UNL     1     -45.049 -37.956  36.559  1.00  0.00     0.004 C 
ENDBRANCH   7   8
ENDBRANCH   6   7
ENDBRANCH   1   6
TORSDOF 5
ENDMDL
MODEL 4
REMARK VINA RESULT:    -3.576      1.739      2.819
REMARK INTER + INTRA:          -4.812
REMARK INTER:                  -4.605
REMARK INTRA:                  -0.206
REMARK UNBOUND:                -0.190
REMARK SMILES CCCCCCC(=O)[O-]
REMARK SMILES IDX 5 1 6 2 7 3 8 4 9 5 4 6 3 7 2 8 1 9
REMARK H PARENT
REMARK Flexibility Score: inf
ROOT
ATOM      1  C   UNL     1     -44.764 -36.997  36.705  1.00  0.00     0.006 C 
ENDROOT
BRANCH   1   2
ATOM      2  C   UNL     1     -46.175 -36.906  37.301  1.00  0.00     0.053 C 
BRANCH   2   3
ATOM      3  C   UNL     1     -46.192 -36.109  38.569  1.00  0.00     0.041 C 
ATOM      4  O   UNL     1     -45.595 -36.535  39.593  1.00  0.00    -0.550 OA
ATOM      5  O   UNL     1     -46.896 -34.913  38.631  1.00  0.00    -0.550 OA
ENDBRANCH   2   3
ENDBRANCH   1   2
BRANCH   1   6
ATOM      6  C   UNL     1     -44.168 -35.610  36.408  1.00  0.00     0.000 C 
BRANCH   6   7
ATOM      7  C   UNL     1     -42.785 -35.411  37.046  1.00  0.00    -0.000 C 
BRANCH   7   8
ATOM      8  C   UNL     1     -41.636 -35.753  36.085  1.00  0.00    -0.003 C 
ATOM      9  C   UNL     1     -40.281 -35.540  36.752  1.00  0.00     0.004 C 
ENDBRANCH   7   8
ENDBRANCH   6   7
ENDBRANCH   1   6
TORSDOF 5
ENDMDL
MODEL 5
REMARK VINA RESULT:    -3.536      1.634      2.155
REMARK INTER + INTRA:          -4.759
REMARK INTER:                  -4.603
REMARK INTRA:                  -0.156
REMARK UNBOUND:                -0.190
REMARK SMILES CCCCCCC(=O)[O-]
REMARK SMILES IDX 5 1 6 2 7 3 8 4 9 5 4 6 3 7 2 8 1 9
REMARK H PARENT
REMARK Flexibility Score: inf
ROOT
ATOM      1  C   UNL     1     -43.680 -35.493  36.106  1.00  0.00     0.006 C 
ENDROOT
BRANCH   1   2
ATOM      2  C   UNL     1     -44.896 -35.856  36.969  1.00  0.00     0.053 C 
BRANCH   2   3
ATOM      3  C   UNL     1     -45.486 -34.650  37.633  1.00  0.00     0.041 C 
ATOM      4  O   UNL     1     -45.736 -34.665  38.867  1.00  0.00    -0.550 OA
ATOM      5  O   UNL     1     -45.792 -33.521  36.883  1.00  0.00    -0.550 OA
ENDBRANCH   2   3
ENDBRANCH   1   2
BRANCH   1   6
ATOM      6  C   UNL     1     -42.372 -35.491  36.917  1.00  0.00     0.000 C 
BRANCH   6   7
ATOM      7  C   UNL     1     -41.143 -35.821  36.057  1.00  0.00    -0.000 C 
BRANCH   7   8
ATOM      8  C   UNL     1     -39.820 -35.563  36.795  1.00  0.00    -0.003 C 
ATOM      9  C   UNL     1     -40.070 -35.176  38.249  1.00  0.00     0.004 C 
ENDBRANCH   7   8
ENDBRANCH   6   7
ENDBRANCH   1   6
TORSDOF 5
ENDMDL
MODEL 6
REMARK VINA RESULT:    -3.531      3.236      5.101
REMARK INTER + INTRA:          -4.753
REMARK INTER:                  -4.607
REMARK INTRA:                  -0.145
REMARK UNBOUND:                -0.190
REMARK SMILES CCCCCCC(=O)[O-]
REMARK SMILES IDX 5 1 6 2 7 3 8 4 9 5 4 6 3 7 2 8 1 9
REMARK H PARENT
REMARK Flexibility Score: inf
ROOT
ATOM      1  C   UNL     1     -40.260 -34.879  37.059  1.00  0.00     0.006 C 
ENDROOT
BRANCH   1   2
ATOM      2  C   UNL     1     -39.311 -35.861  37.758  1.00  0.00     0.053 C 
BRANCH   2   3
ATOM      3  C   UNL     1     -39.368 -35.723  39.248  1.00  0.00     0.041 C 
ATOM      4  O   UNL     1     -39.800 -34.661  39.770  1.00  0.00    -0.550 OA
ATOM      5  O   UNL     1     -38.912 -36.753  40.062  1.00  0.00    -0.550 OA
ENDBRANCH   2   3
ENDBRANCH   1   2
BRANCH   1   6
ATOM      6  C   UNL     1     -41.471 -35.590  36.430  1.00  0.00     0.000 C 
BRANCH   6   7
ATOM      7  C   UNL     1     -42.782 -35.297  37.177  1.00  0.00    -0.000 C 
BRANCH   7   8
ATOM      8  C   UNL     1     -44.025 -35.558  36.313  1.00  0.00    -0.003 C 
ATOM      9  C   UNL     1     -45.182 -34.657  36.733  1.00  0.00     0.004 C 
ENDBRANCH   7   8
ENDBRANCH   6   7
ENDBRANCH   1   6
TORSDOF 5
ENDMDL
MODEL 7
REMARK VINA RESULT:    -3.447      1.410      2.103
REMARK INTER + INTRA:          -4.645
REMARK INTER:                  -4.437
REMARK INTRA:                  -0.208
REMARK UNBOUND:                -0.190
REMARK SMILES CCCCCCC(=O)[O-]
REMARK SMILES IDX 5 1 6 2 7 3 8 4 9 5 4 6 3 7 2 8 1 9
REMARK H PARENT
REMARK Flexibility Score: inf
ROOT
ATOM      1  C   UNL     1     -41.635 -35.764  36.177  1.00  0.00     0.006 C 
ENDROOT
BRANCH   1   2
ATOM      2  C   UNL     1     -42.769 -35.504  37.178  1.00  0.00     0.053 C 
BRANCH   2   3
ATOM      3  C   UNL     1     -44.113 -35.775  36.576  1.00  0.00     0.041 C 
ATOM      4  O   UNL     1     -44.851 -34.818  36.218  1.00  0.00    -0.550 OA
ATOM      5  O   UNL     1     -44.567 -37.081  36.440  1.00  0.00    -0.550 OA
ENDBRANCH   2   3
ENDBRANCH   1   2
BRANCH   1   6
ATOM      6  C   UNL     1     -40.266 -35.321  36.722  1.00  0.00     0.000 C 
BRANCH   6   7
ATOM      7  C   UNL     1     -40.348 -34.779  38.158  1.00  0.00    -0.000 C 
BRANCH   7   8
ATOM      8  C   UNL     1     -40.126 -33.261  38.230  1.00  0.00    -0.003 C 
ATOM      9  C   UNL     1     -41.312 -32.564  38.890  1.00  0.00     0.004 C 
ENDBRANCH   7   8
ENDBRANCH   6   7
ENDBRANCH   1   6
TORSDOF 5
ENDMDL
MODEL 8
REMARK VINA RESULT:    -3.446      3.555      5.175
REMARK INTER + INTRA:          -4.644
REMARK INTER:                  -4.246
REMARK INTRA:                  -0.398
REMARK UNBOUND:                -0.190
REMARK SMILES CCCCCCC(=O)[O-]
REMARK SMILES IDX 5 1 6 2 7 3 8 4 9 5 4 6 3 7 2 8 1 9
REMARK H PARENT
REMARK Flexibility Score: inf
ROOT
ATOM      1  C   UNL     1     -44.400 -36.629  36.660  1.00  0.00     0.006 C 
ENDROOT
BRANCH   1   2
ATOM      2  C   UNL     1     -44.821 -35.162  36.500  1.00  0.00     0.053 C 
BRANCH   2   3
ATOM      3  C   UNL     1     -44.428 -34.339  37.688  1.00  0.00     0.041 C 
ATOM      4  O   UNL     1     -44.766 -33.127  37.758  1.00  0.00    -0.550 OA
ATOM      5  O   UNL     1     -43.661 -34.899  38.702  1.00  0.00    -0.550 OA
ENDBRANCH   2   3
ENDBRANCH   1   2
BRANCH   1   6
ATOM      6  C   UNL     1     -45.610 -37.570  36.796  1.00  0.00     0.000 C 
BRANCH   6   7
ATOM      7  C   UNL     1     -46.092 -37.707  38.248  1.00  0.00    -0.000 C 
BRANCH   7   8
ATOM      8  C   UNL     1     -47.507 -37.145  38.455  1.00  0.00    -0.003 C 
ATOM      9  C   UNL     1     -47.469 -35.847  39.256  1.00  0.00     0.004 C 
ENDBRANCH   7   8
ENDBRANCH   6   7
ENDBRANCH   1   6
TORSDOF 5
ENDMDL
MODEL 9
REMARK VINA RESULT:    -3.404      1.675      2.488
REMARK INTER + INTRA:          -4.589
REMARK INTER:                  -4.245
REMARK INTRA:                  -0.344
REMARK UNBOUND:                -0.190
REMARK SMILES CCCCCCC(=O)[O-]
REMARK SMILES IDX 5 1 6 2 7 3 8 4 9 5 4 6 3 7 2 8 1 9
REMARK H PARENT
REMARK Flexibility Score: inf
ROOT
ATOM      1  C   UNL     1     -43.436 -33.836  38.587  1.00  0.00     0.006 C 
ENDROOT
BRANCH   1   2
ATOM      2  C   UNL     1     -43.821 -35.306  38.374  1.00  0.00     0.053 C 
BRANCH   2   3
ATOM      3  C   UNL     1     -44.460 -35.526  37.037  1.00  0.00     0.041 C 
ATOM      4  O   UNL     1     -45.029 -34.572  36.444  1.00  0.00    -0.550 OA
ATOM      5  O   UNL     1     -44.456 -36.791  36.462  1.00  0.00    -0.550 OA
ENDBRANCH   2   3
ENDBRANCH   1   2
BRANCH   1   6
ATOM      6  C   UNL     1     -41.911 -33.633  38.624  1.00  0.00     0.000 C 
BRANCH   6   7
ATOM      7  C   UNL     1     -41.136 -34.954  38.502  1.00  0.00    -0.000 C 
BRANCH   7   8
ATOM      8  C   UNL     1     -40.240 -35.000  37.254  1.00  0.00    -0.003 C 
ATOM      9  C   UNL     1     -40.879 -35.838  36.151  1.00  0.00     0.004 C 
ENDBRANCH   7   8
ENDBRANCH   6   7
ENDBRANCH   1   6
TORSDOF 5
ENDMDL
