MODEL 1
REMARK VINA RESULT:    -4.166      0.000      0.000
REMARK INTER + INTRA:          -4.904
REMARK INTER:                  -4.653
REMARK INTRA:                  -0.251
REMARK UNBOUND:                -0.251
REMARK SMILES CC=C(C)C=CC=C(C)C
REMARK SMILES IDX 5 1 6 2 3 3 1 4 2 5 4 6 7 7 8 8 9 9 10 10
REMARK H PARENT
REMARK Flexibility Score: inf
ROOT
ATOM      1  C   UNL     1      17.109  65.075  16.059  1.00  0.00     0.003 C 
ATOM      2  C   UNL     1      17.920  64.644  15.084  1.00  0.00     0.000 C 
ENDROOT
BRANCH   1   3
ATOM      3  C   UNL     1      15.634  65.225  15.891  1.00  0.00    -0.055 C 
ATOM      4  C   UNL     1      15.341  65.813  18.320  1.00  0.00     0.036 C 
ATOM      5  C   UNL     1      14.842  65.564  16.928  1.00  0.00    -0.027 C 
ATOM      6  C   UNL     1      15.002  65.022  14.535  1.00  0.00     0.044 C 
ENDBRANCH   1   3
BRANCH   2   7
ATOM      7  C   UNL     1      19.376  64.517  15.315  1.00  0.00    -0.001 C 
ATOM      8  C   UNL     1      20.130  63.517  14.819  1.00  0.00    -0.076 C 
ATOM      9  C   UNL     1      19.542  62.419  13.969  1.00  0.00     0.039 C 
ATOM     10  C   UNL     1      21.601  63.504  15.131  1.00  0.00     0.039 C 
ENDBRANCH   2   7
TORSDOF 2
ENDMDL
MODEL 2
REMARK VINA RESULT:    -4.129      1.341      5.033
REMARK INTER + INTRA:          -4.863
REMARK INTER:                  -4.534
REMARK INTRA:                  -0.330
REMARK UNBOUND:                -0.251
REMARK SMILES CC=C(C)C=CC=C(C)C
REMARK SMILES IDX 5 1 6 2 3 3 1 4 2 5 4 6 7 7 8 8 9 9 10 10
REMARK H PARENT
REMARK Flexibility Score: inf
ROOT
ATOM      1  C   UNL     1      18.712  63.834  14.944  1.00  0.00     0.003 C 
ATOM      2  C   UNL     1      17.984  64.949  15.089  1.00  0.00     0.000 C 
ENDROOT
BRANCH   1   3
ATOM      3  C   UNL     1      20.195  63.798  15.109  1.00  0.00    -0.055 C 
ATOM      4  C   UNL     1      19.987  63.448  17.592  1.00  0.00     0.036 C 
ATOM      5  C   UNL     1      20.761  63.619  16.320  1.00  0.00    -0.027 C 
ATOM      6  C   UNL     1      21.094  63.937  13.904  1.00  0.00     0.044 C 
ENDBRANCH   1   3
BRANCH   2   7
ATOM      7  C   UNL     1      16.515  64.918  14.912  1.00  0.00    -0.001 C 
ATOM      8  C   UNL     1      15.637  64.889  15.933  1.00  0.00    -0.076 C 
ATOM      9  C   UNL     1      16.085  64.885  17.372  1.00  0.00     0.039 C 
ATOM     10  C   UNL     1      14.167  64.858  15.615  1.00  0.00     0.039 C 
ENDBRANCH   2   7
TORSDOF 2
ENDMDL
MODEL 3
REMARK VINA RESULT:    -4.000      3.000      7.229
REMARK INTER + INTRA:          -4.719
REMARK INTER:                  -4.457
REMARK INTRA:                  -0.261
REMARK UNBOUND:                -0.251
REMARK SMILES CC=C(C)C=CC=C(C)C
REMARK SMILES IDX 5 1 6 2 3 3 1 4 2 5 4 6 7 7 8 8 9 9 10 10
REMARK H PARENT
REMARK Flexibility Score: inf
ROOT
ATOM      1  C   UNL     1      23.423  62.717  14.702  1.00  0.00     0.003 C 
ATOM      2  C   UNL     1      22.164  62.743  14.247  1.00  0.00     0.000 C 
ENDROOT
BRANCH   1   3
ATOM      3  C   UNL     1      24.375  61.604  14.415  1.00  0.00    -0.055 C 
ATOM      4  C   UNL     1      24.629  61.088  16.865  1.00  0.00     0.036 C 
ATOM      5  C   UNL     1      24.915  60.870  15.410  1.00  0.00    -0.027 C 
ATOM      6  C   UNL     1      24.734  61.264  12.989  1.00  0.00     0.044 C 
ENDBRANCH   1   3
BRANCH   2   7
ATOM      7  C   UNL     1      21.269  63.877  14.567  1.00  0.00    -0.001 C 
ATOM      8  C   UNL     1      19.928  63.831  14.453  1.00  0.00    -0.076 C 
ATOM      9  C   UNL     1      19.210  62.593  13.978  1.00  0.00     0.039 C 
ATOM     10  C   UNL     1      19.134  65.057  14.811  1.00  0.00     0.039 C 
ENDBRANCH   2   7
TORSDOF 2
ENDMDL
MODEL 4
REMARK VINA RESULT:    -3.949      1.033      5.347
REMARK INTER + INTRA:          -4.662
REMARK INTER:                  -4.401
REMARK INTRA:                  -0.261
REMARK UNBOUND:                -0.251
REMARK SMILES CC=C(C)C=CC=C(C)C
REMARK SMILES IDX 5 1 6 2 3 3 1 4 2 5 4 6 7 7 8 8 9 9 10 10
REMARK H PARENT
REMARK Flexibility Score: inf
ROOT
ATOM      1  C   UNL     1      18.151  64.472  15.096  1.00  0.00     0.003 C 
ATOM      2  C   UNL     1      17.235  65.443  14.991  1.00  0.00     0.000 C 
ENDROOT
BRANCH   1   3
ATOM      3  C   UNL     1      19.611  64.738  15.258  1.00  0.00    -0.055 C 
ATOM      4  C   UNL     1      20.210  62.642  14.001  1.00  0.00     0.036 C 
ATOM      5  C   UNL     1      20.537  63.898  14.753  1.00  0.00    -0.027 C 
ATOM      6  C   UNL     1      20.079  65.980  15.978  1.00  0.00     0.044 C 
ENDBRANCH   1   3
BRANCH   2   7
ATOM      7  C   UNL     1      15.801  65.113  14.832  1.00  0.00    -0.001 C 
ATOM      8  C   UNL     1      14.956  64.921  15.862  1.00  0.00    -0.076 C 
ATOM      9  C   UNL     1      15.408  65.028  17.296  1.00  0.00     0.039 C 
ATOM     10  C   UNL     1      13.520  64.588  15.562  1.00  0.00     0.039 C 
ENDBRANCH   2   7
TORSDOF 2
ENDMDL
MODEL 5
REMARK VINA RESULT:    -3.939      1.250      5.575
REMARK INTER + INTRA:          -4.650
REMARK INTER:                  -4.375
REMARK INTRA:                  -0.275
REMARK UNBOUND:                -0.251
REMARK SMILES CC=C(C)C=CC=C(C)C
REMARK SMILES IDX 5 1 6 2 3 3 1 4 2 5 4 6 7 7 8 8 9 9 10 10
REMARK H PARENT
REMARK Flexibility Score: inf
ROOT
ATOM      1  C   UNL     1      19.613  63.707  15.520  1.00  0.00     0.003 C 
ATOM      2  C   UNL     1      18.701  64.631  15.846  1.00  0.00     0.000 C 
ENDROOT
BRANCH   1   3
ATOM      3  C   UNL     1      20.847  63.455  16.321  1.00  0.00    -0.055 C 
ATOM      4  C   UNL     1      22.244  63.227  14.240  1.00  0.00     0.036 C 
ATOM      5  C   UNL     1      22.038  63.241  15.725  1.00  0.00    -0.027 C 
ATOM      6  C   UNL     1      20.785  63.461  17.829  1.00  0.00     0.044 C 
ENDBRANCH   1   3
BRANCH   2   7
ATOM      7  C   UNL     1      17.498  64.832  15.009  1.00  0.00    -0.001 C 
ATOM      8  C   UNL     1      16.250  64.944  15.502  1.00  0.00    -0.076 C 
ATOM      9  C   UNL     1      15.967  64.872  16.981  1.00  0.00     0.039 C 
ATOM     10  C   UNL     1      15.111  65.144  14.540  1.00  0.00     0.039 C 
ENDBRANCH   2   7
TORSDOF 2
ENDMDL
MODEL 6
REMARK VINA RESULT:    -3.937      1.401      2.420
REMARK INTER + INTRA:          -4.648
REMARK INTER:                  -4.397
REMARK INTRA:                  -0.251
REMARK UNBOUND:                -0.251
REMARK SMILES CC=C(C)C=CC=C(C)C
REMARK SMILES IDX 5 1 6 2 3 3 1 4 2 5 4 6 7 7 8 8 9 9 10 10
REMARK H PARENT
REMARK Flexibility Score: inf
ROOT
ATOM      1  C   UNL     1      16.850  65.050  16.506  1.00  0.00     0.003 C 
ATOM      2  C   UNL     1      18.074  64.952  17.040  1.00  0.00     0.000 C 
ENDROOT
BRANCH   1   3
ATOM      3  C   UNL     1      15.645  65.455  17.289  1.00  0.00    -0.055 C 
ATOM      4  C   UNL     1      14.104  64.714  15.443  1.00  0.00     0.036 C 
ATOM      5  C   UNL     1      14.401  65.294  16.793  1.00  0.00    -0.027 C 
ATOM      6  C   UNL     1      15.801  66.035  18.674  1.00  0.00     0.044 C 
ENDBRANCH   1   3
BRANCH   2   7
ATOM      7  C   UNL     1      19.229  64.545  16.210  1.00  0.00    -0.001 C 
ATOM      8  C   UNL     1      20.219  63.742  16.643  1.00  0.00    -0.076 C 
ATOM      9  C   UNL     1      20.236  63.177  18.040  1.00  0.00     0.039 C 
ATOM     10  C   UNL     1      21.338  63.406  15.695  1.00  0.00     0.039 C 
ENDBRANCH   2   7
TORSDOF 2
ENDMDL
MODEL 7
REMARK VINA RESULT:    -3.897      1.421      2.223
REMARK INTER + INTRA:          -4.603
REMARK INTER:                  -4.257
REMARK INTRA:                  -0.346
REMARK UNBOUND:                -0.251
REMARK SMILES CC=C(C)C=CC=C(C)C
REMARK SMILES IDX 5 1 6 2 3 3 1 4 2 5 4 6 7 7 8 8 9 9 10 10
REMARK H PARENT
REMARK Flexibility Score: inf
ROOT
ATOM      1  C   UNL     1      18.645  64.614  14.773  1.00  0.00     0.003 C 
ATOM      2  C   UNL     1      19.138  63.378  14.627  1.00  0.00     0.000 C 
ENDROOT
BRANCH   1   3
ATOM      3  C   UNL     1      17.336  64.901  15.430  1.00  0.00    -0.055 C 
ATOM      4  C   UNL     1      18.464  65.442  17.613  1.00  0.00     0.036 C 
ATOM      5  C   UNL     1      17.269  65.280  16.723  1.00  0.00    -0.027 C 
ATOM      6  C   UNL     1      16.054  64.795  14.641  1.00  0.00     0.044 C 
ENDBRANCH   1   3
BRANCH   2   7
ATOM      7  C   UNL     1      20.444  63.160  13.966  1.00  0.00    -0.001 C 
ATOM      8  C   UNL     1      21.623  63.154  14.617  1.00  0.00    -0.076 C 
ATOM      9  C   UNL     1      21.715  63.374  16.105  1.00  0.00     0.039 C 
ATOM     10  C   UNL     1      22.880  62.921  13.824  1.00  0.00     0.039 C 
ENDBRANCH   2   7
TORSDOF 2
ENDMDL
MODEL 8
REMARK VINA RESULT:    -3.844      3.677      5.714
REMARK INTER + INTRA:          -4.545
REMARK INTER:                  -4.191
REMARK INTRA:                  -0.354
REMARK UNBOUND:                -0.251
REMARK SMILES CC=C(C)C=CC=C(C)C
REMARK SMILES IDX 5 1 6 2 3 3 1 4 2 5 4 6 7 7 8 8 9 9 10 10
REMARK H PARENT
REMARK Flexibility Score: inf
ROOT
ATOM      1  C   UNL     1      20.596  63.876  15.942  1.00  0.00     0.003 C 
ATOM      2  C   UNL     1      20.320  63.243  17.090  1.00  0.00     0.000 C 
ENDROOT
BRANCH   1   3
ATOM      3  C   UNL     1      20.669  63.184  14.622  1.00  0.00    -0.055 C 
ATOM      4  C   UNL     1      23.185  63.219  14.658  1.00  0.00     0.036 C 
ATOM      5  C   UNL     1      21.855  62.889  14.050  1.00  0.00    -0.027 C 
ATOM      6  C   UNL     1      19.402  62.777  13.909  1.00  0.00     0.044 C 
ENDBRANCH   1   3
BRANCH   2   7
ATOM      7  C   UNL     1      20.263  63.988  18.367  1.00  0.00    -0.001 C 
ATOM      8  C   UNL     1      21.236  63.959  19.298  1.00  0.00    -0.076 C 
ATOM      9  C   UNL     1      22.492  63.147  19.113  1.00  0.00     0.039 C 
ATOM     10  C   UNL     1      21.051  64.762  20.556  1.00  0.00     0.039 C 
ENDBRANCH   2   7
TORSDOF 2
ENDMDL
MODEL 9
REMARK VINA RESULT:    -3.842      2.731      4.708
REMARK INTER + INTRA:          -4.543
REMARK INTER:                  -4.206
REMARK INTRA:                  -0.336
REMARK UNBOUND:                -0.251
REMARK SMILES CC=C(C)C=CC=C(C)C
REMARK SMILES IDX 5 1 6 2 3 3 1 4 2 5 4 6 7 7 8 8 9 9 10 10
REMARK H PARENT
REMARK Flexibility Score: inf
ROOT
ATOM      1  C   UNL     1      20.647  63.344  16.517  1.00  0.00     0.003 C 
ATOM      2  C   UNL     1      21.946  63.671  16.503  1.00  0.00     0.000 C 
ENDROOT
BRANCH   1   3
ATOM      3  C   UNL     1      19.579  64.205  15.931  1.00  0.00    -0.055 C 
ATOM      4  C   UNL     1      19.465  62.784  13.858  1.00  0.00     0.036 C 
ATOM      5  C   UNL     1      19.048  63.937  14.720  1.00  0.00    -0.027 C 
ATOM      6  C   UNL     1      19.052  65.390  16.704  1.00  0.00     0.044 C 
ENDBRANCH   1   3
BRANCH   2   7
ATOM      7  C   UNL     1      22.957  62.772  17.102  1.00  0.00    -0.001 C 
ATOM      8  C   UNL     1      23.872  62.089  16.387  1.00  0.00    -0.076 C 
ATOM      9  C   UNL     1      23.945  62.185  14.884  1.00  0.00     0.039 C 
ATOM     10  C   UNL     1      24.844  61.206  17.121  1.00  0.00     0.039 C 
ENDBRANCH   2   7
TORSDOF 2
ENDMDL
