MODEL 1
REMARK VINA RESULT:    -9.040      0.000      0.000
REMARK INTER + INTRA:         -12.076
REMARK INTER:                 -11.418
REMARK INTRA:                  -0.658
REMARK UNBOUND:                -0.658
REMARK SMILES CC(C)[C@@H](C)C=C[C@@H](C)[C@H]1CC[C@@H]2[C@]1(C)CC[C@H]1[C@@]23C=C[C@@]2(C[C@H](O)CC[C@@]12C)OO3
REMARK SMILES IDX 8 1 9 2 7 3 6 4 4 5 5 6 2 7 1 8 3 9 10 10 11 11 14 12 12 13
REMARK SMILES IDX 13 14 16 15 15 16 19 17 17 18 18 19 20 20 31 21 28 22 21 23
REMARK SMILES IDX 30 24 22 25 27 26 29 27 23 28 26 29 24 30 25 31
REMARK H PARENT 25 32
REMARK Flexibility Score: inf
ROOT
ATOM      1  C   UNL     1       4.761  -1.384 -25.093  1.00  0.00     0.012 C 
ATOM      2  C   UNL     1       3.780  -1.944 -26.131  1.00  0.00     0.012 C 
ENDROOT
BRANCH   1   3
ATOM      3  C   UNL     1       4.970  -2.449 -24.030  1.00  0.00    -0.028 C 
ATOM      4  C   UNL     1       4.012  -2.992 -23.252  1.00  0.00    -0.028 C 
BRANCH   4   5
ATOM      5  C   UNL     1       2.539  -2.611 -23.275  1.00  0.00     0.011 C 
ATOM      6  C   UNL     1       2.144  -1.943 -21.948  1.00  0.00     0.012 C 
BRANCH   5   7
ATOM      7  C   UNL     1       1.608  -3.812 -23.620  1.00  0.00    -0.011 C 
ATOM      8  C   UNL     1       0.133  -3.604 -23.227  1.00  0.00     0.008 C 
ATOM      9  C   UNL     1       2.139  -5.123 -23.021  1.00  0.00     0.008 C 
ENDBRANCH   5   7
ENDBRANCH   4   5
ENDBRANCH   1   3
BRANCH   1  10
ATOM     10  C   UNL     1       4.238  -0.078 -24.414  1.00  0.00     0.002 C 
ATOM     11  C   UNL     1       5.154   0.365 -23.236  1.00  0.00     0.005 C 
ATOM     12  C   UNL     1       4.102   1.214 -25.279  1.00  0.00    -0.023 C 
ATOM     13  C   UNL     1       5.107   1.900 -23.172  1.00  0.00     0.008 C 
ATOM     14  C   UNL     1       4.009   2.264 -24.153  1.00  0.00     0.035 C 
ATOM     15  C   UNL     1       2.798   1.330 -26.116  1.00  0.00     0.008 C 
ATOM     16  C   UNL     1       5.354   1.380 -26.197  1.00  0.00     0.012 C 
ATOM     17  C   UNL     1       3.882   3.725 -24.629  1.00  0.00     0.128 C 
ATOM     18  C   UNL     1       2.613   2.758 -26.686  1.00  0.00     0.008 C 
ATOM     19  C   UNL     1       2.652   3.859 -25.585  1.00  0.00     0.038 C 
ATOM     20  C   UNL     1       3.660   4.687 -23.475  1.00  0.00     0.010 C 
ATOM     21  O   UNL     1       5.043   4.185 -25.317  1.00  0.00    -0.224 OA
ATOM     22  C   UNL     1       2.566   5.371 -26.084  1.00  0.00     0.010 C 
ATOM     23  C   UNL     1       3.589   5.964 -23.861  1.00  0.00     0.011 C 
ATOM     24  O   UNL     1       4.964   5.484 -25.717  1.00  0.00    -0.224 OA
ATOM     25  C   UNL     1       3.738   6.138 -25.360  1.00  0.00     0.130 C 
ATOM     26  C   UNL     1       2.757   5.544 -27.623  1.00  0.00     0.013 C 
ATOM     27  C   UNL     1       1.170   5.931 -25.680  1.00  0.00     0.015 C 
ATOM     28  C   UNL     1       3.822   7.622 -25.766  1.00  0.00     0.075 C 
ATOM     29  C   UNL     1       2.853   7.020 -28.056  1.00  0.00     0.032 C 
ATOM     30  C   UNL     1       3.964   7.769 -27.295  1.00  0.00     0.117 C 
BRANCH  30  31
ATOM     31  O   UNL     1       3.986   9.125 -27.660  1.00  0.00    -0.393 OA
ATOM     32  H   UNL     1       3.909   9.663 -26.830  1.00  0.00     0.210 HD
ENDBRANCH  30  31
ENDBRANCH   1  10
TORSDOF 5
ENDMDL
MODEL 2
REMARK VINA RESULT:    -8.428      2.581      7.945
REMARK INTER + INTRA:         -11.303
REMARK INTER:                 -10.793
REMARK INTRA:                  -0.511
REMARK UNBOUND:                -0.658
REMARK SMILES CC(C)[C@@H](C)C=C[C@@H](C)[C@H]1CC[C@@H]2[C@]1(C)CC[C@H]1[C@@]23C=C[C@@]2(C[C@H](O)CC[C@@]12C)OO3
REMARK SMILES IDX 8 1 9 2 7 3 6 4 4 5 5 6 2 7 1 8 3 9 10 10 11 11 14 12 12 13
REMARK SMILES IDX 13 14 16 15 15 16 19 17 17 18 18 19 20 20 31 21 28 22 21 23
REMARK SMILES IDX 30 24 22 25 27 26 29 27 23 28 26 29 24 30 25 31
REMARK H PARENT 25 32
REMARK Flexibility Score: inf
ROOT
ATOM      1  C   UNL     1       4.995   5.804 -23.983  1.00  0.00     0.012 C 
ATOM      2  C   UNL     1       5.060   6.384 -22.564  1.00  0.00     0.012 C 
ENDROOT
BRANCH   1   3
ATOM      3  C   UNL     1       3.550   5.877 -24.447  1.00  0.00    -0.028 C 
ATOM      4  C   UNL     1       3.126   6.269 -25.665  1.00  0.00    -0.028 C 
BRANCH   4   5
ATOM      5  C   UNL     1       4.024   6.745 -26.797  1.00  0.00     0.011 C 
ATOM      6  C   UNL     1       3.636   8.172 -27.218  1.00  0.00     0.012 C 
BRANCH   5   7
ATOM      7  C   UNL     1       4.041   5.766 -28.010  1.00  0.00    -0.011 C 
ATOM      8  C   UNL     1       2.791   4.874 -28.123  1.00  0.00     0.008 C 
ATOM      9  C   UNL     1       5.313   4.905 -28.017  1.00  0.00     0.008 C 
ENDBRANCH   5   7
ENDBRANCH   4   5
ENDBRANCH   1   3
BRANCH   1  10
ATOM     10  C   UNL     1       5.480   4.321 -24.050  1.00  0.00     0.002 C 
ATOM     11  C   UNL     1       6.418   3.967 -22.858  1.00  0.00     0.005 C 
ATOM     12  C   UNL     1       4.415   3.181 -24.029  1.00  0.00    -0.023 C 
ATOM     13  C   UNL     1       6.198   2.483 -22.528  1.00  0.00     0.008 C 
ATOM     14  C   UNL     1       5.325   1.989 -23.666  1.00  0.00     0.035 C 
ATOM     15  C   UNL     1       3.757   2.849 -25.397  1.00  0.00     0.008 C 
ATOM     16  C   UNL     1       3.319   3.490 -22.960  1.00  0.00     0.012 C 
ATOM     17  C   UNL     1       4.603   0.635 -23.526  1.00  0.00     0.128 C 
ATOM     18  C   UNL     1       2.958   1.523 -25.337  1.00  0.00     0.008 C 
ATOM     19  C   UNL     1       3.816   0.322 -24.841  1.00  0.00     0.038 C 
ATOM     20  C   UNL     1       5.574  -0.512 -23.302  1.00  0.00     0.010 C 
ATOM     21  O   UNL     1       3.689   0.604 -22.433  1.00  0.00    -0.224 OA
ATOM     22  C   UNL     1       3.058  -1.068 -24.654  1.00  0.00     0.010 C 
ATOM     23  C   UNL     1       4.968  -1.690 -23.136  1.00  0.00     0.011 C 
ATOM     24  O   UNL     1       3.066  -0.595 -22.272  1.00  0.00    -0.224 OA
ATOM     25  C   UNL     1       3.457  -1.595 -23.222  1.00  0.00     0.130 C 
ATOM     26  C   UNL     1       1.502  -0.955 -24.708  1.00  0.00     0.013 C 
ATOM     27  C   UNL     1       3.535  -2.031 -25.781  1.00  0.00     0.015 C 
ATOM     28  C   UNL     1       2.771  -2.928 -22.863  1.00  0.00     0.075 C 
ATOM     29  C   UNL     1       0.790  -2.272 -24.344  1.00  0.00     0.032 C 
ATOM     30  C   UNL     1       1.237  -2.804 -22.968  1.00  0.00     0.117 C 
BRANCH  30  31
ATOM     31  O   UNL     1       0.623  -4.037 -22.692  1.00  0.00    -0.393 OA
ATOM     32  H   UNL     1      -0.356  -3.881 -22.636  1.00  0.00     0.210 HD
ENDBRANCH  30  31
ENDBRANCH   1  10
TORSDOF 5
ENDMDL
MODEL 3
REMARK VINA RESULT:    -8.387      2.551      8.035
REMARK INTER + INTRA:         -11.250
REMARK INTER:                  -9.883
REMARK INTRA:                  -1.367
REMARK UNBOUND:                -0.658
REMARK SMILES CC(C)[C@@H](C)C=C[C@@H](C)[C@H]1CC[C@@H]2[C@]1(C)CC[C@H]1[C@@]23C=C[C@@]2(C[C@H](O)CC[C@@]12C)OO3
REMARK SMILES IDX 8 1 9 2 7 3 6 4 4 5 5 6 2 7 1 8 3 9 10 10 11 11 14 12 12 13
REMARK SMILES IDX 13 14 16 15 15 16 19 17 17 18 18 19 20 20 31 21 28 22 21 23
REMARK SMILES IDX 30 24 22 25 27 26 29 27 23 28 26 29 24 30 25 31
REMARK H PARENT 25 32
REMARK Flexibility Score: inf
ROOT
ATOM      1  C   UNL     1       4.509   4.971 -26.959  1.00  0.00     0.012 C 
ATOM      2  C   UNL     1       5.506   4.988 -28.125  1.00  0.00     0.012 C 
ENDROOT
BRANCH   1   3
ATOM      3  C   UNL     1       4.349   6.398 -26.465  1.00  0.00    -0.028 C 
ATOM      4  C   UNL     1       3.293   7.204 -26.693  1.00  0.00    -0.028 C 
BRANCH   4   5
ATOM      5  C   UNL     1       2.070   6.838 -27.522  1.00  0.00     0.011 C 
ATOM      6  C   UNL     1       1.289   8.106 -27.902  1.00  0.00     0.012 C 
BRANCH   5   7
ATOM      7  C   UNL     1       1.160   5.782 -26.825  1.00  0.00    -0.011 C 
ATOM      8  C   UNL     1       0.491   4.786 -27.790  1.00  0.00     0.008 C 
ATOM      9  C   UNL     1       0.102   6.454 -25.936  1.00  0.00     0.008 C 
ENDBRANCH   5   7
ENDBRANCH   4   5
ENDBRANCH   1   3
BRANCH   1  10
ATOM     10  C   UNL     1       4.982   4.069 -25.775  1.00  0.00     0.002 C 
ATOM     11  C   UNL     1       4.687   4.727 -24.395  1.00  0.00     0.005 C 
ATOM     12  C   UNL     1       4.378   2.637 -25.635  1.00  0.00    -0.023 C 
ATOM     13  C   UNL     1       4.406   3.593 -23.398  1.00  0.00     0.008 C 
ATOM     14  C   UNL     1       4.766   2.339 -24.172  1.00  0.00     0.035 C 
ATOM     15  C   UNL     1       5.038   1.538 -26.513  1.00  0.00     0.008 C 
ATOM     16  C   UNL     1       2.836   2.678 -25.885  1.00  0.00     0.012 C 
ATOM     17  C   UNL     1       4.305   0.969 -23.639  1.00  0.00     0.128 C 
ATOM     18  C   UNL     1       4.588   0.119 -26.083  1.00  0.00     0.008 C 
ATOM     19  C   UNL     1       4.841  -0.165 -24.574  1.00  0.00     0.038 C 
ATOM     20  C   UNL     1       4.836   0.688 -22.244  1.00  0.00     0.010 C 
ATOM     21  O   UNL     1       2.886   0.855 -23.558  1.00  0.00    -0.224 OA
ATOM     22  C   UNL     1       4.323  -1.565 -24.013  1.00  0.00     0.010 C 
ATOM     23  C   UNL     1       4.414  -0.477 -21.745  1.00  0.00     0.011 C 
ATOM     24  O   UNL     1       2.459  -0.336 -23.057  1.00  0.00    -0.224 OA
ATOM     25  C   UNL     1       3.515  -1.238 -22.699  1.00  0.00     0.130 C 
ATOM     26  C   UNL     1       3.370  -2.325 -24.987  1.00  0.00     0.013 C 
ATOM     27  C   UNL     1       5.567  -2.456 -23.723  1.00  0.00     0.015 C 
ATOM     28  C   UNL     1       2.906  -2.494 -22.045  1.00  0.00     0.075 C 
ATOM     29  C   UNL     1       2.739  -3.580 -24.355  1.00  0.00     0.032 C 
ATOM     30  C   UNL     1       2.005  -3.252 -23.040  1.00  0.00     0.117 C 
BRANCH  30  31
ATOM     31  O   UNL     1       1.497  -4.423 -22.452  1.00  0.00    -0.393 OA
ATOM     32  H   UNL     1       0.754  -4.750 -23.024  1.00  0.00     0.210 HD
ENDBRANCH  30  31
ENDBRANCH   1  10
TORSDOF 5
ENDMDL
MODEL 4
REMARK VINA RESULT:    -8.230      1.667      3.006
REMARK INTER + INTRA:         -11.053
REMARK INTER:                  -9.637
REMARK INTRA:                  -1.415
REMARK UNBOUND:                -0.658
REMARK SMILES CC(C)[C@@H](C)C=C[C@@H](C)[C@H]1CC[C@@H]2[C@]1(C)CC[C@H]1[C@@]23C=C[C@@]2(C[C@H](O)CC[C@@]12C)OO3
REMARK SMILES IDX 8 1 9 2 7 3 6 4 4 5 5 6 2 7 1 8 3 9 10 10 11 11 14 12 12 13
REMARK SMILES IDX 13 14 16 15 15 16 19 17 17 18 18 19 20 20 31 21 28 22 21 23
REMARK SMILES IDX 30 24 22 25 27 26 29 27 23 28 26 29 24 30 25 31
REMARK H PARENT 25 32
REMARK Flexibility Score: inf
ROOT
ATOM      1  C   UNL     1       4.848  -2.069 -24.191  1.00  0.00     0.012 C 
ATOM      2  C   UNL     1       6.279  -2.583 -23.984  1.00  0.00     0.012 C 
ENDROOT
BRANCH   1   3
ATOM      3  C   UNL     1       3.965  -3.268 -24.490  1.00  0.00    -0.028 C 
ATOM      4  C   UNL     1       2.705  -3.455 -24.049  1.00  0.00    -0.028 C 
BRANCH   4   5
ATOM      5  C   UNL     1       1.942  -2.506 -23.137  1.00  0.00     0.011 C 
ATOM      6  C   UNL     1       2.094  -2.944 -21.671  1.00  0.00     0.012 C 
BRANCH   5   7
ATOM      7  C   UNL     1       0.446  -2.346 -23.543  1.00  0.00    -0.011 C 
ATOM      8  C   UNL     1      -0.403  -3.617 -23.353  1.00  0.00     0.008 C 
ATOM      9  C   UNL     1       0.309  -1.824 -24.981  1.00  0.00     0.008 C 
ENDBRANCH   5   7
ENDBRANCH   4   5
ENDBRANCH   1   3
BRANCH   1  10
ATOM     10  C   UNL     1       4.740  -1.046 -25.366  1.00  0.00     0.002 C 
ATOM     11  C   UNL     1       3.725  -1.518 -26.449  1.00  0.00     0.005 C 
ATOM     12  C   UNL     1       4.288   0.414 -25.051  1.00  0.00    -0.023 C 
ATOM     13  C   UNL     1       3.087  -0.259 -27.058  1.00  0.00     0.008 C 
ATOM     14  C   UNL     1       3.909   0.875 -26.474  1.00  0.00     0.035 C 
ATOM     15  C   UNL     1       5.404   1.370 -24.547  1.00  0.00     0.008 C 
ATOM     16  C   UNL     1       3.091   0.400 -24.049  1.00  0.00     0.012 C 
ATOM     17  C   UNL     1       3.374   2.317 -26.572  1.00  0.00     0.128 C 
ATOM     18  C   UNL     1       4.936   2.847 -24.559  1.00  0.00     0.008 C 
ATOM     19  C   UNL     1       4.416   3.305 -25.953  1.00  0.00     0.038 C 
ATOM     20  C   UNL     1       3.149   2.748 -28.012  1.00  0.00     0.010 C 
ATOM     21  O   UNL     1       2.128   2.493 -25.902  1.00  0.00    -0.224 OA
ATOM     22  C   UNL     1       3.822   4.783 -26.043  1.00  0.00     0.010 C 
ATOM     23  C   UNL     1       2.646   3.980 -28.120  1.00  0.00     0.011 C 
ATOM     24  O   UNL     1       1.623   3.752 -26.007  1.00  0.00    -0.224 OA
ATOM     25  C   UNL     1       2.432   4.652 -26.777  1.00  0.00     0.130 C 
ATOM     26  C   UNL     1       3.572   5.452 -24.656  1.00  0.00     0.013 C 
ATOM     27  C   UNL     1       4.826   5.655 -26.853  1.00  0.00     0.015 C 
ATOM     28  C   UNL     1       1.699   6.000 -26.913  1.00  0.00     0.075 C 
ATOM     29  C   UNL     1       2.831   6.799 -24.762  1.00  0.00     0.032 C 
ATOM     30  C   UNL     1       1.504   6.663 -25.535  1.00  0.00     0.117 C 
BRANCH  30  31
ATOM     31  O   UNL     1       0.883   7.916 -25.674  1.00  0.00    -0.393 OA
ATOM     32  H   UNL     1       1.575   8.565 -25.967  1.00  0.00     0.210 HD
ENDBRANCH  30  31
ENDBRANCH   1  10
TORSDOF 5
ENDMDL
MODEL 5
REMARK VINA RESULT:    -7.954      1.589      2.724
REMARK INTER + INTRA:         -10.704
REMARK INTER:                  -9.500
REMARK INTRA:                  -1.204
REMARK UNBOUND:                -0.658
REMARK SMILES CC(C)[C@@H](C)C=C[C@@H](C)[C@H]1CC[C@@H]2[C@]1(C)CC[C@H]1[C@@]23C=C[C@@]2(C[C@H](O)CC[C@@]12C)OO3
REMARK SMILES IDX 8 1 9 2 7 3 6 4 4 5 5 6 2 7 1 8 3 9 10 10 11 11 14 12 12 13
REMARK SMILES IDX 13 14 16 15 15 16 19 17 17 18 18 19 20 20 31 21 28 22 21 23
REMARK SMILES IDX 30 24 22 25 27 26 29 27 23 28 26 29 24 30 25 31
REMARK H PARENT 25 32
REMARK Flexibility Score: inf
ROOT
ATOM      1  C   UNL     1       4.418  -0.521 -24.219  1.00  0.00     0.012 C 
ATOM      2  C   UNL     1       5.299  -1.000 -23.058  1.00  0.00     0.012 C 
ENDROOT
BRANCH   1   3
ATOM      3  C   UNL     1       4.295  -1.665 -25.211  1.00  0.00    -0.028 C 
ATOM      4  C   UNL     1       3.475  -2.729 -25.098  1.00  0.00    -0.028 C 
BRANCH   4   5
ATOM      5  C   UNL     1       2.538  -2.997 -23.930  1.00  0.00     0.011 C 
ATOM      6  C   UNL     1       2.812  -4.390 -23.340  1.00  0.00     0.012 C 
BRANCH   5   7
ATOM      7  C   UNL     1       1.036  -2.809 -24.301  1.00  0.00    -0.011 C 
ATOM      8  C   UNL     1       0.609  -1.341 -24.490  1.00  0.00     0.008 C 
ATOM      9  C   UNL     1       0.117  -3.505 -23.287  1.00  0.00     0.008 C 
ENDBRANCH   5   7
ENDBRANCH   4   5
ENDBRANCH   1   3
BRANCH   1  10
ATOM     10  C   UNL     1       5.008   0.728 -24.947  1.00  0.00     0.002 C 
ATOM     11  C   UNL     1       5.424   0.399 -26.411  1.00  0.00     0.005 C 
ATOM     12  C   UNL     1       4.117   2.001 -25.097  1.00  0.00    -0.023 C 
ATOM     13  C   UNL     1       5.212   1.671 -27.245  1.00  0.00     0.008 C 
ATOM     14  C   UNL     1       4.902   2.731 -26.205  1.00  0.00     0.035 C 
ATOM     15  C   UNL     1       4.081   2.947 -23.866  1.00  0.00     0.008 C 
ATOM     16  C   UNL     1       2.667   1.593 -25.512  1.00  0.00     0.012 C 
ATOM     17  C   UNL     1       4.295   4.074 -26.660  1.00  0.00     0.128 C 
ATOM     18  C   UNL     1       3.434   4.311 -24.215  1.00  0.00     0.008 C 
ATOM     19  C   UNL     1       4.120   5.014 -25.423  1.00  0.00     0.038 C 
ATOM     20  C   UNL     1       5.188   4.800 -27.651  1.00  0.00     0.010 C 
ATOM     21  O   UNL     1       3.030   3.922 -27.297  1.00  0.00    -0.224 OA
ATOM     22  C   UNL     1       3.464   6.381 -25.920  1.00  0.00     0.010 C 
ATOM     23  C   UNL     1       4.663   5.947 -28.091  1.00  0.00     0.011 C 
ATOM     24  O   UNL     1       2.493   5.093 -27.736  1.00  0.00    -0.224 OA
ATOM     25  C   UNL     1       3.307   6.247 -27.483  1.00  0.00     0.130 C 
ATOM     26  C   UNL     1       2.053   6.664 -25.317  1.00  0.00     0.013 C 
ATOM     27  C   UNL     1       4.424   7.543 -25.531  1.00  0.00     0.015 C 
ATOM     28  C   UNL     1       2.645   7.482 -28.125  1.00  0.00     0.075 C 
ATOM     29  C   UNL     1       1.363   7.889 -25.948  1.00  0.00     0.032 C 
ATOM     30  C   UNL     1       1.272   7.768 -27.482  1.00  0.00     0.117 C 
BRANCH  30  31
ATOM     31  O   UNL     1       0.701   8.926 -28.036  1.00  0.00    -0.393 OA
ATOM     32  H   UNL     1       0.786   9.654 -27.366  1.00  0.00     0.210 HD
ENDBRANCH  30  31
ENDBRANCH   1  10
TORSDOF 5
ENDMDL
MODEL 6
REMARK VINA RESULT:    -7.828      2.443      7.876
REMARK INTER + INTRA:         -10.545
REMARK INTER:                  -9.657
REMARK INTRA:                  -0.887
REMARK UNBOUND:                -0.658
REMARK SMILES CC(C)[C@@H](C)C=C[C@@H](C)[C@H]1CC[C@@H]2[C@]1(C)CC[C@H]1[C@@]23C=C[C@@]2(C[C@H](O)CC[C@@]12C)OO3
REMARK SMILES IDX 8 1 9 2 7 3 6 4 4 5 5 6 2 7 1 8 3 9 10 10 11 11 14 12 12 13
REMARK SMILES IDX 13 14 16 15 15 16 19 17 17 18 18 19 20 20 31 21 28 22 21 23
REMARK SMILES IDX 30 24 22 25 27 26 29 27 23 28 26 29 24 30 25 31
REMARK H PARENT 25 32
REMARK Flexibility Score: inf
ROOT
ATOM      1  C   UNL     1       2.554   6.486 -26.676  1.00  0.00     0.012 C 
ATOM      2  C   UNL     1       1.593   7.230 -27.612  1.00  0.00     0.012 C 
ENDROOT
BRANCH   1   3
ATOM      3  C   UNL     1       3.670   7.446 -26.299  1.00  0.00    -0.028 C 
ATOM      4  C   UNL     1       4.364   7.443 -25.144  1.00  0.00    -0.028 C 
BRANCH   4   5
ATOM      5  C   UNL     1       4.134   6.487 -23.982  1.00  0.00     0.011 C 
ATOM      6  C   UNL     1       3.123   7.089 -22.993  1.00  0.00     0.012 C 
BRANCH   5   7
ATOM      7  C   UNL     1       5.456   6.062 -23.275  1.00  0.00    -0.011 C 
ATOM      8  C   UNL     1       5.305   4.870 -22.311  1.00  0.00     0.008 C 
ATOM      9  C   UNL     1       6.113   7.250 -22.555  1.00  0.00     0.008 C 
ENDBRANCH   5   7
ENDBRANCH   4   5
ENDBRANCH   1   3
BRANCH   1  10
ATOM     10  C   UNL     1       3.174   5.214 -27.336  1.00  0.00     0.002 C 
ATOM     11  C   UNL     1       4.728   5.296 -27.399  1.00  0.00     0.005 C 
ATOM     12  C   UNL     1       2.906   3.823 -26.683  1.00  0.00    -0.023 C 
ATOM     13  C   UNL     1       5.267   3.864 -27.269  1.00  0.00     0.008 C 
ATOM     14  C   UNL     1       4.021   3.003 -27.364  1.00  0.00     0.035 C 
ATOM     15  C   UNL     1       1.556   3.152 -27.057  1.00  0.00     0.008 C 
ATOM     16  C   UNL     1       3.052   3.923 -25.131  1.00  0.00     0.012 C 
ATOM     17  C   UNL     1       4.097   1.523 -26.940  1.00  0.00     0.128 C 
ATOM     18  C   UNL     1       1.518   1.666 -26.617  1.00  0.00     0.008 C 
ATOM     19  C   UNL     1       2.711   0.838 -27.179  1.00  0.00     0.038 C 
ATOM     20  C   UNL     1       5.125   0.747 -27.746  1.00  0.00     0.010 C 
ATOM     21  O   UNL     1       4.454   1.357 -25.570  1.00  0.00    -0.224 OA
ATOM     22  C   UNL     1       2.813  -0.680 -26.704  1.00  0.00     0.010 C 
ATOM     23  C   UNL     1       5.237  -0.528 -27.367  1.00  0.00     0.011 C 
ATOM     24  O   UNL     1       4.560   0.056 -25.185  1.00  0.00    -0.224 OA
ATOM     25  C   UNL     1       4.302  -0.892 -26.230  1.00  0.00     0.130 C 
ATOM     26  C   UNL     1       1.874  -1.036 -25.509  1.00  0.00     0.013 C 
ATOM     27  C   UNL     1       2.456  -1.588 -27.917  1.00  0.00     0.015 C 
ATOM     28  C   UNL     1       4.564  -2.314 -25.697  1.00  0.00     0.075 C 
ATOM     29  C   UNL     1       2.120  -2.451 -24.950  1.00  0.00     0.032 C 
ATOM     30  C   UNL     1       3.594  -2.659 -24.548  1.00  0.00     0.117 C 
BRANCH  30  31
ATOM     31  O   UNL     1       3.803  -3.976 -24.105  1.00  0.00    -0.393 OA
ATOM     32  H   UNL     1       2.997  -4.255 -23.598  1.00  0.00     0.210 HD
ENDBRANCH  30  31
ENDBRANCH   1  10
TORSDOF 5
ENDMDL
MODEL 7
REMARK VINA RESULT:    -6.962      2.410      8.463
REMARK INTER + INTRA:          -9.451
REMARK INTER:                  -8.983
REMARK INTRA:                  -0.468
REMARK UNBOUND:                -0.658
REMARK SMILES CC(C)[C@@H](C)C=C[C@@H](C)[C@H]1CC[C@@H]2[C@]1(C)CC[C@H]1[C@@]23C=C[C@@]2(C[C@H](O)CC[C@@]12C)OO3
REMARK SMILES IDX 8 1 9 2 7 3 6 4 4 5 5 6 2 7 1 8 3 9 10 10 11 11 14 12 12 13
REMARK SMILES IDX 13 14 16 15 15 16 19 17 17 18 18 19 20 20 31 21 28 22 21 23
REMARK SMILES IDX 30 24 22 25 27 26 29 27 23 28 26 29 24 30 25 31
REMARK H PARENT 25 32
REMARK Flexibility Score: inf
ROOT
ATOM      1  C   UNL     1       3.957   6.147 -24.349  1.00  0.00     0.012 C 
ATOM      2  C   UNL     1       4.751   6.279 -23.043  1.00  0.00     0.012 C 
ENDROOT
BRANCH   1   3
ATOM      3  C   UNL     1       2.956   7.288 -24.400  1.00  0.00    -0.028 C 
ATOM      4  C   UNL     1       2.521   7.915 -25.511  1.00  0.00    -0.028 C 
BRANCH   4   5
ATOM      5  C   UNL     1       2.982   7.611 -26.929  1.00  0.00     0.011 C 
ATOM      6  C   UNL     1       4.254   8.411 -27.256  1.00  0.00     0.012 C 
BRANCH   5   7
ATOM      7  C   UNL     1       1.865   7.837 -27.992  1.00  0.00    -0.011 C 
ATOM      8  C   UNL     1       1.357   9.289 -28.079  1.00  0.00     0.008 C 
ATOM      9  C   UNL     1       0.688   6.873 -27.781  1.00  0.00     0.008 C 
ENDBRANCH   5   7
ENDBRANCH   4   5
ENDBRANCH   1   3
BRANCH   1  10
ATOM     10  C   UNL     1       3.192   4.790 -24.455  1.00  0.00     0.002 C 
ATOM     11  C   UNL     1       2.453   4.649 -25.818  1.00  0.00     0.005 C 
ATOM     12  C   UNL     1       4.002   3.461 -24.337  1.00  0.00    -0.023 C 
ATOM     13  C   UNL     1       2.445   3.156 -26.182  1.00  0.00     0.008 C 
ATOM     14  C   UNL     1       2.968   2.480 -24.928  1.00  0.00     0.035 C 
ATOM     15  C   UNL     1       4.306   2.983 -22.891  1.00  0.00     0.008 C 
ATOM     16  C   UNL     1       5.323   3.563 -25.165  1.00  0.00     0.012 C 
ATOM     17  C   UNL     1       3.430   1.011 -25.004  1.00  0.00     0.128 C 
ATOM     18  C   UNL     1       4.831   1.525 -22.871  1.00  0.00     0.008 C 
ATOM     19  C   UNL     1       3.871   0.527 -23.584  1.00  0.00     0.038 C 
ATOM     20  C   UNL     1       2.318   0.085 -25.467  1.00  0.00     0.010 C 
ATOM     21  O   UNL     1       4.515   0.817 -25.907  1.00  0.00    -0.224 OA
ATOM     22  C   UNL     1       4.369  -0.983 -23.701  1.00  0.00     0.010 C 
ATOM     23  C   UNL     1       2.707  -1.188 -25.580  1.00  0.00     0.011 C 
ATOM     24  O   UNL     1       4.915  -0.479 -26.013  1.00  0.00    -0.224 OA
ATOM     25  C   UNL     1       4.162  -1.397 -25.208  1.00  0.00     0.130 C 
ATOM     26  C   UNL     1       5.877  -1.183 -23.351  1.00  0.00     0.013 C 
ATOM     27  C   UNL     1       3.506  -1.849 -22.737  1.00  0.00     0.015 C 
ATOM     28  C   UNL     1       4.635  -2.833 -25.504  1.00  0.00     0.075 C 
ATOM     29  C   UNL     1       6.380  -2.609 -23.645  1.00  0.00     0.032 C 
ATOM     30  C   UNL     1       6.114  -3.019 -25.108  1.00  0.00     0.117 C 
BRANCH  30  31
ATOM     31  O   UNL     1       6.522  -4.345 -25.331  1.00  0.00    -0.393 OA
ATOM     32  H   UNL     1       7.060  -4.631 -24.547  1.00  0.00     0.210 HD
ENDBRANCH  30  31
ENDBRANCH   1  10
TORSDOF 5
ENDMDL
MODEL 8
REMARK VINA RESULT:    -6.675      2.122      3.452
REMARK INTER + INTRA:          -9.088
REMARK INTER:                  -7.533
REMARK INTRA:                  -1.555
REMARK UNBOUND:                -0.658
REMARK SMILES CC(C)[C@@H](C)C=C[C@@H](C)[C@H]1CC[C@@H]2[C@]1(C)CC[C@H]1[C@@]23C=C[C@@]2(C[C@H](O)CC[C@@]12C)OO3
REMARK SMILES IDX 8 1 9 2 7 3 6 4 4 5 5 6 2 7 1 8 3 9 10 10 11 11 14 12 12 13
REMARK SMILES IDX 13 14 16 15 15 16 19 17 17 18 18 19 20 20 31 21 28 22 21 23
REMARK SMILES IDX 30 24 22 25 27 26 29 27 23 28 26 29 24 30 25 31
REMARK H PARENT 25 32
REMARK Flexibility Score: inf
ROOT
ATOM      1  C   UNL     1       5.178  -0.415 -26.769  1.00  0.00     0.012 C 
ATOM      2  C   UNL     1       6.521  -0.555 -27.499  1.00  0.00     0.012 C 
ENDROOT
BRANCH   1   3
ATOM      3  C   UNL     1       4.547  -1.794 -26.692  1.00  0.00    -0.028 C 
ATOM      4  C   UNL     1       3.991  -2.353 -25.598  1.00  0.00    -0.028 C 
BRANCH   4   5
ATOM      5  C   UNL     1       3.922  -1.710 -24.221  1.00  0.00     0.011 C 
ATOM      6  C   UNL     1       5.056  -2.242 -23.330  1.00  0.00     0.012 C 
BRANCH   5   7
ATOM      7  C   UNL     1       2.527  -1.875 -23.544  1.00  0.00    -0.011 C 
ATOM      8  C   UNL     1       1.421  -0.988 -24.147  1.00  0.00     0.008 C 
ATOM      9  C   UNL     1       2.613  -1.661 -22.025  1.00  0.00     0.008 C 
ENDBRANCH   5   7
ENDBRANCH   4   5
ENDBRANCH   1   3
BRANCH   1  10
ATOM     10  C   UNL     1       4.196   0.558 -27.496  1.00  0.00     0.002 C 
ATOM     11  C   UNL     1       2.790  -0.081 -27.690  1.00  0.00     0.005 C 
ATOM     12  C   UNL     1       3.884   1.939 -26.838  1.00  0.00    -0.023 C 
ATOM     13  C   UNL     1       1.758   1.055 -27.625  1.00  0.00     0.008 C 
ATOM     14  C   UNL     1       2.609   2.311 -27.623  1.00  0.00     0.035 C 
ATOM     15  C   UNL     1       4.924   3.061 -27.104  1.00  0.00     0.008 C 
ATOM     16  C   UNL     1       3.655   1.762 -25.303  1.00  0.00     0.012 C 
ATOM     17  C   UNL     1       1.965   3.653 -27.224  1.00  0.00     0.128 C 
ATOM     18  C   UNL     1       4.383   4.450 -26.680  1.00  0.00     0.008 C 
ATOM     19  C   UNL     1       3.023   4.799 -27.352  1.00  0.00     0.038 C 
ATOM     20  C   UNL     1       0.798   4.019 -28.125  1.00  0.00     0.010 C 
ATOM     21  O   UNL     1       1.458   3.651 -25.892  1.00  0.00    -0.224 OA
ATOM     22  C   UNL     1       2.336   6.168 -26.906  1.00  0.00     0.010 C 
ATOM     23  C   UNL     1       0.198   5.159 -27.772  1.00  0.00     0.011 C 
ATOM     24  O   UNL     1       0.855   4.817 -25.533  1.00  0.00    -0.224 OA
ATOM     25  C   UNL     1       0.838   5.814 -26.564  1.00  0.00     0.130 C 
ATOM     26  C   UNL     1       2.978   6.816 -25.640  1.00  0.00     0.013 C 
ATOM     27  C   UNL     1       2.440   7.167 -28.095  1.00  0.00     0.015 C 
ATOM     28  C   UNL     1       0.034   7.034 -26.073  1.00  0.00     0.075 C 
ATOM     29  C   UNL     1       2.188   8.034 -25.121  1.00  0.00     0.032 C 
ATOM     30  C   UNL     1       0.711   7.685 -24.849  1.00  0.00     0.117 C 
BRANCH  30  31
ATOM     31  O   UNL     1       0.001   8.827 -24.442  1.00  0.00    -0.393 OA
ATOM     32  H   UNL     1      -0.964   8.655 -24.602  1.00  0.00     0.210 HD
ENDBRANCH  30  31
ENDBRANCH   1  10
TORSDOF 5
ENDMDL
MODEL 9
REMARK VINA RESULT:    -6.451      2.541      7.868
REMARK INTER + INTRA:          -8.806
REMARK INTER:                  -8.876
REMARK INTRA:                   0.070
REMARK UNBOUND:                -0.658
REMARK SMILES CC(C)[C@@H](C)C=C[C@@H](C)[C@H]1CC[C@@H]2[C@]1(C)CC[C@H]1[C@@]23C=C[C@@]2(C[C@H](O)CC[C@@]12C)OO3
REMARK SMILES IDX 8 1 9 2 7 3 6 4 4 5 5 6 2 7 1 8 3 9 10 10 11 11 14 12 12 13
REMARK SMILES IDX 13 14 16 15 15 16 19 17 17 18 18 19 20 20 31 21 28 22 21 23
REMARK SMILES IDX 30 24 22 25 27 26 29 27 23 28 26 29 24 30 25 31
REMARK H PARENT 25 32
REMARK Flexibility Score: inf
ROOT
ATOM      1  C   UNL     1       3.203   6.399 -27.600  1.00  0.00     0.012 C 
ATOM      2  C   UNL     1       4.007   7.602 -28.108  1.00  0.00     0.012 C 
ENDROOT
BRANCH   1   3
ATOM      3  C   UNL     1       3.203   6.449 -26.082  1.00  0.00    -0.028 C 
ATOM      4  C   UNL     1       2.140   6.715 -25.296  1.00  0.00    -0.028 C 
BRANCH   4   5
ATOM      5  C   UNL     1       0.741   7.048 -25.792  1.00  0.00     0.011 C 
ATOM      6  C   UNL     1       0.012   7.932 -24.768  1.00  0.00     0.012 C 
BRANCH   5   7
ATOM      7  C   UNL     1      -0.089   5.781 -26.161  1.00  0.00    -0.011 C 
ATOM      8  C   UNL     1      -0.486   5.694 -27.647  1.00  0.00     0.008 C 
ATOM      9  C   UNL     1      -1.333   5.647 -25.269  1.00  0.00     0.008 C 
ENDBRANCH   5   7
ENDBRANCH   4   5
ENDBRANCH   1   3
BRANCH   1  10
ATOM     10  C   UNL     1       3.801   5.034 -28.067  1.00  0.00     0.002 C 
ATOM     11  C   UNL     1       5.355   5.021 -27.967  1.00  0.00     0.005 C 
ATOM     12  C   UNL     1       3.374   3.732 -27.320  1.00  0.00    -0.023 C 
ATOM     13  C   UNL     1       5.781   3.580 -27.646  1.00  0.00     0.008 C 
ATOM     14  C   UNL     1       4.496   2.787 -27.796  1.00  0.00     0.035 C 
ATOM     15  C   UNL     1       2.028   3.105 -27.776  1.00  0.00     0.008 C 
ATOM     16  C   UNL     1       3.365   3.978 -25.778  1.00  0.00     0.012 C 
ATOM     17  C   UNL     1       4.428   1.354 -27.230  1.00  0.00     0.128 C 
ATOM     18  C   UNL     1       1.845   1.675 -27.207  1.00  0.00     0.008 C 
ATOM     19  C   UNL     1       3.032   0.729 -27.555  1.00  0.00     0.038 C 
ATOM     20  C   UNL     1       5.479   0.445 -27.843  1.00  0.00     0.010 C 
ATOM     21  O   UNL     1       4.629   1.305 -25.820  1.00  0.00    -0.224 OA
ATOM     22  C   UNL     1       2.982  -0.738 -26.932  1.00  0.00     0.010 C 
ATOM     23  C   UNL     1       5.466  -0.791 -27.337  1.00  0.00     0.011 C 
ATOM     24  O   UNL     1       4.607   0.046 -25.306  1.00  0.00    -0.224 OA
ATOM     25  C   UNL     1       4.396  -0.986 -26.281  1.00  0.00     0.130 C 
ATOM     26  C   UNL     1       1.902  -0.919 -25.820  1.00  0.00     0.013 C 
ATOM     27  C   UNL     1       2.692  -1.741 -28.088  1.00  0.00     0.015 C 
ATOM     28  C   UNL     1       4.505  -2.360 -25.592  1.00  0.00     0.075 C 
ATOM     29  C   UNL     1       1.993  -2.283 -25.108  1.00  0.00     0.032 C 
ATOM     30  C   UNL     1       3.400  -2.534 -24.530  1.00  0.00     0.117 C 
BRANCH  30  31
ATOM     31  O   UNL     1       3.473  -3.809 -23.945  1.00  0.00    -0.393 OA
ATOM     32  H   UNL     1       3.005  -4.444 -24.548  1.00  0.00     0.210 HD
ENDBRANCH  30  31
ENDBRANCH   1  10
TORSDOF 5
ENDMDL
