MODEL 1
REMARK VINA RESULT:    -2.949      0.000      0.000
REMARK INTER + INTRA:          -5.450
REMARK INTER:                  -4.501
REMARK INTRA:                  -0.949
REMARK UNBOUND:                -0.949
REMARK SMILES O=C([O-])CCCCCCCCC(=O)[O-]
REMARK SMILES IDX 7 1 6 2 5 3 4 4 2 5 1 6 3 7 8 8 9 9 10 10 11 11 12 12 13 13
REMARK SMILES IDX 14 14
REMARK H PARENT
REMARK Flexibility Score: inf
ROOT
ATOM      1  C   UNL     1      53.531  81.803  32.610  1.00  0.00     0.000 C 
ENDROOT
BRANCH   1   2
ATOM      2  C   UNL     1      54.991  81.810  32.122  1.00  0.00     0.000 C 
BRANCH   2   3
ATOM      3  C   UNL     1      55.838  82.890  32.814  1.00  0.00     0.006 C 
BRANCH   3   4
ATOM      4  C   UNL     1      55.525  84.303  32.306  1.00  0.00     0.053 C 
BRANCH   4   5
ATOM      5  C   UNL     1      56.060  84.489  30.921  1.00  0.00     0.041 C 
ATOM      6  O   UNL     1      55.351  85.035  30.036  1.00  0.00    -0.550 OA
ATOM      7  O   UNL     1      57.361  84.105  30.620  1.00  0.00    -0.550 OA
ENDBRANCH   4   5
ENDBRANCH   3   4
ENDBRANCH   2   3
ENDBRANCH   1   2
BRANCH   1   8
ATOM      8  C   UNL     1      52.528  81.567  31.470  1.00  0.00     0.000 C 
BRANCH   8   9
ATOM      9  C   UNL     1      52.659  82.600  30.340  1.00  0.00     0.000 C 
BRANCH   9  10
ATOM     10  C   UNL     1      52.052  83.946  30.753  1.00  0.00     0.006 C 
BRANCH  10  11
ATOM     11  C   UNL     1      50.719  83.749  31.480  1.00  0.00     0.053 C 
BRANCH  11  12
ATOM     12  C   UNL     1      50.658  84.605  32.705  1.00  0.00     0.041 C 
ATOM     13  O   UNL     1      49.558  85.077  33.095  1.00  0.00    -0.550 OA
ATOM     14  O   UNL     1      51.825  84.923  33.390  1.00  0.00    -0.550 OA
ENDBRANCH  11  12
ENDBRANCH  10  11
ENDBRANCH   9  10
ENDBRANCH   8   9
ENDBRANCH   1   8
TORSDOF 9
ENDMDL
MODEL 2
REMARK VINA RESULT:    -2.896      1.923      4.752
REMARK INTER + INTRA:          -5.369
REMARK INTER:                  -4.428
REMARK INTRA:                  -0.941
REMARK UNBOUND:                -0.949
REMARK SMILES O=C([O-])CCCCCCCCC(=O)[O-]
REMARK SMILES IDX 7 1 6 2 5 3 4 4 2 5 1 6 3 7 8 8 9 9 10 10 11 11 12 12 13 13
REMARK SMILES IDX 14 14
REMARK H PARENT
REMARK Flexibility Score: inf
ROOT
ATOM      1  C   UNL     1      53.718  82.149  29.648  1.00  0.00     0.000 C 
ENDROOT
BRANCH   1   2
ATOM      2  C   UNL     1      52.775  81.320  30.537  1.00  0.00     0.000 C 
BRANCH   2   3
ATOM      3  C   UNL     1      52.663  81.883  31.964  1.00  0.00     0.006 C 
BRANCH   3   4
ATOM      4  C   UNL     1      52.335  83.382  31.984  1.00  0.00     0.053 C 
BRANCH   4   5
ATOM      5  C   UNL     1      50.900  83.607  31.622  1.00  0.00     0.041 C 
ATOM      6  O   UNL     1      50.592  84.482  30.772  1.00  0.00    -0.550 OA
ATOM      7  O   UNL     1      49.909  82.817  32.189  1.00  0.00    -0.550 OA
ENDBRANCH   4   5
ENDBRANCH   3   4
ENDBRANCH   2   3
ENDBRANCH   1   2
BRANCH   1   8
ATOM      8  C   UNL     1      55.114  81.518  29.518  1.00  0.00     0.000 C 
BRANCH   8   9
ATOM      9  C   UNL     1      56.201  82.546  29.168  1.00  0.00     0.000 C 
BRANCH   9  10
ATOM     10  C   UNL     1      55.950  83.877  29.889  1.00  0.00     0.006 C 
BRANCH  10  11
ATOM     11  C   UNL     1      56.837  84.006  31.130  1.00  0.00     0.053 C 
BRANCH  11  12
ATOM     12  C   UNL     1      56.016  83.892  32.375  1.00  0.00     0.041 C 
ATOM     13  O   UNL     1      55.920  82.787  32.972  1.00  0.00    -0.550 OA
ATOM     14  O   UNL     1      55.315  84.994  32.850  1.00  0.00    -0.550 OA
ENDBRANCH  11  12
ENDBRANCH  10  11
ENDBRANCH   9  10
ENDBRANCH   8   9
ENDBRANCH   1   8
TORSDOF 9
ENDMDL
MODEL 3
REMARK VINA RESULT:    -2.835      1.339      5.491
REMARK INTER + INTRA:          -5.276
REMARK INTER:                  -4.522
REMARK INTRA:                  -0.754
REMARK UNBOUND:                -0.949
REMARK SMILES O=C([O-])CCCCCCCCC(=O)[O-]
REMARK SMILES IDX 7 1 6 2 5 3 4 4 2 5 1 6 3 7 8 8 9 9 10 10 11 11 12 12 13 13
REMARK SMILES IDX 14 14
REMARK H PARENT
REMARK Flexibility Score: inf
ROOT
ATOM      1  C   UNL     1      53.424  82.035  32.550  1.00  0.00     0.000 C 
ENDROOT
BRANCH   1   2
ATOM      2  C   UNL     1      52.380  81.418  31.604  1.00  0.00     0.000 C 
BRANCH   2   3
ATOM      3  C   UNL     1      52.131  82.281  30.356  1.00  0.00     0.006 C 
BRANCH   3   4
ATOM      4  C   UNL     1      51.328  83.551  30.667  1.00  0.00     0.053 C 
BRANCH   4   5
ATOM      5  C   UNL     1      49.978  83.195  31.208  1.00  0.00     0.041 C 
ATOM      6  O   UNL     1      49.168  82.537  30.505  1.00  0.00    -0.550 OA
ATOM      7  O   UNL     1      49.635  83.548  32.507  1.00  0.00    -0.550 OA
ENDBRANCH   4   5
ENDBRANCH   3   4
ENDBRANCH   2   3
ENDBRANCH   1   2
BRANCH   1   8
ATOM      8  C   UNL     1      54.864  81.847  32.043  1.00  0.00     0.000 C 
BRANCH   8   9
ATOM      9  C   UNL     1      55.823  82.929  32.564  1.00  0.00     0.000 C 
BRANCH   9  10
ATOM     10  C   UNL     1      55.419  84.316  32.049  1.00  0.00     0.006 C 
BRANCH  10  11
ATOM     11  C   UNL     1      55.436  84.360  30.518  1.00  0.00     0.053 C 
BRANCH  11  12
ATOM     12  C   UNL     1      56.770  83.929  29.997  1.00  0.00     0.041 C 
ATOM     13  O   UNL     1      57.812  84.554  30.327  1.00  0.00    -0.550 OA
ATOM     14  O   UNL     1      56.859  82.866  29.106  1.00  0.00    -0.550 OA
ENDBRANCH  11  12
ENDBRANCH  10  11
ENDBRANCH   9  10
ENDBRANCH   8   9
ENDBRANCH   1   8
TORSDOF 9
ENDMDL
MODEL 4
REMARK VINA RESULT:    -2.827      2.314      3.360
REMARK INTER + INTRA:          -5.264
REMARK INTER:                  -4.230
REMARK INTRA:                  -1.034
REMARK UNBOUND:                -0.949
REMARK SMILES O=C([O-])CCCCCCCCC(=O)[O-]
REMARK SMILES IDX 7 1 6 2 5 3 4 4 2 5 1 6 3 7 8 8 9 9 10 10 11 11 12 12 13 13
REMARK SMILES IDX 14 14
REMARK H PARENT
REMARK Flexibility Score: inf
ROOT
ATOM      1  C   UNL     1      55.979  83.930  32.181  1.00  0.00     0.000 C 
ENDROOT
BRANCH   1   2
ATOM      2  C   UNL     1      56.343  84.001  30.688  1.00  0.00     0.000 C 
BRANCH   2   3
ATOM      3  C   UNL     1      56.143  82.658  29.968  1.00  0.00     0.006 C 
BRANCH   3   4
ATOM      4  C   UNL     1      55.036  81.806  30.602  1.00  0.00     0.053 C 
BRANCH   4   5
ATOM      5  C   UNL     1      53.888  81.653  29.654  1.00  0.00     0.041 C 
ATOM      6  O   UNL     1      53.337  80.532  29.502  1.00  0.00    -0.550 OA
ATOM      7  O   UNL     1      53.395  82.761  28.976  1.00  0.00    -0.550 OA
ENDBRANCH   4   5
ENDBRANCH   3   4
ENDBRANCH   2   3
ENDBRANCH   1   2
BRANCH   1   8
ATOM      8  C   UNL     1      55.028  85.059  32.612  1.00  0.00     0.000 C 
BRANCH   8   9
ATOM      9  C   UNL     1      53.756  85.124  31.753  1.00  0.00     0.000 C 
BRANCH   9  10
ATOM     10  C   UNL     1      52.513  84.785  32.585  1.00  0.00     0.006 C 
BRANCH  10  11
ATOM     11  C   UNL     1      52.098  83.324  32.384  1.00  0.00     0.053 C 
BRANCH  11  12
ATOM     12  C   UNL     1      50.889  83.239  31.508  1.00  0.00     0.041 C 
ATOM     13  O   UNL     1      50.611  82.164  30.915  1.00  0.00    -0.550 OA
ATOM     14  O   UNL     1      50.095  84.362  31.308  1.00  0.00    -0.550 OA
ENDBRANCH  11  12
ENDBRANCH  10  11
ENDBRANCH   9  10
ENDBRANCH   8   9
ENDBRANCH   1   8
TORSDOF 9
ENDMDL
MODEL 5
REMARK VINA RESULT:    -2.814      2.257      5.031
REMARK INTER + INTRA:          -5.244
REMARK INTER:                  -4.204
REMARK INTRA:                  -1.040
REMARK UNBOUND:                -0.949
REMARK SMILES O=C([O-])CCCCCCCCC(=O)[O-]
REMARK SMILES IDX 7 1 6 2 5 3 4 4 2 5 1 6 3 7 8 8 9 9 10 10 11 11 12 12 13 13
REMARK SMILES IDX 14 14
REMARK H PARENT
REMARK Flexibility Score: inf
ROOT
ATOM      1  C   UNL     1      54.848  85.053  29.916  1.00  0.00     0.000 C 
ENDROOT
BRANCH   1   2
ATOM      2  C   UNL     1      53.864  84.329  28.980  1.00  0.00     0.000 C 
BRANCH   2   3
ATOM      3  C   UNL     1      52.402  84.487  29.426  1.00  0.00     0.006 C 
BRANCH   3   4
ATOM      4  C   UNL     1      52.183  84.084  30.890  1.00  0.00     0.053 C 
BRANCH   4   5
ATOM      5  C   UNL     1      51.239  82.925  30.976  1.00  0.00     0.041 C 
ATOM      6  O   UNL     1      51.299  81.996  30.130  1.00  0.00    -0.550 OA
ATOM      7  O   UNL     1      50.326  82.848  32.020  1.00  0.00    -0.550 OA
ENDBRANCH   4   5
ENDBRANCH   3   4
ENDBRANCH   2   3
ENDBRANCH   1   2
BRANCH   1   8
ATOM      8  C   UNL     1      56.275  84.490  29.823  1.00  0.00     0.000 C 
BRANCH   8   9
ATOM      9  C   UNL     1      56.853  84.106  31.194  1.00  0.00     0.000 C 
BRANCH   9  10
ATOM     10  C   UNL     1      55.739  83.965  32.240  1.00  0.00     0.006 C 
BRANCH  10  11
ATOM     11  C   UNL     1      55.714  82.552  32.829  1.00  0.00     0.053 C 
BRANCH  11  12
ATOM     12  C   UNL     1      54.627  81.741  32.198  1.00  0.00     0.041 C 
ATOM     13  O   UNL     1      54.677  81.460  30.972  1.00  0.00    -0.550 OA
ATOM     14  O   UNL     1      53.534  81.336  32.954  1.00  0.00    -0.550 OA
ENDBRANCH  11  12
ENDBRANCH  10  11
ENDBRANCH   9  10
ENDBRANCH   8   9
ENDBRANCH   1   8
TORSDOF 9
ENDMDL
MODEL 6
REMARK VINA RESULT:    -2.805      2.151      5.516
REMARK INTER + INTRA:          -5.231
REMARK INTER:                  -4.423
REMARK INTRA:                  -0.807
REMARK UNBOUND:                -0.949
REMARK SMILES O=C([O-])CCCCCCCCC(=O)[O-]
REMARK SMILES IDX 7 1 6 2 5 3 4 4 2 5 1 6 3 7 8 8 9 9 10 10 11 11 12 12 13 13
REMARK SMILES IDX 14 14
REMARK H PARENT
REMARK Flexibility Score: inf
ROOT
ATOM      1  C   UNL     1      53.937  85.029  31.712  1.00  0.00     0.000 C 
ENDROOT
BRANCH   1   2
ATOM      2  C   UNL     1      52.686  84.422  32.372  1.00  0.00     0.000 C 
BRANCH   2   3
ATOM      3  C   UNL     1      51.522  84.251  31.382  1.00  0.00     0.006 C 
BRANCH   3   4
ATOM      4  C   UNL     1      50.804  82.904  31.540  1.00  0.00     0.053 C 
BRANCH   4   5
ATOM      5  C   UNL     1      49.350  83.118  31.823  1.00  0.00     0.041 C 
ATOM      6  O   UNL     1      48.986  83.632  32.912  1.00  0.00    -0.550 OA
ATOM      7  O   UNL     1      48.400  82.796  30.862  1.00  0.00    -0.550 OA
ENDBRANCH   4   5
ENDBRANCH   3   4
ENDBRANCH   2   3
ENDBRANCH   1   2
BRANCH   1   8
ATOM      8  C   UNL     1      55.185  84.920  32.602  1.00  0.00     0.000 C 
BRANCH   8   9
ATOM      9  C   UNL     1      55.931  83.590  32.420  1.00  0.00     0.000 C 
BRANCH   9  10
ATOM     10  C   UNL     1      55.783  83.069  30.985  1.00  0.00     0.006 C 
BRANCH  10  11
ATOM     11  C   UNL     1      55.056  81.722  30.961  1.00  0.00     0.053 C 
BRANCH  11  12
ATOM     12  C   UNL     1      54.010  81.711  29.892  1.00  0.00     0.041 C 
ATOM     13  O   UNL     1      53.929  82.665  29.075  1.00  0.00    -0.550 OA
ATOM     14  O   UNL     1      53.092  80.669  29.827  1.00  0.00    -0.550 OA
ENDBRANCH  11  12
ENDBRANCH  10  11
ENDBRANCH   9  10
ENDBRANCH   8   9
ENDBRANCH   1   8
TORSDOF 9
ENDMDL
MODEL 7
REMARK VINA RESULT:    -2.786      1.612      5.254
REMARK INTER + INTRA:          -5.201
REMARK INTER:                  -4.229
REMARK INTRA:                  -0.973
REMARK UNBOUND:                -0.949
REMARK SMILES O=C([O-])CCCCCCCCC(=O)[O-]
REMARK SMILES IDX 7 1 6 2 5 3 4 4 2 5 1 6 3 7 8 8 9 9 10 10 11 11 12 12 13 13
REMARK SMILES IDX 14 14
REMARK H PARENT
REMARK Flexibility Score: inf
ROOT
ATOM      1  C   UNL     1      52.172  83.095  29.505  1.00  0.00     0.000 C 
ENDROOT
BRANCH   1   2
ATOM      2  C   UNL     1      52.304  84.282  30.475  1.00  0.00     0.000 C 
BRANCH   2   3
ATOM      3  C   UNL     1      51.730  83.972  31.867  1.00  0.00     0.006 C 
BRANCH   3   4
ATOM      4  C   UNL     1      50.830  82.730  31.873  1.00  0.00     0.053 C 
BRANCH   4   5
ATOM      5  C   UNL     1      49.388  83.131  31.886  1.00  0.00     0.041 C 
ATOM      6  O   UNL     1      48.730  83.163  30.813  1.00  0.00    -0.550 OA
ATOM      7  O   UNL     1      48.758  83.423  33.089  1.00  0.00    -0.550 OA
ENDBRANCH   4   5
ENDBRANCH   3   4
ENDBRANCH   2   3
ENDBRANCH   1   2
BRANCH   1   8
ATOM      8  C   UNL     1      53.518  82.404  29.231  1.00  0.00     0.000 C 
BRANCH   8   9
ATOM      9  C   UNL     1      53.894  81.383  30.316  1.00  0.00     0.000 C 
BRANCH   9  10
ATOM     10  C   UNL     1      55.262  81.710  30.927  1.00  0.00     0.006 C 
BRANCH  10  11
ATOM     11  C   UNL     1      55.107  82.486  32.238  1.00  0.00     0.053 C 
BRANCH  11  12
ATOM     12  C   UNL     1      55.785  83.816  32.143  1.00  0.00     0.041 C 
ATOM     13  O   UNL     1      55.295  84.820  32.725  1.00  0.00    -0.550 OA
ATOM     14  O   UNL     1      56.931  83.959  31.371  1.00  0.00    -0.550 OA
ENDBRANCH  11  12
ENDBRANCH  10  11
ENDBRANCH   9  10
ENDBRANCH   8   9
ENDBRANCH   1   8
TORSDOF 9
ENDMDL
MODEL 8
REMARK VINA RESULT:    -2.762      1.982      2.255
REMARK INTER + INTRA:          -5.164
REMARK INTER:                  -4.200
REMARK INTRA:                  -0.964
REMARK UNBOUND:                -0.949
REMARK SMILES O=C([O-])CCCCCCCCC(=O)[O-]
REMARK SMILES IDX 7 1 6 2 5 3 4 4 2 5 1 6 3 7 8 8 9 9 10 10 11 11 12 12 13 13
REMARK SMILES IDX 14 14
REMARK H PARENT
REMARK Flexibility Score: inf
ROOT
ATOM      1  C   UNL     1      53.620  81.654  32.669  1.00  0.00     0.000 C 
ENDROOT
BRANCH   1   2
ATOM      2  C   UNL     1      55.059  81.768  32.137  1.00  0.00     0.000 C 
BRANCH   2   3
ATOM      3  C   UNL     1      55.791  83.007  32.677  1.00  0.00     0.006 C 
BRANCH   3   4
ATOM      4  C   UNL     1      55.475  84.276  31.875  1.00  0.00     0.053 C 
BRANCH   4   5
ATOM      5  C   UNL     1      56.255  84.293  30.598  1.00  0.00     0.041 C 
ATOM      6  O   UNL     1      57.510  84.214  30.621  1.00  0.00    -0.550 OA
ATOM      7  O   UNL     1      55.591  84.346  29.379  1.00  0.00    -0.550 OA
ENDBRANCH   4   5
ENDBRANCH   3   4
ENDBRANCH   2   3
ENDBRANCH   1   2
BRANCH   1   8
ATOM      8  C   UNL     1      52.570  81.699  31.548  1.00  0.00     0.000 C 
BRANCH   8   9
ATOM      9  C   UNL     1      53.182  81.503  30.152  1.00  0.00     0.000 C 
BRANCH   9  10
ATOM     10  C   UNL     1      52.617  82.524  29.156  1.00  0.00     0.006 C 
BRANCH  10  11
ATOM     11  C   UNL     1      52.046  83.744  29.884  1.00  0.00     0.053 C 
BRANCH  11  12
ATOM     12  C   UNL     1      50.615  83.957  29.505  1.00  0.00     0.041 C 
ATOM     13  O   UNL     1      50.256  85.040  28.971  1.00  0.00    -0.550 OA
ATOM     14  O   UNL     1      49.668  82.980  29.786  1.00  0.00    -0.550 OA
ENDBRANCH  11  12
ENDBRANCH  10  11
ENDBRANCH   9  10
ENDBRANCH   8   9
ENDBRANCH   1   8
TORSDOF 9
ENDMDL
MODEL 9
REMARK VINA RESULT:    -2.704     12.472     14.371
REMARK INTER + INTRA:          -5.076
REMARK INTER:                  -4.344
REMARK INTRA:                  -0.732
REMARK UNBOUND:                -0.949
REMARK SMILES O=C([O-])CCCCCCCCC(=O)[O-]
REMARK SMILES IDX 7 1 6 2 5 3 4 4 2 5 1 6 3 7 8 8 9 9 10 10 11 11 12 12 13 13
REMARK SMILES IDX 14 14
REMARK H PARENT
REMARK Flexibility Score: inf
ROOT
ATOM      1  C   UNL     1      49.692  83.999  44.016  1.00  0.00     0.000 C 
ENDROOT
BRANCH   1   2
ATOM      2  C   UNL     1      48.292  84.456  43.569  1.00  0.00     0.000 C 
BRANCH   2   3
ATOM      3  C   UNL     1      47.875  83.844  42.222  1.00  0.00     0.006 C 
BRANCH   3   4
ATOM      4  C   UNL     1      48.980  82.983  41.595  1.00  0.00     0.053 C 
BRANCH   4   5
ATOM      5  C   UNL     1      48.556  81.549  41.541  1.00  0.00     0.041 C 
ATOM      6  O   UNL     1      48.853  80.838  40.546  1.00  0.00    -0.550 OA
ATOM      7  O   UNL     1      47.875  80.985  42.612  1.00  0.00    -0.550 OA
ENDBRANCH   4   5
ENDBRANCH   3   4
ENDBRANCH   2   3
ENDBRANCH   1   2
BRANCH   1   8
ATOM      8  C   UNL     1      49.676  83.296  45.382  1.00  0.00     0.000 C 
BRANCH   8   9
ATOM      9  C   UNL     1      48.282  83.284  46.028  1.00  0.00     0.000 C 
BRANCH   9  10
ATOM     10  C   UNL     1      47.984  81.921  46.667  1.00  0.00     0.006 C 
BRANCH  10  11
ATOM     11  C   UNL     1      48.939  80.846  46.140  1.00  0.00     0.053 C 
BRANCH  11  12
ATOM     12  C   UNL     1      48.875  79.623  46.998  1.00  0.00     0.041 C 
ATOM     13  O   UNL     1      48.962  79.722  48.250  1.00  0.00    -0.550 OA
ATOM     14  O   UNL     1      48.767  78.367  46.412  1.00  0.00    -0.550 OA
ENDBRANCH  11  12
ENDBRANCH  10  11
ENDBRANCH   9  10
ENDBRANCH   8   9
ENDBRANCH   1   8
TORSDOF 9
ENDMDL
