MODEL 1
REMARK VINA RESULT:    -4.891      0.000      0.000
REMARK INTER + INTRA:          -9.764
REMARK INTER:                  -8.607
REMARK INTRA:                  -1.156
REMARK UNBOUND:                -1.156
REMARK SMILES CCCCCCCCCCCCCCC(=O)[O-]
REMARK SMILES IDX 9 1 10 2 11 3 12 4 13 5 14 6 15 7 16 8 17 9 8 10 7 11 6 12
REMARK SMILES IDX 5 13 4 14 3 15 2 16 1 17
REMARK H PARENT
REMARK Flexibility Score: inf
ROOT
ATOM      1  C   UNL     1     -17.333  40.555  11.666  1.00  0.00     0.000 C 
ENDROOT
BRANCH   1   2
ATOM      2  C   UNL     1     -16.011  39.876  12.068  1.00  0.00     0.000 C 
BRANCH   2   3
ATOM      3  C   UNL     1     -16.159  38.465  12.674  1.00  0.00     0.000 C 
BRANCH   3   4
ATOM      4  C   UNL     1     -17.379  38.274  13.592  1.00  0.00     0.000 C 
BRANCH   4   5
ATOM      5  C   UNL     1     -18.189  37.012  13.251  1.00  0.00     0.006 C 
BRANCH   5   6
ATOM      6  C   UNL     1     -17.290  35.845  12.824  1.00  0.00     0.053 C 
BRANCH   6   7
ATOM      7  C   UNL     1     -17.199  34.797  13.890  1.00  0.00     0.041 C 
ATOM      8  O   UNL     1     -17.709  33.660  13.708  1.00  0.00    -0.550 OA
ATOM      9  O   UNL     1     -16.582  35.087  15.101  1.00  0.00    -0.550 OA
ENDBRANCH   6   7
ENDBRANCH   5   6
ENDBRANCH   4   5
ENDBRANCH   3   4
ENDBRANCH   2   3
ENDBRANCH   1   2
BRANCH   1  10
ATOM     10  C   UNL     1     -17.319  41.080  10.223  1.00  0.00     0.000 C 
BRANCH  10  11
ATOM     11  C   UNL     1     -16.268  40.346   9.382  1.00  0.00    -0.000 C 
BRANCH  11  12
ATOM     12  C   UNL     1     -15.485  41.326   8.500  1.00  0.00    -0.000 C 
BRANCH  12  13
ATOM     13  C   UNL     1     -16.304  41.730   7.265  1.00  0.00    -0.000 C 
BRANCH  13  14
ATOM     14  C   UNL     1     -16.152  43.219   6.916  1.00  0.00    -0.000 C 
BRANCH  14  15
ATOM     15  C   UNL     1     -16.804  44.141   7.962  1.00  0.00    -0.000 C 
BRANCH  15  16
ATOM     16  C   UNL     1     -15.796  45.107   8.604  1.00  0.00    -0.003 C 
ATOM     17  C   UNL     1     -15.416  44.700  10.027  1.00  0.00     0.004 C 
ENDBRANCH  15  16
ENDBRANCH  14  15
ENDBRANCH  13  14
ENDBRANCH  12  13
ENDBRANCH  11  12
ENDBRANCH  10  11
ENDBRANCH   1  10
TORSDOF 13
ENDMDL
MODEL 2
REMARK VINA RESULT:    -4.880      6.240      8.608
REMARK INTER + INTRA:          -9.746
REMARK INTER:                  -8.505
REMARK INTRA:                  -1.241
REMARK UNBOUND:                -1.156
REMARK SMILES CCCCCCCCCCCCCCC(=O)[O-]
REMARK SMILES IDX 9 1 10 2 11 3 12 4 13 5 14 6 15 7 16 8 17 9 8 10 7 11 6 12
REMARK SMILES IDX 5 13 4 14 3 15 2 16 1 17
REMARK H PARENT
REMARK Flexibility Score: inf
ROOT
ATOM      1  C   UNL     1     -16.606  37.498  16.899  1.00  0.00     0.000 C 
ENDROOT
BRANCH   1   2
ATOM      2  C   UNL     1     -16.952  37.489  18.399  1.00  0.00     0.000 C 
BRANCH   2   3
ATOM      3  C   UNL     1     -16.937  38.873  19.082  1.00  0.00     0.000 C 
BRANCH   3   4
ATOM      4  C   UNL     1     -17.781  39.954  18.384  1.00  0.00     0.000 C 
BRANCH   4   5
ATOM      5  C   UNL     1     -18.860  40.552  19.302  1.00  0.00     0.006 C 
BRANCH   5   6
ATOM      6  C   UNL     1     -18.506  41.972  19.762  1.00  0.00     0.053 C 
BRANCH   6   7
ATOM      7  C   UNL     1     -17.778  41.965  21.071  1.00  0.00     0.041 C 
ATOM      8  O   UNL     1     -17.698  40.906  21.746  1.00  0.00    -0.550 OA
ATOM      9  O   UNL     1     -17.218  43.138  21.564  1.00  0.00    -0.550 OA
ENDBRANCH   6   7
ENDBRANCH   5   6
ENDBRANCH   4   5
ENDBRANCH   3   4
ENDBRANCH   2   3
ENDBRANCH   1   2
BRANCH   1  10
ATOM     10  C   UNL     1     -15.920  36.203  16.438  1.00  0.00     0.000 C 
BRANCH  10  11
ATOM     11  C   UNL     1     -15.004  36.466  15.237  1.00  0.00    -0.000 C 
BRANCH  11  12
ATOM     12  C   UNL     1     -15.591  37.546  14.321  1.00  0.00    -0.000 C 
BRANCH  12  13
ATOM     13  C   UNL     1     -15.508  37.122  12.848  1.00  0.00    -0.000 C 
BRANCH  13  14
ATOM     14  C   UNL     1     -16.713  36.274  12.408  1.00  0.00    -0.000 C 
BRANCH  14  15
ATOM     15  C   UNL     1     -17.983  36.584  13.220  1.00  0.00    -0.000 C 
BRANCH  15  16
ATOM     16  C   UNL     1     -18.578  35.331  13.880  1.00  0.00    -0.003 C 
ATOM     17  C   UNL     1     -17.692  34.098  13.710  1.00  0.00     0.004 C 
ENDBRANCH  15  16
ENDBRANCH  14  15
ENDBRANCH  13  14
ENDBRANCH  12  13
ENDBRANCH  11  12
ENDBRANCH  10  11
ENDBRANCH   1  10
TORSDOF 13
ENDMDL
MODEL 3
REMARK VINA RESULT:    -4.792      6.238      8.804
REMARK INTER + INTRA:          -9.590
REMARK INTER:                  -8.633
REMARK INTRA:                  -0.956
REMARK UNBOUND:                -1.156
REMARK SMILES CCCCCCCCCCCCCCC(=O)[O-]
REMARK SMILES IDX 9 1 10 2 11 3 12 4 13 5 14 6 15 7 16 8 17 9 8 10 7 11 6 12
REMARK SMILES IDX 5 13 4 14 3 15 2 16 1 17
REMARK H PARENT
REMARK Flexibility Score: inf
ROOT
ATOM      1  C   UNL     1     -16.911  37.744  17.254  1.00  0.00     0.000 C 
ENDROOT
BRANCH   1   2
ATOM      2  C   UNL     1     -16.950  38.137  18.742  1.00  0.00     0.000 C 
BRANCH   2   3
ATOM      3  C   UNL     1     -18.020  39.185  19.114  1.00  0.00     0.000 C 
BRANCH   3   4
ATOM      4  C   UNL     1     -17.716  40.620  18.648  1.00  0.00     0.000 C 
BRANCH   4   5
ATOM      5  C   UNL     1     -18.442  41.685  19.489  1.00  0.00     0.006 C 
BRANCH   5   6
ATOM      6  C   UNL     1     -18.521  41.296  20.971  1.00  0.00     0.053 C 
BRANCH   6   7
ATOM      7  C   UNL     1     -17.219  41.529  21.675  1.00  0.00     0.041 C 
ATOM      8  O   UNL     1     -16.696  42.674  21.678  1.00  0.00    -0.550 OA
ATOM      9  O   UNL     1     -16.565  40.473  22.298  1.00  0.00    -0.550 OA
ENDBRANCH   6   7
ENDBRANCH   5   6
ENDBRANCH   4   5
ENDBRANCH   3   4
ENDBRANCH   2   3
ENDBRANCH   1   2
BRANCH   1  10
ATOM     10  C   UNL     1     -16.119  36.452  16.999  1.00  0.00     0.000 C 
BRANCH  10  11
ATOM     11  C   UNL     1     -15.616  36.395  15.553  1.00  0.00    -0.000 C 
BRANCH  11  12
ATOM     12  C   UNL     1     -16.159  37.571  14.732  1.00  0.00    -0.000 C 
BRANCH  12  13
ATOM     13  C   UNL     1     -15.504  37.622  13.344  1.00  0.00    -0.000 C 
BRANCH  13  14
ATOM     14  C   UNL     1     -15.440  36.243  12.669  1.00  0.00    -0.000 C 
BRANCH  14  15
ATOM     15  C   UNL     1     -16.795  35.806  12.086  1.00  0.00    -0.000 C 
BRANCH  15  16
ATOM     16  C   UNL     1     -17.116  34.333  12.383  1.00  0.00    -0.003 C 
ATOM     17  C   UNL     1     -17.895  34.151  13.686  1.00  0.00     0.004 C 
ENDBRANCH  15  16
ENDBRANCH  14  15
ENDBRANCH  13  14
ENDBRANCH  12  13
ENDBRANCH  11  12
ENDBRANCH  10  11
ENDBRANCH   1  10
TORSDOF 13
ENDMDL
MODEL 4
REMARK VINA RESULT:    -4.780      1.183      1.696
REMARK INTER + INTRA:          -9.569
REMARK INTER:                  -8.442
REMARK INTRA:                  -1.127
REMARK UNBOUND:                -1.156
REMARK SMILES CCCCCCCCCCCCCCC(=O)[O-]
REMARK SMILES IDX 9 1 10 2 11 3 12 4 13 5 14 6 15 7 16 8 17 9 8 10 7 11 6 12
REMARK SMILES IDX 5 13 4 14 3 15 2 16 1 17
REMARK H PARENT
REMARK Flexibility Score: inf
ROOT
ATOM      1  C   UNL     1     -16.074  40.057  11.932  1.00  0.00     0.000 C 
ENDROOT
BRANCH   1   2
ATOM      2  C   UNL     1     -16.298  38.669  12.559  1.00  0.00     0.000 C 
BRANCH   2   3
ATOM      3  C   UNL     1     -17.662  38.477  13.255  1.00  0.00     0.000 C 
BRANCH   3   4
ATOM      4  C   UNL     1     -18.201  37.036  13.249  1.00  0.00     0.000 C 
BRANCH   4   5
ATOM      5  C   UNL     1     -17.093  35.986  13.055  1.00  0.00     0.006 C 
BRANCH   5   6
ATOM      6  C   UNL     1     -16.844  35.167  14.328  1.00  0.00     0.053 C 
BRANCH   6   7
ATOM      7  C   UNL     1     -15.809  35.806  15.203  1.00  0.00     0.041 C 
ATOM      8  O   UNL     1     -14.663  36.062  14.747  1.00  0.00    -0.550 OA
ATOM      9  O   UNL     1     -16.098  36.085  16.533  1.00  0.00    -0.550 OA
ENDBRANCH   6   7
ENDBRANCH   5   6
ENDBRANCH   4   5
ENDBRANCH   3   4
ENDBRANCH   2   3
ENDBRANCH   1   2
BRANCH   1  10
ATOM     10  C   UNL     1     -17.382  40.731  11.493  1.00  0.00     0.000 C 
BRANCH  10  11
ATOM     11  C   UNL     1     -17.316  41.149  10.019  1.00  0.00    -0.000 C 
BRANCH  11  12
ATOM     12  C   UNL     1     -16.218  40.378   9.276  1.00  0.00    -0.000 C 
BRANCH  12  13
ATOM     13  C   UNL     1     -15.806  41.109   7.991  1.00  0.00    -0.000 C 
BRANCH  13  14
ATOM     14  C   UNL     1     -16.618  42.393   7.754  1.00  0.00    -0.000 C 
BRANCH  14  15
ATOM     15  C   UNL     1     -15.736  43.584   7.342  1.00  0.00    -0.000 C 
BRANCH  15  16
ATOM     16  C   UNL     1     -16.018  44.842   8.179  1.00  0.00    -0.003 C 
ATOM     17  C   UNL     1     -15.598  44.683   9.640  1.00  0.00     0.004 C 
ENDBRANCH  15  16
ENDBRANCH  14  15
ENDBRANCH  13  14
ENDBRANCH  12  13
ENDBRANCH  11  12
ENDBRANCH  10  11
ENDBRANCH   1  10
TORSDOF 13
ENDMDL
MODEL 5
REMARK VINA RESULT:    -4.775      5.468      9.003
REMARK INTER + INTRA:          -9.561
REMARK INTER:                  -8.613
REMARK INTRA:                  -0.948
REMARK UNBOUND:                -1.156
REMARK SMILES CCCCCCCCCCCCCCC(=O)[O-]
REMARK SMILES IDX 9 1 10 2 11 3 12 4 13 5 14 6 15 7 16 8 17 9 8 10 7 11 6 12
REMARK SMILES IDX 5 13 4 14 3 15 2 16 1 17
REMARK H PARENT
REMARK Flexibility Score: inf
ROOT
ATOM      1  C   UNL     1     -16.499  37.413  16.789  1.00  0.00     0.000 C 
ENDROOT
BRANCH   1   2
ATOM      2  C   UNL     1     -15.960  35.980  16.619  1.00  0.00     0.000 C 
BRANCH   2   3
ATOM      3  C   UNL     1     -15.686  35.553  15.163  1.00  0.00     0.000 C 
BRANCH   3   4
ATOM      4  C   UNL     1     -14.672  36.428  14.406  1.00  0.00     0.000 C 
BRANCH   4   5
ATOM      5  C   UNL     1     -15.213  36.940  13.060  1.00  0.00     0.006 C 
BRANCH   5   6
ATOM      6  C   UNL     1     -15.688  38.396  13.144  1.00  0.00     0.053 C 
BRANCH   6   7
ATOM      7  C   UNL     1     -17.166  38.511  12.929  1.00  0.00     0.041 C 
ATOM      8  O   UNL     1     -17.650  39.538  12.386  1.00  0.00    -0.550 OA
ATOM      9  O   UNL     1     -18.013  37.498  13.363  1.00  0.00    -0.550 OA
ENDBRANCH   6   7
ENDBRANCH   5   6
ENDBRANCH   4   5
ENDBRANCH   3   4
ENDBRANCH   2   3
ENDBRANCH   1   2
BRANCH   1  10
ATOM     10  C   UNL     1     -16.878  37.740  18.241  1.00  0.00     0.000 C 
BRANCH  10  11
ATOM     11  C   UNL     1     -17.299  39.207  18.381  1.00  0.00    -0.000 C 
BRANCH  11  12
ATOM     12  C   UNL     1     -18.419  39.363  19.416  1.00  0.00    -0.000 C 
BRANCH  12  13
ATOM     13  C   UNL     1     -18.885  40.823  19.507  1.00  0.00    -0.000 C 
BRANCH  13  14
ATOM     14  C   UNL     1     -18.625  41.441  20.890  1.00  0.00    -0.000 C 
BRANCH  14  15
ATOM     15  C   UNL     1     -17.265  42.157  20.973  1.00  0.00    -0.000 C 
BRANCH  15  16
ATOM     16  C   UNL     1     -16.394  41.633  22.125  1.00  0.00    -0.003 C 
ATOM     17  C   UNL     1     -16.723  40.189  22.503  1.00  0.00     0.004 C 
ENDBRANCH  15  16
ENDBRANCH  14  15
ENDBRANCH  13  14
ENDBRANCH  12  13
ENDBRANCH  11  12
ENDBRANCH  10  11
ENDBRANCH   1  10
TORSDOF 13
ENDMDL
MODEL 6
REMARK VINA RESULT:    -4.751      1.528      2.124
REMARK INTER + INTRA:          -9.518
REMARK INTER:                  -8.142
REMARK INTRA:                  -1.376
REMARK UNBOUND:                -1.156
REMARK SMILES CCCCCCCCCCCCCCC(=O)[O-]
REMARK SMILES IDX 9 1 10 2 11 3 12 4 13 5 14 6 15 7 16 8 17 9 8 10 7 11 6 12
REMARK SMILES IDX 5 13 4 14 3 15 2 16 1 17
REMARK H PARENT
REMARK Flexibility Score: inf
ROOT
ATOM      1  C   UNL     1     -17.042  40.921  10.445  1.00  0.00     0.000 C 
ENDROOT
BRANCH   1   2
ATOM      2  C   UNL     1     -16.254  40.685  11.747  1.00  0.00     0.000 C 
BRANCH   2   3
ATOM      3  C   UNL     1     -16.280  39.235  12.273  1.00  0.00     0.000 C 
BRANCH   3   4
ATOM      4  C   UNL     1     -17.638  38.764  12.823  1.00  0.00     0.000 C 
BRANCH   4   5
ATOM      5  C   UNL     1     -17.678  37.252  13.099  1.00  0.00     0.006 C 
BRANCH   5   6
ATOM      6  C   UNL     1     -16.319  36.583  12.851  1.00  0.00     0.053 C 
BRANCH   6   7
ATOM      7  C   UNL     1     -16.377  35.624  11.701  1.00  0.00     0.041 C 
ATOM      8  O   UNL     1     -16.985  34.528  11.819  1.00  0.00    -0.550 OA
ATOM      9  O   UNL     1     -15.726  35.924  10.510  1.00  0.00    -0.550 OA
ENDBRANCH   6   7
ENDBRANCH   5   6
ENDBRANCH   4   5
ENDBRANCH   3   4
ENDBRANCH   2   3
ENDBRANCH   1   2
BRANCH   1  10
ATOM     10  C   UNL     1     -16.206  40.652   9.185  1.00  0.00     0.000 C 
BRANCH  10  11
ATOM     11  C   UNL     1     -16.340  41.804   8.182  1.00  0.00    -0.000 C 
BRANCH  11  12
ATOM     12  C   UNL     1     -17.469  42.760   8.588  1.00  0.00    -0.000 C 
BRANCH  12  13
ATOM     13  C   UNL     1     -17.199  44.180   8.071  1.00  0.00    -0.000 C 
BRANCH  13  14
ATOM     14  C   UNL     1     -15.714  44.569   8.159  1.00  0.00    -0.000 C 
BRANCH  14  15
ATOM     15  C   UNL     1     -15.392  45.395   9.417  1.00  0.00    -0.000 C 
BRANCH  15  16
ATOM     16  C   UNL     1     -15.214  44.518  10.667  1.00  0.00    -0.003 C 
ATOM     17  C   UNL     1     -14.032  43.556  10.546  1.00  0.00     0.004 C 
ENDBRANCH  15  16
ENDBRANCH  14  15
ENDBRANCH  13  14
ENDBRANCH  12  13
ENDBRANCH  11  12
ENDBRANCH  10  11
ENDBRANCH   1  10
TORSDOF 13
ENDMDL
MODEL 7
REMARK VINA RESULT:    -4.741      6.471      9.527
REMARK INTER + INTRA:          -9.501
REMARK INTER:                  -8.601
REMARK INTRA:                  -0.900
REMARK UNBOUND:                -1.156
REMARK SMILES CCCCCCCCCCCCCCC(=O)[O-]
REMARK SMILES IDX 9 1 10 2 11 3 12 4 13 5 14 6 15 7 16 8 17 9 8 10 7 11 6 12
REMARK SMILES IDX 5 13 4 14 3 15 2 16 1 17
REMARK H PARENT
REMARK Flexibility Score: inf
ROOT
ATOM      1  C   UNL     1     -17.315  39.206  18.658  1.00  0.00     0.000 C 
ENDROOT
BRANCH   1   2
ATOM      2  C   UNL     1     -18.496  39.306  19.640  1.00  0.00     0.000 C 
BRANCH   2   3
ATOM      3  C   UNL     1     -19.219  40.669  19.657  1.00  0.00     0.000 C 
BRANCH   3   4
ATOM      4  C   UNL     1     -18.302  41.896  19.513  1.00  0.00     0.000 C 
BRANCH   4   5
ATOM      5  C   UNL     1     -17.967  42.551  20.864  1.00  0.00     0.006 C 
BRANCH   5   6
ATOM      6  C   UNL     1     -16.711  41.948  21.504  1.00  0.00     0.053 C 
BRANCH   6   7
ATOM      7  C   UNL     1     -15.766  43.010  21.978  1.00  0.00     0.041 C 
ATOM      8  O   UNL     1     -16.053  44.226  21.828  1.00  0.00    -0.550 OA
ATOM      9  O   UNL     1     -14.551  42.656  22.552  1.00  0.00    -0.550 OA
ENDBRANCH   6   7
ENDBRANCH   5   6
ENDBRANCH   4   5
ENDBRANCH   3   4
ENDBRANCH   2   3
ENDBRANCH   1   2
BRANCH   1  10
ATOM     10  C   UNL     1     -16.945  37.755  18.315  1.00  0.00     0.000 C 
BRANCH  10  11
ATOM     11  C   UNL     1     -16.608  37.612  16.827  1.00  0.00    -0.000 C 
BRANCH  11  12
ATOM     12  C   UNL     1     -16.033  36.223  16.523  1.00  0.00    -0.000 C 
BRANCH  12  13
ATOM     13  C   UNL     1     -15.005  36.290  15.384  1.00  0.00    -0.000 C 
BRANCH  13  14
ATOM     14  C   UNL     1     -15.632  36.710  14.045  1.00  0.00    -0.000 C 
BRANCH  14  15
ATOM     15  C   UNL     1     -16.807  35.807  13.633  1.00  0.00    -0.000 C 
BRANCH  15  16
ATOM     16  C   UNL     1     -18.084  36.605  13.329  1.00  0.00    -0.003 C 
ATOM     17  C   UNL     1     -17.842  38.115  13.303  1.00  0.00     0.004 C 
ENDBRANCH  15  16
ENDBRANCH  14  15
ENDBRANCH  13  14
ENDBRANCH  12  13
ENDBRANCH  11  12
ENDBRANCH  10  11
ENDBRANCH   1  10
TORSDOF 13
ENDMDL
MODEL 8
REMARK VINA RESULT:    -4.646      4.114      8.445
REMARK INTER + INTRA:          -9.332
REMARK INTER:                  -8.209
REMARK INTRA:                  -1.124
REMARK UNBOUND:                -1.156
REMARK SMILES CCCCCCCCCCCCCCC(=O)[O-]
REMARK SMILES IDX 9 1 10 2 11 3 12 4 13 5 14 6 15 7 16 8 17 9 8 10 7 11 6 12
REMARK SMILES IDX 5 13 4 14 3 15 2 16 1 17
REMARK H PARENT
REMARK Flexibility Score: inf
ROOT
ATOM      1  C   UNL     1     -17.357  41.043  11.702  1.00  0.00     0.000 C 
ENDROOT
BRANCH   1   2
ATOM      2  C   UNL     1     -17.680  41.496  10.266  1.00  0.00     0.000 C 
BRANCH   2   3
ATOM      3  C   UNL     1     -16.594  41.174   9.219  1.00  0.00     0.000 C 
BRANCH   3   4
ATOM      4  C   UNL     1     -16.487  42.179   8.059  1.00  0.00     0.000 C 
BRANCH   4   5
ATOM      5  C   UNL     1     -17.189  43.514   8.361  1.00  0.00     0.006 C 
BRANCH   5   6
ATOM      6  C   UNL     1     -16.302  44.721   8.029  1.00  0.00     0.053 C 
BRANCH   6   7
ATOM      7  C   UNL     1     -15.476  45.141   9.206  1.00  0.00     0.041 C 
ATOM      8  O   UNL     1     -14.629  46.065   9.089  1.00  0.00    -0.550 OA
ATOM      9  O   UNL     1     -15.614  44.486  10.424  1.00  0.00    -0.550 OA
ENDBRANCH   6   7
ENDBRANCH   5   6
ENDBRANCH   4   5
ENDBRANCH   3   4
ENDBRANCH   2   3
ENDBRANCH   1   2
BRANCH   1  10
ATOM     10  C   UNL     1     -16.070  40.210  11.790  1.00  0.00     0.000 C 
BRANCH  10  11
ATOM     11  C   UNL     1     -16.319  38.893  12.533  1.00  0.00    -0.000 C 
BRANCH  11  12
ATOM     12  C   UNL     1     -17.784  38.775  12.970  1.00  0.00    -0.000 C 
BRANCH  12  13
ATOM     13  C   UNL     1     -18.135  37.324  13.332  1.00  0.00    -0.000 C 
BRANCH  13  14
ATOM     14  C   UNL     1     -17.115  36.314  12.783  1.00  0.00    -0.000 C 
BRANCH  14  15
ATOM     15  C   UNL     1     -16.944  35.089  13.697  1.00  0.00    -0.000 C 
BRANCH  15  16
ATOM     16  C   UNL     1     -16.368  35.457  15.073  1.00  0.00    -0.003 C 
ATOM     17  C   UNL     1     -14.991  36.113  14.979  1.00  0.00     0.004 C 
ENDBRANCH  15  16
ENDBRANCH  14  15
ENDBRANCH  13  14
ENDBRANCH  12  13
ENDBRANCH  11  12
ENDBRANCH  10  11
ENDBRANCH   1  10
TORSDOF 13
ENDMDL
MODEL 9
REMARK VINA RESULT:    -4.609      7.178      9.514
REMARK INTER + INTRA:          -9.267
REMARK INTER:                  -8.706
REMARK INTRA:                  -0.562
REMARK UNBOUND:                -1.156
REMARK SMILES CCCCCCCCCCCCCCC(=O)[O-]
REMARK SMILES IDX 9 1 10 2 11 3 12 4 13 5 14 6 15 7 16 8 17 9 8 10 7 11 6 12
REMARK SMILES IDX 5 13 4 14 3 15 2 16 1 17
REMARK H PARENT
REMARK Flexibility Score: inf
ROOT
ATOM      1  C   UNL     1     -18.151  39.314  19.231  1.00  0.00     0.000 C 
ENDROOT
BRANCH   1   2
ATOM      2  C   UNL     1     -16.994  38.367  18.866  1.00  0.00     0.000 C 
BRANCH   2   3
ATOM      3  C   UNL     1     -16.977  37.890  17.399  1.00  0.00     0.000 C 
BRANCH   3   4
ATOM      4  C   UNL     1     -16.221  36.574  17.149  1.00  0.00     0.000 C 
BRANCH   4   5
ATOM      5  C   UNL     1     -15.730  36.435  15.697  1.00  0.00     0.006 C 
BRANCH   5   6
ATOM      6  C   UNL     1     -16.396  37.453  14.762  1.00  0.00     0.053 C 
BRANCH   6   7
ATOM      7  C   UNL     1     -15.603  37.653  13.506  1.00  0.00     0.041 C 
ATOM      8  O   UNL     1     -15.023  36.677  12.961  1.00  0.00    -0.550 OA
ATOM      9  O   UNL     1     -15.474  38.923  12.959  1.00  0.00    -0.550 OA
ENDBRANCH   6   7
ENDBRANCH   5   6
ENDBRANCH   4   5
ENDBRANCH   3   4
ENDBRANCH   2   3
ENDBRANCH   1   2
BRANCH   1  10
ATOM     10  C   UNL     1     -17.901  40.762  18.785  1.00  0.00     0.000 C 
BRANCH  10  11
ATOM     11  C   UNL     1     -18.220  41.747  19.916  1.00  0.00    -0.000 C 
BRANCH  11  12
ATOM     12  C   UNL     1     -17.573  41.303  21.233  1.00  0.00    -0.000 C 
BRANCH  12  13
ATOM     13  C   UNL     1     -16.695  42.419  21.818  1.00  0.00    -0.000 C 
BRANCH  13  14
ATOM     14  C   UNL     1     -17.286  43.819  21.588  1.00  0.00    -0.000 C 
BRANCH  14  15
ATOM     15  C   UNL     1     -16.507  44.919  22.329  1.00  0.00    -0.000 C 
BRANCH  15  16
ATOM     16  C   UNL     1     -16.394  46.214  21.509  1.00  0.00    -0.003 C 
ATOM     17  C   UNL     1     -16.091  47.435  22.376  1.00  0.00     0.004 C 
ENDBRANCH  15  16
ENDBRANCH  14  15
ENDBRANCH  13  14
ENDBRANCH  12  13
ENDBRANCH  11  12
ENDBRANCH  10  11
ENDBRANCH   1  10
TORSDOF 13
ENDMDL
