MODEL 1
REMARK VINA RESULT:    -2.872      0.000      0.000
REMARK INTER + INTRA:          -3.600
REMARK INTER:                  -3.544
REMARK INTRA:                  -0.056
REMARK UNBOUND:                -0.056
REMARK SMILES CCCCCC(=O)[O-]
REMARK SMILES IDX 4 1 5 2 6 3 7 4 8 5 3 6 2 7 1 8
REMARK H PARENT
REMARK Flexibility Score: inf
ROOT
ATOM      1  C   UNL     1       5.809   5.556   1.621  1.00  0.00     0.006 C 
ENDROOT
BRANCH   1   2
ATOM      2  C   UNL     1       6.303   5.055   0.261  1.00  0.00     0.053 C 
BRANCH   2   3
ATOM      3  C   UNL     1       7.795   4.941   0.256  1.00  0.00     0.041 C 
ATOM      4  O   UNL     1       8.359   4.031  -0.409  1.00  0.00    -0.550 OA
ATOM      5  O   UNL     1       8.566   5.866   0.947  1.00  0.00    -0.550 OA
ENDBRANCH   2   3
ENDBRANCH   1   2
BRANCH   1   6
ATOM      6  C   UNL     1       4.366   5.097   1.883  1.00  0.00     0.000 C 
BRANCH   6   7
ATOM      7  C   UNL     1       4.178   4.518   3.294  1.00  0.00    -0.003 C 
ATOM      8  C   UNL     1       3.198   3.345   3.326  1.00  0.00     0.004 C 
ENDBRANCH   6   7
ENDBRANCH   1   6
TORSDOF 4
ENDMDL
MODEL 2
REMARK VINA RESULT:    -2.869      0.232      1.155
REMARK INTER + INTRA:          -3.596
REMARK INTER:                  -3.538
REMARK INTRA:                  -0.058
REMARK UNBOUND:                -0.056
REMARK SMILES CCCCCC(=O)[O-]
REMARK SMILES IDX 4 1 5 2 6 3 7 4 8 5 3 6 2 7 1 8
REMARK H PARENT
REMARK Flexibility Score: inf
ROOT
ATOM      1  C   UNL     1       5.690   5.559   1.748  1.00  0.00     0.006 C 
ENDROOT
BRANCH   1   2
ATOM      2  C   UNL     1       6.220   5.132   0.375  1.00  0.00     0.053 C 
BRANCH   2   3
ATOM      3  C   UNL     1       7.702   4.935   0.425  1.00  0.00     0.041 C 
ATOM      4  O   UNL     1       8.395   5.549   1.279  1.00  0.00    -0.550 OA
ATOM      5  O   UNL     1       8.313   4.037  -0.440  1.00  0.00    -0.550 OA
ENDBRANCH   2   3
ENDBRANCH   1   2
BRANCH   1   6
ATOM      6  C   UNL     1       4.273   5.014   1.982  1.00  0.00     0.000 C 
BRANCH   6   7
ATOM      7  C   UNL     1       4.116   4.349   3.358  1.00  0.00    -0.003 C 
ATOM      8  C   UNL     1       3.056   3.247   3.365  1.00  0.00     0.004 C 
ENDBRANCH   6   7
ENDBRANCH   1   6
TORSDOF 4
ENDMDL
MODEL 3
REMARK VINA RESULT:    -2.634      8.226      9.231
REMARK INTER + INTRA:          -3.306
REMARK INTER:                  -3.251
REMARK INTRA:                  -0.054
REMARK UNBOUND:                -0.056
REMARK SMILES CCCCCC(=O)[O-]
REMARK SMILES IDX 4 1 5 2 6 3 7 4 8 5 3 6 2 7 1 8
REMARK H PARENT
REMARK Flexibility Score: inf
ROOT
ATOM      1  C   UNL     1       4.167  -0.343  -6.135  1.00  0.00     0.006 C 
ENDROOT
BRANCH   1   2
ATOM      2  C   UNL     1       4.350   1.119  -5.719  1.00  0.00     0.053 C 
BRANCH   2   3
ATOM      3  C   UNL     1       3.089   1.653  -5.116  1.00  0.00     0.041 C 
ATOM      4  O   UNL     1       2.103   1.928  -5.850  1.00  0.00    -0.550 OA
ATOM      5  O   UNL     1       2.986   1.804  -3.740  1.00  0.00    -0.550 OA
ENDBRANCH   2   3
ENDBRANCH   1   2
BRANCH   1   6
ATOM      6  C   UNL     1       5.452  -1.149  -5.890  1.00  0.00     0.000 C 
BRANCH   6   7
ATOM      7  C   UNL     1       5.243  -2.310  -4.906  1.00  0.00    -0.003 C 
ATOM      8  C   UNL     1       6.557  -2.859  -4.351  1.00  0.00     0.004 C 
ENDBRANCH   6   7
ENDBRANCH   1   6
TORSDOF 4
ENDMDL
MODEL 4
REMARK VINA RESULT:    -2.520     10.221     11.048
REMARK INTER + INTRA:          -3.165
REMARK INTER:                  -2.987
REMARK INTRA:                  -0.178
REMARK UNBOUND:                -0.056
REMARK SMILES CCCCCC(=O)[O-]
REMARK SMILES IDX 4 1 5 2 6 3 7 4 8 5 3 6 2 7 1 8
REMARK H PARENT
REMARK Flexibility Score: inf
ROOT
ATOM      1  C   UNL     1      -2.995   5.343  -1.695  1.00  0.00     0.006 C 
ENDROOT
BRANCH   1   2
ATOM      2  C   UNL     1      -4.165   5.000  -2.621  1.00  0.00     0.053 C 
BRANCH   2   3
ATOM      3  C   UNL     1      -5.198   6.082  -2.584  1.00  0.00     0.041 C 
ATOM      4  O   UNL     1      -5.029   7.093  -1.852  1.00  0.00    -0.550 OA
ATOM      5  O   UNL     1      -6.323   5.998  -3.393  1.00  0.00    -0.550 OA
ENDBRANCH   2   3
ENDBRANCH   1   2
BRANCH   1   6
ATOM      6  C   UNL     1      -2.777   4.236  -0.653  1.00  0.00     0.000 C 
BRANCH   6   7
ATOM      7  C   UNL     1      -2.482   4.793   0.748  1.00  0.00    -0.003 C 
ATOM      8  C   UNL     1      -2.905   6.254   0.905  1.00  0.00     0.004 C 
ENDBRANCH   6   7
ENDBRANCH   1   6
TORSDOF 4
ENDMDL
MODEL 5
REMARK VINA RESULT:    -2.519      8.882      9.550
REMARK INTER + INTRA:          -3.163
REMARK INTER:                  -3.109
REMARK INTRA:                  -0.054
REMARK UNBOUND:                -0.056
REMARK SMILES CCCCCC(=O)[O-]
REMARK SMILES IDX 4 1 5 2 6 3 7 4 8 5 3 6 2 7 1 8
REMARK H PARENT
REMARK Flexibility Score: inf
ROOT
ATOM      1  C   UNL     1      -2.735   5.803   0.472  1.00  0.00     0.006 C 
ENDROOT
BRANCH   1   2
ATOM      2  C   UNL     1      -2.748   4.689  -0.578  1.00  0.00     0.053 C 
BRANCH   2   3
ATOM      3  C   UNL     1      -3.126   5.237  -1.918  1.00  0.00     0.041 C 
ATOM      4  O   UNL     1      -2.439   6.152  -2.444  1.00  0.00    -0.550 OA
ATOM      5  O   UNL     1      -4.207   4.705  -2.607  1.00  0.00    -0.550 OA
ENDBRANCH   2   3
ENDBRANCH   1   2
BRANCH   1   6
ATOM      6  C   UNL     1      -2.312   5.258   1.845  1.00  0.00     0.000 C 
BRANCH   6   7
ATOM      7  C   UNL     1      -3.080   5.913   3.003  1.00  0.00    -0.003 C 
ATOM      8  C   UNL     1      -3.396   4.934   4.133  1.00  0.00     0.004 C 
ENDBRANCH   6   7
ENDBRANCH   1   6
TORSDOF 4
ENDMDL
MODEL 6
REMARK VINA RESULT:    -2.474      9.534     10.328
REMARK INTER + INTRA:          -3.108
REMARK INTER:                  -3.003
REMARK INTRA:                  -0.105
REMARK UNBOUND:                -0.056
REMARK SMILES CCCCCC(=O)[O-]
REMARK SMILES IDX 4 1 5 2 6 3 7 4 8 5 3 6 2 7 1 8
REMARK H PARENT
REMARK Flexibility Score: inf
ROOT
ATOM      1  C   UNL     1      -2.951   5.408  -1.615  1.00  0.00     0.006 C 
ENDROOT
BRANCH   1   2
ATOM      2  C   UNL     1      -4.129   5.107  -2.545  1.00  0.00     0.053 C 
BRANCH   2   3
ATOM      3  C   UNL     1      -3.783   5.457  -3.958  1.00  0.00     0.041 C 
ATOM      4  O   UNL     1      -4.501   5.043  -4.907  1.00  0.00    -0.550 OA
ATOM      5  O   UNL     1      -2.696   6.278  -4.225  1.00  0.00    -0.550 OA
ENDBRANCH   2   3
ENDBRANCH   1   2
BRANCH   1   6
ATOM      6  C   UNL     1      -2.698   4.238  -0.653  1.00  0.00     0.000 C 
BRANCH   6   7
ATOM      7  C   UNL     1      -2.560   4.693   0.808  1.00  0.00    -0.003 C 
ATOM      8  C   UNL     1      -2.672   6.209   0.969  1.00  0.00     0.004 C 
ENDBRANCH   6   7
ENDBRANCH   1   6
TORSDOF 4
ENDMDL
MODEL 7
REMARK VINA RESULT:    -2.466     10.154     10.791
REMARK INTER + INTRA:          -3.099
REMARK INTER:                  -2.980
REMARK INTRA:                  -0.119
REMARK UNBOUND:                -0.056
REMARK SMILES CCCCCC(=O)[O-]
REMARK SMILES IDX 4 1 5 2 6 3 7 4 8 5 3 6 2 7 1 8
REMARK H PARENT
REMARK Flexibility Score: inf
ROOT
ATOM      1  C   UNL     1       3.733  -4.756  -4.193  1.00  0.00     0.006 C 
ENDROOT
BRANCH   1   2
ATOM      2  C   UNL     1       5.247  -4.543  -4.106  1.00  0.00     0.053 C 
BRANCH   2   3
ATOM      3  C   UNL     1       5.592  -3.116  -4.390  1.00  0.00     0.041 C 
ATOM      4  O   UNL     1       4.764  -2.368  -4.976  1.00  0.00    -0.550 OA
ATOM      5  O   UNL     1       6.808  -2.597  -3.967  1.00  0.00    -0.550 OA
ENDBRANCH   2   3
ENDBRANCH   1   2
BRANCH   1   6
ATOM      6  C   UNL     1       3.200  -5.441  -2.926  1.00  0.00     0.000 C 
BRANCH   6   7
ATOM      7  C   UNL     1       4.171  -6.494  -2.371  1.00  0.00    -0.003 C 
ATOM      8  C   UNL     1       3.942  -6.788  -0.888  1.00  0.00     0.004 C 
ENDBRANCH   6   7
ENDBRANCH   1   6
TORSDOF 4
ENDMDL
MODEL 8
REMARK VINA RESULT:    -2.452      9.251     10.099
REMARK INTER + INTRA:          -3.081
REMARK INTER:                  -2.960
REMARK INTRA:                  -0.121
REMARK UNBOUND:                -0.056
REMARK SMILES CCCCCC(=O)[O-]
REMARK SMILES IDX 4 1 5 2 6 3 7 4 8 5 3 6 2 7 1 8
REMARK H PARENT
REMARK Flexibility Score: inf
ROOT
ATOM      1  C   UNL     1      -2.463   4.763   0.730  1.00  0.00     0.006 C 
ENDROOT
BRANCH   1   2
ATOM      2  C   UNL     1      -2.817   6.247   0.869  1.00  0.00     0.053 C 
BRANCH   2   3
ATOM      3  C   UNL     1      -3.141   6.577   2.292  1.00  0.00     0.041 C 
ATOM      4  O   UNL     1      -3.416   7.762   2.620  1.00  0.00    -0.550 OA
ATOM      5  O   UNL     1      -3.186   5.570   3.246  1.00  0.00    -0.550 OA
ENDBRANCH   2   3
ENDBRANCH   1   2
BRANCH   1   6
ATOM      6  C   UNL     1      -2.808   4.245  -0.674  1.00  0.00     0.000 C 
BRANCH   6   7
ATOM      7  C   UNL     1      -3.055   5.381  -1.679  1.00  0.00    -0.003 C 
ATOM      8  C   UNL     1      -4.131   5.037  -2.708  1.00  0.00     0.004 C 
ENDBRANCH   6   7
ENDBRANCH   1   6
TORSDOF 4
ENDMDL
MODEL 9
REMARK VINA RESULT:    -2.437      7.809      9.231
REMARK INTER + INTRA:          -3.063
REMARK INTER:                  -3.008
REMARK INTRA:                  -0.056
REMARK UNBOUND:                -0.056
REMARK SMILES CCCCCC(=O)[O-]
REMARK SMILES IDX 4 1 5 2 6 3 7 4 8 5 3 6 2 7 1 8
REMARK H PARENT
REMARK Flexibility Score: inf
ROOT
ATOM      1  C   UNL     1       5.012   1.464  -6.393  1.00  0.00     0.006 C 
ENDROOT
BRANCH   1   2
ATOM      2  C   UNL     1       4.041   0.788  -5.420  1.00  0.00     0.053 C 
BRANCH   2   3
ATOM      3  C   UNL     1       3.069   1.786  -4.874  1.00  0.00     0.041 C 
ATOM      4  O   UNL     1       2.875   1.867  -3.632  1.00  0.00    -0.550 OA
ATOM      5  O   UNL     1       2.411   2.657  -5.731  1.00  0.00    -0.550 OA
ENDBRANCH   2   3
ENDBRANCH   1   2
BRANCH   1   6
ATOM      6  C   UNL     1       6.180   0.530  -6.740  1.00  0.00     0.000 C 
BRANCH   6   7
ATOM      7  C   UNL     1       7.540   1.245  -6.703  1.00  0.00    -0.003 C 
ATOM      8  C   UNL     1       8.649   0.377  -6.110  1.00  0.00     0.004 C 
ENDBRANCH   6   7
ENDBRANCH   1   6
TORSDOF 4
ENDMDL
