MODEL 1
REMARK VINA RESULT:    -5.620      0.000      0.000
REMARK INTER + INTRA:          -5.620
REMARK INTER:                  -5.620
REMARK INTRA:                   0.000
REMARK UNBOUND:                 0.000
REMARK SMILES O=c1ccc2ccccc2o1
REMARK SMILES IDX 7 1 8 2 9 3 10 4 5 5 6 6 4 7 3 8 2 9 1 10 11 11
REMARK H PARENT
REMARK Flexibility Score: inf
ROOT
ATOM      1  C   UNL     1      60.542  37.786  38.058  1.00  0.00     0.001 A 
ATOM      2  C   UNL     1      59.414  38.229  38.757  1.00  0.00     0.004 A 
ATOM      3  C   UNL     1      58.171  38.295  38.118  1.00  0.00     0.048 A 
ATOM      4  C   UNL     1      58.053  37.920  36.775  1.00  0.00     0.138 A 
ATOM      5  C   UNL     1      59.192  37.474  36.068  1.00  0.00     0.018 A 
ATOM      6  C   UNL     1      60.435  37.409  36.715  1.00  0.00     0.012 A 
ATOM      7  C   UNL     1      59.043  37.106  34.728  1.00  0.00     0.019 A 
ATOM      8  C   UNL     1      57.785  37.189  34.131  1.00  0.00     0.094 A 
ATOM      9  C   UNL     1      56.702  37.639  34.892  1.00  0.00     0.336 A 
ATOM     10  O   UNL     1      55.558  37.721  34.372  1.00  0.00    -0.246 OA
ATOM     11  O   UNL     1      56.870  37.984  36.168  1.00  0.00    -0.423 OA
ENDROOT
TORSDOF 0
ENDMDL
MODEL 2
REMARK VINA RESULT:    -5.496      3.090      4.738
REMARK INTER + INTRA:          -5.496
REMARK INTER:                  -5.496
REMARK INTRA:                   0.000
REMARK UNBOUND:                 0.000
REMARK SMILES O=c1ccc2ccccc2o1
REMARK SMILES IDX 7 1 8 2 9 3 10 4 5 5 6 6 4 7 3 8 2 9 1 10 11 11
REMARK H PARENT
REMARK Flexibility Score: inf
ROOT
ATOM      1  C   UNL     1      57.734  39.532  34.652  1.00  0.00     0.001 A 
ATOM      2  C   UNL     1      58.658  40.542  34.362  1.00  0.00     0.004 A 
ATOM      3  C   UNL     1      59.775  40.731  35.182  1.00  0.00     0.048 A 
ATOM      4  C   UNL     1      59.973  39.910  36.297  1.00  0.00     0.138 A 
ATOM      5  C   UNL     1      59.040  38.890  36.592  1.00  0.00     0.018 A 
ATOM      6  C   UNL     1      57.922  38.705  35.766  1.00  0.00     0.012 A 
ATOM      7  C   UNL     1      59.264  38.086  37.714  1.00  0.00     0.019 A 
ATOM      8  C   UNL     1      60.391  38.311  38.503  1.00  0.00     0.094 A 
ATOM      9  C   UNL     1      61.272  39.339  38.151  1.00  0.00     0.336 A 
ATOM     10  O   UNL     1      62.295  39.558  38.851  1.00  0.00    -0.246 OA
ATOM     11  O   UNL     1      61.036  40.091  37.077  1.00  0.00    -0.423 OA
ENDROOT
TORSDOF 0
ENDMDL
MODEL 3
REMARK VINA RESULT:    -5.402      2.272      2.400
REMARK INTER + INTRA:          -5.402
REMARK INTER:                  -5.402
REMARK INTRA:                   0.000
REMARK UNBOUND:                 0.000
REMARK SMILES O=c1ccc2ccccc2o1
REMARK SMILES IDX 7 1 8 2 9 3 10 4 5 5 6 6 4 7 3 8 2 9 1 10 11 11
REMARK H PARENT
REMARK Flexibility Score: inf
ROOT
ATOM      1  C   UNL     1      61.456  39.169  38.355  1.00  0.00     0.001 A 
ATOM      2  C   UNL     1      60.442  38.257  38.668  1.00  0.00     0.004 A 
ATOM      3  C   UNL     1      59.300  38.173  37.865  1.00  0.00     0.048 A 
ATOM      4  C   UNL     1      59.166  39.002  36.746  1.00  0.00     0.138 A 
ATOM      5  C   UNL     1      60.190  39.925  36.430  1.00  0.00     0.018 A 
ATOM      6  C   UNL     1      61.333  40.004  37.240  1.00  0.00     0.012 A 
ATOM      7  C   UNL     1      60.028  40.740  35.307  1.00  0.00     0.019 A 
ATOM      8  C   UNL     1      58.873  40.623  34.536  1.00  0.00     0.094 A 
ATOM      9  C   UNL     1      57.901  39.688  34.908  1.00  0.00     0.336 A 
ATOM     10  O   UNL     1      56.850  39.566  34.225  1.00  0.00    -0.246 OA
ATOM     11  O   UNL     1      58.079  38.922  35.983  1.00  0.00    -0.423 OA
ENDROOT
TORSDOF 0
ENDMDL
MODEL 4
REMARK VINA RESULT:    -5.391     18.682     19.512
REMARK INTER + INTRA:          -5.391
REMARK INTER:                  -5.391
REMARK INTRA:                   0.000
REMARK UNBOUND:                 0.000
REMARK SMILES O=c1ccc2ccccc2o1
REMARK SMILES IDX 7 1 8 2 9 3 10 4 5 5 6 6 4 7 3 8 2 9 1 10 11 11
REMARK H PARENT
REMARK Flexibility Score: inf
ROOT
ATOM      1  C   UNL     1      48.970  34.714  52.165  1.00  0.00     0.001 A 
ATOM      2  C   UNL     1      48.608  35.332  53.366  1.00  0.00     0.004 A 
ATOM      3  C   UNL     1      47.461  36.130  53.430  1.00  0.00     0.048 A 
ATOM      4  C   UNL     1      46.671  36.314  52.289  1.00  0.00     0.138 A 
ATOM      5  C   UNL     1      47.036  35.691  51.074  1.00  0.00     0.018 A 
ATOM      6  C   UNL     1      48.188  34.892  51.018  1.00  0.00     0.012 A 
ATOM      7  C   UNL     1      46.228  35.893  49.952  1.00  0.00     0.019 A 
ATOM      8  C   UNL     1      45.094  36.696  50.061  1.00  0.00     0.094 A 
ATOM      9  C   UNL     1      44.793  37.282  51.295  1.00  0.00     0.336 A 
ATOM     10  O   UNL     1      43.774  38.011  51.414  1.00  0.00    -0.246 OA
ATOM     11  O   UNL     1      45.580  37.074  52.350  1.00  0.00    -0.423 OA
ENDROOT
TORSDOF 0
ENDMDL
MODEL 5
REMARK VINA RESULT:    -5.349      1.793      2.255
REMARK INTER + INTRA:          -5.349
REMARK INTER:                  -5.349
REMARK INTRA:                   0.000
REMARK UNBOUND:                 0.000
REMARK SMILES O=c1ccc2ccccc2o1
REMARK SMILES IDX 7 1 8 2 9 3 10 4 5 5 6 6 4 7 3 8 2 9 1 10 11 11
REMARK H PARENT
REMARK Flexibility Score: inf
ROOT
ATOM      1  C   UNL     1      61.239  38.955  38.386  1.00  0.00     0.001 A 
ATOM      2  C   UNL     1      61.504  39.957  37.445  1.00  0.00     0.004 A 
ATOM      3  C   UNL     1      60.628  40.166  36.375  1.00  0.00     0.048 A 
ATOM      4  C   UNL     1      59.483  39.373  36.241  1.00  0.00     0.138 A 
ATOM      5  C   UNL     1      59.215  38.361  37.190  1.00  0.00     0.018 A 
ATOM      6  C   UNL     1      60.098  38.156  38.262  1.00  0.00     0.012 A 
ATOM      7  C   UNL     1      58.064  37.584  37.030  1.00  0.00     0.019 A 
ATOM      8  C   UNL     1      57.219  37.827  35.948  1.00  0.00     0.094 A 
ATOM      9  C   UNL     1      57.547  38.846  35.048  1.00  0.00     0.336 A 
ATOM     10  O   UNL     1      56.797  39.081  34.064  1.00  0.00    -0.246 OA
ATOM     11  O   UNL     1      58.650  39.572  35.222  1.00  0.00    -0.423 OA
ENDROOT
TORSDOF 0
ENDMDL
MODEL 6
REMARK VINA RESULT:    -5.311      2.448      4.280
REMARK INTER + INTRA:          -5.311
REMARK INTER:                  -5.311
REMARK INTRA:                   0.000
REMARK UNBOUND:                 0.000
REMARK SMILES O=c1ccc2ccccc2o1
REMARK SMILES IDX 7 1 8 2 9 3 10 4 5 5 6 6 4 7 3 8 2 9 1 10 11 11
REMARK H PARENT
REMARK Flexibility Score: inf
ROOT
ATOM      1  C   UNL     1      57.590  39.771  34.612  1.00  0.00     0.001 A 
ATOM      2  C   UNL     1      57.113  38.504  34.967  1.00  0.00     0.004 A 
ATOM      3  C   UNL     1      57.759  37.761  35.960  1.00  0.00     0.048 A 
ATOM      4  C   UNL     1      58.887  38.283  36.604  1.00  0.00     0.138 A 
ATOM      5  C   UNL     1      59.370  39.562  36.246  1.00  0.00     0.018 A 
ATOM      6  C   UNL     1      58.717  40.302  35.248  1.00  0.00     0.012 A 
ATOM      7  C   UNL     1      60.499  40.057  36.905  1.00  0.00     0.019 A 
ATOM      8  C   UNL     1      61.111  39.282  37.889  1.00  0.00     0.094 A 
ATOM      9  C   UNL     1      60.578  38.025  38.192  1.00  0.00     0.336 A 
ATOM     10  O   UNL     1      61.117  37.310  39.077  1.00  0.00    -0.246 OA
ATOM     11  O   UNL     1      59.502  37.576  37.549  1.00  0.00    -0.423 OA
ENDROOT
TORSDOF 0
ENDMDL
MODEL 7
REMARK VINA RESULT:    -5.247     17.962     19.253
REMARK INTER + INTRA:          -5.247
REMARK INTER:                  -5.247
REMARK INTRA:                   0.000
REMARK UNBOUND:                 0.000
REMARK SMILES O=c1ccc2ccccc2o1
REMARK SMILES IDX 7 1 8 2 9 3 10 4 5 5 6 6 4 7 3 8 2 9 1 10 11 11
REMARK H PARENT
REMARK Flexibility Score: inf
ROOT
ATOM      1  C   UNL     1      48.852  33.021  53.350  1.00  0.00     0.001 A 
ATOM      2  C   UNL     1      47.524  32.614  53.522  1.00  0.00     0.004 A 
ATOM      3  C   UNL     1      46.502  33.215  52.780  1.00  0.00     0.048 A 
ATOM      4  C   UNL     1      46.804  34.227  51.862  1.00  0.00     0.138 A 
ATOM      5  C   UNL     1      48.145  34.639  51.687  1.00  0.00     0.018 A 
ATOM      6  C   UNL     1      49.165  34.032  52.436  1.00  0.00     0.012 A 
ATOM      7  C   UNL     1      48.416  35.652  50.764  1.00  0.00     0.019 A 
ATOM      8  C   UNL     1      47.366  36.223  50.046  1.00  0.00     0.094 A 
ATOM      9  C   UNL     1      46.063  35.765  50.270  1.00  0.00     0.336 A 
ATOM     10  O   UNL     1      45.102  36.267  49.632  1.00  0.00    -0.246 OA
ATOM     11  O   UNL     1      45.831  34.798  51.156  1.00  0.00    -0.423 OA
ENDROOT
TORSDOF 0
ENDMDL
MODEL 8
REMARK VINA RESULT:    -5.239      2.988      4.351
REMARK INTER + INTRA:          -5.239
REMARK INTER:                  -5.239
REMARK INTRA:                   0.000
REMARK UNBOUND:                 0.000
REMARK SMILES O=c1ccc2ccccc2o1
REMARK SMILES IDX 7 1 8 2 9 3 10 4 5 5 6 6 4 7 3 8 2 9 1 10 11 11
REMARK H PARENT
REMARK Flexibility Score: inf
ROOT
ATOM      1  C   UNL     1      58.157  37.329  36.007  1.00  0.00     0.001 A 
ATOM      2  C   UNL     1      57.934  37.732  37.328  1.00  0.00     0.004 A 
ATOM      3  C   UNL     1      58.895  38.491  38.004  1.00  0.00     0.048 A 
ATOM      4  C   UNL     1      60.085  38.849  37.361  1.00  0.00     0.138 A 
ATOM      5  C   UNL     1      60.312  38.441  36.027  1.00  0.00     0.018 A 
ATOM      6  C   UNL     1      59.343  37.680  35.354  1.00  0.00     0.012 A 
ATOM      7  C   UNL     1      61.510  38.814  35.410  1.00  0.00     0.019 A 
ATOM      8  C   UNL     1      62.440  39.570  36.122  1.00  0.00     0.094 A 
ATOM      9  C   UNL     1      62.148  39.938  37.440  1.00  0.00     0.336 A 
ATOM     10  O   UNL     1      62.975  40.621  38.100  1.00  0.00    -0.246 OA
ATOM     11  O   UNL     1      60.999  39.570  38.005  1.00  0.00    -0.423 OA
ENDROOT
TORSDOF 0
ENDMDL
MODEL 9
REMARK VINA RESULT:    -5.205      2.648      4.190
REMARK INTER + INTRA:          -5.205
REMARK INTER:                  -5.205
REMARK INTRA:                   0.000
REMARK UNBOUND:                 0.000
REMARK SMILES O=c1ccc2ccccc2o1
REMARK SMILES IDX 7 1 8 2 9 3 10 4 5 5 6 6 4 7 3 8 2 9 1 10 11 11
REMARK H PARENT
REMARK Flexibility Score: inf
ROOT
ATOM      1  C   UNL     1      57.544  37.968  37.827  1.00  0.00     0.001 A 
ATOM      2  C   UNL     1      57.425  37.727  36.454  1.00  0.00     0.004 A 
ATOM      3  C   UNL     1      58.483  38.032  35.592  1.00  0.00     0.048 A 
ATOM      4  C   UNL     1      59.665  38.582  36.100  1.00  0.00     0.138 A 
ATOM      5  C   UNL     1      59.786  38.828  37.486  1.00  0.00     0.018 A 
ATOM      6  C   UNL     1      58.721  38.519  38.346  1.00  0.00     0.012 A 
ATOM      7  C   UNL     1      60.978  39.378  37.965  1.00  0.00     0.019 A 
ATOM      8  C   UNL     1      62.007  39.668  37.069  1.00  0.00     0.094 A 
ATOM      9  C   UNL     1      61.817  39.398  35.709  1.00  0.00     0.336 A 
ATOM     10  O   UNL     1      62.734  39.653  34.884  1.00  0.00    -0.246 OA
ATOM     11  O   UNL     1      60.671  38.873  35.279  1.00  0.00    -0.423 OA
ENDROOT
TORSDOF 0
ENDMDL
