MODEL 1
REMARK VINA RESULT:    -4.023      0.000      0.000
REMARK INTER + INTRA:          -4.406
REMARK INTER:                  -4.376
REMARK INTRA:                  -0.029
REMARK UNBOUND:                -0.029
REMARK SMILES COc1ccccc1O
REMARK SMILES IDX 3 1 4 2 5 3 6 4 7 5 8 6 2 7 1 8 9 9
REMARK H PARENT 9 10
REMARK Flexibility Score: inf
ROOT
ATOM      1  C   UNL     1     -22.706  25.795   8.949  1.00  0.00     0.160 A 
ATOM      2  C   UNL     1     -23.255  26.469  10.059  1.00  0.00     0.050 A 
ATOM      3  C   UNL     1     -23.028  25.995  11.354  1.00  0.00     0.004 A 
ATOM      4  C   UNL     1     -22.255  24.850  11.556  1.00  0.00     0.004 A 
ATOM      5  C   UNL     1     -21.707  24.175  10.463  1.00  0.00     0.050 A 
ATOM      6  C   UNL     1     -21.931  24.643   9.160  1.00  0.00     0.157 A 
ENDROOT
BRANCH   1   7
ATOM      7  O   UNL     1     -22.909  26.235   7.632  1.00  0.00    -0.493 OA
ATOM      8  C   UNL     1     -24.070  26.927   7.184  1.00  0.00     0.278 C 
ENDBRANCH   1   7
BRANCH   6   9
ATOM      9  O   UNL     1     -21.385  23.972   8.068  1.00  0.00    -0.504 OA
ATOM     10  H   UNL     1     -20.383  23.857   7.963  1.00  0.00     0.293 HD
ENDBRANCH   6   9
TORSDOF 2
ENDMDL
MODEL 2
REMARK VINA RESULT:    -3.949      1.284      3.161
REMARK INTER + INTRA:          -4.325
REMARK INTER:                  -4.297
REMARK INTRA:                  -0.028
REMARK UNBOUND:                -0.029
REMARK SMILES COc1ccccc1O
REMARK SMILES IDX 3 1 4 2 5 3 6 4 7 5 8 6 2 7 1 8 9 9
REMARK H PARENT 9 10
REMARK Flexibility Score: inf
ROOT
ATOM      1  C   UNL     1     -22.202  25.165   9.906  1.00  0.00     0.160 A 
ATOM      2  C   UNL     1     -23.002  26.220  10.390  1.00  0.00     0.050 A 
ATOM      3  C   UNL     1     -23.677  27.058   9.498  1.00  0.00     0.004 A 
ATOM      4  C   UNL     1     -23.563  26.855   8.121  1.00  0.00     0.004 A 
ATOM      5  C   UNL     1     -22.773  25.813   7.632  1.00  0.00     0.050 A 
ATOM      6  C   UNL     1     -22.091  24.967   8.520  1.00  0.00     0.157 A 
ENDROOT
BRANCH   1   7
ATOM      7  O   UNL     1     -21.506  24.300  10.764  1.00  0.00    -0.493 OA
ATOM      8  C   UNL     1     -21.766  24.167  12.158  1.00  0.00     0.278 C 
ENDBRANCH   1   7
BRANCH   6   9
ATOM      9  O   UNL     1     -21.302  23.927   8.034  1.00  0.00    -0.504 OA
ATOM     10  H   UNL     1     -20.697  24.051   7.230  1.00  0.00     0.293 HD
ENDBRANCH   6   9
TORSDOF 2
ENDMDL
MODEL 3
REMARK VINA RESULT:    -3.779      1.673      2.309
REMARK INTER + INTRA:          -4.140
REMARK INTER:                  -4.096
REMARK INTRA:                  -0.043
REMARK UNBOUND:                -0.029
REMARK SMILES COc1ccccc1O
REMARK SMILES IDX 3 1 4 2 5 3 6 4 7 5 8 6 2 7 1 8 9 9
REMARK H PARENT 9 10
REMARK Flexibility Score: inf
ROOT
ATOM      1  C   UNL     1     -23.264  25.230   9.069  1.00  0.00     0.160 A 
ATOM      2  C   UNL     1     -23.792  23.925   9.012  1.00  0.00     0.050 A 
ATOM      3  C   UNL     1     -24.103  23.238  10.189  1.00  0.00     0.004 A 
ATOM      4  C   UNL     1     -23.892  23.843  11.430  1.00  0.00     0.004 A 
ATOM      5  C   UNL     1     -23.370  25.136  11.497  1.00  0.00     0.050 A 
ATOM      6  C   UNL     1     -23.054  25.832  10.320  1.00  0.00     0.157 A 
ENDROOT
BRANCH   1   7
ATOM      7  O   UNL     1     -22.937  25.955   7.913  1.00  0.00    -0.493 OA
ATOM      8  C   UNL     1     -23.873  26.688   7.130  1.00  0.00     0.278 C 
ENDBRANCH   1   7
BRANCH   6   9
ATOM      9  O   UNL     1     -22.532  27.122  10.385  1.00  0.00    -0.504 OA
ATOM     10  H   UNL     1     -23.023  27.913   9.983  1.00  0.00     0.293 HD
ENDBRANCH   6   9
TORSDOF 2
ENDMDL
MODEL 4
REMARK VINA RESULT:    -3.694     23.675     23.994
REMARK INTER + INTRA:          -4.048
REMARK INTER:                  -4.021
REMARK INTRA:                  -0.027
REMARK UNBOUND:                -0.029
REMARK SMILES COc1ccccc1O
REMARK SMILES IDX 3 1 4 2 5 3 6 4 7 5 8 6 2 7 1 8 9 9
REMARK H PARENT 9 10
REMARK Flexibility Score: inf
ROOT
ATOM      1  C   UNL     1      -6.543  42.617   7.434  1.00  0.00     0.160 A 
ATOM      2  C   UNL     1      -6.546  42.109   6.119  1.00  0.00     0.050 A 
ATOM      3  C   UNL     1      -5.368  41.616   5.551  1.00  0.00     0.004 A 
ATOM      4  C   UNL     1      -4.179  41.623   6.284  1.00  0.00     0.004 A 
ATOM      5  C   UNL     1      -4.166  42.123   7.588  1.00  0.00     0.050 A 
ATOM      6  C   UNL     1      -5.343  42.621   8.165  1.00  0.00     0.157 A 
ENDROOT
BRANCH   1   7
ATOM      7  O   UNL     1      -7.701  43.122   8.043  1.00  0.00    -0.493 OA
ATOM      8  C   UNL     1      -8.992  43.125   7.442  1.00  0.00     0.278 C 
ENDBRANCH   1   7
BRANCH   6   9
ATOM      9  O   UNL     1      -5.332  43.121   9.466  1.00  0.00    -0.504 OA
ATOM     10  H   UNL     1      -4.899  44.011   9.687  1.00  0.00     0.293 HD
ENDBRANCH   6   9
TORSDOF 2
ENDMDL
MODEL 5
REMARK VINA RESULT:    -3.622      1.398      1.424
REMARK INTER + INTRA:          -3.969
REMARK INTER:                  -3.923
REMARK INTRA:                  -0.046
REMARK UNBOUND:                -0.029
REMARK SMILES COc1ccccc1O
REMARK SMILES IDX 3 1 4 2 5 3 6 4 7 5 8 6 2 7 1 8 9 9
REMARK H PARENT 9 10
REMARK Flexibility Score: inf
ROOT
ATOM      1  C   UNL     1     -23.088  25.442   9.326  1.00  0.00     0.160 A 
ATOM      2  C   UNL     1     -22.826  26.288  10.422  1.00  0.00     0.050 A 
ATOM      3  C   UNL     1     -23.071  25.849  11.726  1.00  0.00     0.004 A 
ATOM      4  C   UNL     1     -23.579  24.567  11.951  1.00  0.00     0.004 A 
ATOM      5  C   UNL     1     -23.842  23.722  10.872  1.00  0.00     0.050 A 
ATOM      6  C   UNL     1     -23.600  24.155   9.560  1.00  0.00     0.157 A 
ENDROOT
BRANCH   1   7
ATOM      7  O   UNL     1     -22.858  25.841   8.001  1.00  0.00    -0.493 OA
ATOM      8  C   UNL     1     -23.721  26.693   7.255  1.00  0.00     0.278 C 
ENDBRANCH   1   7
BRANCH   6   9
ATOM      9  O   UNL     1     -23.862  23.312   8.482  1.00  0.00    -0.504 OA
ATOM     10  H   UNL     1     -24.339  22.426   8.605  1.00  0.00     0.293 HD
ENDBRANCH   6   9
TORSDOF 2
ENDMDL
MODEL 6
REMARK VINA RESULT:    -3.445      2.120      3.858
REMARK INTER + INTRA:          -3.777
REMARK INTER:                  -3.749
REMARK INTRA:                  -0.028
REMARK UNBOUND:                -0.029
REMARK SMILES COc1ccccc1O
REMARK SMILES IDX 3 1 4 2 5 3 6 4 7 5 8 6 2 7 1 8 9 9
REMARK H PARENT 9 10
REMARK Flexibility Score: inf
ROOT
ATOM      1  C   UNL     1     -22.907  24.979  10.359  1.00  0.00     0.160 A 
ATOM      2  C   UNL     1     -23.367  23.798   9.741  1.00  0.00     0.050 A 
ATOM      3  C   UNL     1     -23.972  23.851   8.482  1.00  0.00     0.004 A 
ATOM      4  C   UNL     1     -24.125  25.076   7.828  1.00  0.00     0.004 A 
ATOM      5  C   UNL     1     -23.673  26.251   8.432  1.00  0.00     0.050 A 
ATOM      6  C   UNL     1     -23.065  26.207   9.696  1.00  0.00     0.157 A 
ENDROOT
BRANCH   1   7
ATOM      7  O   UNL     1     -22.295  24.973  11.621  1.00  0.00    -0.493 OA
ATOM      8  C   UNL     1     -21.674  23.834  12.210  1.00  0.00     0.278 C 
ENDBRANCH   1   7
BRANCH   6   9
ATOM      9  O   UNL     1     -22.613  27.379  10.300  1.00  0.00    -0.504 OA
ATOM     10  H   UNL     1     -22.978  27.688  11.194  1.00  0.00     0.293 HD
ENDBRANCH   6   9
TORSDOF 2
ENDMDL
MODEL 7
REMARK VINA RESULT:    -3.248      4.427      5.570
REMARK INTER + INTRA:          -3.562
REMARK INTER:                  -3.519
REMARK INTRA:                  -0.043
REMARK UNBOUND:                -0.029
REMARK SMILES COc1ccccc1O
REMARK SMILES IDX 3 1 4 2 5 3 6 4 7 5 8 6 2 7 1 8 9 9
REMARK H PARENT 9 10
REMARK Flexibility Score: inf
ROOT
ATOM      1  C   UNL     1     -21.863  23.388  14.055  1.00  0.00     0.160 A 
ATOM      2  C   UNL     1     -21.833  22.981  15.404  1.00  0.00     0.050 A 
ATOM      3  C   UNL     1     -20.690  23.197  16.179  1.00  0.00     0.004 A 
ATOM      4  C   UNL     1     -19.571  23.818  15.622  1.00  0.00     0.004 A 
ATOM      5  C   UNL     1     -19.591  24.225  14.286  1.00  0.00     0.050 A 
ATOM      6  C   UNL     1     -20.733  24.012  13.500  1.00  0.00     0.157 A 
ENDROOT
BRANCH   1   7
ATOM      7  O   UNL     1     -22.988  23.191  13.239  1.00  0.00    -0.493 OA
ATOM      8  C   UNL     1     -24.122  24.051  13.210  1.00  0.00     0.278 C 
ENDBRANCH   1   7
BRANCH   6   9
ATOM      9  O   UNL     1     -20.756  24.417  12.167  1.00  0.00    -0.504 OA
ATOM     10  H   UNL     1     -19.944  24.315  11.569  1.00  0.00     0.293 HD
ENDBRANCH   6   9
TORSDOF 2
ENDMDL
MODEL 8
REMARK VINA RESULT:    -3.221     10.811     11.948
REMARK INTER + INTRA:          -3.533
REMARK INTER:                  -3.498
REMARK INTRA:                  -0.035
REMARK UNBOUND:                -0.029
REMARK SMILES COc1ccccc1O
REMARK SMILES IDX 3 1 4 2 5 3 6 4 7 5 8 6 2 7 1 8 9 9
REMARK H PARENT 9 10
REMARK Flexibility Score: inf
ROOT
ATOM      1  C   UNL     1     -22.218  29.897  20.521  1.00  0.00     0.160 A 
ATOM      2  C   UNL     1     -21.357  30.552  21.426  1.00  0.00     0.050 A 
ATOM      3  C   UNL     1     -19.999  30.224  21.469  1.00  0.00     0.004 A 
ATOM      4  C   UNL     1     -19.486  29.245  20.615  1.00  0.00     0.004 A 
ATOM      5  C   UNL     1     -20.331  28.592  19.716  1.00  0.00     0.050 A 
ATOM      6  C   UNL     1     -21.695  28.914  19.666  1.00  0.00     0.157 A 
ENDROOT
BRANCH   1   7
ATOM      7  O   UNL     1     -23.587  30.194  20.444  1.00  0.00    -0.493 OA
ATOM      8  C   UNL     1     -24.125  31.512  20.402  1.00  0.00     0.278 C 
ENDBRANCH   1   7
BRANCH   6   9
ATOM      9  O   UNL     1     -22.539  28.262  18.769  1.00  0.00    -0.504 OA
ATOM     10  H   UNL     1     -23.320  28.740  18.334  1.00  0.00     0.293 HD
ENDBRANCH   6   9
TORSDOF 2
ENDMDL
MODEL 9
REMARK VINA RESULT:    -3.098      3.807      5.116
REMARK INTER + INTRA:          -3.399
REMARK INTER:                  -3.354
REMARK INTRA:                  -0.046
REMARK UNBOUND:                -0.029
REMARK SMILES COc1ccccc1O
REMARK SMILES IDX 3 1 4 2 5 3 6 4 7 5 8 6 2 7 1 8 9 9
REMARK H PARENT 9 10
REMARK Flexibility Score: inf
ROOT
ATOM      1  C   UNL     1     -21.251  23.589  12.986  1.00  0.00     0.160 A 
ATOM      2  C   UNL     1     -19.929  23.965  13.299  1.00  0.00     0.050 A 
ATOM      3  C   UNL     1     -19.501  23.997  14.629  1.00  0.00     0.004 A 
ATOM      4  C   UNL     1     -20.382  23.657  15.658  1.00  0.00     0.004 A 
ATOM      5  C   UNL     1     -21.694  23.283  15.358  1.00  0.00     0.050 A 
ATOM      6  C   UNL     1     -22.131  23.248  14.026  1.00  0.00     0.157 A 
ENDROOT
BRANCH   1   7
ATOM      7  O   UNL     1     -21.723  23.543  11.666  1.00  0.00    -0.493 OA
ATOM      8  C   UNL     1     -22.150  24.680  10.923  1.00  0.00     0.278 C 
ENDBRANCH   1   7
BRANCH   6   9
ATOM      9  O   UNL     1     -23.440  22.875  13.726  1.00  0.00    -0.504 OA
ATOM     10  H   UNL     1     -23.843  22.018  14.087  1.00  0.00     0.293 HD
ENDBRANCH   6   9
TORSDOF 2
ENDMDL
