MODEL 1
REMARK VINA RESULT:    -6.094      0.000      0.000
REMARK INTER + INTRA:         -11.583
REMARK INTER:                  -9.479
REMARK INTRA:                  -2.105
REMARK UNBOUND:                -2.105
REMARK SMILES COc1cc(CNC(=O)CCCCC=CC(C)C)ccc1O
REMARK SMILES IDX 11 1 12 2 13 3 14 4 15 5 16 6 17 7 18 8 10 9 8 10 9 11 7 12
REMARK SMILES IDX 6 14 5 15 4 16 19 17 3 18 20 19 21 20 2 21 1 22 22 23
REMARK H PARENT 7 13 22 24
REMARK Flexibility Score: inf
ROOT
ATOM      1  C   UNL     1     -28.118 -12.315  -8.637  1.00  0.00     0.010 C 
ENDROOT
BRANCH   1   2
ATOM      2  C   UNL     1     -28.888 -13.635  -8.821  1.00  0.00     0.005 C 
BRANCH   2   3
ATOM      3  C   UNL     1     -29.213 -14.312  -7.483  1.00  0.00     0.027 C 
BRANCH   3   4
ATOM      4  C   UNL     1     -29.713 -13.319  -6.469  1.00  0.00    -0.031 C 
ATOM      5  C   UNL     1     -30.997 -12.929  -6.442  1.00  0.00    -0.028 C 
BRANCH   5   6
ATOM      6  C   UNL     1     -31.504 -11.974  -5.387  1.00  0.00     0.005 C 
ATOM      7  C   UNL     1     -31.333 -12.580  -3.990  1.00  0.00     0.012 C 
ATOM      8  C   UNL     1     -30.767 -10.632  -5.480  1.00  0.00     0.012 C 
ENDBRANCH   5   6
ENDBRANCH   3   4
ENDBRANCH   2   3
ENDBRANCH   1   2
BRANCH   1   9
ATOM      9  C   UNL     1     -28.959 -11.092  -9.032  1.00  0.00     0.100 C 
BRANCH   9  10
ATOM     10  C   UNL     1     -28.548  -9.877  -8.254  1.00  0.00     0.220 C 
ATOM     11  O   UNL     1     -29.358  -8.917  -8.135  1.00  0.00    -0.275 OA
ATOM     12  N   UNL     1     -27.275  -9.832  -7.596  1.00  0.00    -0.352 N 
ATOM     13  H   UNL     1     -26.568 -10.569  -7.823  1.00  0.00     0.163 HD
BRANCH  12  14
ATOM     14  C   UNL     1     -27.061  -9.040  -6.387  1.00  0.00     0.151 C 
BRANCH  14  15
ATOM     15  C   UNL     1     -27.229  -9.919  -5.179  1.00  0.00    -0.025 A 
ATOM     16  C   UNL     1     -27.726  -9.382  -3.980  1.00  0.00     0.056 A 
ATOM     17  C   UNL     1     -27.006 -11.300  -5.274  1.00  0.00     0.009 A 
ATOM     18  C   UNL     1     -28.000 -10.219  -2.880  1.00  0.00     0.160 A 
ATOM     19  C   UNL     1     -27.259 -12.131  -4.181  1.00  0.00     0.050 A 
ATOM     20  C   UNL     1     -27.757 -11.595  -2.986  1.00  0.00     0.157 A 
BRANCH  18  21
ATOM     21  O   UNL     1     -28.525  -9.722  -1.677  1.00  0.00    -0.493 OA
ATOM     22  C   UNL     1     -29.661  -8.868  -1.586  1.00  0.00     0.278 C 
ENDBRANCH  18  21
BRANCH  20  23
ATOM     23  O   UNL     1     -28.022 -12.427  -1.900  1.00  0.00    -0.504 OA
ATOM     24  H   UNL     1     -28.152 -12.055  -0.967  1.00  0.00     0.293 HD
ENDBRANCH  20  23
ENDBRANCH  14  15
ENDBRANCH  12  14
ENDBRANCH   9  10
ENDBRANCH   1   9
TORSDOF 10
ENDMDL
MODEL 2
REMARK VINA RESULT:    -5.456      2.407      4.894
REMARK INTER + INTRA:         -10.591
REMARK INTER:                  -8.545
REMARK INTRA:                  -2.046
REMARK UNBOUND:                -2.105
REMARK SMILES COc1cc(CNC(=O)CCCCC=CC(C)C)ccc1O
REMARK SMILES IDX 11 1 12 2 13 3 14 4 15 5 16 6 17 7 18 8 10 9 8 10 9 11 7 12
REMARK SMILES IDX 6 14 5 15 4 16 19 17 3 18 20 19 21 20 2 21 1 22 22 23
REMARK H PARENT 7 13 22 24
REMARK Flexibility Score: inf
ROOT
ATOM      1  C   UNL     1     -32.773 -14.290  -4.815  1.00  0.00     0.010 C 
ENDROOT
BRANCH   1   2
ATOM      2  C   UNL     1     -33.316 -13.613  -6.086  1.00  0.00     0.005 C 
BRANCH   2   3
ATOM      3  C   UNL     1     -32.347 -12.566  -6.649  1.00  0.00     0.027 C 
BRANCH   3   4
ATOM      4  C   UNL     1     -30.956 -13.122  -6.792  1.00  0.00    -0.031 C 
ATOM      5  C   UNL     1     -30.128 -12.701  -7.761  1.00  0.00    -0.028 C 
BRANCH   5   6
ATOM      6  C   UNL     1     -28.714 -13.224  -7.865  1.00  0.00     0.005 C 
ATOM      7  C   UNL     1     -28.519 -14.426  -6.935  1.00  0.00     0.012 C 
ATOM      8  C   UNL     1     -28.392 -13.613  -9.314  1.00  0.00     0.012 C 
ENDBRANCH   5   6
ENDBRANCH   3   4
ENDBRANCH   2   3
ENDBRANCH   1   2
BRANCH   1   9
ATOM      9  C   UNL     1     -33.117 -13.499  -3.543  1.00  0.00     0.100 C 
BRANCH   9  10
ATOM     10  C   UNL     1     -31.883 -13.179  -2.754  1.00  0.00     0.220 C 
ATOM     11  O   UNL     1     -31.628 -13.841  -1.711  1.00  0.00    -0.275 OA
ATOM     12  N   UNL     1     -30.966 -12.177  -3.212  1.00  0.00    -0.352 N 
ATOM     13  H   UNL     1     -31.263 -11.547  -3.992  1.00  0.00     0.163 HD
BRANCH  12  14
ATOM     14  C   UNL     1     -29.541 -12.235  -2.896  1.00  0.00     0.151 C 
BRANCH  14  15
ATOM     15  C   UNL     1     -28.751 -11.674  -4.046  1.00  0.00    -0.025 A 
ATOM     16  C   UNL     1     -29.263 -10.601  -4.794  1.00  0.00     0.056 A 
ATOM     17  C   UNL     1     -27.452 -12.134  -4.303  1.00  0.00     0.009 A 
ATOM     18  C   UNL     1     -28.482  -9.989  -5.795  1.00  0.00     0.160 A 
ATOM     19  C   UNL     1     -26.681 -11.545  -5.307  1.00  0.00     0.050 A 
ATOM     20  C   UNL     1     -27.192 -10.473  -6.051  1.00  0.00     0.157 A 
BRANCH  18  21
ATOM     21  O   UNL     1     -28.948  -8.897  -6.542  1.00  0.00    -0.493 OA
ATOM     22  C   UNL     1     -29.497  -8.993  -7.853  1.00  0.00     0.278 C 
ENDBRANCH  18  21
BRANCH  20  23
ATOM     23  O   UNL     1     -26.416  -9.875  -7.043  1.00  0.00    -0.504 OA
ATOM     24  H   UNL     1     -26.595 -10.039  -8.026  1.00  0.00     0.293 HD
ENDBRANCH  20  23
ENDBRANCH  14  15
ENDBRANCH  12  14
ENDBRANCH   9  10
ENDBRANCH   1   9
TORSDOF 10
ENDMDL
MODEL 3
REMARK VINA RESULT:    -5.382      1.972      5.003
REMARK INTER + INTRA:         -10.476
REMARK INTER:                  -8.297
REMARK INTRA:                  -2.178
REMARK UNBOUND:                -2.105
REMARK SMILES COc1cc(CNC(=O)CCCCC=CC(C)C)ccc1O
REMARK SMILES IDX 11 1 12 2 13 3 14 4 15 5 16 6 17 7 18 8 10 9 8 10 9 11 7 12
REMARK SMILES IDX 6 14 5 15 4 16 19 17 3 18 20 19 21 20 2 21 1 22 22 23
REMARK H PARENT 7 13 22 24
REMARK Flexibility Score: inf
ROOT
ATOM      1  C   UNL     1     -32.354 -12.728  -3.881  1.00  0.00     0.010 C 
ENDROOT
BRANCH   1   2
ATOM      2  C   UNL     1     -32.229 -13.710  -5.060  1.00  0.00     0.005 C 
BRANCH   2   3
ATOM      3  C   UNL     1     -32.237 -12.996  -6.417  1.00  0.00     0.027 C 
BRANCH   3   4
ATOM      4  C   UNL     1     -30.887 -13.052  -7.080  1.00  0.00    -0.031 C 
ATOM      5  C   UNL     1     -29.835 -13.633  -6.481  1.00  0.00    -0.028 C 
BRANCH   5   6
ATOM      6  C   UNL     1     -28.497 -13.735  -7.174  1.00  0.00     0.005 C 
ATOM      7  C   UNL     1     -28.537 -13.008  -8.523  1.00  0.00     0.012 C 
ATOM      8  C   UNL     1     -27.388 -13.152  -6.288  1.00  0.00     0.012 C 
ENDBRANCH   5   6
ENDBRANCH   3   4
ENDBRANCH   2   3
ENDBRANCH   1   2
BRANCH   1   9
ATOM      9  C   UNL     1     -31.710 -13.274  -2.598  1.00  0.00     0.100 C 
BRANCH   9  10
ATOM     10  C   UNL     1     -30.547 -12.427  -2.173  1.00  0.00     0.220 C 
ATOM     11  O   UNL     1     -29.682 -12.913  -1.395  1.00  0.00    -0.275 OA
ATOM     12  N   UNL     1     -30.384 -11.102  -2.695  1.00  0.00    -0.352 N 
ATOM     13  H   UNL     1     -31.178 -10.670  -3.221  1.00  0.00     0.163 HD
BRANCH  12  14
ATOM     14  C   UNL     1     -29.065 -10.489  -2.839  1.00  0.00     0.151 C 
BRANCH  14  15
ATOM     15  C   UNL     1     -28.857 -10.085  -4.273  1.00  0.00    -0.025 A 
ATOM     16  C   UNL     1     -27.563  -9.818  -4.748  1.00  0.00     0.056 A 
ATOM     17  C   UNL     1     -29.933 -10.089  -5.171  1.00  0.00     0.009 A 
ATOM     18  C   UNL     1     -27.342  -9.557  -6.115  1.00  0.00     0.160 A 
ATOM     19  C   UNL     1     -29.723  -9.811  -6.524  1.00  0.00     0.050 A 
ATOM     20  C   UNL     1     -28.431  -9.548  -6.997  1.00  0.00     0.157 A 
BRANCH  18  21
ATOM     21  O   UNL     1     -26.059  -9.316  -6.631  1.00  0.00    -0.493 OA
ATOM     22  C   UNL     1     -25.418  -8.045  -6.634  1.00  0.00     0.278 C 
ENDBRANCH  18  21
BRANCH  20  23
ATOM     23  O   UNL     1     -28.219  -9.286  -8.350  1.00  0.00    -0.504 OA
ATOM     24  H   UNL     1     -28.902  -8.787  -8.906  1.00  0.00     0.293 HD
ENDBRANCH  20  23
ENDBRANCH  14  15
ENDBRANCH  12  14
ENDBRANCH   9  10
ENDBRANCH   1   9
TORSDOF 10
ENDMDL
MODEL 4
REMARK VINA RESULT:    -5.375      1.829      3.330
REMARK INTER + INTRA:         -10.465
REMARK INTER:                  -8.172
REMARK INTRA:                  -2.292
REMARK UNBOUND:                -2.105
REMARK SMILES COc1cc(CNC(=O)CCCCC=CC(C)C)ccc1O
REMARK SMILES IDX 11 1 12 2 13 3 14 4 15 5 16 6 17 7 18 8 10 9 8 10 9 11 7 12
REMARK SMILES IDX 6 14 5 15 4 16 19 17 3 18 20 19 21 20 2 21 1 22 22 23
REMARK H PARENT 7 13 22 24
REMARK Flexibility Score: inf
ROOT
ATOM      1  C   UNL     1     -30.495 -13.369  -7.106  1.00  0.00     0.010 C 
ENDROOT
BRANCH   1   2
ATOM      2  C   UNL     1     -31.094 -13.093  -5.715  1.00  0.00     0.005 C 
BRANCH   2   3
ATOM      3  C   UNL     1     -31.320 -11.596  -5.464  1.00  0.00     0.027 C 
BRANCH   3   4
ATOM      4  C   UNL     1     -30.617 -10.752  -6.492  1.00  0.00    -0.031 C 
ATOM      5  C   UNL     1     -29.920  -9.658  -6.145  1.00  0.00    -0.028 C 
BRANCH   5   6
ATOM      6  C   UNL     1     -29.172  -8.846  -7.176  1.00  0.00     0.005 C 
ATOM      7  C   UNL     1     -27.677  -8.805  -6.842  1.00  0.00     0.012 C 
ATOM      8  C   UNL     1     -29.389  -9.429  -8.579  1.00  0.00     0.012 C 
ENDBRANCH   5   6
ENDBRANCH   3   4
ENDBRANCH   2   3
ENDBRANCH   1   2
BRANCH   1   9
ATOM      9  C   UNL     1     -29.144 -14.095  -7.023  1.00  0.00     0.100 C 
BRANCH   9  10
ATOM     10  C   UNL     1     -28.028 -13.131  -6.746  1.00  0.00     0.220 C 
ATOM     11  O   UNL     1     -27.657 -12.339  -7.655  1.00  0.00    -0.275 OA
ATOM     12  N   UNL     1     -27.431 -13.064  -5.444  1.00  0.00    -0.352 N 
ATOM     13  H   UNL     1     -27.651 -13.818  -4.754  1.00  0.00     0.163 HD
BRANCH  12  14
ATOM     14  C   UNL     1     -26.839 -11.830  -4.932  1.00  0.00     0.151 C 
BRANCH  14  15
ATOM     15  C   UNL     1     -27.692 -11.294  -3.815  1.00  0.00    -0.025 A 
ATOM     16  C   UNL     1     -27.615  -9.938  -3.459  1.00  0.00     0.056 A 
ATOM     17  C   UNL     1     -28.653 -12.113  -3.205  1.00  0.00     0.009 A 
ATOM     18  C   UNL     1     -28.493  -9.399  -2.498  1.00  0.00     0.160 A 
ATOM     19  C   UNL     1     -29.513 -11.588  -2.238  1.00  0.00     0.050 A 
ATOM     20  C   UNL     1     -29.437 -10.234  -1.885  1.00  0.00     0.157 A 
BRANCH  18  21
ATOM     21  O   UNL     1     -28.466  -8.043  -2.139  1.00  0.00    -0.493 OA
ATOM     22  C   UNL     1     -27.512  -7.462  -1.255  1.00  0.00     0.278 C 
ENDBRANCH  18  21
BRANCH  20  23
ATOM     23  O   UNL     1     -30.306  -9.708  -0.930  1.00  0.00    -0.504 OA
ATOM     24  H   UNL     1     -30.005  -8.995  -0.277  1.00  0.00     0.293 HD
ENDBRANCH  20  23
ENDBRANCH  14  15
ENDBRANCH  12  14
ENDBRANCH   9  10
ENDBRANCH   1   9
TORSDOF 10
ENDMDL
MODEL 5
REMARK VINA RESULT:    -5.347      1.242      1.823
REMARK INTER + INTRA:         -10.422
REMARK INTER:                  -8.863
REMARK INTRA:                  -1.559
REMARK UNBOUND:                -2.105
REMARK SMILES COc1cc(CNC(=O)CCCCC=CC(C)C)ccc1O
REMARK SMILES IDX 11 1 12 2 13 3 14 4 15 5 16 6 17 7 18 8 10 9 8 10 9 11 7 12
REMARK SMILES IDX 6 14 5 15 4 16 19 17 3 18 20 19 21 20 2 21 1 22 22 23
REMARK H PARENT 7 13 22 24
REMARK Flexibility Score: inf
ROOT
ATOM      1  C   UNL     1     -29.271 -12.347  -8.083  1.00  0.00     0.010 C 
ENDROOT
BRANCH   1   2
ATOM      2  C   UNL     1     -30.672 -12.225  -7.457  1.00  0.00     0.005 C 
BRANCH   2   3
ATOM      3  C   UNL     1     -30.617 -11.821  -5.979  1.00  0.00     0.027 C 
BRANCH   3   4
ATOM      4  C   UNL     1     -31.436 -12.748  -5.122  1.00  0.00    -0.031 C 
ATOM      5  C   UNL     1     -32.748 -12.928  -5.337  1.00  0.00    -0.028 C 
BRANCH   5   6
ATOM      6  C   UNL     1     -33.553 -13.902  -4.508  1.00  0.00     0.005 C 
ATOM      7  C   UNL     1     -33.584 -15.278  -5.181  1.00  0.00     0.012 C 
ATOM      8  C   UNL     1     -32.968 -14.013  -3.095  1.00  0.00     0.012 C 
ENDBRANCH   5   6
ENDBRANCH   3   4
ENDBRANCH   2   3
ENDBRANCH   1   2
BRANCH   1   9
ATOM      9  C   UNL     1     -28.961 -11.191  -9.045  1.00  0.00     0.100 C 
BRANCH   9  10
ATOM     10  C   UNL     1     -28.534  -9.963  -8.296  1.00  0.00     0.220 C 
ATOM     11  O   UNL     1     -29.331  -8.990  -8.201  1.00  0.00    -0.275 OA
ATOM     12  N   UNL     1     -27.260  -9.918  -7.640  1.00  0.00    -0.352 N 
ATOM     13  H   UNL     1     -26.563 -10.669  -7.849  1.00  0.00     0.163 HD
BRANCH  12  14
ATOM     14  C   UNL     1     -27.036  -9.099  -6.450  1.00  0.00     0.151 C 
BRANCH  14  15
ATOM     15  C   UNL     1     -27.192  -9.952  -5.222  1.00  0.00    -0.025 A 
ATOM     16  C   UNL     1     -27.631  -9.379  -4.017  1.00  0.00     0.056 A 
ATOM     17  C   UNL     1     -27.017 -11.341  -5.299  1.00  0.00     0.009 A 
ATOM     18  C   UNL     1     -27.896 -10.187  -2.894  1.00  0.00     0.160 A 
ATOM     19  C   UNL     1     -27.260 -12.145  -4.183  1.00  0.00     0.050 A 
ATOM     20  C   UNL     1     -27.701 -11.572  -2.983  1.00  0.00     0.157 A 
BRANCH  18  21
ATOM     21  O   UNL     1     -28.365  -9.653  -1.684  1.00  0.00    -0.493 OA
ATOM     22  C   UNL     1     -29.482  -8.778  -1.569  1.00  0.00     0.278 C 
ENDBRANCH  18  21
BRANCH  20  23
ATOM     23  O   UNL     1     -27.957 -12.376  -1.874  1.00  0.00    -0.504 OA
ATOM     24  H   UNL     1     -27.227 -12.616  -1.214  1.00  0.00     0.293 HD
ENDBRANCH  20  23
ENDBRANCH  14  15
ENDBRANCH  12  14
ENDBRANCH   9  10
ENDBRANCH   1   9
TORSDOF 10
ENDMDL
MODEL 6
REMARK VINA RESULT:    -5.291      1.747      3.503
REMARK INTER + INTRA:         -10.334
REMARK INTER:                  -8.039
REMARK INTRA:                  -2.296
REMARK UNBOUND:                -2.105
REMARK SMILES COc1cc(CNC(=O)CCCCC=CC(C)C)ccc1O
REMARK SMILES IDX 11 1 12 2 13 3 14 4 15 5 16 6 17 7 18 8 10 9 8 10 9 11 7 12
REMARK SMILES IDX 6 14 5 15 4 16 19 17 3 18 20 19 21 20 2 21 1 22 22 23
REMARK H PARENT 7 13 22 24
REMARK Flexibility Score: inf
ROOT
ATOM      1  C   UNL     1     -30.244 -13.551  -7.242  1.00  0.00     0.010 C 
ENDROOT
BRANCH   1   2
ATOM      2  C   UNL     1     -30.960 -13.348  -5.894  1.00  0.00     0.005 C 
BRANCH   2   3
ATOM      3  C   UNL     1     -31.422 -11.900  -5.691  1.00  0.00     0.027 C 
BRANCH   3   4
ATOM      4  C   UNL     1     -30.784 -10.972  -6.688  1.00  0.00    -0.031 C 
ATOM      5  C   UNL     1     -30.014  -9.944  -6.298  1.00  0.00    -0.028 C 
BRANCH   5   6
ATOM      6  C   UNL     1     -29.332  -9.048  -7.305  1.00  0.00     0.005 C 
ATOM      7  C   UNL     1     -27.885  -8.774  -6.884  1.00  0.00     0.012 C 
ATOM      8  C   UNL     1     -29.369  -9.685  -8.701  1.00  0.00     0.012 C 
ENDBRANCH   5   6
ENDBRANCH   3   4
ENDBRANCH   2   3
ENDBRANCH   1   2
BRANCH   1   9
ATOM      9  C   UNL     1     -28.833 -14.131  -7.069  1.00  0.00     0.100 C 
BRANCH   9  10
ATOM     10  C   UNL     1     -27.840 -13.054  -6.745  1.00  0.00     0.220 C 
ATOM     11  O   UNL     1     -27.518 -12.224  -7.638  1.00  0.00    -0.275 OA
ATOM     12  N   UNL     1     -27.311 -12.928  -5.419  1.00  0.00    -0.352 N 
ATOM     13  H   UNL     1     -27.478 -13.704  -4.738  1.00  0.00     0.163 HD
BRANCH  12  14
ATOM     14  C   UNL     1     -26.877 -11.640  -4.883  1.00  0.00     0.151 C 
BRANCH  14  15
ATOM     15  C   UNL     1     -27.882 -11.156  -3.874  1.00  0.00    -0.025 A 
ATOM     16  C   UNL     1     -28.761 -12.066  -3.263  1.00  0.00     0.056 A 
ATOM     17  C   UNL     1     -27.869  -9.820  -3.449  1.00  0.00     0.009 A 
ATOM     18  C   UNL     1     -29.623 -11.646  -2.231  1.00  0.00     0.160 A 
ATOM     19  C   UNL     1     -28.736  -9.394  -2.440  1.00  0.00     0.050 A 
ATOM     20  C   UNL     1     -29.609 -10.303  -1.829  1.00  0.00     0.157 A 
BRANCH  18  21
ATOM     21  O   UNL     1     -30.492 -12.532  -1.577  1.00  0.00    -0.493 OA
ATOM     22  C   UNL     1     -31.754 -12.947  -2.090  1.00  0.00     0.278 C 
ENDBRANCH  18  21
BRANCH  20  23
ATOM     23  O   UNL     1     -30.464  -9.880  -0.812  1.00  0.00    -0.504 OA
ATOM     24  H   UNL     1     -31.470  -9.942  -0.905  1.00  0.00     0.293 HD
ENDBRANCH  20  23
ENDBRANCH  14  15
ENDBRANCH  12  14
ENDBRANCH   9  10
ENDBRANCH   1   9
TORSDOF 10
ENDMDL
MODEL 7
REMARK VINA RESULT:    -5.288      2.450      5.291
REMARK INTER + INTRA:         -10.329
REMARK INTER:                  -8.849
REMARK INTRA:                  -1.480
REMARK UNBOUND:                -2.105
REMARK SMILES COc1cc(CNC(=O)CCCCC=CC(C)C)ccc1O
REMARK SMILES IDX 11 1 12 2 13 3 14 4 15 5 16 6 17 7 18 8 10 9 8 10 9 11 7 12
REMARK SMILES IDX 6 14 5 15 4 16 19 17 3 18 20 19 21 20 2 21 1 22 22 23
REMARK H PARENT 7 13 22 24
REMARK Flexibility Score: inf
ROOT
ATOM      1  C   UNL     1     -31.446 -12.523  -3.696  1.00  0.00     0.010 C 
ENDROOT
BRANCH   1   2
ATOM      2  C   UNL     1     -31.383 -12.787  -2.181  1.00  0.00     0.005 C 
BRANCH   2   3
ATOM      3  C   UNL     1     -30.486 -11.780  -1.450  1.00  0.00     0.027 C 
BRANCH   3   4
ATOM      4  C   UNL     1     -30.036 -10.675  -2.366  1.00  0.00    -0.031 C 
ATOM      5  C   UNL     1     -29.856  -9.422  -1.919  1.00  0.00    -0.028 C 
BRANCH   5   6
ATOM      6  C   UNL     1     -29.352  -8.329  -2.832  1.00  0.00     0.005 C 
ATOM      7  C   UNL     1     -29.442  -8.772  -4.296  1.00  0.00     0.012 C 
ATOM      8  C   UNL     1     -30.152  -7.038  -2.615  1.00  0.00     0.012 C 
ENDBRANCH   5   6
ENDBRANCH   3   4
ENDBRANCH   2   3
ENDBRANCH   1   2
BRANCH   1   9
ATOM      9  C   UNL     1     -32.595 -13.286  -4.372  1.00  0.00     0.100 C 
BRANCH   9  10
ATOM     10  C   UNL     1     -32.631 -13.016  -5.847  1.00  0.00     0.220 C 
ATOM     11  O   UNL     1     -33.627 -12.423  -6.342  1.00  0.00    -0.275 OA
ATOM     12  N   UNL     1     -31.516 -13.369  -6.678  1.00  0.00    -0.352 N 
ATOM     13  H   UNL     1     -30.769 -13.983  -6.278  1.00  0.00     0.163 HD
BRANCH  12  14
ATOM     14  C   UNL     1     -31.204 -12.632  -7.900  1.00  0.00     0.151 C 
BRANCH  14  15
ATOM     15  C   UNL     1     -30.032 -11.725  -7.650  1.00  0.00    -0.025 A 
ATOM     16  C   UNL     1     -29.116 -12.024  -6.627  1.00  0.00     0.056 A 
ATOM     17  C   UNL     1     -29.777 -10.646  -8.508  1.00  0.00     0.009 A 
ATOM     18  C   UNL     1     -27.950 -11.250  -6.461  1.00  0.00     0.160 A 
ATOM     19  C   UNL     1     -28.633  -9.864  -8.336  1.00  0.00     0.050 A 
ATOM     20  C   UNL     1     -27.719 -10.165  -7.317  1.00  0.00     0.157 A 
BRANCH  18  21
ATOM     21  O   UNL     1     -26.999 -11.537  -5.471  1.00  0.00    -0.493 OA
ATOM     22  C   UNL     1     -27.292 -12.180  -4.234  1.00  0.00     0.278 C 
ENDBRANCH  18  21
BRANCH  20  23
ATOM     23  O   UNL     1     -26.569  -9.393  -7.155  1.00  0.00    -0.504 OA
ATOM     24  H   UNL     1     -25.859  -9.342  -7.876  1.00  0.00     0.293 HD
ENDBRANCH  20  23
ENDBRANCH  14  15
ENDBRANCH  12  14
ENDBRANCH   9  10
ENDBRANCH   1   9
TORSDOF 10
ENDMDL
MODEL 8
REMARK VINA RESULT:    -5.255      1.978      3.257
REMARK INTER + INTRA:         -10.278
REMARK INTER:                  -8.286
REMARK INTRA:                  -1.992
REMARK UNBOUND:                -2.105
REMARK SMILES COc1cc(CNC(=O)CCCCC=CC(C)C)ccc1O
REMARK SMILES IDX 11 1 12 2 13 3 14 4 15 5 16 6 17 7 18 8 10 9 8 10 9 11 7 12
REMARK SMILES IDX 6 14 5 15 4 16 19 17 3 18 20 19 21 20 2 21 1 22 22 23
REMARK H PARENT 7 13 22 24
REMARK Flexibility Score: inf
ROOT
ATOM      1  C   UNL     1     -30.384 -13.855  -6.411  1.00  0.00     0.010 C 
ENDROOT
BRANCH   1   2
ATOM      2  C   UNL     1     -31.110 -12.616  -6.966  1.00  0.00     0.005 C 
BRANCH   2   3
ATOM      3  C   UNL     1     -32.010 -11.950  -5.918  1.00  0.00     0.027 C 
BRANCH   3   4
ATOM      4  C   UNL     1     -31.787 -12.531  -4.548  1.00  0.00    -0.031 C 
ATOM      5  C   UNL     1     -30.903 -11.993  -3.693  1.00  0.00    -0.028 C 
BRANCH   5   6
ATOM      6  C   UNL     1     -30.723 -12.549  -2.300  1.00  0.00     0.005 C 
ATOM      7  C   UNL     1     -30.556 -11.410  -1.288  1.00  0.00     0.012 C 
ATOM      8  C   UNL     1     -31.917 -13.432  -1.916  1.00  0.00     0.012 C 
ENDBRANCH   5   6
ENDBRANCH   3   4
ENDBRANCH   2   3
ENDBRANCH   1   2
BRANCH   1   9
ATOM      9  C   UNL     1     -29.288 -14.360  -7.362  1.00  0.00     0.100 C 
BRANCH   9  10
ATOM     10  C   UNL     1     -28.147 -13.389  -7.438  1.00  0.00     0.220 C 
ATOM     11  O   UNL     1     -27.792 -12.941  -8.562  1.00  0.00    -0.275 OA
ATOM     12  N   UNL     1     -27.507 -12.925  -6.241  1.00  0.00    -0.352 N 
ATOM     13  H   UNL     1     -27.718 -13.412  -5.340  1.00  0.00     0.163 HD
BRANCH  12  14
ATOM     14  C   UNL     1     -26.877 -11.609  -6.167  1.00  0.00     0.151 C 
BRANCH  14  15
ATOM     15  C   UNL     1     -27.782 -10.664  -5.426  1.00  0.00    -0.025 A 
ATOM     16  C   UNL     1     -27.522 -10.347  -4.083  1.00  0.00     0.056 A 
ATOM     17  C   UNL     1     -28.816 -10.000  -6.102  1.00  0.00     0.009 A 
ATOM     18  C   UNL     1     -28.290  -9.373  -3.415  1.00  0.00     0.160 A 
ATOM     19  C   UNL     1     -29.593  -9.047  -5.439  1.00  0.00     0.050 A 
ATOM     20  C   UNL     1     -29.331  -8.731  -4.100  1.00  0.00     0.157 A 
BRANCH  18  21
ATOM     21  O   UNL     1     -28.041  -9.010  -2.083  1.00  0.00    -0.493 OA
ATOM     22  C   UNL     1     -27.211  -7.923  -1.686  1.00  0.00     0.278 C 
ENDBRANCH  18  21
BRANCH  20  23
ATOM     23  O   UNL     1     -30.097  -7.769  -3.443  1.00  0.00    -0.504 OA
ATOM     24  H   UNL     1     -30.116  -6.805  -3.752  1.00  0.00     0.293 HD
ENDBRANCH  20  23
ENDBRANCH  14  15
ENDBRANCH  12  14
ENDBRANCH   9  10
ENDBRANCH   1   9
TORSDOF 10
ENDMDL
MODEL 9
REMARK VINA RESULT:    -5.231      2.685      6.225
REMARK INTER + INTRA:         -10.242
REMARK INTER:                  -8.460
REMARK INTRA:                  -1.781
REMARK UNBOUND:                -2.105
REMARK SMILES COc1cc(CNC(=O)CCCCC=CC(C)C)ccc1O
REMARK SMILES IDX 11 1 12 2 13 3 14 4 15 5 16 6 17 7 18 8 10 9 8 10 9 11 7 12
REMARK SMILES IDX 6 14 5 15 4 16 19 17 3 18 20 19 21 20 2 21 1 22 22 23
REMARK H PARENT 7 13 22 24
REMARK Flexibility Score: inf
ROOT
ATOM      1  C   UNL     1     -30.746 -13.332  -1.220  1.00  0.00     0.010 C 
ENDROOT
BRANCH   1   2
ATOM      2  C   UNL     1     -30.028 -11.971  -1.180  1.00  0.00     0.005 C 
BRANCH   2   3
ATOM      3  C   UNL     1     -28.501 -12.116  -1.225  1.00  0.00     0.027 C 
BRANCH   3   4
ATOM      4  C   UNL     1     -27.991 -12.141  -2.641  1.00  0.00    -0.031 C 
ATOM      5  C   UNL     1     -28.522 -11.357  -3.592  1.00  0.00    -0.028 C 
BRANCH   5   6
ATOM      6  C   UNL     1     -27.969 -11.347  -4.998  1.00  0.00     0.005 C 
ATOM      7  C   UNL     1     -27.365  -9.978  -5.325  1.00  0.00     0.012 C 
ATOM      8  C   UNL     1     -26.915 -12.449  -5.168  1.00  0.00     0.012 C 
ENDBRANCH   5   6
ENDBRANCH   3   4
ENDBRANCH   2   3
ENDBRANCH   1   2
BRANCH   1   9
ATOM      9  C   UNL     1     -32.186 -13.214  -1.743  1.00  0.00     0.100 C 
BRANCH   9  10
ATOM     10  C   UNL     1     -32.270 -13.600  -3.190  1.00  0.00     0.220 C 
ATOM     11  O   UNL     1     -32.957 -14.604  -3.522  1.00  0.00    -0.275 OA
ATOM     12  N   UNL     1     -31.630 -12.801  -4.194  1.00  0.00    -0.352 N 
ATOM     13  H   UNL     1     -30.954 -12.063  -3.890  1.00  0.00     0.163 HD
BRANCH  12  14
ATOM     14  C   UNL     1     -32.143 -12.726  -5.560  1.00  0.00     0.151 C 
BRANCH  14  15
ATOM     15  C   UNL     1     -31.030 -13.021  -6.527  1.00  0.00    -0.025 A 
ATOM     16  C   UNL     1     -30.589 -12.029  -7.417  1.00  0.00     0.056 A 
ATOM     17  C   UNL     1     -30.346 -14.244  -6.466  1.00  0.00     0.009 A 
ATOM     18  C   UNL     1     -29.470 -12.253  -8.243  1.00  0.00     0.160 A 
ATOM     19  C   UNL     1     -29.248 -14.479  -7.296  1.00  0.00     0.050 A 
ATOM     20  C   UNL     1     -28.807 -13.487  -8.181  1.00  0.00     0.157 A 
BRANCH  18  21
ATOM     21  O   UNL     1     -28.982 -11.274  -9.123  1.00  0.00    -0.493 OA
ATOM     22  C   UNL     1     -28.771  -9.910  -8.773  1.00  0.00     0.278 C 
ENDBRANCH  18  21
BRANCH  20  23
ATOM     23  O   UNL     1     -27.702 -13.717  -8.999  1.00  0.00    -0.504 OA
ATOM     24  H   UNL     1     -27.624 -14.556  -9.561  1.00  0.00     0.293 HD
ENDBRANCH  20  23
ENDBRANCH  14  15
ENDBRANCH  12  14
ENDBRANCH   9  10
ENDBRANCH   1   9
TORSDOF 10
ENDMDL
