MODEL 1
REMARK VINA RESULT:    -2.820      0.000      0.000
REMARK INTER + INTRA:          -3.362
REMARK INTER:                  -3.314
REMARK INTRA:                  -0.047
REMARK UNBOUND:                -0.047
REMARK SMILES CCCCC(=O)[O-]
REMARK SMILES IDX 4 1 5 2 6 3 7 4 3 5 2 6 1 7
REMARK H PARENT
REMARK Flexibility Score: inf
ROOT
ATOM      1  C   UNL     1     -43.951 -48.704  36.794  1.00  0.00     0.053 C 
ENDROOT
BRANCH   1   2
ATOM      2  C   UNL     1     -45.122 -48.413  37.679  1.00  0.00     0.041 C 
ATOM      3  O   UNL     1     -44.952 -47.825  38.780  1.00  0.00    -0.550 OA
ATOM      4  O   UNL     1     -46.405 -48.746  37.267  1.00  0.00    -0.550 OA
ENDBRANCH   1   2
BRANCH   1   5
ATOM      5  C   UNL     1     -44.290 -49.833  35.812  1.00  0.00     0.006 C 
BRANCH   5   6
ATOM      6  C   UNL     1     -43.517 -49.717  34.490  1.00  0.00    -0.003 C 
ATOM      7  C   UNL     1     -42.713 -48.422  34.387  1.00  0.00     0.004 C 
ENDBRANCH   5   6
ENDBRANCH   1   5
TORSDOF 3
ENDMDL
MODEL 2
REMARK VINA RESULT:    -2.815      0.093      1.226
REMARK INTER + INTRA:          -3.356
REMARK INTER:                  -3.306
REMARK INTRA:                  -0.050
REMARK UNBOUND:                -0.047
REMARK SMILES CCCCC(=O)[O-]
REMARK SMILES IDX 4 1 5 2 6 3 7 4 3 5 2 6 1 7
REMARK H PARENT
REMARK Flexibility Score: inf
ROOT
ATOM      1  C   UNL     1     -43.938 -48.728  36.773  1.00  0.00     0.053 C 
ENDROOT
BRANCH   1   2
ATOM      2  C   UNL     1     -45.121 -48.442  37.643  1.00  0.00     0.041 C 
ATOM      3  O   UNL     1     -46.266 -48.842  37.305  1.00  0.00    -0.550 OA
ATOM      4  O   UNL     1     -44.952 -47.776  38.850  1.00  0.00    -0.550 OA
ENDBRANCH   1   2
BRANCH   1   5
ATOM      5  C   UNL     1     -44.283 -49.804  35.735  1.00  0.00     0.006 C 
BRANCH   5   6
ATOM      6  C   UNL     1     -43.463 -49.664  34.444  1.00  0.00    -0.003 C 
ATOM      7  C   UNL     1     -42.677 -48.355  34.383  1.00  0.00     0.004 C 
ENDBRANCH   5   6
ENDBRANCH   1   5
TORSDOF 3
ENDMDL
MODEL 3
REMARK VINA RESULT:    -2.771      1.504      1.832
REMARK INTER + INTRA:          -3.305
REMARK INTER:                  -3.289
REMARK INTRA:                  -0.016
REMARK UNBOUND:                -0.047
REMARK SMILES CCCCC(=O)[O-]
REMARK SMILES IDX 4 1 5 2 6 3 7 4 3 5 2 6 1 7
REMARK H PARENT
REMARK Flexibility Score: inf
ROOT
ATOM      1  C   UNL     1     -45.348 -48.781  37.249  1.00  0.00     0.053 C 
ENDROOT
BRANCH   1   2
ATOM      2  C   UNL     1     -46.760 -49.275  37.300  1.00  0.00     0.041 C 
ATOM      3  O   UNL     1     -47.718 -48.466  37.188  1.00  0.00    -0.550 OA
ATOM      4  O   UNL     1     -47.017 -50.635  37.420  1.00  0.00    -0.550 OA
ENDBRANCH   1   2
BRANCH   1   5
ATOM      5  C   UNL     1     -44.540 -49.574  36.214  1.00  0.00     0.006 C 
BRANCH   5   6
ATOM      6  C   UNL     1     -43.374 -48.764  35.628  1.00  0.00    -0.003 C 
ATOM      7  C   UNL     1     -43.094 -49.105  34.165  1.00  0.00     0.004 C 
ENDBRANCH   5   6
ENDBRANCH   1   5
TORSDOF 3
ENDMDL
MODEL 4
REMARK VINA RESULT:    -2.760      5.629      6.872
REMARK INTER + INTRA:          -3.292
REMARK INTER:                  -3.248
REMARK INTRA:                  -0.044
REMARK UNBOUND:                -0.047
REMARK SMILES CCCCC(=O)[O-]
REMARK SMILES IDX 4 1 5 2 6 3 7 4 3 5 2 6 1 7
REMARK H PARENT
REMARK Flexibility Score: inf
ROOT
ATOM      1  C   UNL     1     -42.013 -45.295  41.943  1.00  0.00     0.053 C 
ENDROOT
BRANCH   1   2
ATOM      2  C   UNL     1     -41.268 -44.004  41.818  1.00  0.00     0.041 C 
ATOM      3  O   UNL     1     -40.750 -43.471  42.835  1.00  0.00    -0.550 OA
ATOM      4  O   UNL     1     -41.102 -43.415  40.572  1.00  0.00    -0.550 OA
ENDBRANCH   1   2
BRANCH   1   5
ATOM      5  C   UNL     1     -43.028 -45.441  40.802  1.00  0.00     0.006 C 
BRANCH   5   6
ATOM      6  C   UNL     1     -42.840 -46.742  40.007  1.00  0.00    -0.003 C 
ATOM      7  C   UNL     1     -44.164 -47.437  39.691  1.00  0.00     0.004 C 
ENDBRANCH   5   6
ENDBRANCH   1   5
TORSDOF 3
ENDMDL
MODEL 5
REMARK VINA RESULT:    -2.747      3.222      4.359
REMARK INTER + INTRA:          -3.276
REMARK INTER:                  -3.242
REMARK INTRA:                  -0.034
REMARK UNBOUND:                -0.047
REMARK SMILES CCCCC(=O)[O-]
REMARK SMILES IDX 4 1 5 2 6 3 7 4 3 5 2 6 1 7
REMARK H PARENT
REMARK Flexibility Score: inf
ROOT
ATOM      1  C   UNL     1     -46.048 -50.323  37.095  1.00  0.00     0.053 C 
ENDROOT
BRANCH   1   2
ATOM      2  C   UNL     1     -46.466 -48.919  37.396  1.00  0.00     0.041 C 
ATOM      3  O   UNL     1     -47.653 -48.553  37.186  1.00  0.00    -0.550 OA
ATOM      4  O   UNL     1     -45.560 -48.027  37.954  1.00  0.00    -0.550 OA
ENDBRANCH   1   2
BRANCH   1   5
ATOM      5  C   UNL     1     -46.806 -51.312  37.990  1.00  0.00     0.006 C 
BRANCH   5   6
ATOM      6  C   UNL     1     -47.365 -52.509  37.207  1.00  0.00    -0.003 C 
ATOM      7  C   UNL     1     -48.041 -53.541  38.109  1.00  0.00     0.004 C 
ENDBRANCH   5   6
ENDBRANCH   1   5
TORSDOF 3
ENDMDL
MODEL 6
REMARK VINA RESULT:    -2.728      3.316      4.497
REMARK INTER + INTRA:          -3.254
REMARK INTER:                  -3.190
REMARK INTRA:                  -0.064
REMARK UNBOUND:                -0.047
REMARK SMILES CCCCC(=O)[O-]
REMARK SMILES IDX 4 1 5 2 6 3 7 4 3 5 2 6 1 7
REMARK H PARENT
REMARK Flexibility Score: inf
ROOT
ATOM      1  C   UNL     1     -42.930 -46.945  39.918  1.00  0.00     0.053 C 
ENDROOT
BRANCH   1   2
ATOM      2  C   UNL     1     -43.480 -45.774  40.671  1.00  0.00     0.041 C 
ATOM      3  O   UNL     1     -44.649 -45.366  40.440  1.00  0.00    -0.550 OA
ATOM      4  O   UNL     1     -42.720 -45.165  41.661  1.00  0.00    -0.550 OA
ENDBRANCH   1   2
BRANCH   1   5
ATOM      5  C   UNL     1     -44.019 -48.006  39.707  1.00  0.00     0.006 C 
BRANCH   5   6
ATOM      6  C   UNL     1     -44.180 -48.401  38.232  1.00  0.00    -0.003 C 
ATOM      7  C   UNL     1     -45.617 -48.253  37.734  1.00  0.00     0.004 C 
ENDBRANCH   5   6
ENDBRANCH   1   5
TORSDOF 3
ENDMDL
MODEL 7
REMARK VINA RESULT:    -2.699      5.029      6.315
REMARK INTER + INTRA:          -3.220
REMARK INTER:                  -3.173
REMARK INTRA:                  -0.047
REMARK UNBOUND:                -0.047
REMARK SMILES CCCCC(=O)[O-]
REMARK SMILES IDX 4 1 5 2 6 3 7 4 3 5 2 6 1 7
REMARK H PARENT
REMARK Flexibility Score: inf
ROOT
ATOM      1  C   UNL     1     -42.559 -46.467  40.407  1.00  0.00     0.053 C 
ENDROOT
BRANCH   1   2
ATOM      2  C   UNL     1     -44.023 -46.392  40.106  1.00  0.00     0.041 C 
ATOM      3  O   UNL     1     -44.615 -47.380  39.595  1.00  0.00    -0.550 OA
ATOM      4  O   UNL     1     -44.743 -45.252  40.435  1.00  0.00    -0.550 OA
ENDBRANCH   1   2
BRANCH   1   5
ATOM      5  C   UNL     1     -42.193 -45.491  41.533  1.00  0.00     0.006 C 
BRANCH   5   6
ATOM      6  C   UNL     1     -41.357 -44.302  41.036  1.00  0.00    -0.003 C 
ATOM      7  C   UNL     1     -40.859 -43.413  42.175  1.00  0.00     0.004 C 
ENDBRANCH   5   6
ENDBRANCH   1   5
TORSDOF 3
ENDMDL
MODEL 8
REMARK VINA RESULT:    -2.679      7.317      8.093
REMARK INTER + INTRA:          -3.197
REMARK INTER:                  -3.153
REMARK INTRA:                  -0.044
REMARK UNBOUND:                -0.047
REMARK SMILES CCCCC(=O)[O-]
REMARK SMILES IDX 4 1 5 2 6 3 7 4 3 5 2 6 1 7
REMARK H PARENT
REMARK Flexibility Score: inf
ROOT
ATOM      1  C   UNL     1     -47.608 -55.072  39.777  1.00  0.00     0.053 C 
ENDROOT
BRANCH   1   2
ATOM      2  C   UNL     1     -47.948 -53.736  39.196  1.00  0.00     0.041 C 
ATOM      3  O   UNL     1     -47.898 -52.702  39.914  1.00  0.00    -0.550 OA
ATOM      4  O   UNL     1     -48.274 -53.625  37.851  1.00  0.00    -0.550 OA
ENDBRANCH   1   2
BRANCH   1   5
ATOM      5  C   UNL     1     -47.358 -56.094  38.660  1.00  0.00     0.006 C 
BRANCH   5   6
ATOM      6  C   UNL     1     -48.293 -57.309  38.752  1.00  0.00    -0.003 C 
ATOM      7  C   UNL     1     -47.774 -58.514  37.969  1.00  0.00     0.004 C 
ENDBRANCH   5   6
ENDBRANCH   1   5
TORSDOF 3
ENDMDL
MODEL 9
REMARK VINA RESULT:    -2.673      5.668      6.381
REMARK INTER + INTRA:          -3.190
REMARK INTER:                  -3.138
REMARK INTRA:                  -0.052
REMARK UNBOUND:                -0.047
REMARK SMILES CCCCC(=O)[O-]
REMARK SMILES IDX 4 1 5 2 6 3 7 4 3 5 2 6 1 7
REMARK H PARENT
REMARK Flexibility Score: inf
ROOT
ATOM      1  C   UNL     1     -47.604 -52.476  40.009  1.00  0.00     0.053 C 
ENDROOT
BRANCH   1   2
ATOM      2  C   UNL     1     -48.578 -52.525  41.144  1.00  0.00     0.041 C 
ATOM      3  O   UNL     1     -49.691 -53.097  40.999  1.00  0.00    -0.550 OA
ATOM      4  O   UNL     1     -48.238 -51.982  42.376  1.00  0.00    -0.550 OA
ENDBRANCH   1   2
BRANCH   1   5
ATOM      5  C   UNL     1     -48.026 -53.448  38.899  1.00  0.00     0.006 C 
BRANCH   5   6
ATOM      6  C   UNL     1     -47.640 -52.949  37.499  1.00  0.00    -0.003 C 
ATOM      7  C   UNL     1     -47.000 -51.561  37.523  1.00  0.00     0.004 C 
ENDBRANCH   5   6
ENDBRANCH   1   5
TORSDOF 3
ENDMDL
