MODEL 1
REMARK VINA RESULT:    -4.433      0.000      0.000
REMARK INTER + INTRA:          -9.611
REMARK INTER:                  -6.765
REMARK INTRA:                  -2.846
REMARK UNBOUND:                -2.846
REMARK SMILES CC(=O)CCC=C(C)CCC=C(C)CCC=C(C)C
REMARK SMILES IDX 10 1 11 2 12 3 13 4 14 5 15 6 16 7 18 8 17 9 19 10 9 11 7 12
REMARK SMILES IDX 6 13 8 14 5 15 4 16 2 17 3 18 1 19
REMARK H PARENT
REMARK Flexibility Score: inf
ROOT
ATOM      1  C   UNL     1      53.631  16.041  -5.520  1.00  0.00     0.032 C 
ENDROOT
BRANCH   1   2
ATOM      2  C   UNL     1      53.325  17.506  -5.700  1.00  0.00    -0.028 C 
ATOM      3  C   UNL     1      54.092  18.519  -5.233  1.00  0.00    -0.077 C 
ATOM      4  C   UNL     1      53.680  19.933  -5.554  1.00  0.00     0.039 C 
BRANCH   3   5
ATOM      5  C   UNL     1      55.327  18.293  -4.377  1.00  0.00     0.034 C 
BRANCH   5   6
ATOM      6  C   UNL     1      55.208  18.977  -3.007  1.00  0.00     0.032 C 
BRANCH   6   7
ATOM      7  C   UNL     1      54.860  17.995  -1.914  1.00  0.00    -0.028 C 
ATOM      8  C   UNL     1      53.413  16.671  -0.437  1.00  0.00     0.039 C 
ATOM      9  C   UNL     1      53.603  17.713  -1.509  1.00  0.00    -0.080 C 
ATOM     10  C   UNL     1      52.398  18.422  -2.080  1.00  0.00     0.039 C 
ENDBRANCH   6   7
ENDBRANCH   5   6
ENDBRANCH   3   5
ENDBRANCH   1   2
BRANCH   1  11
ATOM     11  C   UNL     1      52.779  15.443  -4.395  1.00  0.00     0.034 C 
BRANCH  11  12
ATOM     12  C   UNL     1      53.623  14.584  -3.480  1.00  0.00    -0.077 C 
ATOM     13  C   UNL     1      54.969  14.677  -3.544  1.00  0.00    -0.028 C 
ATOM     14  C   UNL     1      52.946  13.640  -2.515  1.00  0.00     0.039 C 
BRANCH  13  15
ATOM     15  C   UNL     1      55.897  13.851  -2.684  1.00  0.00     0.035 C 
BRANCH  15  16
ATOM     16  C   UNL     1      56.437  12.625  -3.433  1.00  0.00     0.079 C 
BRANCH  16  17
ATOM     17  C   UNL     1      55.752  11.356  -2.990  1.00  0.00     0.130 C 
ATOM     18  O   UNL     1      55.854  10.990  -1.829  1.00  0.00    -0.300 OA
ATOM     19  C   UNL     1      54.945  10.531  -3.947  1.00  0.00     0.087 C 
ENDBRANCH  16  17
ENDBRANCH  15  16
ENDBRANCH  13  15
ENDBRANCH  11  12
ENDBRANCH   1  11
TORSDOF 9
ENDMDL
MODEL 2
REMARK VINA RESULT:    -4.248      1.672      3.834
REMARK INTER + INTRA:          -9.329
REMARK INTER:                  -6.864
REMARK INTRA:                  -2.465
REMARK UNBOUND:                -2.846
REMARK SMILES CC(=O)CCC=C(C)CCC=C(C)CCC=C(C)C
REMARK SMILES IDX 10 1 11 2 12 3 13 4 14 5 15 6 16 7 18 8 17 9 19 10 9 11 7 12
REMARK SMILES IDX 6 13 8 14 5 15 4 16 2 17 3 18 1 19
REMARK H PARENT
REMARK Flexibility Score: inf
ROOT
ATOM      1  C   UNL     1      54.430  18.651  -5.437  1.00  0.00     0.032 C 
ENDROOT
BRANCH   1   2
ATOM      2  C   UNL     1      53.508  19.844  -5.466  1.00  0.00    -0.028 C 
ATOM      3  C   UNL     1      52.393  19.978  -4.710  1.00  0.00    -0.077 C 
ATOM      4  C   UNL     1      51.612  21.263  -4.811  1.00  0.00     0.039 C 
BRANCH   3   5
ATOM      5  C   UNL     1      51.882  18.881  -3.790  1.00  0.00     0.034 C 
BRANCH   5   6
ATOM      6  C   UNL     1      51.084  17.816  -4.557  1.00  0.00     0.032 C 
BRANCH   6   7
ATOM      7  C   UNL     1      51.650  16.431  -4.353  1.00  0.00    -0.028 C 
ATOM      8  C   UNL     1      52.771  14.331  -4.957  1.00  0.00     0.039 C 
ATOM      9  C   UNL     1      52.204  15.677  -5.327  1.00  0.00    -0.080 C 
ATOM     10  C   UNL     1      52.249  16.133  -6.766  1.00  0.00     0.039 C 
ENDBRANCH   6   7
ENDBRANCH   5   6
ENDBRANCH   3   5
ENDBRANCH   1   2
BRANCH   1  11
ATOM     11  C   UNL     1      55.583  18.881  -4.454  1.00  0.00     0.034 C 
BRANCH  11  12
ATOM     12  C   UNL     1      55.241  18.330  -3.087  1.00  0.00    -0.077 C 
ATOM     13  C   UNL     1      55.014  17.006  -2.947  1.00  0.00    -0.028 C 
ATOM     14  C   UNL     1      55.162  19.270  -1.908  1.00  0.00     0.039 C 
BRANCH  13  15
ATOM     15  C   UNL     1      54.652  16.365  -1.628  1.00  0.00     0.035 C 
BRANCH  15  16
ATOM     16  C   UNL     1      54.342  14.869  -1.781  1.00  0.00     0.079 C 
BRANCH  16  17
ATOM     17  C   UNL     1      55.600  14.054  -1.942  1.00  0.00     0.130 C 
ATOM     18  O   UNL     1      56.318  13.858  -0.973  1.00  0.00    -0.300 OA
ATOM     19  C   UNL     1      55.990  13.475  -3.269  1.00  0.00     0.087 C 
ENDBRANCH  16  17
ENDBRANCH  15  16
ENDBRANCH  13  15
ENDBRANCH  11  12
ENDBRANCH   1  11
TORSDOF 9
ENDMDL
MODEL 3
REMARK VINA RESULT:    -4.237      1.874      2.872
REMARK INTER + INTRA:          -9.312
REMARK INTER:                  -6.716
REMARK INTRA:                  -2.596
REMARK UNBOUND:                -2.846
REMARK SMILES CC(=O)CCC=C(C)CCC=C(C)CCC=C(C)C
REMARK SMILES IDX 10 1 11 2 12 3 13 4 14 5 15 6 16 7 18 8 17 9 19 10 9 11 7 12
REMARK SMILES IDX 6 13 8 14 5 15 4 16 2 17 3 18 1 19
REMARK H PARENT
REMARK Flexibility Score: inf
ROOT
ATOM      1  C   UNL     1      53.152  18.083  -5.550  1.00  0.00     0.032 C 
ENDROOT
BRANCH   1   2
ATOM      2  C   UNL     1      54.491  18.774  -5.604  1.00  0.00    -0.028 C 
ATOM      3  C   UNL     1      55.419  18.738  -4.619  1.00  0.00    -0.077 C 
ATOM      4  C   UNL     1      56.737  19.431  -4.855  1.00  0.00     0.039 C 
BRANCH   3   5
ATOM      5  C   UNL     1      55.179  18.057  -3.282  1.00  0.00     0.034 C 
BRANCH   5   6
ATOM      6  C   UNL     1      54.410  18.962  -2.308  1.00  0.00     0.032 C 
BRANCH   6   7
ATOM      7  C   UNL     1      53.062  18.386  -1.947  1.00  0.00    -0.028 C 
ATOM      8  C   UNL     1      50.613  18.220  -1.889  1.00  0.00     0.039 C 
ATOM      9  C   UNL     1      51.876  18.941  -2.279  1.00  0.00    -0.080 C 
ATOM     10  C   UNL     1      51.785  20.262  -3.005  1.00  0.00     0.039 C 
ENDBRANCH   6   7
ENDBRANCH   5   6
ENDBRANCH   3   5
ENDBRANCH   1   2
BRANCH   1  11
ATOM     11  C   UNL     1      53.270  16.633  -6.030  1.00  0.00     0.034 C 
BRANCH  11  12
ATOM     12  C   UNL     1      53.210  15.673  -4.862  1.00  0.00    -0.077 C 
ATOM     13  C   UNL     1      54.318  14.982  -4.519  1.00  0.00    -0.028 C 
ATOM     14  C   UNL     1      51.914  15.509  -4.104  1.00  0.00     0.039 C 
BRANCH  13  15
ATOM     15  C   UNL     1      54.353  13.990  -3.379  1.00  0.00     0.035 C 
BRANCH  15  16
ATOM     16  C   UNL     1      55.320  14.424  -2.269  1.00  0.00     0.079 C 
BRANCH  16  17
ATOM     17  C   UNL     1      54.590  15.063  -1.113  1.00  0.00     0.130 C 
ATOM     18  O   UNL     1      53.396  14.853  -0.966  1.00  0.00    -0.300 OA
ATOM     19  C   UNL     1      55.301  15.953  -0.138  1.00  0.00     0.087 C 
ENDBRANCH  16  17
ENDBRANCH  15  16
ENDBRANCH  13  15
ENDBRANCH  11  12
ENDBRANCH   1  11
TORSDOF 9
ENDMDL
MODEL 4
REMARK VINA RESULT:    -4.200      3.477      6.865
REMARK INTER + INTRA:          -9.256
REMARK INTER:                  -6.918
REMARK INTRA:                  -2.338
REMARK UNBOUND:                -2.846
REMARK SMILES CC(=O)CCC=C(C)CCC=C(C)CCC=C(C)C
REMARK SMILES IDX 10 1 11 2 12 3 13 4 14 5 15 6 16 7 18 8 17 9 19 10 9 11 7 12
REMARK SMILES IDX 6 13 8 14 5 15 4 16 2 17 3 18 1 19
REMARK H PARENT
REMARK Flexibility Score: inf
ROOT
ATOM      1  C   UNL     1      53.739  17.663  -1.653  1.00  0.00     0.032 C 
ENDROOT
BRANCH   1   2
ATOM      2  C   UNL     1      54.324  16.558  -0.811  1.00  0.00    -0.028 C 
ATOM      3  C   UNL     1      55.073  15.536  -1.288  1.00  0.00    -0.077 C 
ATOM      4  C   UNL     1      55.638  14.545  -0.304  1.00  0.00     0.039 C 
BRANCH   3   5
ATOM      5  C   UNL     1      55.341  15.331  -2.770  1.00  0.00     0.034 C 
BRANCH   5   6
ATOM      6  C   UNL     1      54.196  14.575  -3.460  1.00  0.00     0.032 C 
BRANCH   6   7
ATOM      7  C   UNL     1      53.885  15.145  -4.824  1.00  0.00    -0.028 C 
ATOM      8  C   UNL     1      52.615  16.376  -6.526  1.00  0.00     0.039 C 
ATOM      9  C   UNL     1      52.760  15.826  -5.132  1.00  0.00    -0.080 C 
ATOM     10  C   UNL     1      51.646  16.028  -4.132  1.00  0.00     0.039 C 
ENDBRANCH   6   7
ENDBRANCH   5   6
ENDBRANCH   3   5
ENDBRANCH   1   2
BRANCH   1  11
ATOM     11  C   UNL     1      54.837  18.612  -2.143  1.00  0.00     0.034 C 
BRANCH  11  12
ATOM     12  C   UNL     1      54.669  18.915  -3.616  1.00  0.00    -0.077 C 
ATOM     13  C   UNL     1      53.476  19.362  -4.064  1.00  0.00    -0.028 C 
ATOM     14  C   UNL     1      55.835  18.713  -4.552  1.00  0.00     0.039 C 
BRANCH  13  15
ATOM     15  C   UNL     1      53.205  19.678  -5.517  1.00  0.00     0.035 C 
BRANCH  15  16
ATOM     16  C   UNL     1      52.572  21.064  -5.697  1.00  0.00     0.079 C 
BRANCH  16  17
ATOM     17  C   UNL     1      51.312  20.998  -6.523  1.00  0.00     0.130 C 
ATOM     18  O   UNL     1      50.653  22.012  -6.698  1.00  0.00    -0.300 OA
ATOM     19  C   UNL     1      50.848  19.711  -7.137  1.00  0.00     0.087 C 
ENDBRANCH  16  17
ENDBRANCH  15  16
ENDBRANCH  13  15
ENDBRANCH  11  12
ENDBRANCH   1  11
TORSDOF 9
ENDMDL
MODEL 5
REMARK VINA RESULT:    -4.140      2.522      5.886
REMARK INTER + INTRA:          -9.163
REMARK INTER:                  -6.328
REMARK INTRA:                  -2.835
REMARK UNBOUND:                -2.846
REMARK SMILES CC(=O)CCC=C(C)CCC=C(C)CCC=C(C)C
REMARK SMILES IDX 10 1 11 2 12 3 13 4 14 5 15 6 16 7 18 8 17 9 19 10 9 11 7 12
REMARK SMILES IDX 6 13 8 14 5 15 4 16 2 17 3 18 1 19
REMARK H PARENT
REMARK Flexibility Score: inf
ROOT
ATOM      1  C   UNL     1      55.255  15.809  -0.087  1.00  0.00     0.032 C 
ENDROOT
BRANCH   1   2
ATOM      2  C   UNL     1      55.276  14.328  -0.369  1.00  0.00    -0.028 C 
ATOM      3  C   UNL     1      55.557  13.774  -1.572  1.00  0.00    -0.077 C 
ATOM      4  C   UNL     1      55.599  12.271  -1.673  1.00  0.00     0.039 C 
BRANCH   3   5
ATOM      5  C   UNL     1      55.801  14.599  -2.824  1.00  0.00     0.034 C 
BRANCH   5   6
ATOM      6  C   UNL     1      54.761  14.304  -3.916  1.00  0.00     0.032 C 
BRANCH   6   7
ATOM      7  C   UNL     1      53.385  14.790  -3.530  1.00  0.00    -0.028 C 
ATOM      8  C   UNL     1      51.018  14.618  -2.898  1.00  0.00     0.039 C 
ATOM      9  C   UNL     1      52.317  13.988  -3.328  1.00  0.00    -0.080 C 
ATOM     10  C   UNL     1      52.385  12.494  -3.540  1.00  0.00     0.039 C 
ENDBRANCH   6   7
ENDBRANCH   5   6
ENDBRANCH   3   5
ENDBRANCH   1   2
BRANCH   1  11
ATOM     11  C   UNL     1      53.839  16.372  -0.247  1.00  0.00     0.034 C 
BRANCH  11  12
ATOM     12  C   UNL     1      53.809  17.463  -1.295  1.00  0.00    -0.077 C 
ATOM     13  C   UNL     1      54.974  17.986  -1.735  1.00  0.00    -0.028 C 
ATOM     14  C   UNL     1      52.481  17.944  -1.827  1.00  0.00     0.039 C 
BRANCH  13  15
ATOM     15  C   UNL     1      55.048  19.088  -2.766  1.00  0.00     0.035 C 
BRANCH  15  16
ATOM     16  C   UNL     1      55.478  18.561  -4.142  1.00  0.00     0.079 C 
BRANCH  16  17
ATOM     17  C   UNL     1      54.391  18.743  -5.172  1.00  0.00     0.130 C 
ATOM     18  O   UNL     1      54.060  19.870  -5.505  1.00  0.00    -0.300 OA
ATOM     19  C   UNL     1      53.707  17.565  -5.799  1.00  0.00     0.087 C 
ENDBRANCH  16  17
ENDBRANCH  15  16
ENDBRANCH  13  15
ENDBRANCH  11  12
ENDBRANCH   1  11
TORSDOF 9
ENDMDL
MODEL 6
REMARK VINA RESULT:    -4.089      1.596      3.063
REMARK INTER + INTRA:          -9.086
REMARK INTER:                  -7.154
REMARK INTRA:                  -1.932
REMARK UNBOUND:                -2.846
REMARK SMILES CC(=O)CCC=C(C)CCC=C(C)CCC=C(C)C
REMARK SMILES IDX 10 1 11 2 12 3 13 4 14 5 15 6 16 7 18 8 17 9 19 10 9 11 7 12
REMARK SMILES IDX 6 13 8 14 5 15 4 16 2 17 3 18 1 19
REMARK H PARENT
REMARK Flexibility Score: inf
ROOT
ATOM      1  C   UNL     1      54.414  18.545  -1.898  1.00  0.00     0.032 C 
ENDROOT
BRANCH   1   2
ATOM      2  C   UNL     1      55.463  19.009  -2.877  1.00  0.00    -0.028 C 
ATOM      3  C   UNL     1      55.398  18.838  -4.218  1.00  0.00    -0.077 C 
ATOM      4  C   UNL     1      56.501  19.417  -5.066  1.00  0.00     0.039 C 
BRANCH   3   5
ATOM      5  C   UNL     1      54.281  18.064  -4.899  1.00  0.00     0.034 C 
BRANCH   5   6
ATOM      6  C   UNL     1      53.328  18.991  -5.668  1.00  0.00     0.032 C 
BRANCH   6   7
ATOM      7  C   UNL     1      52.758  20.074  -4.783  1.00  0.00    -0.028 C 
ATOM      8  C   UNL     1      51.308  21.066  -3.067  1.00  0.00     0.039 C 
ATOM      9  C   UNL     1      51.734  19.899  -3.920  1.00  0.00    -0.080 C 
ATOM     10  C   UNL     1      50.998  18.585  -3.805  1.00  0.00     0.039 C 
ENDBRANCH   6   7
ENDBRANCH   5   6
ENDBRANCH   3   5
ENDBRANCH   1   2
BRANCH   1  11
ATOM     11  C   UNL     1      54.847  17.244  -1.214  1.00  0.00     0.034 C 
BRANCH  11  12
ATOM     12  C   UNL     1      54.453  16.043  -2.045  1.00  0.00    -0.077 C 
ATOM     13  C   UNL     1      55.417  15.307  -2.639  1.00  0.00    -0.028 C 
ATOM     14  C   UNL     1      52.992  15.692  -2.194  1.00  0.00     0.039 C 
BRANCH  13  15
ATOM     15  C   UNL     1      55.123  14.100  -3.500  1.00  0.00     0.035 C 
BRANCH  15  16
ATOM     16  C   UNL     1      56.087  12.941  -3.215  1.00  0.00     0.079 C 
BRANCH  16  17
ATOM     17  C   UNL     1      55.989  12.474  -1.784  1.00  0.00     0.130 C 
ATOM     18  O   UNL     1      54.947  11.979  -1.383  1.00  0.00    -0.300 OA
ATOM     19  C   UNL     1      57.146  12.604  -0.839  1.00  0.00     0.087 C 
ENDBRANCH  16  17
ENDBRANCH  15  16
ENDBRANCH  13  15
ENDBRANCH  11  12
ENDBRANCH   1  11
TORSDOF 9
ENDMDL
MODEL 7
REMARK VINA RESULT:    -4.083      1.769      3.134
REMARK INTER + INTRA:          -9.077
REMARK INTER:                  -5.919
REMARK INTRA:                  -3.158
REMARK UNBOUND:                -2.846
REMARK SMILES CC(=O)CCC=C(C)CCC=C(C)CCC=C(C)C
REMARK SMILES IDX 10 1 11 2 12 3 13 4 14 5 15 6 16 7 18 8 17 9 19 10 9 11 7 12
REMARK SMILES IDX 6 13 8 14 5 15 4 16 2 17 3 18 1 19
REMARK H PARENT
REMARK Flexibility Score: inf
ROOT
ATOM      1  C   UNL     1      55.119  18.937  -4.827  1.00  0.00     0.032 C 
ENDROOT
BRANCH   1   2
ATOM      2  C   UNL     1      54.012  19.806  -5.369  1.00  0.00    -0.028 C 
ATOM      3  C   UNL     1      52.804  19.353  -5.778  1.00  0.00    -0.077 C 
ATOM      4  C   UNL     1      51.781  20.362  -6.235  1.00  0.00     0.039 C 
BRANCH   3   5
ATOM      5  C   UNL     1      52.447  17.877  -5.824  1.00  0.00     0.034 C 
BRANCH   5   6
ATOM      6  C   UNL     1      51.106  17.590  -5.132  1.00  0.00     0.032 C 
BRANCH   6   7
ATOM      7  C   UNL     1      51.277  16.720  -3.909  1.00  0.00    -0.028 C 
ATOM      8  C   UNL     1      51.520  16.191  -1.523  1.00  0.00     0.039 C 
ATOM      9  C   UNL     1      51.406  17.187  -2.648  1.00  0.00    -0.080 C 
ATOM     10  C   UNL     1      51.460  18.665  -2.342  1.00  0.00     0.039 C 
ENDBRANCH   6   7
ENDBRANCH   5   6
ENDBRANCH   3   5
ENDBRANCH   1   2
BRANCH   1  11
ATOM     11  C   UNL     1      55.109  18.937  -3.295  1.00  0.00     0.034 C 
BRANCH  11  12
ATOM     12  C   UNL     1      55.033  17.525  -2.757  1.00  0.00    -0.077 C 
ATOM     13  C   UNL     1      55.042  16.488  -3.623  1.00  0.00    -0.028 C 
ATOM     14  C   UNL     1      54.949  17.303  -1.266  1.00  0.00     0.039 C 
BRANCH  13  15
ATOM     15  C   UNL     1      54.955  15.045  -3.185  1.00  0.00     0.035 C 
BRANCH  15  16
ATOM     16  C   UNL     1      53.972  14.240  -4.046  1.00  0.00     0.079 C 
BRANCH  16  17
ATOM     17  C   UNL     1      53.186  13.253  -3.219  1.00  0.00     0.130 C 
ATOM     18  O   UNL     1      53.736  12.665  -2.301  1.00  0.00    -0.300 OA
ATOM     19  C   UNL     1      51.739  12.977  -3.500  1.00  0.00     0.087 C 
ENDBRANCH  16  17
ENDBRANCH  15  16
ENDBRANCH  13  15
ENDBRANCH  11  12
ENDBRANCH   1  11
TORSDOF 9
ENDMDL
MODEL 8
REMARK VINA RESULT:    -4.043      1.341      3.305
REMARK INTER + INTRA:          -9.016
REMARK INTER:                  -6.921
REMARK INTRA:                  -2.095
REMARK UNBOUND:                -2.846
REMARK SMILES CC(=O)CCC=C(C)CCC=C(C)CCC=C(C)C
REMARK SMILES IDX 10 1 11 2 12 3 13 4 14 5 15 6 16 7 18 8 17 9 19 10 9 11 7 12
REMARK SMILES IDX 6 13 8 14 5 15 4 16 2 17 3 18 1 19
REMARK H PARENT
REMARK Flexibility Score: inf
ROOT
ATOM      1  C   UNL     1      54.309  18.206  -1.634  1.00  0.00     0.032 C 
ENDROOT
BRANCH   1   2
ATOM      2  C   UNL     1      55.341  18.665  -2.633  1.00  0.00    -0.028 C 
ATOM      3  C   UNL     1      55.112  18.840  -3.956  1.00  0.00    -0.077 C 
ATOM      4  C   UNL     1      56.236  19.366  -4.811  1.00  0.00     0.039 C 
BRANCH   3   5
ATOM      5  C   UNL     1      53.786  18.502  -4.617  1.00  0.00     0.034 C 
BRANCH   5   6
ATOM      6  C   UNL     1      53.965  17.535  -5.797  1.00  0.00     0.032 C 
BRANCH   6   7
ATOM      7  C   UNL     1      53.531  16.131  -5.447  1.00  0.00    -0.028 C 
ATOM      8  C   UNL     1      52.303  14.017  -5.677  1.00  0.00     0.039 C 
ATOM      9  C   UNL     1      52.593  15.428  -6.118  1.00  0.00    -0.080 C 
ATOM     10  C   UNL     1      51.820  16.022  -7.272  1.00  0.00     0.039 C 
ENDBRANCH   6   7
ENDBRANCH   5   6
ENDBRANCH   3   5
ENDBRANCH   1   2
BRANCH   1  11
ATOM     11  C   UNL     1      54.759  16.915  -0.942  1.00  0.00     0.034 C 
BRANCH  11  12
ATOM     12  C   UNL     1      54.508  15.715  -1.828  1.00  0.00    -0.077 C 
ATOM     13  C   UNL     1      55.553  15.116  -2.439  1.00  0.00    -0.028 C 
ATOM     14  C   UNL     1      53.097  15.212  -2.011  1.00  0.00     0.039 C 
BRANCH  13  15
ATOM     15  C   UNL     1      55.403  13.922  -3.353  1.00  0.00     0.035 C 
BRANCH  15  16
ATOM     16  C   UNL     1      56.149  12.692  -2.821  1.00  0.00     0.079 C 
BRANCH  16  17
ATOM     17  C   UNL     1      55.692  11.426  -3.503  1.00  0.00     0.130 C 
ATOM     18  O   UNL     1      56.520  10.612  -3.880  1.00  0.00    -0.300 OA
ATOM     19  C   UNL     1      54.236  11.143  -3.726  1.00  0.00     0.087 C 
ENDBRANCH  16  17
ENDBRANCH  15  16
ENDBRANCH  13  15
ENDBRANCH  11  12
ENDBRANCH   1  11
TORSDOF 9
ENDMDL
MODEL 9
REMARK VINA RESULT:    -4.040      1.662      3.901
REMARK INTER + INTRA:          -9.011
REMARK INTER:                  -6.132
REMARK INTRA:                  -2.878
REMARK UNBOUND:                -2.846
REMARK SMILES CC(=O)CCC=C(C)CCC=C(C)CCC=C(C)C
REMARK SMILES IDX 10 1 11 2 12 3 13 4 14 5 15 6 16 7 18 8 17 9 19 10 9 11 7 12
REMARK SMILES IDX 6 13 8 14 5 15 4 16 2 17 3 18 1 19
REMARK H PARENT
REMARK Flexibility Score: inf
ROOT
ATOM      1  C   UNL     1      51.218  17.713  -2.164  1.00  0.00     0.032 C 
ENDROOT
BRANCH   1   2
ATOM      2  C   UNL     1      50.377  18.031  -3.374  1.00  0.00    -0.028 C 
ATOM      3  C   UNL     1      50.555  17.491  -4.603  1.00  0.00    -0.077 C 
ATOM      4  C   UNL     1      49.586  17.867  -5.695  1.00  0.00     0.039 C 
BRANCH   3   5
ATOM      5  C   UNL     1      51.701  16.550  -4.933  1.00  0.00     0.034 C 
BRANCH   5   6
ATOM      6  C   UNL     1      52.520  17.046  -6.135  1.00  0.00     0.032 C 
BRANCH   6   7
ATOM      7  C   UNL     1      53.916  17.459  -5.735  1.00  0.00    -0.028 C 
ATOM      8  C   UNL     1      55.703  18.965  -4.981  1.00  0.00     0.039 C 
ATOM      9  C   UNL     1      54.279  18.718  -5.408  1.00  0.00    -0.080 C 
ATOM     10  C   UNL     1      53.312  19.876  -5.479  1.00  0.00     0.039 C 
ENDBRANCH   6   7
ENDBRANCH   5   6
ENDBRANCH   3   5
ENDBRANCH   1   2
BRANCH   1  11
ATOM     11  C   UNL     1      52.365  18.719  -2.021  1.00  0.00     0.034 C 
BRANCH  11  12
ATOM     12  C   UNL     1      53.694  18.005  -1.901  1.00  0.00    -0.077 C 
ATOM     13  C   UNL     1      53.736  16.662  -2.039  1.00  0.00    -0.028 C 
ATOM     14  C   UNL     1      54.944  18.807  -1.632  1.00  0.00     0.039 C 
BRANCH  13  15
ATOM     15  C   UNL     1      55.010  15.858  -1.922  1.00  0.00     0.035 C 
BRANCH  15  16
ATOM     16  C   UNL     1      55.451  15.278  -3.272  1.00  0.00     0.079 C 
BRANCH  16  17
ATOM     17  C   UNL     1      55.239  13.785  -3.332  1.00  0.00     0.130 C 
ATOM     18  O   UNL     1      56.203  13.038  -3.271  1.00  0.00    -0.300 OA
ATOM     19  C   UNL     1      53.866  13.197  -3.465  1.00  0.00     0.087 C 
ENDBRANCH  16  17
ENDBRANCH  15  16
ENDBRANCH  13  15
ENDBRANCH  11  12
ENDBRANCH   1  11
TORSDOF 9
ENDMDL
