MODEL 1
REMARK VINA RESULT:    -3.512      0.000      0.000
REMARK INTER + INTRA:          -6.191
REMARK INTER:                  -5.565
REMARK INTRA:                  -0.626
REMARK UNBOUND:                -0.626
REMARK SMILES CCCCCCCCCCCC(=O)[O-]
REMARK SMILES IDX 7 1 8 2 9 3 10 4 11 5 12 6 13 7 14 8 6 9 5 10 4 11 3 12 2 13
REMARK SMILES IDX 1 14
REMARK H PARENT
REMARK Flexibility Score: inf
ROOT
ATOM      1  C   UNL     1      10.543  40.081 152.263  1.00  0.00     0.000 C 
ENDROOT
BRANCH   1   2
ATOM      2  C   UNL     1      11.849  40.615 151.663  1.00  0.00     0.000 C 
BRANCH   2   3
ATOM      3  C   UNL     1      11.936  42.139 151.801  1.00  0.00     0.000 C 
BRANCH   3   4
ATOM      4  C   UNL     1      12.092  42.551 153.273  1.00  0.00     0.006 C 
BRANCH   4   5
ATOM      5  C   UNL     1      11.105  43.653 153.674  1.00  0.00     0.053 C 
BRANCH   5   6
ATOM      6  C   UNL     1      10.189  43.206 154.771  1.00  0.00     0.041 C 
ATOM      7  O   UNL     1      10.284  42.041 155.242  1.00  0.00    -0.550 OA
ATOM      8  O   UNL     1       9.207  44.063 155.252  1.00  0.00    -0.550 OA
ENDBRANCH   5   6
ENDBRANCH   4   5
ENDBRANCH   3   4
ENDBRANCH   2   3
ENDBRANCH   1   2
BRANCH   1   9
ATOM      9  C   UNL     1       9.472  39.898 151.176  1.00  0.00     0.000 C 
BRANCH   9  10
ATOM     10  C   UNL     1      10.006  39.184 149.920  1.00  0.00    -0.000 C 
BRANCH  10  11
ATOM     11  C   UNL     1      10.105  37.651 150.031  1.00  0.00    -0.000 C 
BRANCH  11  12
ATOM     12  C   UNL     1       8.811  36.935 149.611  1.00  0.00    -0.000 C 
BRANCH  12  13
ATOM     13  C   UNL     1       8.996  35.415 149.482  1.00  0.00    -0.003 C 
ATOM     14  C   UNL     1      10.258  34.911 150.182  1.00  0.00     0.004 C 
ENDBRANCH  12  13
ENDBRANCH  11  12
ENDBRANCH  10  11
ENDBRANCH   9  10
ENDBRANCH   1   9
TORSDOF 10
ENDMDL
MODEL 2
REMARK VINA RESULT:    -3.395     12.464     14.259
REMARK INTER + INTRA:          -6.007
REMARK INTER:                  -4.440
REMARK INTRA:                  -1.566
REMARK UNBOUND:                -0.626
REMARK SMILES CCCCCCCCCCCC(=O)[O-]
REMARK SMILES IDX 7 1 8 2 9 3 10 4 11 5 12 6 13 7 14 8 6 9 5 10 4 11 3 12 2 13
REMARK SMILES IDX 1 14
REMARK H PARENT
REMARK Flexibility Score: inf
ROOT
ATOM      1  C   UNL     1       8.626  36.315 141.259  1.00  0.00     0.000 C 
ENDROOT
BRANCH   1   2
ATOM      2  C   UNL     1       7.619  37.161 140.469  1.00  0.00     0.000 C 
BRANCH   2   3
ATOM      3  C   UNL     1       7.022  36.362 139.305  1.00  0.00     0.000 C 
BRANCH   3   4
ATOM      4  C   UNL     1       7.133  37.143 137.987  1.00  0.00     0.006 C 
BRANCH   4   5
ATOM      5  C   UNL     1       7.257  38.654 138.216  1.00  0.00     0.053 C 
BRANCH   5   6
ATOM      6  C   UNL     1       6.008  39.379 137.821  1.00  0.00     0.041 C 
ATOM      7  O   UNL     1       5.712  40.477 138.363  1.00  0.00    -0.550 OA
ATOM      8  O   UNL     1       5.152  38.828 136.875  1.00  0.00    -0.550 OA
ENDBRANCH   5   6
ENDBRANCH   4   5
ENDBRANCH   3   4
ENDBRANCH   2   3
ENDBRANCH   1   2
BRANCH   1   9
ATOM      9  C   UNL     1       9.044  35.070 140.462  1.00  0.00     0.000 C 
BRANCH   9  10
ATOM     10  C   UNL     1      10.490  35.149 139.938  1.00  0.00    -0.000 C 
BRANCH  10  11
ATOM     11  C   UNL     1      10.680  35.998 138.667  1.00  0.00    -0.000 C 
BRANCH  11  12
ATOM     12  C   UNL     1      11.568  37.232 138.900  1.00  0.00    -0.000 C 
BRANCH  12  13
ATOM     13  C   UNL     1      10.813  38.551 138.669  1.00  0.00    -0.003 C 
ATOM     14  C   UNL     1      10.586  39.338 139.960  1.00  0.00     0.004 C 
ENDBRANCH  12  13
ENDBRANCH  11  12
ENDBRANCH  10  11
ENDBRANCH   9  10
ENDBRANCH   1   9
TORSDOF 10
ENDMDL
MODEL 3
REMARK VINA RESULT:    -3.394      1.655      2.968
REMARK INTER + INTRA:          -6.004
REMARK INTER:                  -4.364
REMARK INTRA:                  -1.641
REMARK UNBOUND:                -0.626
REMARK SMILES CCCCCCCCCCCC(=O)[O-]
REMARK SMILES IDX 7 1 8 2 9 3 10 4 11 5 12 6 13 7 14 8 6 9 5 10 4 11 3 12 2 13
REMARK SMILES IDX 1 14
REMARK H PARENT
REMARK Flexibility Score: inf
ROOT
ATOM      1  C   UNL     1      12.099  39.664 151.225  1.00  0.00     0.000 C 
ENDROOT
BRANCH   1   2
ATOM      2  C   UNL     1      11.956  41.178 151.023  1.00  0.00     0.000 C 
BRANCH   2   3
ATOM      3  C   UNL     1      11.182  41.817 152.182  1.00  0.00     0.000 C 
BRANCH   3   4
ATOM      4  C   UNL     1      10.491  40.748 153.040  1.00  0.00     0.006 C 
BRANCH   4   5
ATOM      5  C   UNL     1       9.253  41.293 153.761  1.00  0.00     0.053 C 
BRANCH   5   6
ATOM      6  C   UNL     1       9.610  42.366 154.743  1.00  0.00     0.041 C 
ATOM      7  O   UNL     1       9.124  43.523 154.624  1.00  0.00    -0.550 OA
ATOM      8  O   UNL     1      10.505  42.099 155.771  1.00  0.00    -0.550 OA
ENDBRANCH   5   6
ENDBRANCH   4   5
ENDBRANCH   3   4
ENDBRANCH   2   3
ENDBRANCH   1   2
BRANCH   1   9
ATOM      9  C   UNL     1      11.775  38.903 149.931  1.00  0.00     0.000 C 
BRANCH   9  10
ATOM     10  C   UNL     1      10.508  38.035 150.045  1.00  0.00    -0.000 C 
BRANCH  10  11
ATOM     11  C   UNL     1       9.233  38.654 149.442  1.00  0.00    -0.000 C 
BRANCH  11  12
ATOM     12  C   UNL     1       8.307  39.269 150.504  1.00  0.00    -0.000 C 
BRANCH  12  13
ATOM     13  C   UNL     1       8.024  40.758 150.244  1.00  0.00    -0.003 C 
ATOM     14  C   UNL     1       8.826  41.317 149.069  1.00  0.00     0.004 C 
ENDBRANCH  12  13
ENDBRANCH  11  12
ENDBRANCH  10  11
ENDBRANCH   9  10
ENDBRANCH   1   9
TORSDOF 10
ENDMDL
MODEL 4
REMARK VINA RESULT:    -3.380      3.399      6.776
REMARK INTER + INTRA:          -5.982
REMARK INTER:                  -5.083
REMARK INTRA:                  -0.899
REMARK UNBOUND:                -0.626
REMARK SMILES CCCCCCCCCCCC(=O)[O-]
REMARK SMILES IDX 7 1 8 2 9 3 10 4 11 5 12 6 13 7 14 8 6 9 5 10 4 11 3 12 2 13
REMARK SMILES IDX 1 14
REMARK H PARENT
REMARK Flexibility Score: inf
ROOT
ATOM      1  C   UNL     1      11.992  41.647 151.000  1.00  0.00     0.000 C 
ENDROOT
BRANCH   1   2
ATOM      2  C   UNL     1      11.938  40.169 151.406  1.00  0.00     0.000 C 
BRANCH   2   3
ATOM      3  C   UNL     1      10.525  39.770 151.849  1.00  0.00     0.000 C 
BRANCH   3   4
ATOM      4  C   UNL     1       9.763  39.083 150.706  1.00  0.00     0.006 C 
BRANCH   4   5
ATOM      5  C   UNL     1      10.589  37.974 150.043  1.00  0.00     0.053 C 
BRANCH   5   6
ATOM      6  C   UNL     1       9.797  36.713 149.884  1.00  0.00     0.041 C 
ATOM      7  O   UNL     1       8.570  36.764 149.604  1.00  0.00    -0.550 OA
ATOM      8  O   UNL     1      10.407  35.479 150.076  1.00  0.00    -0.550 OA
ENDBRANCH   5   6
ENDBRANCH   4   5
ENDBRANCH   3   4
ENDBRANCH   2   3
ENDBRANCH   1   2
BRANCH   1   9
ATOM      9  C   UNL     1      11.114  42.504 151.924  1.00  0.00     0.000 C 
BRANCH   9  10
ATOM     10  C   UNL     1      11.932  43.330 152.935  1.00  0.00    -0.000 C 
BRANCH  10  11
ATOM     11  C   UNL     1      11.705  42.966 154.414  1.00  0.00    -0.000 C 
BRANCH  11  12
ATOM     12  C   UNL     1      10.411  42.166 154.642  1.00  0.00    -0.000 C 
BRANCH  12  13
ATOM     13  C   UNL     1       9.287  43.027 155.239  1.00  0.00    -0.003 C 
ATOM     14  C   UNL     1       8.186  43.350 154.228  1.00  0.00     0.004 C 
ENDBRANCH  12  13
ENDBRANCH  11  12
ENDBRANCH  10  11
ENDBRANCH   9  10
ENDBRANCH   1   9
TORSDOF 10
ENDMDL
MODEL 5
REMARK VINA RESULT:    -3.355      2.655      3.861
REMARK INTER + INTRA:          -5.942
REMARK INTER:                  -4.562
REMARK INTRA:                  -1.380
REMARK UNBOUND:                -0.626
REMARK SMILES CCCCCCCCCCCC(=O)[O-]
REMARK SMILES IDX 7 1 8 2 9 3 10 4 11 5 12 6 13 7 14 8 6 9 5 10 4 11 3 12 2 13
REMARK SMILES IDX 1 14
REMARK H PARENT
REMARK Flexibility Score: inf
ROOT
ATOM      1  C   UNL     1      10.799  43.615 152.187  1.00  0.00     0.000 C 
ENDROOT
BRANCH   1   2
ATOM      2  C   UNL     1      10.951  44.031 153.655  1.00  0.00     0.000 C 
BRANCH   2   3
ATOM      3  C   UNL     1      11.328  42.831 154.532  1.00  0.00     0.000 C 
BRANCH   3   4
ATOM      4  C   UNL     1      10.149  42.403 155.417  1.00  0.00     0.006 C 
BRANCH   4   5
ATOM      5  C   UNL     1       9.273  43.591 155.831  1.00  0.00     0.053 C 
BRANCH   5   6
ATOM      6  C   UNL     1       7.824  43.338 155.548  1.00  0.00     0.041 C 
ATOM      7  O   UNL     1       7.016  43.147 156.495  1.00  0.00    -0.550 OA
ATOM      8  O   UNL     1       7.371  43.280 154.236  1.00  0.00    -0.550 OA
ENDBRANCH   5   6
ENDBRANCH   4   5
ENDBRANCH   3   4
ENDBRANCH   2   3
ENDBRANCH   1   2
BRANCH   1   9
ATOM      9  C   UNL     1      12.126  43.082 151.625  1.00  0.00     0.000 C 
BRANCH   9  10
ATOM     10  C   UNL     1      11.957  41.787 150.809  1.00  0.00    -0.000 C 
BRANCH  10  11
ATOM     11  C   UNL     1      12.007  40.485 151.630  1.00  0.00    -0.000 C 
BRANCH  11  12
ATOM     12  C   UNL     1      10.691  39.691 151.573  1.00  0.00    -0.000 C 
BRANCH  12  13
ATOM     13  C   UNL     1       9.737  40.054 152.723  1.00  0.00    -0.003 C 
ATOM     14  C   UNL     1       8.388  40.579 152.229  1.00  0.00     0.004 C 
ENDBRANCH  12  13
ENDBRANCH  11  12
ENDBRANCH  10  11
ENDBRANCH   9  10
ENDBRANCH   1   9
TORSDOF 10
ENDMDL
MODEL 6
REMARK VINA RESULT:    -3.336      1.983      3.116
REMARK INTER + INTRA:          -5.912
REMARK INTER:                  -4.539
REMARK INTRA:                  -1.373
REMARK UNBOUND:                -0.626
REMARK SMILES CCCCCCCCCCCC(=O)[O-]
REMARK SMILES IDX 7 1 8 2 9 3 10 4 11 5 12 6 13 7 14 8 6 9 5 10 4 11 3 12 2 13
REMARK SMILES IDX 1 14
REMARK H PARENT
REMARK Flexibility Score: inf
ROOT
ATOM      1  C   UNL     1      12.147  42.066 150.204  1.00  0.00     0.000 C 
ENDROOT
BRANCH   1   2
ATOM      2  C   UNL     1      12.102  42.471 151.682  1.00  0.00     0.000 C 
BRANCH   2   3
ATOM      3  C   UNL     1      11.150  43.652 151.901  1.00  0.00     0.000 C 
BRANCH   3   4
ATOM      4  C   UNL     1      10.846  43.845 153.394  1.00  0.00     0.006 C 
BRANCH   4   5
ATOM      5  C   UNL     1      11.043  42.554 154.198  1.00  0.00     0.053 C 
BRANCH   5   6
ATOM      6  C   UNL     1      10.139  42.499 155.390  1.00  0.00     0.041 C 
ATOM      7  O   UNL     1       8.934  42.853 155.291  1.00  0.00    -0.550 OA
ATOM      8  O   UNL     1      10.634  42.087 156.621  1.00  0.00    -0.550 OA
ENDBRANCH   5   6
ENDBRANCH   4   5
ENDBRANCH   3   4
ENDBRANCH   2   3
ENDBRANCH   1   2
BRANCH   1   9
ATOM      9  C   UNL     1      12.027  40.543 150.046  1.00  0.00     0.000 C 
BRANCH   9  10
ATOM     10  C   UNL     1      11.368  39.863 151.261  1.00  0.00    -0.000 C 
BRANCH  10  11
ATOM     11  C   UNL     1      10.133  39.000 150.939  1.00  0.00    -0.000 C 
BRANCH  11  12
ATOM     12  C   UNL     1       8.847  39.830 150.788  1.00  0.00    -0.000 C 
BRANCH  12  13
ATOM     13  C   UNL     1       8.672  40.854 151.921  1.00  0.00    -0.003 C 
ATOM     14  C   UNL     1       8.026  40.252 153.169  1.00  0.00     0.004 C 
ENDBRANCH  12  13
ENDBRANCH  11  12
ENDBRANCH  10  11
ENDBRANCH   9  10
ENDBRANCH   1   9
TORSDOF 10
ENDMDL
MODEL 7
REMARK VINA RESULT:    -3.304     12.688     14.270
REMARK INTER + INTRA:          -5.862
REMARK INTER:                  -4.636
REMARK INTRA:                  -1.226
REMARK UNBOUND:                -0.626
REMARK SMILES CCCCCCCCCCCC(=O)[O-]
REMARK SMILES IDX 7 1 8 2 9 3 10 4 11 5 12 6 13 7 14 8 6 9 5 10 4 11 3 12 2 13
REMARK SMILES IDX 1 14
REMARK H PARENT
REMARK Flexibility Score: inf
ROOT
ATOM      1  C   UNL     1      11.953  34.941 139.868  1.00  0.00     0.000 C 
ENDROOT
BRANCH   1   2
ATOM      2  C   UNL     1      10.507  35.022 139.366  1.00  0.00     0.000 C 
BRANCH   2   3
ATOM      3  C   UNL     1       9.526  35.174 140.534  1.00  0.00     0.000 C 
BRANCH   3   4
ATOM      4  C   UNL     1       8.542  36.326 140.281  1.00  0.00     0.006 C 
BRANCH   4   5
ATOM      5  C   UNL     1       7.811  36.181 138.941  1.00  0.00     0.053 C 
BRANCH   5   6
ATOM      6  C   UNL     1       7.176  37.468 138.514  1.00  0.00     0.041 C 
ATOM      7  O   UNL     1       7.070  38.425 139.327  1.00  0.00    -0.550 OA
ATOM      8  O   UNL     1       6.673  37.602 137.226  1.00  0.00    -0.550 OA
ENDBRANCH   5   6
ENDBRANCH   4   5
ENDBRANCH   3   4
ENDBRANCH   2   3
ENDBRANCH   1   2
BRANCH   1   9
ATOM      9  C   UNL     1      12.862  35.905 139.089  1.00  0.00     0.000 C 
BRANCH   9  10
ATOM     10  C   UNL     1      12.164  37.229 138.727  1.00  0.00    -0.000 C 
BRANCH  10  11
ATOM     11  C   UNL     1      12.139  38.284 139.848  1.00  0.00    -0.000 C 
BRANCH  11  12
ATOM     12  C   UNL     1      10.859  39.136 139.840  1.00  0.00    -0.000 C 
BRANCH  12  13
ATOM     13  C   UNL     1      10.374  39.454 138.416  1.00  0.00    -0.003 C 
ATOM     14  C   UNL     1      10.411  40.950 138.098  1.00  0.00     0.004 C 
ENDBRANCH  12  13
ENDBRANCH  11  12
ENDBRANCH  10  11
ENDBRANCH   9  10
ENDBRANCH   1   9
TORSDOF 10
ENDMDL
MODEL 8
REMARK VINA RESULT:    -3.297     12.362     13.901
REMARK INTER + INTRA:          -5.851
REMARK INTER:                  -4.475
REMARK INTRA:                  -1.376
REMARK UNBOUND:                -0.626
REMARK SMILES CCCCCCCCCCCC(=O)[O-]
REMARK SMILES IDX 7 1 8 2 9 3 10 4 11 5 12 6 13 7 14 8 6 9 5 10 4 11 3 12 2 13
REMARK SMILES IDX 1 14
REMARK H PARENT
REMARK Flexibility Score: inf
ROOT
ATOM      1  C   UNL     1      11.769  38.501 139.845  1.00  0.00     0.000 C 
ENDROOT
BRANCH   1   2
ATOM      2  C   UNL     1      11.335  39.778 139.113  1.00  0.00     0.000 C 
BRANCH   2   3
ATOM      3  C   UNL     1      10.069  39.534 138.284  1.00  0.00     0.000 C 
BRANCH   3   4
ATOM      4  C   UNL     1       8.916  39.039 139.169  1.00  0.00     0.006 C 
BRANCH   4   5
ATOM      5  C   UNL     1       7.881  38.231 138.377  1.00  0.00     0.053 C 
BRANCH   5   6
ATOM      6  C   UNL     1       6.748  39.090 137.907  1.00  0.00     0.041 C 
ATOM      7  O   UNL     1       6.604  40.256 138.362  1.00  0.00    -0.550 OA
ATOM      8  O   UNL     1       5.831  38.592 136.990  1.00  0.00    -0.550 OA
ENDBRANCH   5   6
ENDBRANCH   4   5
ENDBRANCH   3   4
ENDBRANCH   2   3
ENDBRANCH   1   2
BRANCH   1   9
ATOM      9  C   UNL     1      12.973  37.850 139.148  1.00  0.00     0.000 C 
BRANCH   9  10
ATOM     10  C   UNL     1      12.726  36.378 138.770  1.00  0.00    -0.000 C 
BRANCH  10  11
ATOM     11  C   UNL     1      11.248  35.992 138.572  1.00  0.00    -0.000 C 
BRANCH  11  12
ATOM     12  C   UNL     1      10.759  34.951 139.593  1.00  0.00    -0.000 C 
BRANCH  12  13
ATOM     13  C   UNL     1       9.350  35.263 140.121  1.00  0.00    -0.003 C 
ATOM     14  C   UNL     1       9.369  36.081 141.413  1.00  0.00     0.004 C 
ENDBRANCH  12  13
ENDBRANCH  11  12
ENDBRANCH  10  11
ENDBRANCH   9  10
ENDBRANCH   1   9
TORSDOF 10
ENDMDL
MODEL 9
REMARK VINA RESULT:    -3.236     11.713     13.680
REMARK INTER + INTRA:          -5.755
REMARK INTER:                  -4.093
REMARK INTRA:                  -1.662
REMARK UNBOUND:                -0.626
REMARK SMILES CCCCCCCCCCCC(=O)[O-]
REMARK SMILES IDX 7 1 8 2 9 3 10 4 11 5 12 6 13 7 14 8 6 9 5 10 4 11 3 12 2 13
REMARK SMILES IDX 1 14
REMARK H PARENT
REMARK Flexibility Score: inf
ROOT
ATOM      1  C   UNL     1      11.788  37.296 138.751  1.00  0.00     0.000 C 
ENDROOT
BRANCH   1   2
ATOM      2  C   UNL     1      11.871  38.632 139.500  1.00  0.00     0.000 C 
BRANCH   2   3
ATOM      3  C   UNL     1      10.552  39.405 139.394  1.00  0.00     0.000 C 
BRANCH   3   4
ATOM      4  C   UNL     1       9.576  38.702 138.439  1.00  0.00     0.006 C 
BRANCH   4   5
ATOM      5  C   UNL     1       8.112  39.021 138.766  1.00  0.00     0.053 C 
BRANCH   5   6
ATOM      6  C   UNL     1       7.170  38.113 138.038  1.00  0.00     0.041 C 
ATOM      7  O   UNL     1       6.310  38.590 137.251  1.00  0.00    -0.550 OA
ATOM      8  O   UNL     1       7.220  36.742 138.252  1.00  0.00    -0.550 OA
ENDBRANCH   5   6
ENDBRANCH   4   5
ENDBRANCH   3   4
ENDBRANCH   2   3
ENDBRANCH   1   2
BRANCH   1   9
ATOM      9  C   UNL     1      12.547  36.194 139.505  1.00  0.00     0.000 C 
BRANCH   9  10
ATOM     10  C   UNL     1      11.658  34.989 139.863  1.00  0.00    -0.000 C 
BRANCH  10  11
ATOM     11  C   UNL     1      10.150  35.197 139.633  1.00  0.00    -0.000 C 
BRANCH  11  12
ATOM     12  C   UNL     1       9.333  35.148 140.935  1.00  0.00    -0.000 C 
BRANCH  12  13
ATOM     13  C   UNL     1       8.916  36.546 141.420  1.00  0.00    -0.003 C 
ATOM     14  C   UNL     1       9.935  37.170 142.375  1.00  0.00     0.004 C 
ENDBRANCH  12  13
ENDBRANCH  11  12
ENDBRANCH  10  11
ENDBRANCH   9  10
ENDBRANCH   1   9
TORSDOF 10
ENDMDL
