MODEL 1
REMARK VINA RESULT:    -4.444      0.000      0.000
REMARK INTER + INTRA:          -5.408
REMARK INTER:                  -4.964
REMARK INTRA:                  -0.444
REMARK UNBOUND:                -0.444
REMARK SMILES CC=C(C)C=CC=C(C)C
REMARK SMILES IDX 5 1 6 2 3 3 1 4 2 5 4 6 7 7 8 8 9 9 10 10
REMARK H PARENT
REMARK Flexibility Score: inf
ROOT
ATOM      1  C   UNL     1      55.360  46.281  43.119  1.00  0.00     0.003 C 
ATOM      2  C   UNL     1      56.491  46.779  42.600  1.00  0.00     0.000 C 
ENDROOT
BRANCH   1   3
ATOM      3  C   UNL     1      54.638  45.099  42.596  1.00  0.00    -0.055 C 
ATOM      4  C   UNL     1      54.490  42.608  42.396  1.00  0.00     0.036 C 
ATOM      5  C   UNL     1      55.148  43.879  42.839  1.00  0.00    -0.027 C 
ATOM      6  C   UNL     1      53.305  45.271  41.910  1.00  0.00     0.044 C 
ENDBRANCH   1   3
BRANCH   2   7
ATOM      7  C   UNL     1      57.255  46.129  41.509  1.00  0.00    -0.001 C 
ATOM      8  C   UNL     1      58.333  45.349  41.715  1.00  0.00    -0.076 C 
ATOM      9  C   UNL     1      58.879  45.092  43.096  1.00  0.00     0.039 C 
ATOM     10  C   UNL     1      59.013  44.734  40.522  1.00  0.00     0.039 C 
ENDBRANCH   2   7
TORSDOF 2
ENDMDL
MODEL 2
REMARK VINA RESULT:    -4.386      1.417      2.562
REMARK INTER + INTRA:          -5.343
REMARK INTER:                  -4.992
REMARK INTRA:                  -0.350
REMARK UNBOUND:                -0.444
REMARK SMILES CC=C(C)C=CC=C(C)C
REMARK SMILES IDX 5 1 6 2 3 3 1 4 2 5 4 6 7 7 8 8 9 9 10 10
REMARK H PARENT
REMARK Flexibility Score: inf
ROOT
ATOM      1  C   UNL     1      56.147  43.293  43.440  1.00  0.00     0.003 C 
ATOM      2  C   UNL     1      57.378  43.159  42.925  1.00  0.00     0.000 C 
ENDROOT
BRANCH   1   3
ATOM      3  C   UNL     1      55.260  44.458  43.218  1.00  0.00    -0.055 C 
ATOM      4  C   UNL     1      53.268  45.428  42.051  1.00  0.00     0.036 C 
ATOM      5  C   UNL     1      54.255  44.335  42.334  1.00  0.00    -0.027 C 
ATOM      6  C   UNL     1      55.422  45.702  44.056  1.00  0.00     0.044 C 
ENDBRANCH   1   3
BRANCH   2   7
ATOM      7  C   UNL     1      57.968  44.099  41.942  1.00  0.00    -0.001 C 
ATOM      8  C   UNL     1      58.919  43.751  41.056  1.00  0.00    -0.076 C 
ATOM      9  C   UNL     1      59.494  42.358  41.008  1.00  0.00     0.039 C 
ATOM     10  C   UNL     1      59.428  44.796  40.101  1.00  0.00     0.039 C 
ENDBRANCH   2   7
TORSDOF 2
ENDMDL
MODEL 3
REMARK VINA RESULT:    -4.180      1.034      4.541
REMARK INTER + INTRA:          -5.112
REMARK INTER:                  -4.805
REMARK INTRA:                  -0.308
REMARK UNBOUND:                -0.444
REMARK SMILES CC=C(C)C=CC=C(C)C
REMARK SMILES IDX 5 1 6 2 3 3 1 4 2 5 4 6 7 7 8 8 9 9 10 10
REMARK H PARENT
REMARK Flexibility Score: inf
ROOT
ATOM      1  C   UNL     1      57.912  46.158  41.653  1.00  0.00     0.003 C 
ATOM      2  C   UNL     1      56.658  45.848  42.013  1.00  0.00     0.000 C 
ENDROOT
BRANCH   1   3
ATOM      3  C   UNL     1      59.027  45.188  41.554  1.00  0.00    -0.055 C 
ATOM      4  C   UNL     1      60.795  43.846  42.714  1.00  0.00     0.036 C 
ATOM      5  C   UNL     1      59.677  44.845  42.680  1.00  0.00    -0.027 C 
ATOM      6  C   UNL     1      59.335  44.523  40.235  1.00  0.00     0.044 C 
ENDBRANCH   1   3
BRANCH   2   7
ATOM      7  C   UNL     1      56.179  44.462  42.227  1.00  0.00    -0.001 C 
ATOM      8  C   UNL     1      54.878  44.128  42.316  1.00  0.00    -0.076 C 
ATOM      9  C   UNL     1      53.782  45.160  42.234  1.00  0.00     0.039 C 
ATOM     10  C   UNL     1      54.520  42.681  42.521  1.00  0.00     0.039 C 
ENDBRANCH   2   7
TORSDOF 2
ENDMDL
MODEL 4
REMARK VINA RESULT:    -4.110      1.347      4.635
REMARK INTER + INTRA:          -5.034
REMARK INTER:                  -4.631
REMARK INTRA:                  -0.403
REMARK UNBOUND:                -0.444
REMARK SMILES CC=C(C)C=CC=C(C)C
REMARK SMILES IDX 5 1 6 2 3 3 1 4 2 5 4 6 7 7 8 8 9 9 10 10
REMARK H PARENT
REMARK Flexibility Score: inf
ROOT
ATOM      1  C   UNL     1      56.398  42.899  42.291  1.00  0.00     0.003 C 
ATOM      2  C   UNL     1      55.238  43.399  42.739  1.00  0.00     0.000 C 
ENDROOT
BRANCH   1   3
ATOM      3  C   UNL     1      57.667  43.657  42.197  1.00  0.00    -0.055 C 
ATOM      4  C   UNL     1      59.098  45.266  40.920  1.00  0.00     0.036 C 
ATOM      5  C   UNL     1      57.873  44.423  41.112  1.00  0.00    -0.027 C 
ATOM      6  C   UNL     1      58.637  43.652  43.351  1.00  0.00     0.044 C 
ENDBRANCH   1   3
BRANCH   2   7
ATOM      7  C   UNL     1      55.097  44.749  43.336  1.00  0.00    -0.001 C 
ATOM      8  C   UNL     1      54.136  45.624  42.984  1.00  0.00    -0.076 C 
ATOM      9  C   UNL     1      53.125  45.309  41.912  1.00  0.00     0.039 C 
ATOM     10  C   UNL     1      54.093  46.959  43.676  1.00  0.00     0.039 C 
ENDBRANCH   2   7
TORSDOF 2
ENDMDL
MODEL 5
REMARK VINA RESULT:    -4.034      1.016      4.172
REMARK INTER + INTRA:          -4.949
REMARK INTER:                  -4.605
REMARK INTRA:                  -0.345
REMARK UNBOUND:                -0.444
REMARK SMILES CC=C(C)C=CC=C(C)C
REMARK SMILES IDX 5 1 6 2 3 3 1 4 2 5 4 6 7 7 8 8 9 9 10 10
REMARK H PARENT
REMARK Flexibility Score: inf
ROOT
ATOM      1  C   UNL     1      57.827  44.930  43.682  1.00  0.00     0.003 C 
ATOM      2  C   UNL     1      56.564  44.851  44.125  1.00  0.00     0.000 C 
ENDROOT
BRANCH   1   3
ATOM      3  C   UNL     1      58.219  45.338  42.313  1.00  0.00    -0.055 C 
ATOM      4  C   UNL     1      59.192  44.700  40.096  1.00  0.00     0.036 C 
ATOM      5  C   UNL     1      58.788  44.420  41.512  1.00  0.00    -0.027 C 
ATOM      6  C   UNL     1      57.875  46.717  41.808  1.00  0.00     0.044 C 
ENDBRANCH   1   3
BRANCH   2   7
ATOM      7  C   UNL     1      55.386  45.296  43.344  1.00  0.00    -0.001 C 
ATOM      8  C   UNL     1      54.609  44.464  42.625  1.00  0.00    -0.076 C 
ATOM      9  C   UNL     1      54.898  42.988  42.530  1.00  0.00     0.039 C 
ATOM     10  C   UNL     1      53.432  45.039  41.885  1.00  0.00     0.039 C 
ENDBRANCH   2   7
TORSDOF 2
ENDMDL
MODEL 6
REMARK VINA RESULT:    -4.007     21.903     23.489
REMARK INTER + INTRA:          -4.919
REMARK INTER:                  -4.323
REMARK INTRA:                  -0.596
REMARK UNBOUND:                -0.444
REMARK SMILES CC=C(C)C=CC=C(C)C
REMARK SMILES IDX 5 1 6 2 3 3 1 4 2 5 4 6 7 7 8 8 9 9 10 10
REMARK H PARENT
REMARK Flexibility Score: inf
ROOT
ATOM      1  C   UNL     1      55.666  29.021  27.647  1.00  0.00     0.003 C 
ATOM      2  C   UNL     1      56.904  28.847  27.164  1.00  0.00     0.000 C 
ENDROOT
BRANCH   1   3
ATOM      3  C   UNL     1      54.462  28.303  27.167  1.00  0.00    -0.055 C 
ATOM      4  C   UNL     1      52.539  28.198  25.567  1.00  0.00     0.036 C 
ATOM      5  C   UNL     1      53.752  28.847  26.164  1.00  0.00    -0.027 C 
ATOM      6  C   UNL     1      54.124  26.941  27.721  1.00  0.00     0.044 C 
ENDBRANCH   1   3
BRANCH   2   7
ATOM      7  C   UNL     1      57.265  27.806  26.172  1.00  0.00    -0.001 C 
ATOM      8  C   UNL     1      57.268  28.012  24.842  1.00  0.00    -0.076 C 
ATOM      9  C   UNL     1      56.868  29.334  24.239  1.00  0.00     0.039 C 
ATOM     10  C   UNL     1      57.667  26.875  23.940  1.00  0.00     0.039 C 
ENDBRANCH   2   7
TORSDOF 2
ENDMDL
MODEL 7
REMARK VINA RESULT:    -3.940      1.222      2.054
REMARK INTER + INTRA:          -4.844
REMARK INTER:                  -4.285
REMARK INTRA:                  -0.559
REMARK UNBOUND:                -0.444
REMARK SMILES CC=C(C)C=CC=C(C)C
REMARK SMILES IDX 5 1 6 2 3 3 1 4 2 5 4 6 7 7 8 8 9 9 10 10
REMARK H PARENT
REMARK Flexibility Score: inf
ROOT
ATOM      1  C   UNL     1      56.683  46.376  41.964  1.00  0.00     0.003 C 
ATOM      2  C   UNL     1      58.016  46.418  41.824  1.00  0.00     0.000 C 
ENDROOT
BRANCH   1   3
ATOM      3  C   UNL     1      55.940  45.302  42.663  1.00  0.00    -0.055 C 
ATOM      4  C   UNL     1      55.038  42.967  42.631  1.00  0.00     0.036 C 
ATOM      5  C   UNL     1      55.740  44.140  42.017  1.00  0.00    -0.027 C 
ATOM      6  C   UNL     1      55.528  45.482  44.103  1.00  0.00     0.044 C 
ENDBRANCH   1   3
BRANCH   2   7
ATOM      7  C   UNL     1      58.945  45.462  42.472  1.00  0.00    -0.001 C 
ATOM      8  C   UNL     1      59.570  44.468  41.814  1.00  0.00    -0.076 C 
ATOM      9  C   UNL     1      59.350  44.223  40.343  1.00  0.00     0.039 C 
ATOM     10  C   UNL     1      60.501  43.572  42.584  1.00  0.00     0.039 C 
ENDBRANCH   2   7
TORSDOF 2
ENDMDL
MODEL 8
REMARK VINA RESULT:    -3.864     21.368     23.099
REMARK INTER + INTRA:          -4.760
REMARK INTER:                  -4.168
REMARK INTRA:                  -0.592
REMARK UNBOUND:                -0.444
REMARK SMILES CC=C(C)C=CC=C(C)C
REMARK SMILES IDX 5 1 6 2 3 3 1 4 2 5 4 6 7 7 8 8 9 9 10 10
REMARK H PARENT
REMARK Flexibility Score: inf
ROOT
ATOM      1  C   UNL     1      56.534  30.208  24.698  1.00  0.00     0.003 C 
ATOM      2  C   UNL     1      55.319  30.578  24.268  1.00  0.00     0.000 C 
ENDROOT
BRANCH   1   3
ATOM      3  C   UNL     1      56.788  29.192  25.746  1.00  0.00    -0.055 C 
ATOM      4  C   UNL     1      57.536  26.876  26.332  1.00  0.00     0.036 C 
ATOM      5  C   UNL     1      57.209  27.974  25.365  1.00  0.00    -0.027 C 
ATOM      6  C   UNL     1      56.684  29.568  27.203  1.00  0.00     0.044 C 
ENDBRANCH   1   3
BRANCH   2   7
ATOM      7  C   UNL     1      54.060  29.917  24.686  1.00  0.00    -0.001 C 
ATOM      8  C   UNL     1      53.218  30.428  25.603  1.00  0.00    -0.076 C 
ATOM      9  C   UNL     1      53.507  31.724  26.317  1.00  0.00     0.039 C 
ATOM     10  C   UNL     1      51.963  29.666  25.930  1.00  0.00     0.039 C 
ENDBRANCH   2   7
TORSDOF 2
ENDMDL
MODEL 9
REMARK VINA RESULT:    -3.657     21.590     23.386
REMARK INTER + INTRA:          -4.528
REMARK INTER:                  -3.975
REMARK INTRA:                  -0.553
REMARK UNBOUND:                -0.444
REMARK SMILES CC=C(C)C=CC=C(C)C
REMARK SMILES IDX 5 1 6 2 3 3 1 4 2 5 4 6 7 7 8 8 9 9 10 10
REMARK H PARENT
REMARK Flexibility Score: inf
ROOT
ATOM      1  C   UNL     1      56.645  28.843  27.122  1.00  0.00     0.003 C 
ATOM      2  C   UNL     1      55.403  28.794  27.625  1.00  0.00     0.000 C 
ENDROOT
BRANCH   1   3
ATOM      3  C   UNL     1      56.998  28.558  25.712  1.00  0.00    -0.055 C 
ATOM      4  C   UNL     1      57.650  26.875  23.977  1.00  0.00     0.036 C 
ATOM      5  C   UNL     1      57.313  27.295  25.376  1.00  0.00    -0.027 C 
ATOM      6  C   UNL     1      56.885  29.644  24.671  1.00  0.00     0.044 C 
ENDBRANCH   1   3
BRANCH   2   7
ATOM      7  C   UNL     1      54.187  28.584  26.804  1.00  0.00    -0.001 C 
ATOM      8  C   UNL     1      53.480  29.585  26.248  1.00  0.00    -0.076 C 
ATOM      9  C   UNL     1      53.856  31.032  26.444  1.00  0.00     0.039 C 
ATOM     10  C   UNL     1      52.270  29.238  25.423  1.00  0.00     0.039 C 
ENDBRANCH   2   7
TORSDOF 2
ENDMDL
