MODEL 1
REMARK VINA RESULT:    -3.415      0.000      0.000
REMARK INTER + INTRA:          -4.281
REMARK INTER:                  -4.213
REMARK INTRA:                  -0.067
REMARK UNBOUND:                -0.067
REMARK SMILES CCCCCC(=O)[O-]
REMARK SMILES IDX 4 1 5 2 6 3 7 4 8 5 3 6 2 7 1 8
REMARK H PARENT
REMARK Flexibility Score: inf
ROOT
ATOM      1  C   UNL     1     -31.094 -21.208 -33.309  1.00  0.00     0.006 C 
ENDROOT
BRANCH   1   2
ATOM      2  C   UNL     1     -29.906 -21.297 -32.348  1.00  0.00     0.053 C 
BRANCH   2   3
ATOM      3  C   UNL     1     -30.371 -21.652 -30.971  1.00  0.00     0.041 C 
ATOM      4  O   UNL     1     -30.336 -22.848 -30.578  1.00  0.00    -0.550 OA
ATOM      5  O   UNL     1     -30.796 -20.655 -30.101  1.00  0.00    -0.550 OA
ENDBRANCH   2   3
ENDBRANCH   1   2
BRANCH   1   6
ATOM      6  C   UNL     1     -31.450 -22.587 -33.876  1.00  0.00     0.000 C 
BRANCH   6   7
ATOM      7  C   UNL     1     -32.450 -22.466 -35.031  1.00  0.00    -0.003 C 
ATOM      8  C   UNL     1     -32.439 -23.718 -35.903  1.00  0.00     0.004 C 
ENDBRANCH   6   7
ENDBRANCH   1   6
TORSDOF 4
ENDMDL
MODEL 2
REMARK VINA RESULT:    -3.401      1.211      1.788
REMARK INTER + INTRA:          -4.264
REMARK INTER:                  -4.187
REMARK INTRA:                  -0.077
REMARK UNBOUND:                -0.067
REMARK SMILES CCCCCC(=O)[O-]
REMARK SMILES IDX 4 1 5 2 6 3 7 4 8 5 3 6 2 7 1 8
REMARK H PARENT
REMARK Flexibility Score: inf
ROOT
ATOM      1  C   UNL     1     -31.466 -22.643 -33.910  1.00  0.00     0.006 C 
ENDROOT
BRANCH   1   2
ATOM      2  C   UNL     1     -31.094 -21.279 -33.322  1.00  0.00     0.053 C 
BRANCH   2   3
ATOM      3  C   UNL     1     -30.094 -21.438 -32.221  1.00  0.00     0.041 C 
ATOM      4  O   UNL     1     -28.941 -20.942 -32.335  1.00  0.00    -0.550 OA
ATOM      5  O   UNL     1     -30.447 -22.091 -31.047  1.00  0.00    -0.550 OA
ENDBRANCH   2   3
ENDBRANCH   1   2
BRANCH   1   6
ATOM      6  C   UNL     1     -32.482 -22.493 -35.048  1.00  0.00     0.000 C 
BRANCH   6   7
ATOM      7  C   UNL     1     -32.479 -23.729 -35.955  1.00  0.00    -0.003 C 
ATOM      8  C   UNL     1     -31.240 -23.756 -36.845  1.00  0.00     0.004 C 
ENDBRANCH   6   7
ENDBRANCH   1   6
TORSDOF 4
ENDMDL
MODEL 3
REMARK VINA RESULT:    -3.264      3.343      4.845
REMARK INTER + INTRA:          -4.095
REMARK INTER:                  -3.988
REMARK INTRA:                  -0.107
REMARK UNBOUND:                -0.067
REMARK SMILES CCCCCC(=O)[O-]
REMARK SMILES IDX 4 1 5 2 6 3 7 4 8 5 3 6 2 7 1 8
REMARK H PARENT
REMARK Flexibility Score: inf
ROOT
ATOM      1  C   UNL     1     -31.185 -23.876 -37.057  1.00  0.00     0.006 C 
ENDROOT
BRANCH   1   2
ATOM      2  C   UNL     1     -32.430 -23.927 -36.168  1.00  0.00     0.053 C 
BRANCH   2   3
ATOM      3  C   UNL     1     -32.458 -22.757 -35.236  1.00  0.00     0.041 C 
ATOM      4  O   UNL     1     -31.758 -22.763 -34.189  1.00  0.00    -0.550 OA
ATOM      5  O   UNL     1     -33.219 -21.637 -35.548  1.00  0.00    -0.550 OA
ENDBRANCH   2   3
ENDBRANCH   1   2
BRANCH   1   6
ATOM      6  C   UNL     1     -31.138 -25.076 -38.009  1.00  0.00     0.000 C 
BRANCH   6   7
ATOM      7  C   UNL     1     -32.402 -25.932 -37.879  1.00  0.00    -0.003 C 
ATOM      8  C   UNL     1     -32.239 -27.269 -38.595  1.00  0.00     0.004 C 
ENDBRANCH   6   7
ENDBRANCH   1   6
TORSDOF 4
ENDMDL
MODEL 4
REMARK VINA RESULT:    -3.251      6.282      7.916
REMARK INTER + INTRA:          -4.079
REMARK INTER:                  -3.973
REMARK INTRA:                  -0.106
REMARK UNBOUND:                -0.067
REMARK SMILES CCCCCC(=O)[O-]
REMARK SMILES IDX 4 1 5 2 6 3 7 4 8 5 3 6 2 7 1 8
REMARK H PARENT
REMARK Flexibility Score: inf
ROOT
ATOM      1  C   UNL     1     -31.545 -25.881 -38.194  1.00  0.00     0.006 C 
ENDROOT
BRANCH   1   2
ATOM      2  C   UNL     1     -32.820 -26.696 -37.960  1.00  0.00     0.053 C 
BRANCH   2   3
ATOM      3  C   UNL     1     -32.697 -28.052 -38.581  1.00  0.00     0.041 C 
ATOM      4  O   UNL     1     -31.577 -28.467 -38.980  1.00  0.00    -0.550 OA
ATOM      5  O   UNL     1     -33.810 -28.878 -38.674  1.00  0.00    -0.550 OA
ENDBRANCH   2   3
ENDBRANCH   1   2
BRANCH   1   6
ATOM      6  C   UNL     1     -31.829 -24.377 -38.113  1.00  0.00     0.000 C 
BRANCH   6   7
ATOM      7  C   UNL     1     -31.173 -23.759 -36.874  1.00  0.00    -0.003 C 
ATOM      8  C   UNL     1     -32.182 -23.588 -35.742  1.00  0.00     0.004 C 
ENDBRANCH   6   7
ENDBRANCH   1   6
TORSDOF 4
ENDMDL
MODEL 5
REMARK VINA RESULT:    -3.245      3.344      4.970
REMARK INTER + INTRA:          -4.071
REMARK INTER:                  -3.994
REMARK INTRA:                  -0.077
REMARK UNBOUND:                -0.067
REMARK SMILES CCCCCC(=O)[O-]
REMARK SMILES IDX 4 1 5 2 6 3 7 4 8 5 3 6 2 7 1 8
REMARK H PARENT
REMARK Flexibility Score: inf
ROOT
ATOM      1  C   UNL     1     -31.433 -22.558 -33.967  1.00  0.00     0.006 C 
ENDROOT
BRANCH   1   2
ATOM      2  C   UNL     1     -32.552 -22.345 -34.990  1.00  0.00     0.053 C 
BRANCH   2   3
ATOM      3  C   UNL     1     -32.362 -23.244 -36.170  1.00  0.00     0.041 C 
ATOM      4  O   UNL     1     -33.362 -23.722 -36.770  1.00  0.00    -0.550 OA
ATOM      5  O   UNL     1     -31.084 -23.517 -36.639  1.00  0.00    -0.550 OA
ENDBRANCH   2   3
ENDBRANCH   1   2
BRANCH   1   6
ATOM      6  C   UNL     1     -31.050 -21.239 -33.286  1.00  0.00     0.000 C 
BRANCH   6   7
ATOM      7  C   UNL     1     -29.921 -21.451 -32.271  1.00  0.00    -0.003 C 
ATOM      8  C   UNL     1     -30.419 -22.208 -31.043  1.00  0.00     0.004 C 
ENDBRANCH   6   7
ENDBRANCH   1   6
TORSDOF 4
ENDMDL
MODEL 6
REMARK VINA RESULT:    -3.118      5.388      6.613
REMARK INTER + INTRA:          -3.914
REMARK INTER:                  -3.819
REMARK INTRA:                  -0.095
REMARK UNBOUND:                -0.067
REMARK SMILES CCCCCC(=O)[O-]
REMARK SMILES IDX 4 1 5 2 6 3 7 4 8 5 3 6 2 7 1 8
REMARK H PARENT
REMARK Flexibility Score: inf
ROOT
ATOM      1  C   UNL     1     -31.216 -25.260 -38.059  1.00  0.00     0.006 C 
ENDROOT
BRANCH   1   2
ATOM      2  C   UNL     1     -31.360 -24.078 -37.096  1.00  0.00     0.053 C 
BRANCH   2   3
ATOM      3  C   UNL     1     -32.434 -23.148 -37.564  1.00  0.00     0.041 C 
ATOM      4  O   UNL     1     -32.265 -22.457 -38.604  1.00  0.00    -0.550 OA
ATOM      5  O   UNL     1     -33.641 -23.079 -36.881  1.00  0.00    -0.550 OA
ENDBRANCH   2   3
ENDBRANCH   1   2
BRANCH   1   6
ATOM      6  C   UNL     1     -32.427 -26.196 -37.967  1.00  0.00     0.000 C 
BRANCH   6   7
ATOM      7  C   UNL     1     -32.139 -27.537 -38.651  1.00  0.00    -0.003 C 
ATOM      8  C   UNL     1     -33.376 -28.430 -38.655  1.00  0.00     0.004 C 
ENDBRANCH   6   7
ENDBRANCH   1   6
TORSDOF 4
ENDMDL
MODEL 7
REMARK VINA RESULT:    -3.106      3.204      4.739
REMARK INTER + INTRA:          -3.900
REMARK INTER:                  -3.799
REMARK INTRA:                  -0.101
REMARK UNBOUND:                -0.067
REMARK SMILES CCCCCC(=O)[O-]
REMARK SMILES IDX 4 1 5 2 6 3 7 4 8 5 3 6 2 7 1 8
REMARK H PARENT
REMARK Flexibility Score: inf
ROOT
ATOM      1  C   UNL     1     -31.185 -21.533 -33.710  1.00  0.00     0.006 C 
ENDROOT
BRANCH   1   2
ATOM      2  C   UNL     1     -31.821 -22.755 -34.379  1.00  0.00     0.053 C 
BRANCH   2   3
ATOM      3  C   UNL     1     -32.802 -22.329 -35.425  1.00  0.00     0.041 C 
ATOM      4  O   UNL     1     -33.245 -21.149 -35.435  1.00  0.00    -0.550 OA
ATOM      5  O   UNL     1     -33.190 -23.218 -36.419  1.00  0.00    -0.550 OA
ENDBRANCH   2   3
ENDBRANCH   1   2
BRANCH   1   6
ATOM      6  C   UNL     1     -30.661 -21.881 -32.312  1.00  0.00     0.000 C 
BRANCH   6   7
ATOM      7  C   UNL     1     -29.355 -21.136 -32.013  1.00  0.00    -0.003 C 
ATOM      8  C   UNL     1     -29.007 -20.163 -33.135  1.00  0.00     0.004 C 
ENDBRANCH   6   7
ENDBRANCH   1   6
TORSDOF 4
ENDMDL
MODEL 8
REMARK VINA RESULT:    -3.054      3.137      4.548
REMARK INTER + INTRA:          -3.835
REMARK INTER:                  -3.663
REMARK INTRA:                  -0.171
REMARK UNBOUND:                -0.067
REMARK SMILES CCCCCC(=O)[O-]
REMARK SMILES IDX 4 1 5 2 6 3 7 4 8 5 3 6 2 7 1 8
REMARK H PARENT
REMARK Flexibility Score: inf
ROOT
ATOM      1  C   UNL     1     -31.157 -23.878 -36.872  1.00  0.00     0.006 C 
ENDROOT
BRANCH   1   2
ATOM      2  C   UNL     1     -32.332 -23.942 -35.893  1.00  0.00     0.053 C 
BRANCH   2   3
ATOM      3  C   UNL     1     -32.344 -22.737 -35.008  1.00  0.00     0.041 C 
ATOM      4  O   UNL     1     -31.616 -22.698 -33.980  1.00  0.00    -0.550 OA
ATOM      5  O   UNL     1     -33.120 -21.635 -35.342  1.00  0.00    -0.550 OA
ENDBRANCH   2   3
ENDBRANCH   1   2
BRANCH   1   6
ATOM      6  C   UNL     1     -31.629 -24.095 -38.315  1.00  0.00     0.000 C 
BRANCH   6   7
ATOM      7  C   UNL     1     -31.642 -22.776 -39.094  1.00  0.00    -0.003 C 
ATOM      8  C   UNL     1     -33.002 -22.091 -38.996  1.00  0.00     0.004 C 
ENDBRANCH   6   7
ENDBRANCH   1   6
TORSDOF 4
ENDMDL
MODEL 9
REMARK VINA RESULT:    -2.941      4.260      5.685
REMARK INTER + INTRA:          -3.696
REMARK INTER:                  -3.630
REMARK INTRA:                  -0.066
REMARK UNBOUND:                -0.067
REMARK SMILES CCCCCC(=O)[O-]
REMARK SMILES IDX 4 1 5 2 6 3 7 4 8 5 3 6 2 7 1 8
REMARK H PARENT
REMARK Flexibility Score: inf
ROOT
ATOM      1  C   UNL     1     -32.255 -23.680 -35.420  1.00  0.00     0.006 C 
ENDROOT
BRANCH   1   2
ATOM      2  C   UNL     1     -32.775 -23.630 -36.859  1.00  0.00     0.053 C 
BRANCH   2   3
ATOM      3  C   UNL     1     -31.644 -23.758 -37.830  1.00  0.00     0.041 C 
ATOM      4  O   UNL     1     -30.972 -24.823 -37.883  1.00  0.00    -0.550 OA
ATOM      5  O   UNL     1     -31.360 -22.722 -38.710  1.00  0.00    -0.550 OA
ENDBRANCH   2   3
ENDBRANCH   1   2
BRANCH   1   6
ATOM      6  C   UNL     1     -32.269 -22.287 -34.780  1.00  0.00     0.000 C 
BRANCH   6   7
ATOM      7  C   UNL     1     -31.204 -22.175 -33.683  1.00  0.00    -0.003 C 
ATOM      8  C   UNL     1     -31.062 -20.735 -33.198  1.00  0.00     0.004 C 
ENDBRANCH   6   7
ENDBRANCH   1   6
TORSDOF 4
ENDMDL
