MODEL 1
REMARK VINA RESULT:    -4.816      0.000      0.000
REMARK INTER + INTRA:          -6.233
REMARK INTER:                  -6.786
REMARK INTRA:                   0.554
REMARK UNBOUND:                 0.554
REMARK SMILES CC1=CCC(=C(C)C)C(=O)CC(C)=CCC1
REMARK SMILES IDX 12 1 14 2 13 3 15 4 16 5 2 6 1 7 3 8 11 10 9 11 10 12 5 13
REMARK SMILES IDX 6 14 7 15 8 16 4 17
REMARK H PARENT
REMARK Flexibility Score: 60.00
ROOT
ATOM      1  C   UNL     1      -7.236  20.379  69.399  1.00  0.00    -0.070 C 
ATOM      2  C   UNL     1      -7.661  21.336  70.257  1.00  0.00    -0.027 C 
ATOM      3  C   UNL     1      -7.544  18.941  69.733  1.00  0.00     0.039 C 
ENDROOT
BRANCH   2   4
ATOM      4  C   UNL     1      -7.570  22.820  70.009  1.00  0.00     0.032 C 
BRANCH   4   5
ATOM      5  C   UNL     1      -8.830  23.304  69.283  1.00  0.00     0.034 C 
BRANCH   5   6
ATOM      6  C   UNL     1      -8.520  23.950  67.949  1.00  0.00    -0.077 C 
ATOM      7  C   UNL     1      -8.100  25.399  67.927  1.00  0.00     0.039 C 
ATOM      8  C   UNL     1      -8.666  23.318  66.757  1.00  0.00    -0.023 CG0
ATOM      9  G   UNL     1      -9.017  21.860  66.524  1.00  0.00     0.000 G0
ENDBRANCH   5   6
ENDBRANCH   4   5
ENDBRANCH   2   4
BRANCH   1  10
ATOM     10  C   UNL     1      -6.455  20.679  68.136  1.00  0.00     0.111 C 
BRANCH  10  11
ATOM     11  C   UNL     1      -7.138  20.129  66.907  1.00  0.00     0.163 C 
ATOM     12  O   UNL     1      -7.012  18.894  66.685  1.00  0.00    -0.294 OA
BRANCH  11  13
ATOM     13  C   UNL     1      -7.924  20.969  65.943  1.00  0.00    -0.002 C 
ATOM     14  C   UNL     1      -7.551  21.053  64.630  1.00  0.00    -0.069 C 
ATOM     15  C   UNL     1      -6.532  20.106  64.036  1.00  0.00     0.039 C 
ATOM     16  C   UNL     1      -8.167  22.059  63.684  1.00  0.00     0.039 C 
BRANCH  13  17
ATOM     17  C   UNL     1      -9.026  21.857  66.509  1.00  0.00     0.066 CG0
ATOM     18  G   UNL     1      -8.665  23.313  66.750  1.00  0.00     0.000 G0
ENDBRANCH  13  17
ENDBRANCH  11  13
ENDBRANCH  10  11
ENDBRANCH   1  10
TORSDOF 0
ENDMDL
MODEL 2
REMARK VINA RESULT:    -4.351      1.831      2.488
REMARK INTER + INTRA:          -5.579
REMARK INTER:                  -5.739
REMARK INTRA:                   0.161
REMARK UNBOUND:                 0.554
REMARK SMILES CC1=CCC(=C(C)C)C(=O)CC(C)=CCC1
REMARK SMILES IDX 12 1 14 2 13 3 15 4 16 5 2 6 1 7 3 8 11 10 9 11 10 12 5 13
REMARK SMILES IDX 6 14 7 15 8 16 4 17
REMARK H PARENT
REMARK Flexibility Score: 60.00
ROOT
ATOM      1  C   UNL     1      -7.573  19.925  66.719  1.00  0.00    -0.070 C 
ATOM      2  C   UNL     1      -7.821  20.725  67.782  1.00  0.00    -0.027 C 
ATOM      3  C   UNL     1      -7.997  18.480  66.805  1.00  0.00     0.039 C 
ENDROOT
BRANCH   2   4
ATOM      4  C   UNL     1      -7.601  22.215  67.811  1.00  0.00     0.032 C 
BRANCH   4   5
ATOM      5  C   UNL     1      -8.749  22.925  67.084  1.00  0.00     0.034 C 
BRANCH   5   6
ATOM      6  C   UNL     1      -8.266  24.059  66.204  1.00  0.00    -0.077 C 
ATOM      7  C   UNL     1      -7.672  25.281  66.860  1.00  0.00     0.039 C 
ATOM      8  C   UNL     1      -8.401  24.072  64.854  1.00  0.00    -0.023 CG0
ATOM      9  G   UNL     1      -8.910  22.950  63.968  1.00  0.00     0.000 G0
ENDBRANCH   5   6
ENDBRANCH   4   5
ENDBRANCH   2   4
BRANCH   1  10
ATOM     10  C   UNL     1      -6.878  20.402  65.460  1.00  0.00     0.111 C 
BRANCH  10  11
ATOM     11  C   UNL     1      -7.851  20.613  64.325  1.00  0.00     0.163 C 
ATOM     12  O   UNL     1      -8.630  19.660  64.052  1.00  0.00    -0.294 OA
BRANCH  11  13
ATOM     13  C   UNL     1      -7.918  21.869  63.505  1.00  0.00    -0.002 C 
ATOM     14  C   UNL     1      -7.009  22.097  62.508  1.00  0.00    -0.069 C 
ATOM     15  C   UNL     1      -6.099  21.000  62.003  1.00  0.00     0.039 C 
ATOM     16  C   UNL     1      -6.896  23.438  61.819  1.00  0.00     0.039 C 
BRANCH  13  17
ATOM     17  C   UNL     1      -8.903  22.949  63.938  1.00  0.00     0.066 CG0
ATOM     18  G   UNL     1      -8.357  24.040  64.842  1.00  0.00     0.000 G0
ENDBRANCH  13  17
ENDBRANCH  11  13
ENDBRANCH  10  11
ENDBRANCH   1  10
TORSDOF 0
ENDMDL
MODEL 3
REMARK VINA RESULT:    -3.861     10.522     11.428
REMARK INTER + INTRA:          -4.888
REMARK INTER:                  -4.761
REMARK INTRA:                  -0.127
REMARK UNBOUND:                 0.554
REMARK SMILES CC1=CCC(=C(C)C)C(=O)CC(C)=CCC1
REMARK SMILES IDX 12 1 14 2 13 3 15 4 16 5 2 6 1 7 3 8 11 10 9 11 10 12 5 13
REMARK SMILES IDX 6 14 7 15 8 16 4 17
REMARK H PARENT
REMARK Flexibility Score: 60.00
ROOT
ATOM      1  C   UNL     1       1.506  27.105  67.739  1.00  0.00    -0.070 C 
ATOM      2  C   UNL     1       0.233  27.220  67.295  1.00  0.00    -0.027 C 
ATOM      3  C   UNL     1       1.961  28.035  68.836  1.00  0.00     0.039 C 
ENDROOT
BRANCH   2   4
ATOM      4  C   UNL     1      -0.428  26.283  66.316  1.00  0.00     0.032 C 
BRANCH   4   5
ATOM      5  C   UNL     1      -0.548  26.960  64.947  1.00  0.00     0.034 C 
BRANCH   5   6
ATOM      6  C   UNL     1      -0.251  26.013  63.802  1.00  0.00    -0.077 C 
ATOM      7  C   UNL     1      -1.368  25.152  63.268  1.00  0.00     0.039 C 
ATOM      8  C   UNL     1       0.986  25.841  63.273  1.00  0.00    -0.023 CG0
ATOM      9  G   UNL     1       2.246  26.622  63.598  1.00  0.00     0.000 G0
ENDBRANCH   5   6
ENDBRANCH   4   5
ENDBRANCH   2   4
BRANCH   1  10
ATOM     10  C   UNL     1       2.498  26.106  67.179  1.00  0.00     0.111 C 
BRANCH  10  11
ATOM     11  C   UNL     1       3.228  26.651  65.975  1.00  0.00     0.163 C 
ATOM     12  O   UNL     1       3.884  27.716  66.136  1.00  0.00    -0.294 OA
BRANCH  11  13
ATOM     13  C   UNL     1       3.191  26.013  64.616  1.00  0.00    -0.002 C 
ATOM     14  C   UNL     1       4.085  25.032  64.286  1.00  0.00    -0.069 C 
ATOM     15  C   UNL     1       4.941  24.357  65.335  1.00  0.00     0.039 C 
ATOM     16  C   UNL     1       4.235  24.529  62.868  1.00  0.00     0.039 C 
BRANCH  13  17
ATOM     17  C   UNL     1       2.258  26.616  63.572  1.00  0.00     0.066 CG0
ATOM     18  G   UNL     1       0.997  25.830  63.259  1.00  0.00     0.000 G0
ENDBRANCH  13  17
ENDBRANCH  11  13
ENDBRANCH  10  11
ENDBRANCH   1  10
TORSDOF 0
ENDMDL
MODEL 4
REMARK VINA RESULT:    -3.816      5.838      7.971
REMARK INTER + INTRA:          -4.823
REMARK INTER:                  -5.092
REMARK INTRA:                   0.269
REMARK UNBOUND:                 0.554
REMARK SMILES CC1=CCC(=C(C)C)C(=O)CC(C)=CCC1
REMARK SMILES IDX 12 1 14 2 13 3 15 4 16 5 2 6 1 7 3 8 11 10 9 11 10 12 5 13
REMARK SMILES IDX 6 14 7 15 8 16 4 17
REMARK H PARENT
REMARK Flexibility Score: 60.00
ROOT
ATOM      1  C   UNL     1      -1.167  23.319  62.416  1.00  0.00    -0.070 C 
ATOM      2  C   UNL     1      -1.330  22.060  62.884  1.00  0.00    -0.027 C 
ATOM      3  C   UNL     1       0.140  23.664  61.747  1.00  0.00     0.039 C 
ENDROOT
BRANCH   2   4
ATOM      4  C   UNL     1      -2.615  21.505  63.443  1.00  0.00     0.032 C 
BRANCH   4   5
ATOM      5  C   UNL     1      -3.422  20.835  62.326  1.00  0.00     0.034 C 
BRANCH   5   6
ATOM      6  C   UNL     1      -4.905  21.129  62.424  1.00  0.00    -0.077 C 
ATOM      7  C   UNL     1      -5.739  20.326  63.392  1.00  0.00     0.039 C 
ATOM      8  C   UNL     1      -5.546  22.029  61.638  1.00  0.00    -0.023 CG0
ATOM      9  G   UNL     1      -4.924  22.990  60.640  1.00  0.00     0.000 G0
ENDBRANCH   5   6
ENDBRANCH   4   5
ENDBRANCH   2   4
BRANCH   1  10
ATOM     10  C   UNL     1      -2.220  24.400  62.549  1.00  0.00     0.111 C 
BRANCH  10  11
ATOM     11  C   UNL     1      -3.000  24.587  61.269  1.00  0.00     0.163 C 
ATOM     12  O   UNL     1      -2.358  24.987  60.260  1.00  0.00    -0.294 OA
BRANCH  11  13
ATOM     13  C   UNL     1      -4.477  24.348  61.148  1.00  0.00    -0.002 C 
ATOM     14  C   UNL     1      -5.371  25.256  61.646  1.00  0.00    -0.069 C 
ATOM     15  C   UNL     1      -4.935  26.641  62.071  1.00  0.00     0.039 C 
ATOM     16  C   UNL     1      -6.847  24.951  61.754  1.00  0.00     0.039 C 
BRANCH  13  17
ATOM     17  C   UNL     1      -4.937  22.992  60.624  1.00  0.00     0.066 CG0
ATOM     18  G   UNL     1      -5.533  22.040  61.646  1.00  0.00     0.000 G0
ENDBRANCH  13  17
ENDBRANCH  11  13
ENDBRANCH  10  11
ENDBRANCH   1  10
TORSDOF 0
ENDMDL
MODEL 5
REMARK VINA RESULT:    -3.790     11.027     12.466
REMARK INTER + INTRA:          -4.787
REMARK INTER:                  -4.652
REMARK INTRA:                  -0.135
REMARK UNBOUND:                 0.554
REMARK SMILES CC1=CCC(=C(C)C)C(=O)CC(C)=CCC1
REMARK SMILES IDX 12 1 14 2 13 3 15 4 16 5 2 6 1 7 3 8 11 10 9 11 10 12 5 13
REMARK SMILES IDX 6 14 7 15 8 16 4 17
REMARK H PARENT
REMARK Flexibility Score: 60.00
ROOT
ATOM      1  C   UNL     1       3.065  24.402  61.436  1.00  0.00    -0.070 C 
ATOM      2  C   UNL     1       4.350  24.319  61.853  1.00  0.00    -0.027 C 
ATOM      3  C   UNL     1       2.802  24.424  59.951  1.00  0.00     0.039 C 
ENDROOT
BRANCH   2   4
ATOM      4  C   UNL     1       4.783  24.139  63.285  1.00  0.00     0.032 C 
BRANCH   4   5
ATOM      5  C   UNL     1       4.960  25.508  63.952  1.00  0.00     0.034 C 
BRANCH   5   6
ATOM      6  C   UNL     1       4.370  25.556  65.346  1.00  0.00    -0.077 C 
ATOM      7  C   UNL     1       5.048  24.778  66.445  1.00  0.00     0.039 C 
ATOM      8  C   UNL     1       3.219  26.206  65.651  1.00  0.00    -0.023 CG0
ATOM      9  G   UNL     1       2.393  27.097  64.741  1.00  0.00     0.000 G0
ENDBRANCH   5   6
ENDBRANCH   4   5
ENDBRANCH   2   4
BRANCH   1  10
ATOM     10  C   UNL     1       1.886  24.494  62.383  1.00  0.00     0.111 C 
BRANCH  10  11
ATOM     11  C   UNL     1       1.479  25.926  62.640  1.00  0.00     0.163 C 
ATOM     12  O   UNL     1       1.382  26.683  61.636  1.00  0.00    -0.294 OA
BRANCH  11  13
ATOM     13  C   UNL     1       1.215  26.486  64.007  1.00  0.00    -0.002 C 
ATOM     14  C   UNL     1      -0.063  26.568  64.489  1.00  0.00    -0.069 C 
ATOM     15  C   UNL     1      -1.211  25.856  63.809  1.00  0.00     0.039 C 
ATOM     16  C   UNL     1      -0.396  27.331  65.751  1.00  0.00     0.039 C 
BRANCH  13  17
ATOM     17  C   UNL     1       2.383  27.120  64.754  1.00  0.00     0.066 CG0
ATOM     18  G   UNL     1       3.200  26.196  65.641  1.00  0.00     0.000 G0
ENDBRANCH  13  17
ENDBRANCH  11  13
ENDBRANCH  10  11
ENDBRANCH   1  10
TORSDOF 0
ENDMDL
MODEL 6
REMARK VINA RESULT:    -3.779     12.097     13.589
REMARK INTER + INTRA:          -4.772
REMARK INTER:                  -4.615
REMARK INTRA:                  -0.157
REMARK UNBOUND:                 0.554
REMARK SMILES CC1=CCC(=C(C)C)C(=O)CC(C)=CCC1
REMARK SMILES IDX 12 1 14 2 13 3 15 4 16 5 2 6 1 7 3 8 11 10 9 11 10 12 5 13
REMARK SMILES IDX 6 14 7 15 8 16 4 17
REMARK H PARENT
REMARK Flexibility Score: 60.00
ROOT
ATOM      1  C   UNL     1       1.862  28.017  62.066  1.00  0.00    -0.070 C 
ATOM      2  C   UNL     1       1.603  27.296  60.951  1.00  0.00    -0.027 C 
ATOM      3  C   UNL     1       1.951  29.517  61.936  1.00  0.00     0.039 C 
ENDROOT
BRANCH   2   4
ATOM      4  C   UNL     1       1.337  25.812  60.924  1.00  0.00     0.032 C 
BRANCH   4   5
ATOM      5  C   UNL     1       2.631  25.057  60.597  1.00  0.00     0.034 C 
BRANCH   5   6
ATOM      6  C   UNL     1       2.816  23.824  61.457  1.00  0.00    -0.077 C 
ATOM      7  C   UNL     1       1.995  22.597  61.148  1.00  0.00     0.039 C 
ATOM      8  C   UNL     1       3.631  23.780  62.540  1.00  0.00    -0.023 CG0
ATOM      9  G   UNL     1       4.592  24.856  63.016  1.00  0.00     0.000 G0
ENDBRANCH   5   6
ENDBRANCH   4   5
ENDBRANCH   2   4
BRANCH   1  10
ATOM     10  C   UNL     1       2.086  27.393  63.429  1.00  0.00     0.111 C 
BRANCH  10  11
ATOM     11  C   UNL     1       3.548  27.120  63.691  1.00  0.00     0.163 C 
ATOM     12  O   UNL     1       4.351  28.077  63.516  1.00  0.00    -0.294 OA
BRANCH  11  13
ATOM     13  C   UNL     1       4.085  25.785  64.117  1.00  0.00    -0.002 C 
ATOM     14  C   UNL     1       4.247  25.492  65.443  1.00  0.00    -0.069 C 
ATOM     15  C   UNL     1       3.642  26.361  66.523  1.00  0.00     0.039 C 
ATOM     16  C   UNL     1       4.994  24.262  65.907  1.00  0.00     0.039 C 
BRANCH  13  17
ATOM     17  C   UNL     1       4.608  24.850  63.032  1.00  0.00     0.066 CG0
ATOM     18  G   UNL     1       3.650  23.778  62.543  1.00  0.00     0.000 G0
ENDBRANCH  13  17
ENDBRANCH  11  13
ENDBRANCH  10  11
ENDBRANCH   1  10
TORSDOF 0
ENDMDL
MODEL 7
REMARK VINA RESULT:    -3.676     11.005     11.857
REMARK INTER + INTRA:          -4.626
REMARK INTER:                  -4.548
REMARK INTRA:                  -0.078
REMARK UNBOUND:                 0.554
REMARK SMILES CC1=CCC(=C(C)C)C(=O)CC(C)=CCC1
REMARK SMILES IDX 12 1 14 2 13 3 15 4 16 5 2 6 1 7 3 8 11 10 9 11 10 12 5 13
REMARK SMILES IDX 6 14 7 15 8 16 4 17
REMARK H PARENT
REMARK Flexibility Score: 60.00
ROOT
ATOM      1  C   UNL     1       4.379  25.350  65.649  1.00  0.00    -0.070 C 
ATOM      2  C   UNL     1       3.683  26.305  66.308  1.00  0.00    -0.027 C 
ATOM      3  C   UNL     1       5.869  25.275  65.874  1.00  0.00     0.039 C 
ENDROOT
BRANCH   2   4
ATOM      4  C   UNL     1       2.182  26.429  66.315  1.00  0.00     0.032 C 
BRANCH   4   5
ATOM      5  C   UNL     1       1.738  27.444  65.255  1.00  0.00     0.034 C 
BRANCH   5   6
ATOM      6  C   UNL     1       0.600  26.929  64.398  1.00  0.00    -0.077 C 
ATOM      7  C   UNL     1      -0.794  26.925  64.974  1.00  0.00     0.039 C 
ATOM      8  C   UNL     1       0.772  26.402  63.160  1.00  0.00    -0.023 CG0
ATOM      9  G   UNL     1       2.056  26.349  62.350  1.00  0.00     0.000 G0
ENDBRANCH   5   6
ENDBRANCH   4   5
ENDBRANCH   2   4
BRANCH   1  10
ATOM     10  C   UNL     1       3.742  24.369  64.685  1.00  0.00     0.111 C 
BRANCH  10  11
ATOM     11  C   UNL     1       3.927  24.792  63.247  1.00  0.00     0.163 C 
ATOM     12  O   UNL     1       5.109  24.986  62.854  1.00  0.00    -0.294 OA
BRANCH  11  13
ATOM     13  C   UNL     1       2.792  25.011  62.289  1.00  0.00    -0.002 C 
ATOM     14  C   UNL     1       2.530  24.100  61.302  1.00  0.00    -0.069 C 
ATOM     15  C   UNL     1       3.166  22.728  61.305  1.00  0.00     0.039 C 
ATOM     16  C   UNL     1       1.556  24.389  60.182  1.00  0.00     0.039 C 
BRANCH  13  17
ATOM     17  C   UNL     1       2.070  26.353  62.337  1.00  0.00     0.066 CG0
ATOM     18  G   UNL     1       0.785  26.400  63.145  1.00  0.00     0.000 G0
ENDBRANCH  13  17
ENDBRANCH  11  13
ENDBRANCH  10  11
ENDBRANCH   1  10
TORSDOF 0
ENDMDL
MODEL 8
REMARK VINA RESULT:    -3.617     12.117     13.466
REMARK INTER + INTRA:          -4.543
REMARK INTER:                  -4.425
REMARK INTRA:                  -0.119
REMARK UNBOUND:                 0.554
REMARK SMILES CC1=CCC(=C(C)C)C(=O)CC(C)=CCC1
REMARK SMILES IDX 12 1 14 2 13 3 15 4 16 5 2 6 1 7 3 8 11 10 9 11 10 12 5 13
REMARK SMILES IDX 6 14 7 15 8 16 4 17
REMARK H PARENT
REMARK Flexibility Score: 60.00
ROOT
ATOM      1  C   UNL     1       4.679  26.529  66.563  1.00  0.00    -0.070 C 
ATOM      2  C   UNL     1       3.497  25.944  66.262  1.00  0.00    -0.027 C 
ATOM      3  C   UNL     1       5.937  25.714  66.397  1.00  0.00     0.039 C 
ENDROOT
BRANCH   2   4
ATOM      4  C   UNL     1       2.167  26.652  66.229  1.00  0.00     0.032 C 
BRANCH   4   5
ATOM      5  C   UNL     1       1.482  26.536  67.595  1.00  0.00     0.034 C 
BRANCH   5   6
ATOM      6  C   UNL     1       0.778  27.815  68.002  1.00  0.00    -0.077 C 
ATOM      7  C   UNL     1      -0.481  28.211  67.273  1.00  0.00     0.039 C 
ATOM      8  C   UNL     1       1.256  28.667  68.943  1.00  0.00    -0.023 CG0
ATOM      9  G   UNL     1       2.460  28.465  69.845  1.00  0.00     0.000 G0
ENDBRANCH   5   6
ENDBRANCH   4   5
ENDBRANCH   2   4
BRANCH   1  10
ATOM     10  C   UNL     1       4.799  27.950  67.076  1.00  0.00     0.111 C 
BRANCH  10  11
ATOM     11  C   UNL     1       4.695  28.017  68.581  1.00  0.00     0.163 C 
ATOM     12  O   UNL     1       5.386  27.193  69.241  1.00  0.00    -0.294 OA
BRANCH  11  13
ATOM     13  C   UNL     1       3.808  28.980  69.315  1.00  0.00    -0.002 C 
ATOM     14  C   UNL     1       4.260  30.230  69.641  1.00  0.00    -0.069 C 
ATOM     15  C   UNL     1       5.531  30.791  69.044  1.00  0.00     0.039 C 
ATOM     16  C   UNL     1       3.494  31.141  70.573  1.00  0.00     0.039 C 
BRANCH  13  17
ATOM     17  C   UNL     1       2.474  28.461  69.838  1.00  0.00     0.066 CG0
ATOM     18  G   UNL     1       1.267  28.670  68.940  1.00  0.00     0.000 G0
ENDBRANCH  13  17
ENDBRANCH  11  13
ENDBRANCH  10  11
ENDBRANCH   1  10
TORSDOF 0
ENDMDL
MODEL 9
REMARK VINA RESULT:    -3.528     11.030     12.602
REMARK INTER + INTRA:          -4.419
REMARK INTER:                  -4.361
REMARK INTRA:                  -0.058
REMARK UNBOUND:                 0.554
REMARK SMILES CC1=CCC(=C(C)C)C(=O)CC(C)=CCC1
REMARK SMILES IDX 12 1 14 2 13 3 15 4 16 5 2 6 1 7 3 8 11 10 9 11 10 12 5 13
REMARK SMILES IDX 6 14 7 15 8 16 4 17
REMARK H PARENT
REMARK Flexibility Score: 60.00
ROOT
ATOM      1  C   UNL     1       1.959  31.357  67.913  1.00  0.00    -0.070 C 
ATOM      2  C   UNL     1       2.752  31.590  68.985  1.00  0.00    -0.027 C 
ATOM      3  C   UNL     1       1.205  32.522  67.324  1.00  0.00     0.039 C 
ENDROOT
BRANCH   2   4
ATOM      4  C   UNL     1       3.683  30.580  69.605  1.00  0.00     0.032 C 
BRANCH   4   5
ATOM      5  C   UNL     1       2.980  29.866  70.765  1.00  0.00     0.034 C 
BRANCH   5   6
ATOM      6  C   UNL     1       3.154  28.362  70.711  1.00  0.00    -0.077 C 
ATOM      7  C   UNL     1       4.491  27.775  71.092  1.00  0.00     0.039 C 
ATOM      8  C   UNL     1       2.195  27.510  70.271  1.00  0.00    -0.023 CG0
ATOM      9  G   UNL     1       0.765  27.849  69.890  1.00  0.00     0.000 G0
ENDBRANCH   5   6
ENDBRANCH   4   5
ENDBRANCH   2   4
BRANCH   1  10
ATOM     10  C   UNL     1       1.778  29.987  67.291  1.00  0.00     0.111 C 
BRANCH  10  11
ATOM     11  C   UNL     1       0.512  29.315  67.767  1.00  0.00     0.163 C 
ATOM     12  O   UNL     1      -0.563  29.962  67.641  1.00  0.00    -0.294 OA
BRANCH  11  13
ATOM     13  C   UNL     1       0.476  27.951  68.393  1.00  0.00    -0.002 C 
ATOM     14  C   UNL     1       0.038  26.870  67.677  1.00  0.00    -0.069 C 
ATOM     15  C   UNL     1      -0.151  26.939  66.178  1.00  0.00     0.039 C 
ATOM     16  C   UNL     1      -0.233  25.534  68.330  1.00  0.00     0.039 C 
BRANCH  13  17
ATOM     17  C   UNL     1       0.764  27.846  69.886  1.00  0.00     0.066 CG0
ATOM     18  G   UNL     1       2.191  27.504  70.277  1.00  0.00     0.000 G0
ENDBRANCH  13  17
ENDBRANCH  11  13
ENDBRANCH  10  11
ENDBRANCH   1  10
TORSDOF 0
ENDMDL
