MODEL 1
REMARK VINA RESULT:    -2.494      0.000      0.000
REMARK INTER + INTRA:          -2.621
REMARK INTER:                  -2.713
REMARK INTRA:                   0.092
REMARK UNBOUND:                 0.092
REMARK SMILES C=C(C)[C@@H]1CC[C@H](C)C[C@@H]1O
REMARK SMILES IDX 8 1 7 2 6 3 5 4 4 5 10 6 9 7 11 8 2 10 1 11 3 12
REMARK H PARENT 11 9
REMARK Flexibility Score: inf
ROOT
ATOM      1  C   UNL     1     -33.612  35.262 -11.048  1.00  0.00     0.008 C 
ATOM      2  C   UNL     1     -34.713  35.063 -12.102  1.00  0.00    -0.012 C 
ATOM      3  C   UNL     1     -35.282  33.629 -12.081  1.00  0.00     0.004 C 
ATOM      4  C   UNL     1     -36.234  33.389 -10.902  1.00  0.00     0.011 C 
ATOM      5  C   UNL     1     -37.372  34.428 -10.897  1.00  0.00     0.043 C 
ATOM      6  C   UNL     1     -36.821  35.871 -10.837  1.00  0.00     0.121 C 
ATOM      7  C   UNL     1     -35.835  36.123 -11.997  1.00  0.00     0.035 C 
ENDROOT
BRANCH   6   8
ATOM      8  O   UNL     1     -36.199  36.121  -9.602  1.00  0.00    -0.392 OA
ATOM      9  H   UNL     1     -35.391  35.546  -9.565  1.00  0.00     0.210 HD
ENDBRANCH   6   8
BRANCH   5  10
ATOM     10  C   UNL     1     -38.398  34.156  -9.800  1.00  0.00    -0.075 C 
ATOM     11  C   UNL     1     -38.684  32.906  -9.393  1.00  0.00     0.008 C 
ATOM     12  C   UNL     1     -39.125  35.304  -9.147  1.00  0.00     0.039 C 
ENDBRANCH   5  10
TORSDOF 2
ENDMDL
MODEL 2
REMARK VINA RESULT:    -2.241      1.299      4.257
REMARK INTER + INTRA:          -2.345
REMARK INTER:                  -2.155
REMARK INTRA:                  -0.190
REMARK UNBOUND:                 0.092
REMARK SMILES C=C(C)[C@@H]1CC[C@H](C)C[C@@H]1O
REMARK SMILES IDX 8 1 7 2 6 3 5 4 4 5 10 6 9 7 11 8 2 10 1 11 3 12
REMARK H PARENT 11 9
REMARK Flexibility Score: inf
ROOT
ATOM      1  C   UNL     1     -38.809  34.701  -9.609  1.00  0.00     0.008 C 
ATOM      2  C   UNL     1     -38.571  34.539 -11.118  1.00  0.00    -0.012 C 
ATOM      3  C   UNL     1     -38.003  35.824 -11.756  1.00  0.00     0.004 C 
ATOM      4  C   UNL     1     -36.513  36.028 -11.445  1.00  0.00     0.011 C 
ATOM      5  C   UNL     1     -35.691  34.796 -11.873  1.00  0.00     0.043 C 
ATOM      6  C   UNL     1     -36.197  33.510 -11.180  1.00  0.00     0.121 C 
ATOM      7  C   UNL     1     -37.702  33.303 -11.454  1.00  0.00     0.035 C 
ENDROOT
BRANCH   6   8
ATOM      8  O   UNL     1     -35.951  33.552  -9.798  1.00  0.00    -0.392 OA
ATOM      9  H   UNL     1     -34.987  33.354  -9.671  1.00  0.00     0.210 HD
ENDBRANCH   6   8
BRANCH   5  10
ATOM     10  C   UNL     1     -34.192  35.006 -11.676  1.00  0.00    -0.075 C 
ATOM     11  C   UNL     1     -33.702  36.125 -11.113  1.00  0.00     0.008 C 
ATOM     12  C   UNL     1     -33.218  33.947 -12.125  1.00  0.00     0.039 C 
ENDBRANCH   5  10
TORSDOF 2
ENDMDL
MODEL 3
REMARK VINA RESULT:    -2.173      1.522      2.071
REMARK INTER + INTRA:          -2.272
REMARK INTER:                  -2.223
REMARK INTRA:                  -0.049
REMARK UNBOUND:                 0.092
REMARK SMILES C=C(C)[C@@H]1CC[C@H](C)C[C@@H]1O
REMARK SMILES IDX 8 1 7 2 6 3 5 4 4 5 10 6 9 7 11 8 2 10 1 11 3 12
REMARK H PARENT 11 9
REMARK Flexibility Score: inf
ROOT
ATOM      1  C   UNL     1     -34.042  35.250 -11.166  1.00  0.00     0.008 C 
ATOM      2  C   UNL     1     -35.287  36.125 -10.944  1.00  0.00    -0.012 C 
ATOM      3  C   UNL     1     -36.295  36.004 -12.106  1.00  0.00     0.004 C 
ATOM      4  C   UNL     1     -37.091  34.692 -12.062  1.00  0.00     0.011 C 
ATOM      5  C   UNL     1     -37.800  34.528 -10.704  1.00  0.00     0.043 C 
ATOM      6  C   UNL     1     -36.794  34.567  -9.530  1.00  0.00     0.121 C 
ATOM      7  C   UNL     1     -35.960  35.865  -9.576  1.00  0.00     0.035 C 
ENDROOT
BRANCH   6   8
ATOM      8  O   UNL     1     -35.953  33.443  -9.552  1.00  0.00    -0.392 OA
ATOM      9  H   UNL     1     -35.396  33.515 -10.370  1.00  0.00     0.210 HD
ENDBRANCH   6   8
BRANCH   5  10
ATOM     10  C   UNL     1     -38.687  33.287 -10.662  1.00  0.00    -0.075 C 
ATOM     11  C   UNL     1     -39.125  32.767  -9.501  1.00  0.00     0.008 C 
ATOM     12  C   UNL     1     -39.090  32.605 -11.945  1.00  0.00     0.039 C 
ENDBRANCH   5  10
TORSDOF 2
ENDMDL
MODEL 4
REMARK VINA RESULT:    -1.310      1.416      4.148
REMARK INTER + INTRA:          -1.332
REMARK INTER:                  -1.337
REMARK INTRA:                   0.004
REMARK UNBOUND:                 0.092
REMARK SMILES C=C(C)[C@@H]1CC[C@H](C)C[C@@H]1O
REMARK SMILES IDX 8 1 7 2 6 3 5 4 4 5 10 6 9 7 11 8 2 10 1 11 3 12
REMARK H PARENT 11 9
REMARK Flexibility Score: inf
ROOT
ATOM      1  C   UNL     1     -39.124  33.181 -10.057  1.00  0.00     0.008 C 
ATOM      2  C   UNL     1     -38.442  34.266  -9.208  1.00  0.00    -0.012 C 
ATOM      3  C   UNL     1     -37.124  33.768  -8.580  1.00  0.00     0.004 C 
ATOM      4  C   UNL     1     -35.974  33.704  -9.596  1.00  0.00     0.011 C 
ATOM      5  C   UNL     1     -35.772  35.071 -10.279  1.00  0.00     0.043 C 
ATOM      6  C   UNL     1     -37.063  35.549 -10.983  1.00  0.00     0.121 C 
ATOM      7  C   UNL     1     -38.240  35.589  -9.985  1.00  0.00     0.035 C 
ENDROOT
BRANCH   6   8
ATOM      8  O   UNL     1     -37.375  34.725 -12.076  1.00  0.00    -0.392 OA
ATOM      9  H   UNL     1     -37.233  35.267 -12.895  1.00  0.00     0.210 HD
ENDBRANCH   6   8
BRANCH   5  10
ATOM     10  C   UNL     1     -34.568  35.074 -11.218  1.00  0.00    -0.075 C 
ATOM     11  C   UNL     1     -33.714  36.111 -11.270  1.00  0.00     0.008 C 
ATOM     12  C   UNL     1     -34.316  33.895 -12.124  1.00  0.00     0.039 C 
ENDBRANCH   5  10
TORSDOF 2
ENDMDL
MODEL 5
REMARK VINA RESULT:    -0.443      1.482      2.372
REMARK INTER + INTRA:          -0.390
REMARK INTER:                  -0.972
REMARK INTRA:                   0.582
REMARK UNBOUND:                 0.092
REMARK SMILES C=C(C)[C@@H]1CC[C@H](C)C[C@@H]1O
REMARK SMILES IDX 8 1 7 2 6 3 5 4 4 5 10 6 9 7 11 8 2 10 1 11 3 12
REMARK H PARENT 11 9
REMARK Flexibility Score: inf
ROOT
ATOM      1  C   UNL     1     -35.564  32.631 -11.697  1.00  0.00     0.008 C 
ATOM      2  C   UNL     1     -36.797  33.444 -12.125  1.00  0.00    -0.012 C 
ATOM      3  C   UNL     1     -38.052  33.064 -11.311  1.00  0.00     0.004 C 
ATOM      4  C   UNL     1     -38.036  33.654  -9.894  1.00  0.00     0.011 C 
ATOM      5  C   UNL     1     -37.856  35.183  -9.938  1.00  0.00     0.043 C 
ATOM      6  C   UNL     1     -36.560  35.580 -10.682  1.00  0.00     0.121 C 
ATOM      7  C   UNL     1     -36.541  34.970 -12.100  1.00  0.00     0.035 C 
ENDROOT
BRANCH   6   8
ATOM      8  O   UNL     1     -35.423  35.178  -9.961  1.00  0.00    -0.392 OA
ATOM      9  H   UNL     1     -35.635  35.301  -8.998  1.00  0.00     0.210 HD
ENDBRANCH   6   8
BRANCH   5  10
ATOM     10  C   UNL     1     -37.942  35.816  -8.552  1.00  0.00    -0.075 C 
ATOM     11  C   UNL     1     -39.123  36.117  -7.983  1.00  0.00     0.008 C 
ATOM     12  C   UNL     1     -36.681  36.125  -7.785  1.00  0.00     0.039 C 
ENDBRANCH   5  10
TORSDOF 2
ENDMDL
MODEL 6
REMARK VINA RESULT:     0.062      1.488      2.217
REMARK INTER + INTRA:           0.159
REMARK INTER:                   0.348
REMARK INTRA:                  -0.189
REMARK UNBOUND:                 0.092
REMARK SMILES C=C(C)[C@@H]1CC[C@H](C)C[C@@H]1O
REMARK SMILES IDX 8 1 7 2 6 3 5 4 4 5 10 6 9 7 11 8 2 10 1 11 3 12
REMARK H PARENT 11 9
REMARK Flexibility Score: inf
ROOT
ATOM      1  C   UNL     1     -33.725  33.792 -12.125  1.00  0.00     0.008 C 
ATOM      2  C   UNL     1     -33.951  35.070 -11.302  1.00  0.00    -0.012 C 
ATOM      3  C   UNL     1     -34.786  36.114 -12.072  1.00  0.00     0.004 C 
ATOM      4  C   UNL     1     -36.280  35.761 -12.113  1.00  0.00     0.011 C 
ATOM      5  C   UNL     1     -36.834  35.562 -10.689  1.00  0.00     0.043 C 
ATOM      6  C   UNL     1     -36.059  34.461  -9.929  1.00  0.00     0.121 C 
ATOM      7  C   UNL     1     -34.548  34.780  -9.905  1.00  0.00     0.035 C 
ENDROOT
BRANCH   6   8
ATOM      8  O   UNL     1     -36.283  33.199 -10.504  1.00  0.00    -0.392 OA
ATOM      9  H   UNL     1     -36.288  33.328 -11.488  1.00  0.00     0.210 HD
ENDBRANCH   6   8
BRANCH   5  10
ATOM     10  C   UNL     1     -38.340  35.314 -10.685  1.00  0.00    -0.075 C 
ATOM     11  C   UNL     1     -39.050  35.253 -11.826  1.00  0.00     0.008 C 
ATOM     12  C   UNL     1     -39.071  35.137  -9.379  1.00  0.00     0.039 C 
ENDBRANCH   5  10
TORSDOF 2
ENDMDL
