MODEL 1
REMARK VINA RESULT:    -3.199      0.000      0.000
REMARK INTER + INTRA:          -5.546
REMARK INTER:                  -4.882
REMARK INTRA:                  -0.665
REMARK UNBOUND:                -0.665
REMARK SMILES O=C([O-])CCCCCCCCC(=O)[O-]
REMARK SMILES IDX 7 1 6 2 5 3 4 4 2 5 1 6 3 7 8 8 9 9 10 10 11 11 12 12 13 13
REMARK SMILES IDX 14 14
REMARK H PARENT
REMARK Flexibility Score: inf
ROOT
ATOM      1  C   UNL     1     144.866 142.376 145.293  1.00  0.00     0.000 C 
ENDROOT
BRANCH   1   2
ATOM      2  C   UNL     1     144.259 142.939 144.003  1.00  0.00     0.000 C 
BRANCH   2   3
ATOM      3  C   UNL     1     145.337 143.144 142.931  1.00  0.00     0.006 C 
BRANCH   3   4
ATOM      4  C   UNL     1     144.873 144.144 141.869  1.00  0.00     0.053 C 
BRANCH   4   5
ATOM      5  C   UNL     1     145.808 144.139 140.701  1.00  0.00     0.041 C 
ATOM      6  O   UNL     1     146.293 143.056 140.281  1.00  0.00    -0.550 OA
ATOM      7  O   UNL     1     146.183 145.337 140.107  1.00  0.00    -0.550 OA
ENDBRANCH   4   5
ENDBRANCH   3   4
ENDBRANCH   2   3
ENDBRANCH   1   2
BRANCH   1   8
ATOM      8  C   UNL     1     144.901 140.842 145.260  1.00  0.00     0.000 C 
BRANCH   8   9
ATOM      9  C   UNL     1     143.638 140.228 144.631  1.00  0.00     0.000 C 
BRANCH   9  10
ATOM     10  C   UNL     1     142.491 140.003 145.639  1.00  0.00     0.006 C 
BRANCH  10  11
ATOM     11  C   UNL     1     141.338 140.996 145.438  1.00  0.00     0.053 C 
BRANCH  11  12
ATOM     12  C   UNL     1     141.349 142.036 146.513  1.00  0.00     0.041 C 
ATOM     13  O   UNL     1     141.275 141.697 147.724  1.00  0.00    -0.550 OA
ATOM     14  O   UNL     1     141.491 143.377 146.182  1.00  0.00    -0.550 OA
ENDBRANCH  11  12
ENDBRANCH  10  11
ENDBRANCH   9  10
ENDBRANCH   8   9
ENDBRANCH   1   8
TORSDOF 9
ENDMDL
MODEL 2
REMARK VINA RESULT:    -3.194      2.061      2.587
REMARK INTER + INTRA:          -5.540
REMARK INTER:                  -4.931
REMARK INTRA:                  -0.608
REMARK UNBOUND:                -0.665
REMARK SMILES O=C([O-])CCCCCCCCC(=O)[O-]
REMARK SMILES IDX 7 1 6 2 5 3 4 4 2 5 1 6 3 7 8 8 9 9 10 10 11 11 12 12 13 13
REMARK SMILES IDX 14 14
REMARK H PARENT
REMARK Flexibility Score: inf
ROOT
ATOM      1  C   UNL     1     146.422 140.768 145.707  1.00  0.00     0.000 C 
ENDROOT
BRANCH   1   2
ATOM      2  C   UNL     1     146.719 139.988 144.421  1.00  0.00     0.000 C 
BRANCH   2   3
ATOM      3  C   UNL     1     148.085 140.380 143.843  1.00  0.00     0.006 C 
BRANCH   3   4
ATOM      4  C   UNL     1     148.188 141.896 143.658  1.00  0.00     0.053 C 
BRANCH   4   5
ATOM      5  C   UNL     1     147.500 142.319 142.399  1.00  0.00     0.041 C 
ATOM      6  O   UNL     1     146.308 142.721 142.431  1.00  0.00    -0.550 OA
ATOM      7  O   UNL     1     148.160 142.219 141.180  1.00  0.00    -0.550 OA
ENDBRANCH   4   5
ENDBRANCH   3   4
ENDBRANCH   2   3
ENDBRANCH   1   2
BRANCH   1   8
ATOM      8  C   UNL     1     144.912 140.980 145.884  1.00  0.00     0.000 C 
BRANCH   8   9
ATOM      9  C   UNL     1     144.089 140.443 144.700  1.00  0.00     0.000 C 
BRANCH   9  10
ATOM     10  C   UNL     1     142.653 140.027 145.084  1.00  0.00     0.006 C 
BRANCH  10  11
ATOM     11  C   UNL     1     142.124 140.813 146.292  1.00  0.00     0.053 C 
BRANCH  11  12
ATOM     12  C   UNL     1     141.155 141.863 145.850  1.00  0.00     0.041 C 
ATOM     13  O   UNL     1     140.001 141.539 145.465  1.00  0.00    -0.550 OA
ATOM     14  O   UNL     1     141.510 143.204 145.909  1.00  0.00    -0.550 OA
ENDBRANCH  11  12
ENDBRANCH  10  11
ENDBRANCH   9  10
ENDBRANCH   8   9
ENDBRANCH   1   8
TORSDOF 9
ENDMDL
MODEL 3
REMARK VINA RESULT:    -3.160      2.348      3.706
REMARK INTER + INTRA:          -5.487
REMARK INTER:                  -4.520
REMARK INTRA:                  -0.967
REMARK UNBOUND:                -0.665
REMARK SMILES O=C([O-])CCCCCCCCC(=O)[O-]
REMARK SMILES IDX 7 1 6 2 5 3 4 4 2 5 1 6 3 7 8 8 9 9 10 10 11 11 12 12 13 13
REMARK SMILES IDX 14 14
REMARK H PARENT
REMARK Flexibility Score: inf
ROOT
ATOM      1  C   UNL     1     142.381 139.985 145.687  1.00  0.00     0.000 C 
ENDROOT
BRANCH   1   2
ATOM      2  C   UNL     1     143.560 140.261 144.747  1.00  0.00     0.000 C 
BRANCH   2   3
ATOM      3  C   UNL     1     144.765 140.809 145.522  1.00  0.00     0.006 C 
BRANCH   3   4
ATOM      4  C   UNL     1     145.031 142.273 145.160  1.00  0.00     0.053 C 
BRANCH   4   5
ATOM      5  C   UNL     1     145.462 142.390 143.733  1.00  0.00     0.041 C 
ATOM      6  O   UNL     1     144.745 143.008 142.902  1.00  0.00    -0.550 OA
ATOM      7  O   UNL     1     146.631 141.773 143.308  1.00  0.00    -0.550 OA
ENDBRANCH   4   5
ENDBRANCH   3   4
ENDBRANCH   2   3
ENDBRANCH   1   2
BRANCH   1   8
ATOM      8  C   UNL     1     141.260 141.013 145.478  1.00  0.00     0.000 C 
BRANCH   8   9
ATOM      9  C   UNL     1     141.362 142.214 146.434  1.00  0.00     0.000 C 
BRANCH   9  10
ATOM     10  C   UNL     1     141.481 141.814 147.920  1.00  0.00     0.006 C 
BRANCH  10  11
ATOM     11  C   UNL     1     142.843 142.196 148.517  1.00  0.00     0.053 C 
BRANCH  11  12
ATOM     12  C   UNL     1     143.537 140.986 149.055  1.00  0.00     0.041 C 
ATOM     13  O   UNL     1     144.788 140.984 149.199  1.00  0.00    -0.550 OA
ATOM     14  O   UNL     1     142.798 139.876 149.443  1.00  0.00    -0.550 OA
ENDBRANCH  11  12
ENDBRANCH  10  11
ENDBRANCH   9  10
ENDBRANCH   8   9
ENDBRANCH   1   8
TORSDOF 9
ENDMDL
MODEL 4
REMARK VINA RESULT:    -3.151      0.937      5.944
REMARK INTER + INTRA:          -5.474
REMARK INTER:                  -4.795
REMARK INTRA:                  -0.679
REMARK UNBOUND:                -0.665
REMARK SMILES O=C([O-])CCCCCCCCC(=O)[O-]
REMARK SMILES IDX 7 1 6 2 5 3 4 4 2 5 1 6 3 7 8 8 9 9 10 10 11 11 12 12 13 13
REMARK SMILES IDX 14 14
REMARK H PARENT
REMARK Flexibility Score: inf
ROOT
ATOM      1  C   UNL     1     144.336 140.217 146.098  1.00  0.00     0.000 C 
ENDROOT
BRANCH   1   2
ATOM      2  C   UNL     1     142.842 139.982 146.350  1.00  0.00     0.000 C 
BRANCH   2   3
ATOM      3  C   UNL     1     141.998 140.512 145.184  1.00  0.00     0.006 C 
BRANCH   3   4
ATOM      4  C   UNL     1     140.808 141.328 145.694  1.00  0.00     0.053 C 
BRANCH   4   5
ATOM      5  C   UNL     1     141.280 142.553 146.412  1.00  0.00     0.041 C 
ATOM      6  O   UNL     1     141.927 143.440 145.795  1.00  0.00    -0.550 OA
ATOM      7  O   UNL     1     141.051 142.690 147.775  1.00  0.00    -0.550 OA
ENDBRANCH   4   5
ENDBRANCH   3   4
ENDBRANCH   2   3
ENDBRANCH   1   2
BRANCH   1   8
ATOM      8  C   UNL     1     144.611 140.455 144.607  1.00  0.00     0.000 C 
BRANCH   8   9
ATOM      9  C   UNL     1     145.356 141.774 144.339  1.00  0.00     0.000 C 
BRANCH   9  10
ATOM     10  C   UNL     1     144.533 142.795 143.525  1.00  0.00     0.006 C 
BRANCH  10  11
ATOM     11  C   UNL     1     145.365 144.019 143.118  1.00  0.00     0.053 C 
BRANCH  11  12
ATOM     12  C   UNL     1     145.282 144.240 141.641  1.00  0.00     0.041 C 
ATOM     13  O   UNL     1     144.707 145.263 141.185  1.00  0.00    -0.550 OA
ATOM     14  O   UNL     1     145.883 143.342 140.769  1.00  0.00    -0.550 OA
ENDBRANCH  11  12
ENDBRANCH  10  11
ENDBRANCH   9  10
ENDBRANCH   8   9
ENDBRANCH   1   8
TORSDOF 9
ENDMDL
MODEL 5
REMARK VINA RESULT:    -3.140      1.407      2.216
REMARK INTER + INTRA:          -5.456
REMARK INTER:                  -4.507
REMARK INTRA:                  -0.949
REMARK UNBOUND:                -0.665
REMARK SMILES O=C([O-])CCCCCCCCC(=O)[O-]
REMARK SMILES IDX 7 1 6 2 5 3 4 4 2 5 1 6 3 7 8 8 9 9 10 10 11 11 12 12 13 13
REMARK SMILES IDX 14 14
REMARK H PARENT
REMARK Flexibility Score: inf
ROOT
ATOM      1  C   UNL     1     144.135 140.515 145.769  1.00  0.00     0.000 C 
ENDROOT
BRANCH   1   2
ATOM      2  C   UNL     1     144.110 141.201 144.398  1.00  0.00     0.000 C 
BRANCH   2   3
ATOM      3  C   UNL     1     144.885 142.525 144.431  1.00  0.00     0.006 C 
BRANCH   3   4
ATOM      4  C   UNL     1     144.301 143.528 143.433  1.00  0.00     0.053 C 
BRANCH   4   5
ATOM      5  C   UNL     1     145.186 143.651 142.233  1.00  0.00     0.041 C 
ATOM      6  O   UNL     1     144.866 144.412 141.284  1.00  0.00    -0.550 OA
ATOM      7  O   UNL     1     146.340 142.883 142.141  1.00  0.00    -0.550 OA
ENDBRANCH   4   5
ENDBRANCH   3   4
ENDBRANCH   2   3
ENDBRANCH   1   2
BRANCH   1   8
ATOM      8  C   UNL     1     142.711 140.290 146.296  1.00  0.00     0.000 C 
BRANCH   8   9
ATOM      9  C   UNL     1     141.626 140.737 145.301  1.00  0.00     0.000 C 
BRANCH   9  10
ATOM     10  C   UNL     1     140.714 141.858 145.842  1.00  0.00     0.006 C 
BRANCH  10  11
ATOM     11  C   UNL     1     141.317 142.555 147.069  1.00  0.00     0.053 C 
BRANCH  11  12
ATOM     12  C   UNL     1     142.109 143.754 146.654  1.00  0.00     0.041 C 
ATOM     13  O   UNL     1     143.203 144.017 147.219  1.00  0.00    -0.550 OA
ATOM     14  O   UNL     1     141.663 144.553 145.611  1.00  0.00    -0.550 OA
ENDBRANCH  11  12
ENDBRANCH  10  11
ENDBRANCH   9  10
ENDBRANCH   8   9
ENDBRANCH   1   8
TORSDOF 9
ENDMDL
MODEL 6
REMARK VINA RESULT:    -3.117      2.227      6.234
REMARK INTER + INTRA:          -5.421
REMARK INTER:                  -4.882
REMARK INTRA:                  -0.539
REMARK UNBOUND:                -0.665
REMARK SMILES O=C([O-])CCCCCCCCC(=O)[O-]
REMARK SMILES IDX 7 1 6 2 5 3 4 4 2 5 1 6 3 7 8 8 9 9 10 10 11 11 12 12 13 13
REMARK SMILES IDX 14 14
REMARK H PARENT
REMARK Flexibility Score: inf
ROOT
ATOM      1  C   UNL     1     144.907 141.064 145.612  1.00  0.00     0.000 C 
ENDROOT
BRANCH   1   2
ATOM      2  C   UNL     1     144.018 140.523 144.486  1.00  0.00     0.000 C 
BRANCH   2   3
ATOM      3  C   UNL     1     142.660 140.062 145.031  1.00  0.00     0.006 C 
BRANCH   3   4
ATOM      4  C   UNL     1     142.248 140.890 146.251  1.00  0.00     0.053 C 
BRANCH   4   5
ATOM      5  C   UNL     1     141.180 141.870 145.884  1.00  0.00     0.041 C 
ATOM      6  O   UNL     1     140.055 141.465 145.489  1.00  0.00    -0.550 OA
ATOM      7  O   UNL     1     141.444 143.233 145.927  1.00  0.00    -0.550 OA
ENDBRANCH   4   5
ENDBRANCH   3   4
ENDBRANCH   2   3
ENDBRANCH   1   2
BRANCH   1   8
ATOM      8  C   UNL     1     146.234 140.296 145.682  1.00  0.00     0.000 C 
BRANCH   8   9
ATOM      9  C   UNL     1     146.812 139.973 144.293  1.00  0.00     0.000 C 
BRANCH   9  10
ATOM     10  C   UNL     1     148.301 140.351 144.139  1.00  0.00     0.006 C 
BRANCH  10  11
ATOM     11  C   UNL     1     148.626 140.867 142.731  1.00  0.00     0.053 C 
BRANCH  11  12
ATOM     12  C   UNL     1     147.962 142.185 142.490  1.00  0.00     0.041 C 
ATOM     13  O   UNL     1     147.275 142.368 141.451  1.00  0.00    -0.550 OA
ATOM     14  O   UNL     1     148.061 143.196 143.437  1.00  0.00    -0.550 OA
ENDBRANCH  11  12
ENDBRANCH  10  11
ENDBRANCH   9  10
ENDBRANCH   8   9
ENDBRANCH   1   8
TORSDOF 9
ENDMDL
MODEL 7
REMARK VINA RESULT:    -3.115      2.735      6.445
REMARK INTER + INTRA:          -5.419
REMARK INTER:                  -4.487
REMARK INTRA:                  -0.932
REMARK UNBOUND:                -0.665
REMARK SMILES O=C([O-])CCCCCCCCC(=O)[O-]
REMARK SMILES IDX 7 1 6 2 5 3 4 4 2 5 1 6 3 7 8 8 9 9 10 10 11 11 12 12 13 13
REMARK SMILES IDX 14 14
REMARK H PARENT
REMARK Flexibility Score: inf
ROOT
ATOM      1  C   UNL     1     140.992 142.020 146.710  1.00  0.00     0.000 C 
ENDROOT
BRANCH   1   2
ATOM      2  C   UNL     1     141.989 143.144 147.017  1.00  0.00     0.000 C 
BRANCH   2   3
ATOM      3  C   UNL     1     142.829 142.810 148.256  1.00  0.00     0.006 C 
BRANCH   3   4
ATOM      4  C   UNL     1     141.985 142.099 149.317  1.00  0.00     0.053 C 
BRANCH   4   5
ATOM      5  C   UNL     1     142.662 140.845 149.772  1.00  0.00     0.041 C 
ATOM      6  O   UNL     1     142.800 139.875 148.981  1.00  0.00    -0.550 OA
ATOM      7  O   UNL     1     143.095 140.727 151.087  1.00  0.00    -0.550 OA
ENDBRANCH   4   5
ENDBRANCH   3   4
ENDBRANCH   2   3
ENDBRANCH   1   2
BRANCH   1   8
ATOM      8  C   UNL     1     141.339 141.324 145.387  1.00  0.00     0.000 C 
BRANCH   8   9
ATOM      9  C   UNL     1     142.149 140.030 145.585  1.00  0.00     0.000 C 
BRANCH   9  10
ATOM     10  C   UNL     1     143.488 140.015 144.818  1.00  0.00     0.006 C 
BRANCH  10  11
ATOM     11  C   UNL     1     144.565 140.860 145.513  1.00  0.00     0.053 C 
BRANCH  11  12
ATOM     12  C   UNL     1     145.007 141.978 144.624  1.00  0.00     0.041 C 
ATOM     13  O   UNL     1     144.532 142.091 143.463  1.00  0.00    -0.550 OA
ATOM     14  O   UNL     1     145.908 142.924 145.094  1.00  0.00    -0.550 OA
ENDBRANCH  11  12
ENDBRANCH  10  11
ENDBRANCH   9  10
ENDBRANCH   8   9
ENDBRANCH   1   8
TORSDOF 9
ENDMDL
MODEL 8
REMARK VINA RESULT:    -3.063     16.570     18.334
REMARK INTER + INTRA:          -5.339
REMARK INTER:                  -4.914
REMARK INTRA:                  -0.425
REMARK UNBOUND:                -0.665
REMARK SMILES O=C([O-])CCCCCCCCC(=O)[O-]
REMARK SMILES IDX 7 1 6 2 5 3 4 4 2 5 1 6 3 7 8 8 9 9 10 10 11 11 12 12 13 13
REMARK SMILES IDX 14 14
REMARK H PARENT
REMARK Flexibility Score: inf
ROOT
ATOM      1  C   UNL     1     141.646 158.379 149.130  1.00  0.00     0.000 C 
ENDROOT
BRANCH   1   2
ATOM      2  C   UNL     1     141.568 158.275 150.657  1.00  0.00     0.000 C 
BRANCH   2   3
ATOM      3  C   UNL     1     141.275 159.642 151.288  1.00  0.00     0.006 C 
BRANCH   3   4
ATOM      4  C   UNL     1     142.324 159.995 152.346  1.00  0.00     0.053 C 
BRANCH   4   5
ATOM      5  C   UNL     1     141.911 159.477 153.687  1.00  0.00     0.041 C 
ATOM      6  O   UNL     1     140.718 159.597 154.074  1.00  0.00    -0.550 OA
ATOM      7  O   UNL     1     142.854 158.907 154.532  1.00  0.00    -0.550 OA
ENDBRANCH   4   5
ENDBRANCH   3   4
ENDBRANCH   2   3
ENDBRANCH   1   2
BRANCH   1   8
ATOM      8  C   UNL     1     140.260 158.195 148.495  1.00  0.00     0.000 C 
BRANCH   8   9
ATOM      9  C   UNL     1     139.886 159.335 147.532  1.00  0.00     0.000 C 
BRANCH   9  10
ATOM     10  C   UNL     1     140.788 159.410 146.282  1.00  0.00     0.006 C 
BRANCH  10  11
ATOM     11  C   UNL     1     140.330 158.449 145.177  1.00  0.00     0.053 C 
BRANCH  11  12
ATOM     12  C   UNL     1     141.459 157.566 144.749  1.00  0.00     0.041 C 
ATOM     13  O   UNL     1     142.631 157.800 145.144  1.00  0.00    -0.550 OA
ATOM     14  O   UNL     1     141.209 156.456 143.954  1.00  0.00    -0.550 OA
ENDBRANCH  11  12
ENDBRANCH  10  11
ENDBRANCH   9  10
ENDBRANCH   8   9
ENDBRANCH   1   8
TORSDOF 9
ENDMDL
MODEL 9
REMARK VINA RESULT:    -3.038     17.967     19.398
REMARK INTER + INTRA:          -5.301
REMARK INTER:                  -4.732
REMARK INTRA:                  -0.569
REMARK UNBOUND:                -0.665
REMARK SMILES O=C([O-])CCCCCCCCC(=O)[O-]
REMARK SMILES IDX 7 1 6 2 5 3 4 4 2 5 1 6 3 7 8 8 9 9 10 10 11 11 12 12 13 13
REMARK SMILES IDX 14 14
REMARK H PARENT
REMARK Flexibility Score: inf
ROOT
ATOM      1  C   UNL     1     141.513 160.123 153.939  1.00  0.00     0.000 C 
ENDROOT
BRANCH   1   2
ATOM      2  C   UNL     1     142.971 159.789 153.602  1.00  0.00     0.000 C 
BRANCH   2   3
ATOM      3  C   UNL     1     143.898 160.125 154.777  1.00  0.00     0.006 C 
BRANCH   3   4
ATOM      4  C   UNL     1     145.106 159.184 154.810  1.00  0.00     0.053 C 
BRANCH   4   5
ATOM      5  C   UNL     1     144.909 158.115 155.837  1.00  0.00     0.041 C 
ATOM      6  O   UNL     1     145.871 157.745 156.561  1.00  0.00    -0.550 OA
ATOM      7  O   UNL     1     143.676 157.489 155.960  1.00  0.00    -0.550 OA
ENDBRANCH   4   5
ENDBRANCH   3   4
ENDBRANCH   2   3
ENDBRANCH   1   2
BRANCH   1   8
ATOM      8  C   UNL     1     140.560 159.067 153.362  1.00  0.00     0.000 C 
BRANCH   8   9
ATOM      9  C   UNL     1     141.297 157.846 152.784  1.00  0.00     0.000 C 
BRANCH   9  10
ATOM     10  C   UNL     1     140.957 157.560 151.307  1.00  0.00     0.006 C 
BRANCH  10  11
ATOM     11  C   UNL     1     142.060 158.039 150.354  1.00  0.00     0.053 C 
BRANCH  11  12
ATOM     12  C   UNL     1     141.544 159.116 149.454  1.00  0.00     0.041 C 
ATOM     13  O   UNL     1     140.314 159.189 149.193  1.00  0.00    -0.550 OA
ATOM     14  O   UNL     1     142.413 160.070 148.943  1.00  0.00    -0.550 OA
ENDBRANCH  11  12
ENDBRANCH  10  11
ENDBRANCH   9  10
ENDBRANCH   8   9
ENDBRANCH   1   8
TORSDOF 9
ENDMDL
