MODEL 1
REMARK VINA RESULT:    -4.591      0.000      0.000
REMARK INTER + INTRA:         -11.556
REMARK INTER:                  -8.885
REMARK INTRA:                  -2.671
REMARK UNBOUND:                -2.671
REMARK SMILES CCCCCCCCCCCCCCCCCC(=O)[O-]
REMARK SMILES IDX 10 1 11 2 12 3 13 4 14 5 15 6 16 7 17 8 18 9 19 10 20 11
REMARK SMILES IDX 9 12 8 13 7 14 6 15 5 16 4 17 3 18 2 19 1 20
REMARK H PARENT
REMARK Flexibility Score: inf
ROOT
ATOM      1  C   UNL     1     -22.953  19.395 -21.654  1.00  0.00     0.000 C 
ENDROOT
BRANCH   1   2
ATOM      2  C   UNL     1     -24.001  20.463 -21.288  1.00  0.00     0.000 C 
BRANCH   2   3
ATOM      3  C   UNL     1     -23.421  21.814 -20.824  1.00  0.00     0.000 C 
BRANCH   3   4
ATOM      4  C   UNL     1     -23.143  22.824 -21.952  1.00  0.00     0.000 C 
BRANCH   4   5
ATOM      5  C   UNL     1     -24.264  22.870 -23.000  1.00  0.00     0.000 C 
BRANCH   5   6
ATOM      6  C   UNL     1     -23.699  22.718 -24.418  1.00  0.00     0.000 C 
BRANCH   6   7
ATOM      7  C   UNL     1     -22.450  21.824 -24.421  1.00  0.00     0.006 C 
BRANCH   7   8
ATOM      8  C   UNL     1     -21.509  22.144 -25.589  1.00  0.00     0.053 C 
BRANCH   8   9
ATOM      9  C   UNL     1     -21.063  23.573 -25.570  1.00  0.00     0.041 C 
ATOM     10  O   UNL     1     -21.267  24.314 -26.568  1.00  0.00    -0.550 OA
ATOM     11  O   UNL     1     -20.389  24.079 -24.466  1.00  0.00    -0.550 OA
ENDBRANCH   8   9
ENDBRANCH   7   8
ENDBRANCH   6   7
ENDBRANCH   5   6
ENDBRANCH   4   5
ENDBRANCH   3   4
ENDBRANCH   2   3
ENDBRANCH   1   2
BRANCH   1  12
ATOM     12  C   UNL     1     -23.497  17.956 -21.770  1.00  0.00     0.000 C 
BRANCH  12  13
ATOM     13  C   UNL     1     -23.974  17.549 -23.175  1.00  0.00    -0.000 C 
BRANCH  13  14
ATOM     14  C   UNL     1     -23.385  18.438 -24.285  1.00  0.00    -0.000 C 
BRANCH  14  15
ATOM     15  C   UNL     1     -22.826  17.622 -25.463  1.00  0.00    -0.000 C 
BRANCH  15  16
ATOM     16  C   UNL     1     -21.460  18.138 -25.947  1.00  0.00    -0.000 C 
BRANCH  16  17
ATOM     17  C   UNL     1     -20.562  18.598 -24.788  1.00  0.00    -0.000 C 
BRANCH  17  18
ATOM     18  C   UNL     1     -19.673  17.466 -24.242  1.00  0.00    -0.000 C 
BRANCH  18  19
ATOM     19  C   UNL     1     -20.256  16.822 -22.974  1.00  0.00    -0.003 C 
ATOM     20  C   UNL     1     -20.739  15.391 -23.208  1.00  0.00     0.004 C 
ENDBRANCH  18  19
ENDBRANCH  17  18
ENDBRANCH  16  17
ENDBRANCH  15  16
ENDBRANCH  14  15
ENDBRANCH  13  14
ENDBRANCH  12  13
ENDBRANCH   1  12
TORSDOF 16
ENDMDL
MODEL 2
REMARK VINA RESULT:    -4.492      5.004      7.993
REMARK INTER + INTRA:         -11.366
REMARK INTER:                  -8.826
REMARK INTRA:                  -2.539
REMARK UNBOUND:                -2.671
REMARK SMILES CCCCCCCCCCCCCCCCCC(=O)[O-]
REMARK SMILES IDX 10 1 11 2 12 3 13 4 14 5 15 6 16 7 17 8 18 9 19 10 20 11
REMARK SMILES IDX 9 12 8 13 7 14 6 15 5 16 4 17 3 18 2 19 1 20
REMARK H PARENT
REMARK Flexibility Score: inf
ROOT
ATOM      1  C   UNL     1     -20.440  16.521 -22.486  1.00  0.00     0.000 C 
ENDROOT
BRANCH   1   2
ATOM      2  C   UNL     1     -20.584  15.296 -23.411  1.00  0.00     0.000 C 
BRANCH   2   3
ATOM      3  C   UNL     1     -20.788  13.952 -22.685  1.00  0.00     0.000 C 
BRANCH   3   4
ATOM      4  C   UNL     1     -20.151  13.865 -21.287  1.00  0.00     0.000 C 
BRANCH   4   5
ATOM      5  C   UNL     1     -21.188  13.692 -20.169  1.00  0.00     0.000 C 
BRANCH   5   6
ATOM      6  C   UNL     1     -22.597  13.508 -20.747  1.00  0.00     0.000 C 
BRANCH   6   7
ATOM      7  C   UNL     1     -23.621  14.360 -19.984  1.00  0.00     0.006 C 
BRANCH   7   8
ATOM      8  C   UNL     1     -24.651  13.501 -19.239  1.00  0.00     0.053 C 
BRANCH   8   9
ATOM      9  C   UNL     1     -24.338  13.397 -17.778  1.00  0.00     0.041 C 
ATOM     10  O   UNL     1     -24.553  14.375 -17.013  1.00  0.00    -0.550 OA
ATOM     11  O   UNL     1     -23.773  12.236 -17.266  1.00  0.00    -0.550 OA
ENDBRANCH   8   9
ENDBRANCH   7   8
ENDBRANCH   6   7
ENDBRANCH   5   6
ENDBRANCH   4   5
ENDBRANCH   3   4
ENDBRANCH   2   3
ENDBRANCH   1   2
BRANCH   1  12
ATOM     12  C   UNL     1     -21.753  17.015 -21.844  1.00  0.00     0.000 C 
BRANCH  12  13
ATOM     13  C   UNL     1     -23.007  16.869 -22.726  1.00  0.00    -0.000 C 
BRANCH  13  14
ATOM     14  C   UNL     1     -23.838  18.162 -22.797  1.00  0.00    -0.000 C 
BRANCH  14  15
ATOM     15  C   UNL     1     -23.062  19.392 -22.295  1.00  0.00    -0.000 C 
BRANCH  15  16
ATOM     16  C   UNL     1     -22.847  20.447 -23.394  1.00  0.00    -0.000 C 
BRANCH  16  17
ATOM     17  C   UNL     1     -22.603  19.816 -24.774  1.00  0.00    -0.000 C 
BRANCH  17  18
ATOM     18  C   UNL     1     -21.116  19.520 -25.037  1.00  0.00    -0.000 C 
BRANCH  18  19
ATOM     19  C   UNL     1     -20.912  18.462 -26.134  1.00  0.00    -0.003 C 
ATOM     20  C   UNL     1     -22.033  17.424 -26.168  1.00  0.00     0.004 C 
ENDBRANCH  18  19
ENDBRANCH  17  18
ENDBRANCH  16  17
ENDBRANCH  15  16
ENDBRANCH  14  15
ENDBRANCH  13  14
ENDBRANCH  12  13
ENDBRANCH   1  12
TORSDOF 16
ENDMDL
MODEL 3
REMARK VINA RESULT:    -4.457      2.774      4.074
REMARK INTER + INTRA:         -11.297
REMARK INTER:                  -9.032
REMARK INTRA:                  -2.265
REMARK UNBOUND:                -2.671
REMARK SMILES CCCCCCCCCCCCCCCCCC(=O)[O-]
REMARK SMILES IDX 10 1 11 2 12 3 13 4 14 5 15 6 16 7 17 8 18 9 19 10 20 11
REMARK SMILES IDX 9 12 8 13 7 14 6 15 5 16 4 17 3 18 2 19 1 20
REMARK H PARENT
REMARK Flexibility Score: inf
ROOT
ATOM      1  C   UNL     1     -23.803  17.399 -22.633  1.00  0.00     0.000 C 
ENDROOT
BRANCH   1   2
ATOM      2  C   UNL     1     -22.843  17.974 -21.573  1.00  0.00     0.000 C 
BRANCH   2   3
ATOM      3  C   UNL     1     -22.846  19.511 -21.455  1.00  0.00     0.000 C 
BRANCH   3   4
ATOM      4  C   UNL     1     -23.630  20.245 -22.557  1.00  0.00     0.000 C 
BRANCH   4   5
ATOM      5  C   UNL     1     -23.077  21.646 -22.851  1.00  0.00     0.000 C 
BRANCH   5   6
ATOM      6  C   UNL     1     -22.476  21.717 -24.261  1.00  0.00     0.000 C 
BRANCH   6   7
ATOM      7  C   UNL     1     -22.688  20.397 -25.017  1.00  0.00     0.006 C 
BRANCH   7   8
ATOM      8  C   UNL     1     -21.362  19.726 -25.397  1.00  0.00     0.053 C 
BRANCH   8   9
ATOM      9  C   UNL     1     -21.580  18.446 -26.145  1.00  0.00     0.041 C 
ATOM     10  O   UNL     1     -22.570  17.716 -25.876  1.00  0.00    -0.550 OA
ATOM     11  O   UNL     1     -20.671  18.042 -27.114  1.00  0.00    -0.550 OA
ENDBRANCH   8   9
ENDBRANCH   7   8
ENDBRANCH   6   7
ENDBRANCH   5   6
ENDBRANCH   4   5
ENDBRANCH   3   4
ENDBRANCH   2   3
ENDBRANCH   1   2
BRANCH   1  12
ATOM     12  C   UNL     1     -25.104  16.787 -22.074  1.00  0.00     0.000 C 
BRANCH  12  13
ATOM     13  C   UNL     1     -25.000  16.224 -20.645  1.00  0.00    -0.000 C 
BRANCH  13  14
ATOM     14  C   UNL     1     -24.908  14.687 -20.616  1.00  0.00    -0.000 C 
BRANCH  14  15
ATOM     15  C   UNL     1     -23.584  14.186 -20.016  1.00  0.00    -0.000 C 
BRANCH  15  16
ATOM     16  C   UNL     1     -22.540  13.837 -21.091  1.00  0.00    -0.000 C 
BRANCH  16  17
ATOM     17  C   UNL     1     -21.321  14.773 -21.052  1.00  0.00    -0.000 C 
BRANCH  17  18
ATOM     18  C   UNL     1     -20.367  14.553 -22.239  1.00  0.00    -0.000 C 
BRANCH  18  19
ATOM     19  C   UNL     1     -20.690  15.468 -23.432  1.00  0.00    -0.003 C 
ATOM     20  C   UNL     1     -20.037  16.845 -23.313  1.00  0.00     0.004 C 
ENDBRANCH  18  19
ENDBRANCH  17  18
ENDBRANCH  16  17
ENDBRANCH  15  16
ENDBRANCH  14  15
ENDBRANCH  13  14
ENDBRANCH  12  13
ENDBRANCH   1  12
TORSDOF 16
ENDMDL
MODEL 4
REMARK VINA RESULT:    -4.454      3.736      7.075
REMARK INTER + INTRA:         -11.291
REMARK INTER:                  -8.992
REMARK INTRA:                  -2.300
REMARK UNBOUND:                -2.671
REMARK SMILES CCCCCCCCCCCCCCCCCC(=O)[O-]
REMARK SMILES IDX 10 1 11 2 12 3 13 4 14 5 15 6 16 7 17 8 18 9 19 10 20 11
REMARK SMILES IDX 9 12 8 13 7 14 6 15 5 16 4 17 3 18 2 19 1 20
REMARK H PARENT
REMARK Flexibility Score: inf
ROOT
ATOM      1  C   UNL     1     -24.144  17.311 -23.059  1.00  0.00     0.000 C 
ENDROOT
BRANCH   1   2
ATOM      2  C   UNL     1     -23.529  17.981 -24.303  1.00  0.00     0.000 C 
BRANCH   2   3
ATOM      3  C   UNL     1     -22.346  17.222 -24.935  1.00  0.00     0.000 C 
BRANCH   3   4
ATOM      4  C   UNL     1     -20.973  17.894 -24.757  1.00  0.00     0.000 C 
BRANCH   4   5
ATOM      5  C   UNL     1     -20.044  17.115 -23.816  1.00  0.00     0.000 C 
BRANCH   5   6
ATOM      6  C   UNL     1     -20.710  15.820 -23.332  1.00  0.00     0.000 C 
BRANCH   6   7
ATOM      7  C   UNL     1     -20.457  15.597 -21.834  1.00  0.00     0.006 C 
BRANCH   7   8
ATOM      8  C   UNL     1     -20.645  14.130 -21.425  1.00  0.00     0.053 C 
BRANCH   8   9
ATOM      9  C   UNL     1     -21.852  13.944 -20.558  1.00  0.00     0.041 C 
ATOM     10  O   UNL     1     -21.727  13.500 -19.386  1.00  0.00    -0.550 OA
ATOM     11  O   UNL     1     -23.118  14.223 -21.056  1.00  0.00    -0.550 OA
ENDBRANCH   8   9
ENDBRANCH   7   8
ENDBRANCH   6   7
ENDBRANCH   5   6
ENDBRANCH   4   5
ENDBRANCH   3   4
ENDBRANCH   2   3
ENDBRANCH   1   2
BRANCH   1  12
ATOM     12  C   UNL     1     -23.502  17.712 -21.714  1.00  0.00     0.000 C 
BRANCH  12  13
ATOM     13  C   UNL     1     -22.843  19.103 -21.694  1.00  0.00    -0.000 C 
BRANCH  13  14
ATOM     14  C   UNL     1     -23.846  20.232 -21.395  1.00  0.00    -0.000 C 
BRANCH  14  15
ATOM     15  C   UNL     1     -23.156  21.527 -20.933  1.00  0.00    -0.000 C 
BRANCH  15  16
ATOM     16  C   UNL     1     -23.976  22.787 -21.264  1.00  0.00    -0.000 C 
BRANCH  16  17
ATOM     17  C   UNL     1     -24.305  22.896 -22.761  1.00  0.00    -0.000 C 
BRANCH  17  18
ATOM     18  C   UNL     1     -23.046  22.931 -23.645  1.00  0.00    -0.000 C 
BRANCH  18  19
ATOM     19  C   UNL     1     -23.044  21.822 -24.710  1.00  0.00    -0.003 C 
ATOM     20  C   UNL     1     -21.635  21.355 -25.073  1.00  0.00     0.004 C 
ENDBRANCH  18  19
ENDBRANCH  17  18
ENDBRANCH  16  17
ENDBRANCH  15  16
ENDBRANCH  14  15
ENDBRANCH  13  14
ENDBRANCH  12  13
ENDBRANCH   1  12
TORSDOF 16
ENDMDL
MODEL 5
REMARK VINA RESULT:    -4.428      1.700      3.497
REMARK INTER + INTRA:         -11.241
REMARK INTER:                  -8.937
REMARK INTRA:                  -2.304
REMARK UNBOUND:                -2.671
REMARK SMILES CCCCCCCCCCCCCCCCCC(=O)[O-]
REMARK SMILES IDX 10 1 11 2 12 3 13 4 14 5 15 6 16 7 17 8 18 9 19 10 20 11
REMARK SMILES IDX 9 12 8 13 7 14 6 15 5 16 4 17 3 18 2 19 1 20
REMARK H PARENT
REMARK Flexibility Score: inf
ROOT
ATOM      1  C   UNL     1     -23.291  18.473 -24.370  1.00  0.00     0.000 C 
ENDROOT
BRANCH   1   2
ATOM      2  C   UNL     1     -23.854  17.563 -23.260  1.00  0.00     0.000 C 
BRANCH   2   3
ATOM      3  C   UNL     1     -23.603  18.059 -21.822  1.00  0.00     0.000 C 
BRANCH   3   4
ATOM      4  C   UNL     1     -22.802  19.368 -21.716  1.00  0.00     0.000 C 
BRANCH   4   5
ATOM      5  C   UNL     1     -23.622  20.524 -21.127  1.00  0.00     0.000 C 
BRANCH   5   6
ATOM      6  C   UNL     1     -24.044  21.514 -22.220  1.00  0.00     0.000 C 
BRANCH   6   7
ATOM      7  C   UNL     1     -22.826  22.012 -23.012  1.00  0.00     0.006 C 
BRANCH   7   8
ATOM      8  C   UNL     1     -23.108  22.100 -24.518  1.00  0.00     0.053 C 
BRANCH   8   9
ATOM      9  C   UNL     1     -21.847  22.050 -25.325  1.00  0.00     0.041 C 
ATOM     10  O   UNL     1     -21.592  21.046 -26.041  1.00  0.00    -0.550 OA
ATOM     11  O   UNL     1     -20.935  23.096 -25.257  1.00  0.00    -0.550 OA
ENDBRANCH   8   9
ENDBRANCH   7   8
ENDBRANCH   6   7
ENDBRANCH   5   6
ENDBRANCH   4   5
ENDBRANCH   3   4
ENDBRANCH   2   3
ENDBRANCH   1   2
BRANCH   1  12
ATOM     12  C   UNL     1     -22.560  17.737 -25.512  1.00  0.00     0.000 C 
BRANCH  12  13
ATOM     13  C   UNL     1     -21.509  16.707 -25.059  1.00  0.00    -0.000 C 
BRANCH  13  14
ATOM     14  C   UNL     1     -20.360  17.342 -24.256  1.00  0.00    -0.000 C 
BRANCH  14  15
ATOM     15  C   UNL     1     -20.218  16.740 -22.848  1.00  0.00    -0.000 C 
BRANCH  15  16
ATOM     16  C   UNL     1     -20.871  15.352 -22.728  1.00  0.00    -0.000 C 
BRANCH  16  17
ATOM     17  C   UNL     1     -20.271  14.518 -21.584  1.00  0.00    -0.000 C 
BRANCH  17  18
ATOM     18  C   UNL     1     -21.275  14.262 -20.447  1.00  0.00    -0.000 C 
BRANCH  18  19
ATOM     19  C   UNL     1     -22.656  13.830 -20.967  1.00  0.00    -0.003 C 
ATOM     20  C   UNL     1     -23.789  14.701 -20.427  1.00  0.00     0.004 C 
ENDBRANCH  18  19
ENDBRANCH  17  18
ENDBRANCH  16  17
ENDBRANCH  15  16
ENDBRANCH  14  15
ENDBRANCH  13  14
ENDBRANCH  12  13
ENDBRANCH   1  12
TORSDOF 16
ENDMDL
MODEL 6
REMARK VINA RESULT:    -4.419      1.268      4.409
REMARK INTER + INTRA:         -11.223
REMARK INTER:                  -8.698
REMARK INTRA:                  -2.525
REMARK UNBOUND:                -2.671
REMARK SMILES CCCCCCCCCCCCCCCCCC(=O)[O-]
REMARK SMILES IDX 10 1 11 2 12 3 13 4 14 5 15 6 16 7 17 8 18 9 19 10 20 11
REMARK SMILES IDX 9 12 8 13 7 14 6 15 5 16 4 17 3 18 2 19 1 20
REMARK H PARENT
REMARK Flexibility Score: inf
ROOT
ATOM      1  C   UNL     1     -20.260  17.072 -23.771  1.00  0.00     0.000 C 
ENDROOT
BRANCH   1   2
ATOM      2  C   UNL     1     -21.178  16.588 -24.911  1.00  0.00     0.000 C 
BRANCH   2   3
ATOM      3  C   UNL     1     -21.863  17.710 -25.717  1.00  0.00     0.000 C 
BRANCH   3   4
ATOM      4  C   UNL     1     -21.330  19.127 -25.440  1.00  0.00     0.000 C 
BRANCH   4   5
ATOM      5  C   UNL     1     -22.424  20.094 -24.967  1.00  0.00     0.000 C 
BRANCH   5   6
ATOM      6  C   UNL     1     -21.891  21.529 -24.881  1.00  0.00     0.000 C 
BRANCH   6   7
ATOM      7  C   UNL     1     -23.020  22.519 -24.561  1.00  0.00     0.006 C 
BRANCH   7   8
ATOM      8  C   UNL     1     -22.516  23.751 -23.800  1.00  0.00     0.053 C 
BRANCH   8   9
ATOM      9  C   UNL     1     -21.900  24.761 -24.720  1.00  0.00     0.041 C 
ATOM     10  O   UNL     1     -22.582  25.271 -25.648  1.00  0.00    -0.550 OA
ATOM     11  O   UNL     1     -20.564  25.110 -24.578  1.00  0.00    -0.550 OA
ENDBRANCH   8   9
ENDBRANCH   7   8
ENDBRANCH   6   7
ENDBRANCH   5   6
ENDBRANCH   4   5
ENDBRANCH   3   4
ENDBRANCH   2   3
ENDBRANCH   1   2
BRANCH   1  12
ATOM     12  C   UNL     1     -20.613  16.529 -22.371  1.00  0.00     0.000 C 
BRANCH  12  13
ATOM     13  C   UNL     1     -21.895  15.681 -22.303  1.00  0.00    -0.000 C 
BRANCH  13  14
ATOM     14  C   UNL     1     -23.058  16.413 -21.610  1.00  0.00    -0.000 C 
BRANCH  14  15
ATOM     15  C   UNL     1     -23.925  17.213 -22.597  1.00  0.00    -0.000 C 
BRANCH  15  16
ATOM     16  C   UNL     1     -24.180  18.656 -22.128  1.00  0.00    -0.000 C 
BRANCH  16  17
ATOM     17  C   UNL     1     -22.949  19.280 -21.452  1.00  0.00    -0.000 C 
BRANCH  17  18
ATOM     18  C   UNL     1     -23.096  20.797 -21.236  1.00  0.00    -0.000 C 
BRANCH  18  19
ATOM     19  C   UNL     1     -24.518  21.194 -20.808  1.00  0.00    -0.003 C 
ATOM     20  C   UNL     1     -24.788  22.690 -20.974  1.00  0.00     0.004 C 
ENDBRANCH  18  19
ENDBRANCH  17  18
ENDBRANCH  16  17
ENDBRANCH  15  16
ENDBRANCH  14  15
ENDBRANCH  13  14
ENDBRANCH  12  13
ENDBRANCH   1  12
TORSDOF 16
ENDMDL
MODEL 7
REMARK VINA RESULT:    -4.369      3.932      7.161
REMARK INTER + INTRA:         -11.127
REMARK INTER:                  -8.994
REMARK INTRA:                  -2.133
REMARK UNBOUND:                -2.671
REMARK SMILES CCCCCCCCCCCCCCCCCC(=O)[O-]
REMARK SMILES IDX 10 1 11 2 12 3 13 4 14 5 15 6 16 7 17 8 18 9 19 10 20 11
REMARK SMILES IDX 9 12 8 13 7 14 6 15 5 16 4 17 3 18 2 19 1 20
REMARK H PARENT
REMARK Flexibility Score: inf
ROOT
ATOM      1  C   UNL     1     -22.597  19.252 -25.041  1.00  0.00     0.000 C 
ENDROOT
BRANCH   1   2
ATOM      2  C   UNL     1     -22.488  17.834 -25.633  1.00  0.00     0.000 C 
BRANCH   2   3
ATOM      3  C   UNL     1     -21.778  16.804 -24.732  1.00  0.00     0.000 C 
BRANCH   3   4
ATOM      4  C   UNL     1     -20.830  17.406 -23.680  1.00  0.00     0.000 C 
BRANCH   4   5
ATOM      5  C   UNL     1     -20.212  16.346 -22.758  1.00  0.00     0.000 C 
BRANCH   5   6
ATOM      6  C   UNL     1     -20.645  14.934 -23.173  1.00  0.00     0.000 C 
BRANCH   6   7
ATOM      7  C   UNL     1     -20.653  13.983 -21.968  1.00  0.00     0.006 C 
BRANCH   7   8
ATOM      8  C   UNL     1     -21.396  14.577 -20.764  1.00  0.00     0.053 C 
BRANCH   8   9
ATOM      9  C   UNL     1     -22.729  13.926 -20.555  1.00  0.00     0.041 C 
ATOM     10  O   UNL     1     -22.938  12.760 -20.982  1.00  0.00    -0.550 OA
ATOM     11  O   UNL     1     -23.752  14.621 -19.923  1.00  0.00    -0.550 OA
ENDBRANCH   8   9
ENDBRANCH   7   8
ENDBRANCH   6   7
ENDBRANCH   5   6
ENDBRANCH   4   5
ENDBRANCH   3   4
ENDBRANCH   2   3
ENDBRANCH   1   2
BRANCH   1  12
ATOM     12  C   UNL     1     -21.573  20.270 -25.586  1.00  0.00     0.000 C 
BRANCH  12  13
ATOM     13  C   UNL     1     -21.712  21.698 -25.030  1.00  0.00    -0.000 C 
BRANCH  13  14
ATOM     14  C   UNL     1     -23.124  21.994 -24.493  1.00  0.00    -0.000 C 
BRANCH  14  15
ATOM     15  C   UNL     1     -23.108  22.535 -23.054  1.00  0.00    -0.000 C 
BRANCH  15  16
ATOM     16  C   UNL     1     -23.984  21.707 -22.098  1.00  0.00    -0.000 C 
BRANCH  16  17
ATOM     17  C   UNL     1     -23.150  20.852 -21.130  1.00  0.00    -0.000 C 
BRANCH  17  18
ATOM     18  C   UNL     1     -23.047  19.382 -21.575  1.00  0.00    -0.000 C 
BRANCH  18  19
ATOM     19  C   UNL     1     -24.423  18.708 -21.701  1.00  0.00    -0.003 C 
ATOM     20  C   UNL     1     -24.331  17.267 -22.203  1.00  0.00     0.004 C 
ENDBRANCH  18  19
ENDBRANCH  17  18
ENDBRANCH  16  17
ENDBRANCH  15  16
ENDBRANCH  14  15
ENDBRANCH  13  14
ENDBRANCH  12  13
ENDBRANCH   1  12
TORSDOF 16
ENDMDL
MODEL 8
REMARK VINA RESULT:    -4.352      1.769      3.260
REMARK INTER + INTRA:         -11.094
REMARK INTER:                  -8.870
REMARK INTRA:                  -2.224
REMARK UNBOUND:                -2.671
REMARK SMILES CCCCCCCCCCCCCCCCCC(=O)[O-]
REMARK SMILES IDX 10 1 11 2 12 3 13 4 14 5 15 6 16 7 17 8 18 9 19 10 20 11
REMARK SMILES IDX 9 12 8 13 7 14 6 15 5 16 4 17 3 18 2 19 1 20
REMARK H PARENT
REMARK Flexibility Score: inf
ROOT
ATOM      1  C   UNL     1     -24.706  16.732 -22.066  1.00  0.00     0.000 C 
ENDROOT
BRANCH   1   2
ATOM      2  C   UNL     1     -24.906  18.209 -21.674  1.00  0.00     0.000 C 
BRANCH   2   3
ATOM      3  C   UNL     1     -23.933  19.199 -22.345  1.00  0.00     0.000 C 
BRANCH   3   4
ATOM      4  C   UNL     1     -22.888  19.822 -21.403  1.00  0.00     0.000 C 
BRANCH   4   5
ATOM      5  C   UNL     1     -23.271  21.232 -20.935  1.00  0.00     0.000 C 
BRANCH   5   6
ATOM      6  C   UNL     1     -23.737  22.096 -22.114  1.00  0.00     0.000 C 
BRANCH   6   7
ATOM      7  C   UNL     1     -23.045  23.467 -22.099  1.00  0.00     0.006 C 
BRANCH   7   8
ATOM      8  C   UNL     1     -22.501  23.858 -23.479  1.00  0.00     0.053 C 
BRANCH   8   9
ATOM      9  C   UNL     1     -23.594  24.291 -24.407  1.00  0.00     0.041 C 
ATOM     10  O   UNL     1     -23.747  25.511 -24.681  1.00  0.00    -0.550 OA
ATOM     11  O   UNL     1     -24.467  23.352 -24.941  1.00  0.00    -0.550 OA
ENDBRANCH   8   9
ENDBRANCH   7   8
ENDBRANCH   6   7
ENDBRANCH   5   6
ENDBRANCH   4   5
ENDBRANCH   3   4
ENDBRANCH   2   3
ENDBRANCH   1   2
BRANCH   1  12
ATOM     12  C   UNL     1     -24.042  15.853 -20.987  1.00  0.00     0.000 C 
BRANCH  12  13
ATOM     13  C   UNL     1     -22.680  15.252 -21.381  1.00  0.00    -0.000 C 
BRANCH  13  14
ATOM     14  C   UNL     1     -21.606  16.324 -21.634  1.00  0.00    -0.000 C 
BRANCH  14  15
ATOM     15  C   UNL     1     -20.631  15.931 -22.757  1.00  0.00    -0.000 C 
BRANCH  15  16
ATOM     16  C   UNL     1     -20.679  16.902 -23.950  1.00  0.00    -0.000 C 
BRANCH  16  17
ATOM     17  C   UNL     1     -22.011  16.830 -24.713  1.00  0.00    -0.000 C 
BRANCH  17  18
ATOM     18  C   UNL     1     -22.378  18.161 -25.393  1.00  0.00    -0.000 C 
BRANCH  18  19
ATOM     19  C   UNL     1     -21.305  19.242 -25.186  1.00  0.00    -0.003 C 
ATOM     20  C   UNL     1     -21.894  20.650 -25.109  1.00  0.00     0.004 C 
ENDBRANCH  18  19
ENDBRANCH  17  18
ENDBRANCH  16  17
ENDBRANCH  15  16
ENDBRANCH  14  15
ENDBRANCH  13  14
ENDBRANCH  12  13
ENDBRANCH   1  12
TORSDOF 16
ENDMDL
MODEL 9
REMARK VINA RESULT:    -4.310      1.349      2.726
REMARK INTER + INTRA:         -11.013
REMARK INTER:                  -9.100
REMARK INTRA:                  -1.913
REMARK UNBOUND:                -2.671
REMARK SMILES CCCCCCCCCCCCCCCCCC(=O)[O-]
REMARK SMILES IDX 10 1 11 2 12 3 13 4 14 5 15 6 16 7 17 8 18 9 19 10 20 11
REMARK SMILES IDX 9 12 8 13 7 14 6 15 5 16 4 17 3 18 2 19 1 20
REMARK H PARENT
REMARK Flexibility Score: inf
ROOT
ATOM      1  C   UNL     1     -22.848  19.187 -21.621  1.00  0.00     0.000 C 
ENDROOT
BRANCH   1   2
ATOM      2  C   UNL     1     -23.208  20.665 -21.375  1.00  0.00     0.000 C 
BRANCH   2   3
ATOM      3  C   UNL     1     -23.184  21.559 -22.631  1.00  0.00     0.000 C 
BRANCH   3   4
ATOM      4  C   UNL     1     -22.769  20.845 -23.929  1.00  0.00     0.000 C 
BRANCH   4   5
ATOM      5  C   UNL     1     -22.263  21.813 -25.008  1.00  0.00     0.000 C 
BRANCH   5   6
ATOM      6  C   UNL     1     -22.024  23.211 -24.424  1.00  0.00     0.000 C 
BRANCH   6   7
ATOM      7  C   UNL     1     -20.780  23.862 -25.045  1.00  0.00     0.006 C 
BRANCH   7   8
ATOM      8  C   UNL     1     -20.977  24.192 -26.530  1.00  0.00     0.053 C 
BRANCH   8   9
ATOM      9  C   UNL     1     -21.747  25.463 -26.721  1.00  0.00     0.041 C 
ATOM     10  O   UNL     1     -21.612  26.414 -25.907  1.00  0.00    -0.550 OA
ATOM     11  O   UNL     1     -22.643  25.583 -27.776  1.00  0.00    -0.550 OA
ENDBRANCH   8   9
ENDBRANCH   7   8
ENDBRANCH   6   7
ENDBRANCH   5   6
ENDBRANCH   4   5
ENDBRANCH   3   4
ENDBRANCH   2   3
ENDBRANCH   1   2
BRANCH   1  12
ATOM     12  C   UNL     1     -24.054  18.232 -21.745  1.00  0.00     0.000 C 
BRANCH  12  13
ATOM     13  C   UNL     1     -23.788  16.783 -21.297  1.00  0.00    -0.000 C 
BRANCH  13  14
ATOM     14  C   UNL     1     -22.783  16.053 -22.206  1.00  0.00    -0.000 C 
BRANCH  14  15
ATOM     15  C   UNL     1     -21.425  15.823 -21.521  1.00  0.00    -0.000 C 
BRANCH  15  16
ATOM     16  C   UNL     1     -20.245  16.369 -22.344  1.00  0.00    -0.000 C 
BRANCH  16  17
ATOM     17  C   UNL     1     -20.574  16.478 -23.841  1.00  0.00    -0.000 C 
BRANCH  17  18
ATOM     18  C   UNL     1     -20.289  17.880 -24.410  1.00  0.00    -0.000 C 
BRANCH  18  19
ATOM     19  C   UNL     1     -21.090  18.168 -25.690  1.00  0.00    -0.003 C 
ATOM     20  C   UNL     1     -22.509  17.604 -25.639  1.00  0.00     0.004 C 
ENDBRANCH  18  19
ENDBRANCH  17  18
ENDBRANCH  16  17
ENDBRANCH  15  16
ENDBRANCH  14  15
ENDBRANCH  13  14
ENDBRANCH  12  13
ENDBRANCH   1  12
TORSDOF 16
ENDMDL
