MODEL 1
REMARK VINA RESULT:    -4.763      0.000      0.000
REMARK INTER + INTRA:          -4.763
REMARK INTER:                  -4.763
REMARK INTRA:                   0.000
REMARK UNBOUND:                 0.000
REMARK SMILES Cc1cccc2ccccc12
REMARK SMILES IDX 1 1 2 2 3 3 4 4 5 5 6 6 7 7 8 8 9 9 10 10 11 11
REMARK H PARENT
REMARK Flexibility Score: inf
ROOT
ATOM      1  C   UNL     1       2.532  61.006 131.517  1.00  0.00     0.045 C 
ATOM      2  C   UNL     1       2.219  59.965 132.561  1.00  0.00    -0.043 A 
ATOM      3  C   UNL     1       3.217  59.045 132.921  1.00  0.00     0.004 A 
ATOM      4  C   UNL     1       2.971  58.064 133.883  1.00  0.00     0.001 A 
ATOM      5  C   UNL     1       1.726  57.982 134.502  1.00  0.00     0.009 A 
ATOM      6  C   UNL     1       0.709  58.885 134.164  1.00  0.00    -0.018 A 
ATOM      7  C   UNL     1      -0.544  58.798 134.791  1.00  0.00     0.009 A 
ATOM      8  C   UNL     1      -1.561  59.693 134.459  1.00  0.00     0.001 A 
ATOM      9  C   UNL     1      -1.339  60.682 133.502  1.00  0.00     0.001 A 
ATOM     10  C   UNL     1      -0.098  60.785 132.867  1.00  0.00     0.009 A 
ATOM     11  C   UNL     1       0.945  59.889 133.186  1.00  0.00    -0.015 A 
ENDROOT
TORSDOF 0
ENDMDL
MODEL 2
REMARK VINA RESULT:    -4.761      0.836      3.383
REMARK INTER + INTRA:          -4.761
REMARK INTER:                  -4.761
REMARK INTRA:                   0.000
REMARK UNBOUND:                 0.000
REMARK SMILES Cc1cccc2ccccc12
REMARK SMILES IDX 1 1 2 2 3 3 4 4 5 5 6 6 7 7 8 8 9 9 10 10 11 11
REMARK H PARENT
REMARK Flexibility Score: inf
ROOT
ATOM      1  C   UNL     1      -1.254  60.481 133.621  1.00  0.00     0.045 C 
ATOM      2  C   UNL     1      -0.041  59.614 133.842  1.00  0.00    -0.043 A 
ATOM      3  C   UNL     1      -0.139  58.524 134.723  1.00  0.00     0.004 A 
ATOM      4  C   UNL     1       0.957  57.695 134.958  1.00  0.00     0.001 A 
ATOM      5  C   UNL     1       2.172  57.936 134.319  1.00  0.00     0.009 A 
ATOM      6  C   UNL     1       2.302  59.014 133.434  1.00  0.00    -0.018 A 
ATOM      7  C   UNL     1       3.528  59.252 132.792  1.00  0.00     0.009 A 
ATOM      8  C   UNL     1       3.664  60.324 131.911  1.00  0.00     0.001 A 
ATOM      9  C   UNL     1       2.582  61.167 131.660  1.00  0.00     0.001 A 
ATOM     10  C   UNL     1       1.354  60.946 132.288  1.00  0.00     0.009 A 
ATOM     11  C   UNL     1       1.193  59.868 133.185  1.00  0.00    -0.015 A 
ENDROOT
TORSDOF 0
ENDMDL
MODEL 3
REMARK VINA RESULT:    -4.719      2.361      3.743
REMARK INTER + INTRA:          -4.719
REMARK INTER:                  -4.719
REMARK INTRA:                   0.000
REMARK UNBOUND:                 0.000
REMARK SMILES Cc1cccc2ccccc12
REMARK SMILES IDX 1 1 2 2 3 3 4 4 5 5 6 6 7 7 8 8 9 9 10 10 11 11
REMARK H PARENT
REMARK Flexibility Score: inf
ROOT
ATOM      1  C   UNL     1       7.105  60.873 133.007  1.00  0.00     0.045 C 
ATOM      2  C   UNL     1       5.995  59.854 133.037  1.00  0.00    -0.043 A 
ATOM      3  C   UNL     1       6.323  58.500 133.214  1.00  0.00     0.004 A 
ATOM      4  C   UNL     1       5.328  57.523 133.249  1.00  0.00     0.001 A 
ATOM      5  C   UNL     1       3.988  57.877 133.108  1.00  0.00     0.009 A 
ATOM      6  C   UNL     1       3.628  59.220 132.930  1.00  0.00    -0.018 A 
ATOM      7  C   UNL     1       2.276  59.571 132.789  1.00  0.00     0.009 A 
ATOM      8  C   UNL     1       1.911  60.905 132.611  1.00  0.00     0.001 A 
ATOM      9  C   UNL     1       2.888  61.900 132.574  1.00  0.00     0.001 A 
ATOM     10  C   UNL     1       4.238  61.569 132.713  1.00  0.00     0.009 A 
ATOM     11  C   UNL     1       4.632  60.226 132.893  1.00  0.00    -0.015 A 
ENDROOT
TORSDOF 0
ENDMDL
MODEL 4
REMARK VINA RESULT:    -4.711      0.658      2.555
REMARK INTER + INTRA:          -4.711
REMARK INTER:                  -4.711
REMARK INTRA:                   0.000
REMARK UNBOUND:                 0.000
REMARK SMILES Cc1cccc2ccccc12
REMARK SMILES IDX 1 1 2 2 3 3 4 4 5 5 6 6 7 7 8 8 9 9 10 10 11 11
REMARK H PARENT
REMARK Flexibility Score: inf
ROOT
ATOM      1  C   UNL     1       2.388  57.403 135.099  1.00  0.00     0.045 C 
ATOM      2  C   UNL     1       2.108  58.469 134.070  1.00  0.00    -0.043 A 
ATOM      3  C   UNL     1       3.109  58.793 133.140  1.00  0.00     0.004 A 
ATOM      4  C   UNL     1       2.893  59.772 132.170  1.00  0.00     0.001 A 
ATOM      5  C   UNL     1       1.675  60.447 132.111  1.00  0.00     0.009 A 
ATOM      6  C   UNL     1       0.656  60.146 133.024  1.00  0.00    -0.018 A 
ATOM      7  C   UNL     1      -0.569  60.829 132.959  1.00  0.00     0.009 A 
ATOM      8  C   UNL     1      -1.587  60.535 133.866  1.00  0.00     0.001 A 
ATOM      9  C   UNL     1      -1.395  59.560 134.844  1.00  0.00     0.001 A 
ATOM     10  C   UNL     1      -0.183  58.870 134.924  1.00  0.00     0.009 A 
ATOM     11  C   UNL     1       0.862  59.150 134.017  1.00  0.00    -0.015 A 
ENDROOT
TORSDOF 0
ENDMDL
MODEL 5
REMARK VINA RESULT:    -4.663      2.033      4.625
REMARK INTER + INTRA:          -4.663
REMARK INTER:                  -4.663
REMARK INTRA:                   0.000
REMARK UNBOUND:                 0.000
REMARK SMILES Cc1cccc2ccccc12
REMARK SMILES IDX 1 1 2 2 3 3 4 4 5 5 6 6 7 7 8 8 9 9 10 10 11 11
REMARK H PARENT
REMARK Flexibility Score: inf
ROOT
ATOM      1  C   UNL     1       3.223  62.384 132.650  1.00  0.00     0.045 C 
ATOM      2  C   UNL     1       3.096  60.928 133.020  1.00  0.00    -0.043 A 
ATOM      3  C   UNL     1       1.840  60.436 133.412  1.00  0.00     0.004 A 
ATOM      4  C   UNL     1       1.676  59.096 133.763  1.00  0.00     0.001 A 
ATOM      5  C   UNL     1       2.761  58.222 133.730  1.00  0.00     0.009 A 
ATOM      6  C   UNL     1       4.027  58.682 133.343  1.00  0.00    -0.018 A 
ATOM      7  C   UNL     1       5.116  57.796 133.312  1.00  0.00     0.009 A 
ATOM      8  C   UNL     1       6.378  58.248 132.928  1.00  0.00     0.001 A 
ATOM      9  C   UNL     1       6.567  59.583 132.572  1.00  0.00     0.001 A 
ATOM     10  C   UNL     1       5.495  60.479 132.597  1.00  0.00     0.009 A 
ATOM     11  C   UNL     1       4.208  60.045 132.983  1.00  0.00    -0.015 A 
ENDROOT
TORSDOF 0
ENDMDL
MODEL 6
REMARK VINA RESULT:    -4.660      1.294      3.666
REMARK INTER + INTRA:          -4.660
REMARK INTER:                  -4.660
REMARK INTRA:                   0.000
REMARK UNBOUND:                 0.000
REMARK SMILES Cc1cccc2ccccc12
REMARK SMILES IDX 1 1 2 2 3 3 4 4 5 5 6 6 7 7 8 8 9 9 10 10 11 11
REMARK H PARENT
REMARK Flexibility Score: inf
ROOT
ATOM      1  C   UNL     1       3.636  60.132 130.994  1.00  0.00     0.045 C 
ATOM      2  C   UNL     1       2.703  59.774 132.123  1.00  0.00    -0.043 A 
ATOM      3  C   UNL     1       1.516  60.509 132.280  1.00  0.00     0.004 A 
ATOM      4  C   UNL     1       0.624  60.213 133.311  1.00  0.00     0.001 A 
ATOM      5  C   UNL     1       0.898  59.179 134.203  1.00  0.00     0.009 A 
ATOM      6  C   UNL     1       2.073  58.427 134.073  1.00  0.00    -0.018 A 
ATOM      7  C   UNL     1       2.344  57.386 134.976  1.00  0.00     0.009 A 
ATOM      8  C   UNL     1       3.512  56.634 134.852  1.00  0.00     0.001 A 
ATOM      9  C   UNL     1       4.420  56.911 133.830  1.00  0.00     0.001 A 
ATOM     10  C   UNL     1       4.166  57.943 132.922  1.00  0.00     0.009 A 
ATOM     11  C   UNL     1       2.991  58.718 133.028  1.00  0.00    -0.015 A 
ENDROOT
TORSDOF 0
ENDMDL
MODEL 7
REMARK VINA RESULT:    -4.647      1.131      4.083
REMARK INTER + INTRA:          -4.647
REMARK INTER:                  -4.647
REMARK INTRA:                   0.000
REMARK UNBOUND:                 0.000
REMARK SMILES Cc1cccc2ccccc12
REMARK SMILES IDX 1 1 2 2 3 3 4 4 5 5 6 6 7 7 8 8 9 9 10 10 11 11
REMARK H PARENT
REMARK Flexibility Score: inf
ROOT
ATOM      1  C   UNL     1      -0.133  59.858 134.030  1.00  0.00     0.045 C 
ATOM      2  C   UNL     1       1.168  59.874 133.268  1.00  0.00    -0.043 A 
ATOM      3  C   UNL     1       1.367  60.860 132.288  1.00  0.00     0.004 A 
ATOM      4  C   UNL     1       2.555  60.913 131.559  1.00  0.00     0.001 A 
ATOM      5  C   UNL     1       3.566  59.984 131.793  1.00  0.00     0.009 A 
ATOM      6  C   UNL     1       3.399  58.988 132.765  1.00  0.00    -0.018 A 
ATOM      7  C   UNL     1       4.422  58.055 132.996  1.00  0.00     0.009 A 
ATOM      8  C   UNL     1       4.261  57.061 133.961  1.00  0.00     0.001 A 
ATOM      9  C   UNL     1       3.082  56.988 134.703  1.00  0.00     0.001 A 
ATOM     10  C   UNL     1       2.054  57.908 134.487  1.00  0.00     0.009 A 
ATOM     11  C   UNL     1       2.193  58.923 133.515  1.00  0.00    -0.015 A 
ENDROOT
TORSDOF 0
ENDMDL
MODEL 8
REMARK VINA RESULT:    -4.613      6.181      9.015
REMARK INTER + INTRA:          -4.613
REMARK INTER:                  -4.613
REMARK INTRA:                   0.000
REMARK UNBOUND:                 0.000
REMARK SMILES Cc1cccc2ccccc12
REMARK SMILES IDX 1 1 2 2 3 3 4 4 5 5 6 6 7 7 8 8 9 9 10 10 11 11
REMARK H PARENT
REMARK Flexibility Score: inf
ROOT
ATOM      1  C   UNL     1       6.232  57.902 133.372  1.00  0.00     0.045 C 
ATOM      2  C   UNL     1       7.403  58.844 133.255  1.00  0.00    -0.043 A 
ATOM      3  C   UNL     1       7.155  60.220 133.121  1.00  0.00     0.004 A 
ATOM      4  C   UNL     1       8.207  61.129 133.010  1.00  0.00     0.001 A 
ATOM      5  C   UNL     1       9.527  60.682 133.030  1.00  0.00     0.009 A 
ATOM      6  C   UNL     1       9.808  59.316 133.162  1.00  0.00    -0.018 A 
ATOM      7  C   UNL     1      11.140  58.872 133.181  1.00  0.00     0.009 A 
ATOM      8  C   UNL     1      11.427  57.513 133.312  1.00  0.00     0.001 A 
ATOM      9  C   UNL     1      10.391  56.586 133.425  1.00  0.00     0.001 A 
ATOM     10  C   UNL     1       9.060  57.009 133.408  1.00  0.00     0.009 A 
ATOM     11  C   UNL     1       8.745  58.379 133.276  1.00  0.00    -0.015 A 
ENDROOT
TORSDOF 0
ENDMDL
MODEL 9
REMARK VINA RESULT:    -4.582      1.031      4.396
REMARK INTER + INTRA:          -4.582
REMARK INTER:                  -4.582
REMARK INTRA:                   0.000
REMARK UNBOUND:                 0.000
REMARK SMILES Cc1cccc2ccccc12
REMARK SMILES IDX 1 1 2 2 3 3 4 4 5 5 6 6 7 7 8 8 9 9 10 10 11 11
REMARK H PARENT
REMARK Flexibility Score: inf
ROOT
ATOM      1  C   UNL     1       1.133  57.623 135.141  1.00  0.00     0.045 C 
ATOM      2  C   UNL     1       1.105  58.735 134.124  1.00  0.00    -0.043 A 
ATOM      3  C   UNL     1      -0.094  59.437 133.919  1.00  0.00     0.004 A 
ATOM      4  C   UNL     1      -0.166  60.473 132.989  1.00  0.00     0.001 A 
ATOM      5  C   UNL     1       0.957  60.830 132.244  1.00  0.00     0.009 A 
ATOM      6  C   UNL     1       2.168  60.149 132.425  1.00  0.00    -0.018 A 
ATOM      7  C   UNL     1       3.297  60.513 131.672  1.00  0.00     0.009 A 
ATOM      8  C   UNL     1       4.506  59.839 131.846  1.00  0.00     0.001 A 
ATOM      9  C   UNL     1       4.602  58.800 132.771  1.00  0.00     0.001 A 
ATOM     10  C   UNL     1       3.490  58.425 133.530  1.00  0.00     0.009 A 
ATOM     11  C   UNL     1       2.256  59.091 133.370  1.00  0.00    -0.015 A 
ENDROOT
TORSDOF 0
ENDMDL
