MODEL 1
REMARK VINA RESULT:    -4.324      0.000      0.000
REMARK INTER + INTRA:          -7.881
REMARK INTER:                  -6.599
REMARK INTRA:                  -1.283
REMARK UNBOUND:                -1.283
REMARK SMILES CCCCCCCCCCC(=O)[O-]
REMARK SMILES IDX 7 1 8 2 9 3 10 4 11 5 12 6 13 7 6 8 5 9 4 10 3 11 2 12 1 13
REMARK H PARENT
REMARK Flexibility Score: inf
ROOT
ATOM      1  C   UNL     1      62.198  28.614  13.104  1.00  0.00     0.000 C 
ENDROOT
BRANCH   1   2
ATOM      2  C   UNL     1      60.769  28.576  13.668  1.00  0.00     0.000 C 
BRANCH   2   3
ATOM      3  C   UNL     1      59.744  28.061  12.643  1.00  0.00     0.006 C 
BRANCH   3   4
ATOM      4  C   UNL     1      59.508  29.065  11.507  1.00  0.00     0.053 C 
BRANCH   4   5
ATOM      5  C   UNL     1      59.816  28.471  10.167  1.00  0.00     0.041 C 
ATOM      6  O   UNL     1      58.894  28.289   9.327  1.00  0.00    -0.550 OA
ATOM      7  O   UNL     1      61.114  28.086   9.857  1.00  0.00    -0.550 OA
ENDBRANCH   4   5
ENDBRANCH   3   4
ENDBRANCH   2   3
ENDBRANCH   1   2
BRANCH   1   8
ATOM      8  C   UNL     1      62.936  29.918  13.450  1.00  0.00     0.000 C 
BRANCH   8   9
ATOM      9  C   UNL     1      62.495  31.106  12.575  1.00  0.00    -0.000 C 
BRANCH   9  10
ATOM     10  C   UNL     1      61.807  32.253  13.338  1.00  0.00    -0.000 C 
BRANCH  10  11
ATOM     11  C   UNL     1      60.299  32.339  13.058  1.00  0.00    -0.000 C 
BRANCH  11  12
ATOM     12  C   UNL     1      59.488  31.926  14.292  1.00  0.00    -0.003 C 
ATOM     13  C   UNL     1      60.374  31.836  15.531  1.00  0.00     0.004 C 
ENDBRANCH  11  12
ENDBRANCH  10  11
ENDBRANCH   9  10
ENDBRANCH   8   9
ENDBRANCH   1   8
TORSDOF 9
ENDMDL
MODEL 2
REMARK VINA RESULT:    -4.164     13.283     14.470
REMARK INTER + INTRA:          -7.638
REMARK INTER:                  -6.399
REMARK INTRA:                  -1.239
REMARK UNBOUND:                -1.283
REMARK SMILES CCCCCCCCCCC(=O)[O-]
REMARK SMILES IDX 7 1 8 2 9 3 10 4 11 5 12 6 13 7 6 8 5 9 4 10 3 11 2 12 1 13
REMARK H PARENT
REMARK Flexibility Score: inf
ROOT
ATOM      1  C   UNL     1      61.808  29.376  25.215  1.00  0.00     0.000 C 
ENDROOT
BRANCH   1   2
ATOM      2  C   UNL     1      61.167  28.079  24.697  1.00  0.00     0.000 C 
BRANCH   2   3
ATOM      3  C   UNL     1      60.526  27.249  25.823  1.00  0.00     0.006 C 
BRANCH   3   4
ATOM      4  C   UNL     1      61.484  27.035  27.002  1.00  0.00     0.053 C 
BRANCH   4   5
ATOM      5  C   UNL     1      60.910  27.551  28.286  1.00  0.00     0.041 C 
ATOM      6  O   UNL     1      60.209  26.799  29.014  1.00  0.00    -0.550 OA
ATOM      7  O   UNL     1      61.120  28.871  28.662  1.00  0.00    -0.550 OA
ENDBRANCH   4   5
ENDBRANCH   3   4
ENDBRANCH   2   3
ENDBRANCH   1   2
BRANCH   1   8
ATOM      8  C   UNL     1      63.174  29.660  24.567  1.00  0.00     0.000 C 
BRANCH   8   9
ATOM      9  C   UNL     1      64.304  29.822  25.599  1.00  0.00    -0.000 C 
BRANCH   9  10
ATOM     10  C   UNL     1      65.175  28.570  25.808  1.00  0.00    -0.000 C 
BRANCH  10  11
ATOM     11  C   UNL     1      65.149  27.614  24.605  1.00  0.00    -0.000 C 
BRANCH  11  12
ATOM     12  C   UNL     1      64.659  26.222  25.022  1.00  0.00    -0.003 C 
ATOM     13  C   UNL     1      63.782  25.599  23.939  1.00  0.00     0.004 C 
ENDBRANCH  11  12
ENDBRANCH  10  11
ENDBRANCH   9  10
ENDBRANCH   8   9
ENDBRANCH   1   8
TORSDOF 9
ENDMDL
MODEL 3
REMARK VINA RESULT:    -4.153      1.856      2.430
REMARK INTER + INTRA:          -7.621
REMARK INTER:                  -6.492
REMARK INTRA:                  -1.129
REMARK UNBOUND:                -1.283
REMARK SMILES CCCCCCCCCCC(=O)[O-]
REMARK SMILES IDX 7 1 8 2 9 3 10 4 11 5 12 6 13 7 6 8 5 9 4 10 3 11 2 12 1 13
REMARK H PARENT
REMARK Flexibility Score: inf
ROOT
ATOM      1  C   UNL     1      62.651  28.835  10.488  1.00  0.00     0.000 C 
ENDROOT
BRANCH   1   2
ATOM      2  C   UNL     1      61.312  29.367   9.954  1.00  0.00     0.000 C 
BRANCH   2   3
ATOM      3  C   UNL     1      60.129  28.451  10.314  1.00  0.00     0.006 C 
BRANCH   3   4
ATOM      4  C   UNL     1      59.242  29.057  11.410  1.00  0.00     0.053 C 
BRANCH   4   5
ATOM      5  C   UNL     1      59.123  28.147  12.594  1.00  0.00     0.041 C 
ATOM      6  O   UNL     1      58.020  27.603  12.866  1.00  0.00    -0.550 OA
ATOM      7  O   UNL     1      60.220  27.928  13.417  1.00  0.00    -0.550 OA
ENDBRANCH   4   5
ENDBRANCH   3   4
ENDBRANCH   2   3
ENDBRANCH   1   2
BRANCH   1   8
ATOM      8  C   UNL     1      63.060  29.493  11.817  1.00  0.00     0.000 C 
BRANCH   8   9
ATOM      9  C   UNL     1      63.573  30.934  11.638  1.00  0.00    -0.000 C 
BRANCH   9  10
ATOM     10  C   UNL     1      62.821  31.996  12.460  1.00  0.00    -0.000 C 
BRANCH  10  11
ATOM     11  C   UNL     1      61.678  31.406  13.299  1.00  0.00    -0.000 C 
BRANCH  11  12
ATOM     12  C   UNL     1      60.379  32.193  13.088  1.00  0.00    -0.003 C 
ATOM     13  C   UNL     1      59.281  31.709  14.030  1.00  0.00     0.004 C 
ENDBRANCH  11  12
ENDBRANCH  10  11
ENDBRANCH   9  10
ENDBRANCH   8   9
ENDBRANCH   1   8
TORSDOF 9
ENDMDL
MODEL 4
REMARK VINA RESULT:    -4.123      2.620      4.820
REMARK INTER + INTRA:          -7.575
REMARK INTER:                  -6.293
REMARK INTRA:                  -1.281
REMARK UNBOUND:                -1.283
REMARK SMILES CCCCCCCCCCC(=O)[O-]
REMARK SMILES IDX 7 1 8 2 9 3 10 4 11 5 12 6 13 7 6 8 5 9 4 10 3 11 2 12 1 13
REMARK H PARENT
REMARK Flexibility Score: inf
ROOT
ATOM      1  C   UNL     1      61.110  28.714  13.793  1.00  0.00     0.000 C 
ENDROOT
BRANCH   1   2
ATOM      2  C   UNL     1      62.564  28.813  13.308  1.00  0.00     0.000 C 
BRANCH   2   3
ATOM      3  C   UNL     1      63.087  30.261  13.307  1.00  0.00     0.006 C 
BRANCH   3   4
ATOM      4  C   UNL     1      62.293  31.162  12.352  1.00  0.00     0.053 C 
BRANCH   4   5
ATOM      5  C   UNL     1      61.433  32.138  13.095  1.00  0.00     0.041 C 
ATOM      6  O   UNL     1      60.249  32.350  12.721  1.00  0.00    -0.550 OA
ATOM      7  O   UNL     1      61.949  32.838  14.177  1.00  0.00    -0.550 OA
ENDBRANCH   4   5
ENDBRANCH   3   4
ENDBRANCH   2   3
ENDBRANCH   1   2
BRANCH   1   8
ATOM      8  C   UNL     1      60.213  27.936  12.815  1.00  0.00     0.000 C 
BRANCH   8   9
ATOM      9  C   UNL     1      59.283  28.852  11.999  1.00  0.00    -0.000 C 
BRANCH   9  10
ATOM     10  C   UNL     1      59.741  29.119  10.553  1.00  0.00    -0.000 C 
BRANCH  10  11
ATOM     11  C   UNL     1      60.811  28.128  10.071  1.00  0.00    -0.000 C 
BRANCH  11  12
ATOM     12  C   UNL     1      61.773  28.797   9.081  1.00  0.00    -0.003 C 
ATOM     13  C   UNL     1      63.209  28.753   9.593  1.00  0.00     0.004 C 
ENDBRANCH  11  12
ENDBRANCH  10  11
ENDBRANCH   9  10
ENDBRANCH   8   9
ENDBRANCH   1   8
TORSDOF 9
ENDMDL
MODEL 5
REMARK VINA RESULT:    -4.098      2.944      4.451
REMARK INTER + INTRA:          -7.536
REMARK INTER:                  -6.142
REMARK INTRA:                  -1.394
REMARK UNBOUND:                -1.283
REMARK SMILES CCCCCCCCCCC(=O)[O-]
REMARK SMILES IDX 7 1 8 2 9 3 10 4 11 5 12 6 13 7 6 8 5 9 4 10 3 11 2 12 1 13
REMARK H PARENT
REMARK Flexibility Score: inf
ROOT
ATOM      1  C   UNL     1      63.072  29.623  12.956  1.00  0.00     0.000 C 
ENDROOT
BRANCH   1   2
ATOM      2  C   UNL     1      62.272  30.650  13.773  1.00  0.00     0.000 C 
BRANCH   2   3
ATOM      3  C   UNL     1      61.982  31.936  12.978  1.00  0.00     0.006 C 
BRANCH   3   4
ATOM      4  C   UNL     1      60.479  32.233  12.887  1.00  0.00     0.053 C 
BRANCH   4   5
ATOM      5  C   UNL     1      59.866  32.415  14.241  1.00  0.00     0.041 C 
ATOM      6  O   UNL     1      58.913  31.678  14.609  1.00  0.00    -0.550 OA
ATOM      7  O   UNL     1      60.322  33.420  15.083  1.00  0.00    -0.550 OA
ENDBRANCH   4   5
ENDBRANCH   3   4
ENDBRANCH   2   3
ENDBRANCH   1   2
BRANCH   1   8
ATOM      8  C   UNL     1      63.298  30.071  11.502  1.00  0.00     0.000 C 
BRANCH   8   9
ATOM      9  C   UNL     1      62.808  29.035  10.475  1.00  0.00    -0.000 C 
BRANCH   9  10
ATOM     10  C   UNL     1      61.489  28.331  10.842  1.00  0.00    -0.000 C 
BRANCH  10  11
ATOM     11  C   UNL     1      60.255  29.220  10.625  1.00  0.00    -0.000 C 
BRANCH  11  12
ATOM     12  C   UNL     1      59.220  29.003  11.735  1.00  0.00    -0.003 C 
ATOM     13  C   UNL     1      59.713  27.983  12.757  1.00  0.00     0.004 C 
ENDBRANCH  11  12
ENDBRANCH  10  11
ENDBRANCH   9  10
ENDBRANCH   8   9
ENDBRANCH   1   8
TORSDOF 9
ENDMDL
MODEL 6
REMARK VINA RESULT:    -4.093     12.633     14.315
REMARK INTER + INTRA:          -7.530
REMARK INTER:                  -6.097
REMARK INTRA:                  -1.433
REMARK UNBOUND:                -1.283
REMARK SMILES CCCCCCCCCCC(=O)[O-]
REMARK SMILES IDX 7 1 8 2 9 3 10 4 11 5 12 6 13 7 6 8 5 9 4 10 3 11 2 12 1 13
REMARK H PARENT
REMARK Flexibility Score: inf
ROOT
ATOM      1  C   UNL     1      63.041  29.399  24.462  1.00  0.00     0.000 C 
ENDROOT
BRANCH   1   2
ATOM      2  C   UNL     1      61.744  29.474  25.281  1.00  0.00     0.000 C 
BRANCH   2   3
ATOM      3  C   UNL     1      61.115  28.089  25.516  1.00  0.00     0.006 C 
BRANCH   3   4
ATOM      4  C   UNL     1      61.641  27.424  26.795  1.00  0.00     0.053 C 
BRANCH   4   5
ATOM      5  C   UNL     1      61.671  28.381  27.947  1.00  0.00     0.041 C 
ATOM      6  O   UNL     1      62.770  28.719  28.460  1.00  0.00    -0.550 OA
ATOM      7  O   UNL     1      60.484  28.871  28.476  1.00  0.00    -0.550 OA
ENDBRANCH   4   5
ENDBRANCH   3   4
ENDBRANCH   2   3
ENDBRANCH   1   2
BRANCH   1   8
ATOM      8  C   UNL     1      64.288  29.733  25.298  1.00  0.00     0.000 C 
BRANCH   8   9
ATOM      9  C   UNL     1      65.083  28.481  25.712  1.00  0.00    -0.000 C 
BRANCH   9  10
ATOM     10  C   UNL     1      65.244  27.421  24.607  1.00  0.00    -0.000 C 
BRANCH  10  11
ATOM     11  C   UNL     1      64.710  26.041  25.020  1.00  0.00    -0.000 C 
BRANCH  11  12
ATOM     12  C   UNL     1      63.567  25.598  24.100  1.00  0.00    -0.003 C 
ATOM     13  C   UNL     1      63.694  26.230  22.717  1.00  0.00     0.004 C 
ENDBRANCH  11  12
ENDBRANCH  10  11
ENDBRANCH   9  10
ENDBRANCH   8   9
ENDBRANCH   1   8
TORSDOF 9
ENDMDL
MODEL 7
REMARK VINA RESULT:    -4.053     12.947     14.762
REMARK INTER + INTRA:          -7.468
REMARK INTER:                  -6.541
REMARK INTRA:                  -0.927
REMARK UNBOUND:                -1.283
REMARK SMILES CCCCCCCCCCC(=O)[O-]
REMARK SMILES IDX 7 1 8 2 9 3 10 4 11 5 12 6 13 7 6 8 5 9 4 10 3 11 2 12 1 13
REMARK H PARENT
REMARK Flexibility Score: inf
ROOT
ATOM      1  C   UNL     1      61.536  29.247  25.110  1.00  0.00     0.000 C 
ENDROOT
BRANCH   1   2
ATOM      2  C   UNL     1      62.636  29.985  25.888  1.00  0.00     0.000 C 
BRANCH   2   3
ATOM      3  C   UNL     1      62.342  30.057  27.398  1.00  0.00     0.006 C 
BRANCH   3   4
ATOM      4  C   UNL     1      62.586  28.714  28.098  1.00  0.00     0.053 C 
BRANCH   4   5
ATOM      5  C   UNL     1      61.308  28.094  28.573  1.00  0.00     0.041 C 
ATOM      6  O   UNL     1      60.420  28.807  29.111  1.00  0.00    -0.550 OA
ATOM      7  O   UNL     1      61.112  26.725  28.453  1.00  0.00    -0.550 OA
ENDBRANCH   4   5
ENDBRANCH   3   4
ENDBRANCH   2   3
ENDBRANCH   1   2
BRANCH   1   8
ATOM      8  C   UNL     1      62.088  28.086  24.266  1.00  0.00     0.000 C 
BRANCH   8   9
ATOM      9  C   UNL     1      62.109  26.749  25.029  1.00  0.00    -0.000 C 
BRANCH   9  10
ATOM     10  C   UNL     1      63.481  26.351  25.602  1.00  0.00    -0.000 C 
BRANCH  10  11
ATOM     11  C   UNL     1      64.651  26.770  24.700  1.00  0.00    -0.000 C 
BRANCH  11  12
ATOM     12  C   UNL     1      64.984  25.671  23.685  1.00  0.00    -0.003 C 
ATOM     13  C   UNL     1      65.837  26.214  22.542  1.00  0.00     0.004 C 
ENDBRANCH  11  12
ENDBRANCH  10  11
ENDBRANCH   9  10
ENDBRANCH   8   9
ENDBRANCH   1   8
TORSDOF 9
ENDMDL
MODEL 8
REMARK VINA RESULT:    -4.050     12.689     14.388
REMARK INTER + INTRA:          -7.464
REMARK INTER:                  -6.318
REMARK INTRA:                  -1.146
REMARK UNBOUND:                -1.283
REMARK SMILES CCCCCCCCCCC(=O)[O-]
REMARK SMILES IDX 7 1 8 2 9 3 10 4 11 5 12 6 13 7 6 8 5 9 4 10 3 11 2 12 1 13
REMARK H PARENT
REMARK Flexibility Score: inf
ROOT
ATOM      1  C   UNL     1      61.548  28.080  24.242  1.00  0.00     0.000 C 
ENDROOT
BRANCH   1   2
ATOM      2  C   UNL     1      61.761  29.405  24.990  1.00  0.00     0.000 C 
BRANCH   2   3
ATOM      3  C   UNL     1      62.057  29.196  26.485  1.00  0.00     0.006 C 
BRANCH   3   4
ATOM      4  C   UNL     1      61.813  27.747  26.927  1.00  0.00     0.053 C 
BRANCH   4   5
ATOM      5  C   UNL     1      61.267  27.675  28.319  1.00  0.00     0.041 C 
ATOM      6  O   UNL     1      61.486  26.661  29.034  1.00  0.00    -0.550 OA
ATOM      7  O   UNL     1      60.487  28.711  28.817  1.00  0.00    -0.550 OA
ENDBRANCH   4   5
ENDBRANCH   3   4
ENDBRANCH   2   3
ENDBRANCH   1   2
BRANCH   1   8
ATOM      8  C   UNL     1      62.601  27.844  23.146  1.00  0.00     0.000 C 
BRANCH   8   9
ATOM      9  C   UNL     1      63.471  26.601  23.409  1.00  0.00    -0.000 C 
BRANCH   9  10
ATOM     10  C   UNL     1      64.944  26.899  23.743  1.00  0.00    -0.000 C 
BRANCH  10  11
ATOM     11  C   UNL     1      65.141  27.411  25.178  1.00  0.00    -0.000 C 
BRANCH  11  12
ATOM     12  C   UNL     1      65.975  28.697  25.192  1.00  0.00    -0.003 C 
ATOM     13  C   UNL     1      65.727  29.501  26.465  1.00  0.00     0.004 C 
ENDBRANCH  11  12
ENDBRANCH  10  11
ENDBRANCH   9  10
ENDBRANCH   8   9
ENDBRANCH   1   8
TORSDOF 9
ENDMDL
MODEL 9
REMARK VINA RESULT:    -4.002      1.315      2.540
REMARK INTER + INTRA:          -7.390
REMARK INTER:                  -6.302
REMARK INTRA:                  -1.088
REMARK UNBOUND:                -1.283
REMARK SMILES CCCCCCCCCCC(=O)[O-]
REMARK SMILES IDX 7 1 8 2 9 3 10 4 11 5 12 6 13 7 6 8 5 9 4 10 3 11 2 12 1 13
REMARK H PARENT
REMARK Flexibility Score: inf
ROOT
ATOM      1  C   UNL     1      61.386  28.963  13.748  1.00  0.00     0.000 C 
ENDROOT
BRANCH   1   2
ATOM      2  C   UNL     1      60.065  28.277  13.366  1.00  0.00     0.000 C 
BRANCH   2   3
ATOM      3  C   UNL     1      59.842  28.236  11.844  1.00  0.00     0.006 C 
BRANCH   3   4
ATOM      4  C   UNL     1      60.801  29.169  11.093  1.00  0.00     0.053 C 
BRANCH   4   5
ATOM      5  C   UNL     1      61.540  28.450  10.007  1.00  0.00     0.041 C 
ATOM      6  O   UNL     1      62.792  28.555   9.916  1.00  0.00    -0.550 OA
ATOM      7  O   UNL     1      60.844  27.692   9.074  1.00  0.00    -0.550 OA
ENDBRANCH   4   5
ENDBRANCH   3   4
ENDBRANCH   2   3
ENDBRANCH   1   2
BRANCH   1   8
ATOM      8  C   UNL     1      61.197  30.056  14.814  1.00  0.00     0.000 C 
BRANCH   8   9
ATOM      9  C   UNL     1      60.424  31.278  14.288  1.00  0.00    -0.000 C 
BRANCH   9  10
ATOM     10  C   UNL     1      61.232  32.208  13.364  1.00  0.00    -0.000 C 
BRANCH  10  11
ATOM     11  C   UNL     1      62.488  32.778  14.039  1.00  0.00    -0.000 C 
BRANCH  11  12
ATOM     12  C   UNL     1      63.724  32.585  13.152  1.00  0.00    -0.003 C 
ATOM     13  C   UNL     1      63.425  31.645  11.987  1.00  0.00     0.004 C 
ENDBRANCH  11  12
ENDBRANCH  10  11
ENDBRANCH   9  10
ENDBRANCH   8   9
ENDBRANCH   1   8
TORSDOF 9
ENDMDL
