MODEL 1
REMARK VINA RESULT:    -7.027      0.000      0.000
REMARK INTER + INTRA:         -11.159
REMARK INTER:                 -10.107
REMARK INTRA:                  -1.052
REMARK UNBOUND:                -1.052
REMARK SMILES O=c1cc(-c2ccc(O)c(O)c2)oc2cc(O[C@@H]3O[C@@H](CO)[C@@H](O)[C@H](O)[C@H]3O)cc(O)c12
REMARK SMILES IDX 17 1 16 2 4 3 3 4 13 5 2 6 14 7 1 8 32 9 15 10 30 11 29 12
REMARK SMILES IDX 5 13 6 14 7 15 8 16 12 17 10 18 9 19 11 21 31 23 18 25 27 26
REMARK SMILES IDX 19 27 25 28 20 29 23 30 28 31 26 33 21 35 22 36 24 38
REMARK H PARENT 9 20 11 22 31 24 28 32 26 34 22 37 24 39
REMARK Flexibility Score: inf
ROOT
ATOM      1  O   UNL     1     -31.545 -58.856  60.569  1.00  0.00    -0.462 OA
ENDROOT
BRANCH   1   2
ATOM      2  C   UNL     1     -31.638 -58.312  59.277  1.00  0.00     0.130 A 
ATOM      3  C   UNL     1     -29.938 -55.567  55.760  1.00  0.00     0.138 A 
ATOM      4  C   UNL     1     -31.024 -55.863  54.921  1.00  0.00     0.100 A 
ATOM      5  O   UNL     1     -29.886 -56.103  56.978  1.00  0.00    -0.456 OA
ATOM      6  C   UNL     1     -32.026 -56.723  55.372  1.00  0.00     0.197 A 
ATOM      7  C   UNL     1     -30.815 -56.927  57.453  1.00  0.00     0.146 A 
ATOM      8  O   UNL     1     -32.998 -56.982  54.613  1.00  0.00    -0.289 OA
ATOM      9  C   UNL     1     -31.934 -57.280  56.665  1.00  0.00     0.107 A 
ATOM     10  C   UNL     1     -30.671 -57.441  58.745  1.00  0.00     0.094 A 
ATOM     11  C   UNL     1     -32.901 -58.161  57.198  1.00  0.00     0.134 A 
ATOM     12  C   UNL     1     -32.740 -58.667  58.495  1.00  0.00     0.093 A 
BRANCH   3  13
ATOM     13  C   UNL     1     -28.844 -54.658  55.334  1.00  0.00     0.021 A 
ATOM     14  C   UNL     1     -28.811 -54.189  54.009  1.00  0.00     0.016 A 
ATOM     15  C   UNL     1     -27.796 -53.327  53.585  1.00  0.00     0.051 A 
ATOM     16  C   UNL     1     -26.803 -52.911  54.480  1.00  0.00     0.157 A 
ATOM     17  C   UNL     1     -27.848 -54.224  56.232  1.00  0.00     0.062 A 
ATOM     18  C   UNL     1     -26.831 -53.358  55.806  1.00  0.00     0.158 A 
BRANCH  16  19
ATOM     19  O   UNL     1     -25.789 -52.053  54.060  1.00  0.00    -0.504 OA
ATOM     20  H   UNL     1     -24.817 -52.340  54.060  1.00  0.00     0.293 HD
ENDBRANCH  16  19
BRANCH  18  21
ATOM     21  O   UNL     1     -25.847 -52.933  56.697  1.00  0.00    -0.504 OA
ATOM     22  H   UNL     1     -24.923 -52.663  56.377  1.00  0.00     0.293 HD
ENDBRANCH  18  21
ENDBRANCH   3  13
BRANCH  11  23
ATOM     23  O   UNL     1     -34.019 -58.537  56.451  1.00  0.00    -0.507 OA
ATOM     24  H   UNL     1     -34.707 -57.860  56.142  1.00  0.00     0.293 HD
ENDBRANCH  11  23
ENDBRANCH   1   2
BRANCH   1  25
ATOM     25  C   UNL     1     -31.397 -60.245  60.891  1.00  0.00     0.339 C 
ATOM     26  C   UNL     1     -29.918 -60.691  60.838  1.00  0.00     0.214 C 
ATOM     27  O   UNL     1     -31.970 -60.521  62.161  1.00  0.00    -0.332 OA
ATOM     28  C   UNL     1     -29.112 -60.065  61.998  1.00  0.00     0.180 C 
ATOM     29  C   UNL     1     -31.315 -59.803  63.196  1.00  0.00     0.179 C 
ATOM     30  C   UNL     1     -29.847 -60.262  63.336  1.00  0.00     0.177 C 
BRANCH  26  31
ATOM     31  O   UNL     1     -29.862 -62.093  60.911  1.00  0.00    -0.384 OA
ATOM     32  H   UNL     1     -29.786 -62.428  59.980  1.00  0.00     0.211 HD
ENDBRANCH  26  31
BRANCH  28  33
ATOM     33  O   UNL     1     -28.921 -58.691  61.771  1.00  0.00    -0.387 OA
ATOM     34  H   UNL     1     -29.678 -58.219  62.206  1.00  0.00     0.211 HD
ENDBRANCH  28  33
BRANCH  29  35
ATOM     35  C   UNL     1     -32.083 -60.008  64.506  1.00  0.00     0.191 C 
BRANCH  35  36
ATOM     36  O   UNL     1     -32.323 -61.375  64.702  1.00  0.00    -0.394 OA
ATOM     37  H   UNL     1     -32.795 -61.450  65.571  1.00  0.00     0.210 HD
ENDBRANCH  35  36
ENDBRANCH  29  35
BRANCH  30  38
ATOM     38  O   UNL     1     -29.803 -61.615  63.718  1.00  0.00    -0.387 OA
ATOM     39  H   UNL     1     -29.966 -62.151  62.898  1.00  0.00     0.211 HD
ENDBRANCH  30  38
ENDBRANCH   1  25
TORSDOF 11
ENDMDL
MODEL 2
REMARK VINA RESULT:    -6.446      1.989      8.826
REMARK INTER + INTRA:         -10.325
REMARK INTER:                  -9.365
REMARK INTRA:                  -0.959
REMARK UNBOUND:                -1.052
REMARK SMILES O=c1cc(-c2ccc(O)c(O)c2)oc2cc(O[C@@H]3O[C@@H](CO)[C@@H](O)[C@H](O)[C@H]3O)cc(O)c12
REMARK SMILES IDX 17 1 16 2 4 3 3 4 13 5 2 6 14 7 1 8 32 9 15 10 30 11 29 12
REMARK SMILES IDX 5 13 6 14 7 15 8 16 12 17 10 18 9 19 11 21 31 23 18 25 27 26
REMARK SMILES IDX 19 27 25 28 20 29 23 30 28 31 26 33 21 35 22 36 24 38
REMARK H PARENT 9 20 11 22 31 24 28 32 26 34 22 37 24 39
REMARK Flexibility Score: inf
ROOT
ATOM      1  O   UNL     1     -30.021 -56.257  54.820  1.00  0.00    -0.462 OA
ENDROOT
BRANCH   1   2
ATOM      2  C   UNL     1     -30.753 -56.479  55.999  1.00  0.00     0.130 A 
ATOM      3  C   UNL     1     -31.457 -58.797  60.113  1.00  0.00     0.138 A 
ATOM      4  C   UNL     1     -32.613 -58.055  60.404  1.00  0.00     0.100 A 
ATOM      5  O   UNL     1     -30.791 -58.556  58.985  1.00  0.00    -0.456 OA
ATOM      6  C   UNL     1     -33.039 -57.070  59.512  1.00  0.00     0.197 A 
ATOM      7  C   UNL     1     -31.157 -57.629  58.105  1.00  0.00     0.146 A 
ATOM      8  O   UNL     1     -34.079 -56.410  59.781  1.00  0.00    -0.289 OA
ATOM      9  C   UNL     1     -32.304 -56.835  58.332  1.00  0.00     0.107 A 
ATOM     10  C   UNL     1     -30.391 -57.449  56.950  1.00  0.00     0.094 A 
ATOM     11  C   UNL     1     -32.663 -55.856  57.379  1.00  0.00     0.134 A 
ATOM     12  C   UNL     1     -31.883 -55.689  56.226  1.00  0.00     0.093 A 
BRANCH   3  13
ATOM     13  C   UNL     1     -30.958 -59.858  61.023  1.00  0.00     0.021 A 
ATOM     14  C   UNL     1     -29.764 -60.532  60.709  1.00  0.00     0.016 A 
ATOM     15  C   UNL     1     -29.269 -61.530  61.553  1.00  0.00     0.051 A 
ATOM     16  C   UNL     1     -29.952 -61.865  62.728  1.00  0.00     0.157 A 
ATOM     17  C   UNL     1     -31.632 -60.192  62.214  1.00  0.00     0.062 A 
ATOM     18  C   UNL     1     -31.134 -61.193  63.060  1.00  0.00     0.158 A 
BRANCH  16  19
ATOM     19  O   UNL     1     -29.462 -62.862  63.570  1.00  0.00    -0.504 OA
ATOM     20  H   UNL     1     -28.574 -62.763  64.048  1.00  0.00     0.293 HD
ENDBRANCH  16  19
BRANCH  18  21
ATOM     21  O   UNL     1     -31.805 -61.521  64.237  1.00  0.00    -0.504 OA
ATOM     22  H   UNL     1     -31.307 -61.674  65.107  1.00  0.00     0.293 HD
ENDBRANCH  18  21
ENDBRANCH   3  13
BRANCH  11  23
ATOM     23  O   UNL     1     -33.786 -55.049  57.567  1.00  0.00    -0.507 OA
ATOM     24  H   UNL     1     -34.727 -55.404  57.435  1.00  0.00     0.293 HD
ENDBRANCH  11  23
ENDBRANCH   1   2
BRANCH   1  25
ATOM     25  C   UNL     1     -28.602 -56.394  54.669  1.00  0.00     0.339 C 
ATOM     26  C   UNL     1     -28.145 -56.061  53.230  1.00  0.00     0.214 C 
ATOM     27  O   UNL     1     -27.924 -55.587  55.622  1.00  0.00    -0.332 OA
ATOM     28  C   UNL     1     -28.295 -54.551  52.940  1.00  0.00     0.180 C 
ATOM     29  C   UNL     1     -28.211 -54.209  55.437  1.00  0.00     0.179 C 
ATOM     30  C   UNL     1     -27.674 -53.717  54.076  1.00  0.00     0.177 C 
BRANCH  26  31
ATOM     31  O   UNL     1     -26.804 -56.451  53.078  1.00  0.00    -0.384 OA
ATOM     32  H   UNL     1     -26.654 -57.218  53.691  1.00  0.00     0.211 HD
ENDBRANCH  26  31
BRANCH  28  33
ATOM     33  O   UNL     1     -29.653 -54.215  52.807  1.00  0.00    -0.387 OA
ATOM     34  H   UNL     1     -30.172 -55.049  52.949  1.00  0.00     0.211 HD
ENDBRANCH  28  33
BRANCH  29  35
ATOM     35  C   UNL     1     -27.593 -53.413  56.592  1.00  0.00     0.191 C 
BRANCH  35  36
ATOM     36  O   UNL     1     -26.350 -53.964  56.931  1.00  0.00    -0.394 OA
ATOM     37  H   UNL     1     -26.490 -54.458  57.780  1.00  0.00     0.210 HD
ENDBRANCH  35  36
ENDBRANCH  29  35
BRANCH  30  38
ATOM     38  O   UNL     1     -26.272 -53.827  54.045  1.00  0.00    -0.387 OA
ATOM     39  H   UNL     1     -25.983 -53.559  53.134  1.00  0.00     0.211 HD
ENDBRANCH  30  38
ENDBRANCH   1  25
TORSDOF 11
ENDMDL
MODEL 3
REMARK VINA RESULT:    -6.255      5.666      9.571
REMARK INTER + INTRA:         -10.050
REMARK INTER:                  -9.484
REMARK INTRA:                  -0.566
REMARK UNBOUND:                -1.052
REMARK SMILES O=c1cc(-c2ccc(O)c(O)c2)oc2cc(O[C@@H]3O[C@@H](CO)[C@@H](O)[C@H](O)[C@H]3O)cc(O)c12
REMARK SMILES IDX 17 1 16 2 4 3 3 4 13 5 2 6 14 7 1 8 32 9 15 10 30 11 29 12
REMARK SMILES IDX 5 13 6 14 7 15 8 16 12 17 10 18 9 19 11 21 31 23 18 25 27 26
REMARK SMILES IDX 19 27 25 28 20 29 23 30 28 31 26 33 21 35 22 36 24 38
REMARK H PARENT 9 20 11 22 31 24 28 32 26 34 22 37 24 39
REMARK Flexibility Score: inf
ROOT
ATOM      1  O   UNL     1     -33.918 -59.604  62.719  1.00  0.00    -0.462 OA
ENDROOT
BRANCH   1   2
ATOM      2  C   UNL     1     -33.752 -59.161  64.042  1.00  0.00     0.130 A 
ATOM      3  C   UNL     1     -32.887 -55.703  67.220  1.00  0.00     0.138 A 
ATOM      4  C   UNL     1     -32.984 -56.591  68.303  1.00  0.00     0.100 A 
ATOM      5  O   UNL     1     -33.051 -56.163  65.981  1.00  0.00    -0.456 OA
ATOM      6  C   UNL     1     -33.262 -57.937  68.065  1.00  0.00     0.197 A 
ATOM      7  C   UNL     1     -33.316 -57.435  65.703  1.00  0.00     0.146 A 
ATOM      8  O   UNL     1     -33.346 -58.727  69.044  1.00  0.00    -0.289 OA
ATOM      9  C   UNL     1     -33.439 -58.388  66.741  1.00  0.00     0.107 A 
ATOM     10  C   UNL     1     -33.474 -57.822  64.369  1.00  0.00     0.094 A 
ATOM     11  C   UNL     1     -33.726 -59.731  66.412  1.00  0.00     0.134 A 
ATOM     12  C   UNL     1     -33.880 -60.100  65.068  1.00  0.00     0.093 A 
BRANCH   3  13
ATOM     13  C   UNL     1     -32.592 -54.261  67.412  1.00  0.00     0.021 A 
ATOM     14  C   UNL     1     -32.706 -53.381  66.321  1.00  0.00     0.016 A 
ATOM     15  C   UNL     1     -32.441 -52.018  66.477  1.00  0.00     0.051 A 
ATOM     16  C   UNL     1     -32.067 -51.510  67.727  1.00  0.00     0.157 A 
ATOM     17  C   UNL     1     -32.228 -53.740  68.669  1.00  0.00     0.062 A 
ATOM     18  C   UNL     1     -31.964 -52.372  68.825  1.00  0.00     0.158 A 
BRANCH  16  19
ATOM     19  O   UNL     1     -31.800 -50.151  67.885  1.00  0.00    -0.504 OA
ATOM     20  H   UNL     1     -30.869 -49.815  68.102  1.00  0.00     0.293 HD
ENDBRANCH  16  19
BRANCH  18  21
ATOM     21  O   UNL     1     -31.602 -51.860  70.070  1.00  0.00    -0.504 OA
ATOM     22  H   UNL     1     -31.018 -51.036  70.155  1.00  0.00     0.293 HD
ENDBRANCH  18  21
ENDBRANCH   3  13
BRANCH  11  23
ATOM     23  O   UNL     1     -33.858 -60.701  67.407  1.00  0.00    -0.507 OA
ATOM     24  H   UNL     1     -33.580 -60.524  68.366  1.00  0.00     0.293 HD
ENDBRANCH  11  23
ENDBRANCH   1   2
BRANCH   1  25
ATOM     25  C   UNL     1     -33.439 -60.842  62.178  1.00  0.00     0.339 C 
ATOM     26  C   UNL     1     -33.295 -60.777  60.640  1.00  0.00     0.214 C 
ATOM     27  O   UNL     1     -32.210 -61.207  62.792  1.00  0.00    -0.332 OA
ATOM     28  C   UNL     1     -32.132 -59.845  60.234  1.00  0.00     0.180 C 
ATOM     29  C   UNL     1     -31.196 -60.246  62.541  1.00  0.00     0.179 C 
ATOM     30  C   UNL     1     -30.861 -60.184  61.035  1.00  0.00     0.177 C 
BRANCH  26  31
ATOM     31  O   UNL     1     -33.070 -62.074  60.149  1.00  0.00    -0.384 OA
ATOM     32  H   UNL     1     -33.859 -62.620  60.402  1.00  0.00     0.211 HD
ENDBRANCH  26  31
BRANCH  28  33
ATOM     33  O   UNL     1     -32.481 -58.503  60.465  1.00  0.00    -0.387 OA
ATOM     34  H   UNL     1     -33.472 -58.453  60.431  1.00  0.00     0.211 HD
ENDBRANCH  28  33
BRANCH  29  35
ATOM     35  C   UNL     1     -29.955 -60.605  63.366  1.00  0.00     0.191 C 
BRANCH  35  36
ATOM     36  O   UNL     1     -29.909 -61.991  63.566  1.00  0.00    -0.394 OA
ATOM     37  H   UNL     1     -29.158 -62.154  64.193  1.00  0.00     0.210 HD
ENDBRANCH  35  36
ENDBRANCH  29  35
BRANCH  30  38
ATOM     38  O   UNL     1     -30.338 -61.419  60.609  1.00  0.00    -0.387 OA
ATOM     39  H   UNL     1     -29.891 -61.828  61.396  1.00  0.00     0.211 HD
ENDBRANCH  30  38
ENDBRANCH   1  25
TORSDOF 11
ENDMDL
MODEL 4
REMARK VINA RESULT:    -6.248      6.285      9.794
REMARK INTER + INTRA:         -10.039
REMARK INTER:                  -9.024
REMARK INTRA:                  -1.015
REMARK UNBOUND:                -1.052
REMARK SMILES O=c1cc(-c2ccc(O)c(O)c2)oc2cc(O[C@@H]3O[C@@H](CO)[C@@H](O)[C@H](O)[C@H]3O)cc(O)c12
REMARK SMILES IDX 17 1 16 2 4 3 3 4 13 5 2 6 14 7 1 8 32 9 15 10 30 11 29 12
REMARK SMILES IDX 5 13 6 14 7 15 8 16 12 17 10 18 9 19 11 21 31 23 18 25 27 26
REMARK SMILES IDX 19 27 25 28 20 29 23 30 28 31 26 33 21 35 22 36 24 38
REMARK H PARENT 9 20 11 22 31 24 28 32 26 34 22 37 24 39
REMARK Flexibility Score: inf
ROOT
ATOM      1  O   UNL     1     -32.596 -59.879  63.255  1.00  0.00    -0.462 OA
ENDROOT
BRANCH   1   2
ATOM      2  C   UNL     1     -32.847 -59.309  64.515  1.00  0.00     0.130 A 
ATOM      3  C   UNL     1     -32.888 -55.571  67.484  1.00  0.00     0.138 A 
ATOM      4  C   UNL     1     -33.379 -56.344  68.549  1.00  0.00     0.100 A 
ATOM      5  O   UNL     1     -32.662 -56.148  66.305  1.00  0.00    -0.456 OA
ATOM      6  C   UNL     1     -33.633 -57.701  68.351  1.00  0.00     0.197 A 
ATOM      7  C   UNL     1     -32.888 -57.436  66.068  1.00  0.00     0.146 A 
ATOM      8  O   UNL     1     -34.072 -58.387  69.313  1.00  0.00    -0.289 OA
ATOM      9  C   UNL     1     -33.391 -58.278  67.087  1.00  0.00     0.107 A 
ATOM     10  C   UNL     1     -32.622 -57.950  64.796  1.00  0.00     0.094 A 
ATOM     11  C   UNL     1     -33.624 -59.641  66.801  1.00  0.00     0.134 A 
ATOM     12  C   UNL     1     -33.351 -60.139  65.519  1.00  0.00     0.093 A 
BRANCH   3  13
ATOM     13  C   UNL     1     -32.598 -54.122  67.635  1.00  0.00     0.021 A 
ATOM     14  C   UNL     1     -32.759 -53.266  66.532  1.00  0.00     0.016 A 
ATOM     15  C   UNL     1     -32.499 -51.898  66.650  1.00  0.00     0.051 A 
ATOM     16  C   UNL     1     -32.084 -51.362  67.874  1.00  0.00     0.157 A 
ATOM     17  C   UNL     1     -32.193 -53.572  68.868  1.00  0.00     0.062 A 
ATOM     18  C   UNL     1     -31.933 -52.199  68.985  1.00  0.00     0.158 A 
BRANCH  16  19
ATOM     19  O   UNL     1     -31.822 -49.998  67.995  1.00  0.00    -0.504 OA
ATOM     20  H   UNL     1     -32.403 -49.304  67.540  1.00  0.00     0.293 HD
ENDBRANCH  16  19
BRANCH  18  21
ATOM     21  O   UNL     1     -31.530 -51.659  70.205  1.00  0.00    -0.504 OA
ATOM     22  H   UNL     1     -31.614 -52.181  71.070  1.00  0.00     0.293 HD
ENDBRANCH  18  21
ENDBRANCH   3  13
BRANCH  11  23
ATOM     23  O   UNL     1     -34.123 -60.505  67.778  1.00  0.00    -0.507 OA
ATOM     24  H   UNL     1     -33.510 -61.074  68.350  1.00  0.00     0.293 HD
ENDBRANCH  11  23
ENDBRANCH   1   2
BRANCH   1  25
ATOM     25  C   UNL     1     -31.556 -59.493  62.347  1.00  0.00     0.339 C 
ATOM     26  C   UNL     1     -30.156 -59.872  62.884  1.00  0.00     0.214 C 
ATOM     27  O   UNL     1     -31.784 -60.062  61.065  1.00  0.00    -0.332 OA
ATOM     28  C   UNL     1     -29.959 -61.404  62.874  1.00  0.00     0.180 C 
ATOM     29  C   UNL     1     -31.762 -61.480  61.112  1.00  0.00     0.179 C 
ATOM     30  C   UNL     1     -30.360 -61.992  61.508  1.00  0.00     0.177 C 
BRANCH  26  31
ATOM     31  O   UNL     1     -29.181 -59.252  62.086  1.00  0.00    -0.384 OA
ATOM     32  H   UNL     1     -29.564 -58.391  61.776  1.00  0.00     0.211 HD
ENDBRANCH  26  31
BRANCH  28  33
ATOM     33  O   UNL     1     -30.734 -62.001  63.882  1.00  0.00    -0.387 OA
ATOM     34  H   UNL     1     -31.674 -61.722  63.726  1.00  0.00     0.211 HD
ENDBRANCH  28  33
BRANCH  29  35
ATOM     35  C   UNL     1     -32.182 -62.030  59.745  1.00  0.00     0.191 C 
BRANCH  35  36
ATOM     36  O   UNL     1     -31.897 -63.400  59.681  1.00  0.00    -0.394 OA
ATOM     37  H   UNL     1     -32.688 -63.827  59.261  1.00  0.00     0.210 HD
ENDBRANCH  35  36
ENDBRANCH  29  35
BRANCH  30  38
ATOM     38  O   UNL     1     -29.420 -61.624  60.529  1.00  0.00    -0.387 OA
ATOM     39  H   UNL     1     -28.828 -62.408  60.389  1.00  0.00     0.211 HD
ENDBRANCH  30  38
ENDBRANCH   1  25
TORSDOF 11
ENDMDL
MODEL 5
REMARK VINA RESULT:    -6.216      1.174      2.067
REMARK INTER + INTRA:          -9.994
REMARK INTER:                  -8.966
REMARK INTRA:                  -1.028
REMARK UNBOUND:                -1.052
REMARK SMILES O=c1cc(-c2ccc(O)c(O)c2)oc2cc(O[C@@H]3O[C@@H](CO)[C@@H](O)[C@H](O)[C@H]3O)cc(O)c12
REMARK SMILES IDX 17 1 16 2 4 3 3 4 13 5 2 6 14 7 1 8 32 9 15 10 30 11 29 12
REMARK SMILES IDX 5 13 6 14 7 15 8 16 12 17 10 18 9 19 11 21 31 23 18 25 27 26
REMARK SMILES IDX 19 27 25 28 20 29 23 30 28 31 26 33 21 35 22 36 24 38
REMARK H PARENT 9 20 11 22 31 24 28 32 26 34 22 37 24 39
REMARK Flexibility Score: inf
ROOT
ATOM      1  O   UNL     1     -31.203 -59.207  59.543  1.00  0.00    -0.462 OA
ENDROOT
BRANCH   1   2
ATOM      2  C   UNL     1     -31.335 -58.505  58.333  1.00  0.00     0.130 A 
ATOM      3  C   UNL     1     -29.742 -55.334  55.140  1.00  0.00     0.138 A 
ATOM      4  C   UNL     1     -30.854 -55.525  54.303  1.00  0.00     0.100 A 
ATOM      5  O   UNL     1     -29.654 -56.018  56.278  1.00  0.00    -0.456 OA
ATOM      6  C   UNL     1     -31.841 -56.439  54.673  1.00  0.00     0.197 A 
ATOM      7  C   UNL     1     -30.568 -56.898  56.674  1.00  0.00     0.146 A 
ATOM      8  O   UNL     1     -32.836 -56.604  53.917  1.00  0.00    -0.289 OA
ATOM      9  C   UNL     1     -31.711 -57.154  55.882  1.00  0.00     0.107 A 
ATOM     10  C   UNL     1     -30.385 -57.570  57.886  1.00  0.00     0.094 A 
ATOM     11  C   UNL     1     -32.661 -58.098  56.329  1.00  0.00     0.134 A 
ATOM     12  C   UNL     1     -32.461 -58.762  57.547  1.00  0.00     0.093 A 
BRANCH   3  13
ATOM     13  C   UNL     1     -28.661 -54.374  54.799  1.00  0.00     0.021 A 
ATOM     14  C   UNL     1     -28.559 -53.887  53.484  1.00  0.00     0.016 A 
ATOM     15  C   UNL     1     -27.555 -52.979  53.139  1.00  0.00     0.051 A 
ATOM     16  C   UNL     1     -26.643 -52.534  54.104  1.00  0.00     0.157 A 
ATOM     17  C   UNL     1     -27.748 -53.912  55.767  1.00  0.00     0.062 A 
ATOM     18  C   UNL     1     -26.742 -52.998  55.420  1.00  0.00     0.158 A 
BRANCH  16  19
ATOM     19  O   UNL     1     -25.640 -51.628  53.762  1.00  0.00    -0.504 OA
ATOM     20  H   UNL     1     -25.514 -50.760  54.268  1.00  0.00     0.293 HD
ENDBRANCH  16  19
BRANCH  18  21
ATOM     21  O   UNL     1     -25.839 -52.544  56.380  1.00  0.00    -0.504 OA
ATOM     22  H   UNL     1     -26.147 -52.246  57.299  1.00  0.00     0.293 HD
ENDBRANCH  18  21
ENDBRANCH   3  13
BRANCH  11  23
ATOM     23  O   UNL     1     -33.801 -58.381  55.575  1.00  0.00    -0.507 OA
ATOM     24  H   UNL     1     -33.909 -59.259  55.079  1.00  0.00     0.293 HD
ENDBRANCH  11  23
ENDBRANCH   1   2
BRANCH   1  25
ATOM     25  C   UNL     1     -31.547 -58.716  60.846  1.00  0.00     0.339 C 
ATOM     26  C   UNL     1     -33.001 -59.081  61.229  1.00  0.00     0.214 C 
ATOM     27  O   UNL     1     -30.626 -59.198  61.814  1.00  0.00    -0.332 OA
ATOM     28  C   UNL     1     -33.141 -60.600  61.474  1.00  0.00     0.180 C 
ATOM     29  C   UNL     1     -30.656 -60.614  61.904  1.00  0.00     0.179 C 
ATOM     30  C   UNL     1     -32.029 -61.101  62.415  1.00  0.00     0.177 C 
BRANCH  26  31
ATOM     31  O   UNL     1     -33.358 -58.369  62.386  1.00  0.00    -0.384 OA
ATOM     32  H   UNL     1     -32.763 -57.575  62.432  1.00  0.00     0.211 HD
ENDBRANCH  26  31
BRANCH  28  33
ATOM     33  O   UNL     1     -33.068 -61.297  60.257  1.00  0.00    -0.387 OA
ATOM     34  H   UNL     1     -32.480 -62.082  60.408  1.00  0.00     0.211 HD
ENDBRANCH  28  33
BRANCH  29  35
ATOM     35  C   UNL     1     -29.528 -61.077  62.832  1.00  0.00     0.191 C 
BRANCH  35  36
ATOM     36  O   UNL     1     -29.927 -62.234  63.516  1.00  0.00    -0.394 OA
ATOM     37  H   UNL     1     -29.091 -62.708  63.764  1.00  0.00     0.210 HD
ENDBRANCH  35  36
ENDBRANCH  29  35
BRANCH  30  38
ATOM     38  O   UNL     1     -32.251 -60.627  63.720  1.00  0.00    -0.387 OA
ATOM     39  H   UNL     1     -32.037 -61.374  64.338  1.00  0.00     0.211 HD
ENDBRANCH  30  38
ENDBRANCH   1  25
TORSDOF 11
ENDMDL
MODEL 6
REMARK VINA RESULT:    -6.159      4.404      5.538
REMARK INTER + INTRA:          -9.911
REMARK INTER:                  -9.018
REMARK INTRA:                  -0.893
REMARK UNBOUND:                -1.052
REMARK SMILES O=c1cc(-c2ccc(O)c(O)c2)oc2cc(O[C@@H]3O[C@@H](CO)[C@@H](O)[C@H](O)[C@H]3O)cc(O)c12
REMARK SMILES IDX 17 1 16 2 4 3 3 4 13 5 2 6 14 7 1 8 32 9 15 10 30 11 29 12
REMARK SMILES IDX 5 13 6 14 7 15 8 16 12 17 10 18 9 19 11 21 31 23 18 25 27 26
REMARK SMILES IDX 19 27 25 28 20 29 23 30 28 31 26 33 21 35 22 36 24 38
REMARK H PARENT 9 20 11 22 31 24 28 32 26 34 22 37 24 39
REMARK Flexibility Score: inf
ROOT
ATOM      1  O   UNL     1     -26.282 -61.197  55.496  1.00  0.00    -0.462 OA
ENDROOT
BRANCH   1   2
ATOM      2  C   UNL     1     -27.130 -60.079  55.425  1.00  0.00     0.130 A 
ATOM      3  C   UNL     1     -27.829 -55.358  55.280  1.00  0.00     0.138 A 
ATOM      4  C   UNL     1     -29.224 -55.505  55.219  1.00  0.00     0.100 A 
ATOM      5  O   UNL     1     -27.059 -56.442  55.346  1.00  0.00    -0.456 OA
ATOM      6  C   UNL     1     -29.780 -56.784  55.218  1.00  0.00     0.197 A 
ATOM      7  C   UNL     1     -27.541 -57.681  55.348  1.00  0.00     0.146 A 
ATOM      8  O   UNL     1     -31.034 -56.906  55.164  1.00  0.00    -0.289 OA
ATOM      9  C   UNL     1     -28.934 -57.911  55.279  1.00  0.00     0.107 A 
ATOM     10  C   UNL     1     -26.651 -58.757  55.418  1.00  0.00     0.094 A 
ATOM     11  C   UNL     1     -29.414 -59.240  55.279  1.00  0.00     0.134 A 
ATOM     12  C   UNL     1     -28.506 -60.306  55.350  1.00  0.00     0.093 A 
BRANCH   3  13
ATOM     13  C   UNL     1     -27.181 -54.022  55.286  1.00  0.00     0.021 A 
ATOM     14  C   UNL     1     -26.628 -53.528  56.481  1.00  0.00     0.016 A 
ATOM     15  C   UNL     1     -26.007 -52.277  56.512  1.00  0.00     0.051 A 
ATOM     16  C   UNL     1     -25.918 -51.503  55.348  1.00  0.00     0.157 A 
ATOM     17  C   UNL     1     -27.076 -53.243  54.116  1.00  0.00     0.062 A 
ATOM     18  C   UNL     1     -26.450 -51.989  54.149  1.00  0.00     0.158 A 
BRANCH  16  19
ATOM     19  O   UNL     1     -25.300 -50.254  55.377  1.00  0.00    -0.504 OA
ATOM     20  H   UNL     1     -25.838 -49.396  55.348  1.00  0.00     0.293 HD
ENDBRANCH  16  19
BRANCH  18  21
ATOM     21  O   UNL     1     -26.350 -51.220  52.990  1.00  0.00    -0.504 OA
ATOM     22  H   UNL     1     -25.497 -50.725  52.754  1.00  0.00     0.293 HD
ENDBRANCH  18  21
ENDBRANCH   3  13
BRANCH  11  23
ATOM     23  O   UNL     1     -30.782 -59.509  55.209  1.00  0.00    -0.507 OA
ATOM     24  H   UNL     1     -31.457 -58.787  54.984  1.00  0.00     0.293 HD
ENDBRANCH  11  23
ENDBRANCH   1   2
BRANCH   1  25
ATOM     25  C   UNL     1     -26.650 -62.509  55.941  1.00  0.00     0.339 C 
ATOM     26  C   UNL     1     -25.589 -63.564  55.551  1.00  0.00     0.214 C 
ATOM     27  O   UNL     1     -26.881 -62.508  57.343  1.00  0.00    -0.332 OA
ATOM     28  C   UNL     1     -24.290 -63.365  56.364  1.00  0.00     0.180 C 
ATOM     29  C   UNL     1     -25.710 -62.159  58.064  1.00  0.00     0.179 C 
ATOM     30  C   UNL     1     -24.607 -63.222  57.865  1.00  0.00     0.177 C 
BRANCH  26  31
ATOM     31  O   UNL     1     -26.115 -64.845  55.785  1.00  0.00    -0.384 OA
ATOM     32  H   UNL     1     -26.700 -64.776  56.584  1.00  0.00     0.211 HD
ENDBRANCH  26  31
BRANCH  28  33
ATOM     33  O   UNL     1     -23.611 -62.218  55.922  1.00  0.00    -0.387 OA
ATOM     34  H   UNL     1     -23.174 -61.817  56.718  1.00  0.00     0.211 HD
ENDBRANCH  28  33
BRANCH  29  35
ATOM     35  C   UNL     1     -26.066 -62.008  59.547  1.00  0.00     0.191 C 
BRANCH  35  36
ATOM     36  O   UNL     1     -25.044 -62.555  60.335  1.00  0.00    -0.394 OA
ATOM     37  H   UNL     1     -24.361 -62.897  59.701  1.00  0.00     0.210 HD
ENDBRANCH  35  36
ENDBRANCH  29  35
BRANCH  30  38
ATOM     38  O   UNL     1     -25.031 -64.456  58.389  1.00  0.00    -0.387 OA
ATOM     39  H   UNL     1     -25.308 -65.017  57.618  1.00  0.00     0.211 HD
ENDBRANCH  30  38
ENDBRANCH   1  25
TORSDOF 11
ENDMDL
MODEL 7
REMARK VINA RESULT:    -6.140      1.637      8.892
REMARK INTER + INTRA:          -9.884
REMARK INTER:                  -9.069
REMARK INTRA:                  -0.815
REMARK UNBOUND:                -1.052
REMARK SMILES O=c1cc(-c2ccc(O)c(O)c2)oc2cc(O[C@@H]3O[C@@H](CO)[C@@H](O)[C@H](O)[C@H]3O)cc(O)c12
REMARK SMILES IDX 17 1 16 2 4 3 3 4 13 5 2 6 14 7 1 8 32 9 15 10 30 11 29 12
REMARK SMILES IDX 5 13 6 14 7 15 8 16 12 17 10 18 9 19 11 21 31 23 18 25 27 26
REMARK SMILES IDX 19 27 25 28 20 29 23 30 28 31 26 33 21 35 22 36 24 38
REMARK H PARENT 9 20 11 22 31 24 28 32 26 34 22 37 24 39
REMARK Flexibility Score: inf
ROOT
ATOM      1  O   UNL     1     -29.403 -55.294  55.195  1.00  0.00    -0.462 OA
ENDROOT
BRANCH   1   2
ATOM      2  C   UNL     1     -30.282 -56.253  55.727  1.00  0.00     0.130 A 
ATOM      3  C   UNL     1     -31.372 -59.592  58.961  1.00  0.00     0.138 A 
ATOM      4  C   UNL     1     -32.620 -59.845  58.370  1.00  0.00     0.100 A 
ATOM      5  O   UNL     1     -30.567 -58.676  58.426  1.00  0.00    -0.456 OA
ATOM      6  C   UNL     1     -33.003 -59.122  57.239  1.00  0.00     0.197 A 
ATOM      7  C   UNL     1     -30.886 -57.963  57.351  1.00  0.00     0.146 A 
ATOM      8  O   UNL     1     -34.125 -59.356  56.715  1.00  0.00    -0.289 OA
ATOM      9  C   UNL     1     -32.130 -58.152  56.705  1.00  0.00     0.107 A 
ATOM     10  C   UNL     1     -29.975 -57.020  56.865  1.00  0.00     0.094 A 
ATOM     11  C   UNL     1     -32.440 -57.375  55.567  1.00  0.00     0.134 A 
ATOM     12  C   UNL     1     -31.513 -56.435  55.094  1.00  0.00     0.093 A 
BRANCH   3  13
ATOM     13  C   UNL     1     -30.910 -60.331  60.164  1.00  0.00     0.021 A 
ATOM     14  C   UNL     1     -31.266 -61.682  60.324  1.00  0.00     0.016 A 
ATOM     15  C   UNL     1     -30.839 -62.401  61.444  1.00  0.00     0.051 A 
ATOM     16  C   UNL     1     -30.042 -61.786  62.416  1.00  0.00     0.157 A 
ATOM     17  C   UNL     1     -30.097 -59.723  61.140  1.00  0.00     0.062 A 
ATOM     18  C   UNL     1     -29.668 -60.446  62.262  1.00  0.00     0.158 A 
BRANCH  16  19
ATOM     19  O   UNL     1     -29.616 -62.500  63.535  1.00  0.00    -0.504 OA
ATOM     20  H   UNL     1     -28.726 -62.984  63.548  1.00  0.00     0.293 HD
ENDBRANCH  16  19
BRANCH  18  21
ATOM     21  O   UNL     1     -28.864 -59.841  63.228  1.00  0.00    -0.504 OA
ATOM     22  H   UNL     1     -29.183 -59.719  64.182  1.00  0.00     0.293 HD
ENDBRANCH  18  21
ENDBRANCH   3  13
BRANCH  11  23
ATOM     23  O   UNL     1     -33.658 -57.529  54.903  1.00  0.00    -0.507 OA
ATOM     24  H   UNL     1     -34.468 -57.931  55.360  1.00  0.00     0.293 HD
ENDBRANCH  11  23
ENDBRANCH   1   2
BRANCH   1  25
ATOM     25  C   UNL     1     -28.104 -55.553  54.647  1.00  0.00     0.339 C 
ATOM     26  C   UNL     1     -28.054 -55.257  53.130  1.00  0.00     0.214 C 
ATOM     27  O   UNL     1     -27.116 -54.809  55.346  1.00  0.00    -0.332 OA
ATOM     28  C   UNL     1     -28.156 -53.739  52.860  1.00  0.00     0.180 C 
ATOM     29  C   UNL     1     -27.329 -53.411  55.220  1.00  0.00     0.179 C 
ATOM     30  C   UNL     1     -27.167 -52.964  53.751  1.00  0.00     0.177 C 
BRANCH  26  31
ATOM     31  O   UNL     1     -26.851 -55.761  52.608  1.00  0.00    -0.384 OA
ATOM     32  H   UNL     1     -27.051 -56.104  51.698  1.00  0.00     0.211 HD
ENDBRANCH  26  31
BRANCH  28  33
ATOM     33  O   UNL     1     -29.462 -53.288  53.115  1.00  0.00    -0.387 OA
ATOM     34  H   UNL     1     -29.380 -52.432  53.610  1.00  0.00     0.211 HD
ENDBRANCH  28  33
BRANCH  29  35
ATOM     35  C   UNL     1     -26.341 -52.674  56.130  1.00  0.00     0.191 C 
BRANCH  35  36
ATOM     36  O   UNL     1     -25.610 -53.604  56.882  1.00  0.00    -0.394 OA
ATOM     37  H   UNL     1     -25.781 -53.384  57.834  1.00  0.00     0.210 HD
ENDBRANCH  35  36
ENDBRANCH  29  35
BRANCH  30  38
ATOM     38  O   UNL     1     -25.848 -53.194  53.321  1.00  0.00    -0.387 OA
ATOM     39  H   UNL     1     -25.619 -52.462  52.691  1.00  0.00     0.211 HD
ENDBRANCH  30  38
ENDBRANCH   1  25
TORSDOF 11
ENDMDL
MODEL 8
REMARK VINA RESULT:    -6.111      6.738     10.278
REMARK INTER + INTRA:          -9.843
REMARK INTER:                  -8.900
REMARK INTRA:                  -0.942
REMARK UNBOUND:                -1.052
REMARK SMILES O=c1cc(-c2ccc(O)c(O)c2)oc2cc(O[C@@H]3O[C@@H](CO)[C@@H](O)[C@H](O)[C@H]3O)cc(O)c12
REMARK SMILES IDX 17 1 16 2 4 3 3 4 13 5 2 6 14 7 1 8 32 9 15 10 30 11 29 12
REMARK SMILES IDX 5 13 6 14 7 15 8 16 12 17 10 18 9 19 11 21 31 23 18 25 27 26
REMARK SMILES IDX 19 27 25 28 20 29 23 30 28 31 26 33 21 35 22 36 24 38
REMARK H PARENT 9 20 11 22 31 24 28 32 26 34 22 37 24 39
REMARK Flexibility Score: inf
ROOT
ATOM      1  O   UNL     1     -23.196 -62.797  58.082  1.00  0.00    -0.462 OA
ENDROOT
BRANCH   1   2
ATOM      2  C   UNL     1     -24.587 -62.597  58.094  1.00  0.00     0.130 A 
ATOM      3  C   UNL     1     -28.620 -61.385  60.343  1.00  0.00     0.138 A 
ATOM      4  C   UNL     1     -29.400 -61.615  59.197  1.00  0.00     0.100 A 
ATOM      5  O   UNL     1     -27.305 -61.586  60.290  1.00  0.00    -0.456 OA
ATOM      6  C   UNL     1     -28.782 -62.038  58.020  1.00  0.00     0.197 A 
ATOM      7  C   UNL     1     -26.671 -61.989  59.193  1.00  0.00     0.146 A 
ATOM      8  O   UNL     1     -29.490 -62.243  56.997  1.00  0.00    -0.289 OA
ATOM      9  C   UNL     1     -27.385 -62.231  57.998  1.00  0.00     0.107 A 
ATOM     10  C   UNL     1     -25.285 -62.169  59.237  1.00  0.00     0.094 A 
ATOM     11  C   UNL     1     -26.681 -62.654  56.849  1.00  0.00     0.134 A 
ATOM     12  C   UNL     1     -25.292 -62.830  56.911  1.00  0.00     0.093 A 
BRANCH   3  13
ATOM     13  C   UNL     1     -29.222 -60.936  61.623  1.00  0.00     0.021 A 
ATOM     14  C   UNL     1     -28.847 -59.694  62.165  1.00  0.00     0.016 A 
ATOM     15  C   UNL     1     -29.404 -59.245  63.366  1.00  0.00     0.051 A 
ATOM     16  C   UNL     1     -30.352 -60.025  64.039  1.00  0.00     0.157 A 
ATOM     17  C   UNL     1     -30.187 -61.708  62.300  1.00  0.00     0.062 A 
ATOM     18  C   UNL     1     -30.746 -61.256  63.504  1.00  0.00     0.158 A 
BRANCH  16  19
ATOM     19  O   UNL     1     -30.908 -59.580  65.238  1.00  0.00    -0.504 OA
ATOM     20  H   UNL     1     -30.959 -58.594  65.466  1.00  0.00     0.293 HD
ENDBRANCH  16  19
BRANCH  18  21
ATOM     21  O   UNL     1     -31.699 -62.024  64.172  1.00  0.00    -0.504 OA
ATOM     22  H   UNL     1     -32.583 -61.629  64.471  1.00  0.00     0.293 HD
ENDBRANCH  18  21
ENDBRANCH   3  13
BRANCH  11  23
ATOM     23  O   UNL     1     -27.349 -62.902  55.648  1.00  0.00    -0.507 OA
ATOM     24  H   UNL     1     -27.951 -63.708  55.529  1.00  0.00     0.293 HD
ENDBRANCH  11  23
ENDBRANCH   1   2
BRANCH   1  25
ATOM     25  C   UNL     1     -22.329 -62.625  56.953  1.00  0.00     0.339 C 
ATOM     26  C   UNL     1     -21.391 -61.409  57.131  1.00  0.00     0.214 C 
ATOM     27  O   UNL     1     -21.587 -63.813  56.715  1.00  0.00    -0.332 OA
ATOM     28  C   UNL     1     -20.340 -61.680  58.231  1.00  0.00     0.180 C 
ATOM     29  C   UNL     1     -20.748 -64.134  57.814  1.00  0.00     0.179 C 
ATOM     30  C   UNL     1     -19.668 -63.048  58.012  1.00  0.00     0.177 C 
BRANCH  26  31
ATOM     31  O   UNL     1     -20.753 -61.143  55.908  1.00  0.00    -0.384 OA
ATOM     32  H   UNL     1     -21.196 -60.345  55.518  1.00  0.00     0.211 HD
ENDBRANCH  26  31
BRANCH  28  33
ATOM     33  O   UNL     1     -20.947 -61.660  59.499  1.00  0.00    -0.387 OA
ATOM     34  H   UNL     1     -20.251 -61.379  60.147  1.00  0.00     0.211 HD
ENDBRANCH  28  33
BRANCH  29  35
ATOM     35  C   UNL     1     -20.111 -65.506  57.569  1.00  0.00     0.191 C 
BRANCH  35  36
ATOM     36  O   UNL     1     -18.928 -65.614  58.312  1.00  0.00    -0.394 OA
ATOM     37  H   UNL     1     -18.363 -64.844  58.045  1.00  0.00     0.210 HD
ENDBRANCH  35  36
ENDBRANCH  29  35
BRANCH  30  38
ATOM     38  O   UNL     1     -18.826 -62.998  56.885  1.00  0.00    -0.387 OA
ATOM     39  H   UNL     1     -18.384 -62.110  56.897  1.00  0.00     0.211 HD
ENDBRANCH  30  38
ENDBRANCH   1  25
TORSDOF 11
ENDMDL
MODEL 9
REMARK VINA RESULT:    -5.968      8.886     11.272
REMARK INTER + INTRA:          -9.636
REMARK INTER:                  -8.687
REMARK INTRA:                  -0.949
REMARK UNBOUND:                -1.052
REMARK SMILES O=c1cc(-c2ccc(O)c(O)c2)oc2cc(O[C@@H]3O[C@@H](CO)[C@@H](O)[C@H](O)[C@H]3O)cc(O)c12
REMARK SMILES IDX 17 1 16 2 4 3 3 4 13 5 2 6 14 7 1 8 32 9 15 10 30 11 29 12
REMARK SMILES IDX 5 13 6 14 7 15 8 16 12 17 10 18 9 19 11 21 31 23 18 25 27 26
REMARK SMILES IDX 19 27 25 28 20 29 23 30 28 31 26 33 21 35 22 36 24 38
REMARK H PARENT 9 20 11 22 31 24 28 32 26 34 22 37 24 39
REMARK Flexibility Score: inf
ROOT
ATOM      1  O   UNL     1     -27.396 -66.198  56.302  1.00  0.00    -0.462 OA
ENDROOT
BRANCH   1   2
ATOM      2  C   UNL     1     -26.043 -66.327  56.658  1.00  0.00     0.130 A 
ATOM      3  C   UNL     1     -21.783 -64.427  57.672  1.00  0.00     0.138 A 
ATOM      4  C   UNL     1     -21.198 -65.688  57.870  1.00  0.00     0.100 A 
ATOM      5  O   UNL     1     -23.068 -64.346  57.335  1.00  0.00    -0.456 OA
ATOM      6  C   UNL     1     -21.978 -66.836  57.722  1.00  0.00     0.197 A 
ATOM      7  C   UNL     1     -23.851 -65.410  57.183  1.00  0.00     0.146 A 
ATOM      8  O   UNL     1     -21.444 -67.964  57.900  1.00  0.00    -0.289 OA
ATOM      9  C   UNL     1     -23.339 -66.713  57.374  1.00  0.00     0.107 A 
ATOM     10  C   UNL     1     -25.191 -65.223  56.830  1.00  0.00     0.094 A 
ATOM     11  C   UNL     1     -24.198 -67.822  57.208  1.00  0.00     0.134 A 
ATOM     12  C   UNL     1     -25.539 -67.615  56.854  1.00  0.00     0.093 A 
BRANCH   3  13
ATOM     13  C   UNL     1     -21.003 -63.171  57.814  1.00  0.00     0.021 A 
ATOM     14  C   UNL     1     -20.243 -62.703  56.727  1.00  0.00     0.016 A 
ATOM     15  C   UNL     1     -19.506 -61.521  56.833  1.00  0.00     0.051 A 
ATOM     16  C   UNL     1     -19.524 -60.781  58.021  1.00  0.00     0.157 A 
ATOM     17  C   UNL     1     -21.026 -62.414  59.002  1.00  0.00     0.062 A 
ATOM     18  C   UNL     1     -20.287 -61.227  59.106  1.00  0.00     0.158 A 
BRANCH  16  19
ATOM     19  O   UNL     1     -18.788 -59.602  58.129  1.00  0.00    -0.504 OA
ATOM     20  H   UNL     1     -19.210 -58.741  58.456  1.00  0.00     0.293 HD
ENDBRANCH  16  19
BRANCH  18  21
ATOM     21  O   UNL     1     -20.311 -60.481  60.284  1.00  0.00    -0.504 OA
ATOM     22  H   UNL     1     -20.275 -60.927  61.194  1.00  0.00     0.293 HD
ENDBRANCH  18  21
ENDBRANCH   3  13
BRANCH  11  23
ATOM     23  O   UNL     1     -23.732 -69.125  57.391  1.00  0.00    -0.507 OA
ATOM     24  H   UNL     1     -23.591 -69.517  58.315  1.00  0.00     0.293 HD
ENDBRANCH  11  23
ENDBRANCH   1   2
BRANCH   1  25
ATOM     25  C   UNL     1     -27.913 -65.413  55.219  1.00  0.00     0.339 C 
ATOM     26  C   UNL     1     -28.285 -66.291  54.002  1.00  0.00     0.214 C 
ATOM     27  O   UNL     1     -29.024 -64.643  55.655  1.00  0.00    -0.332 OA
ATOM     28  C   UNL     1     -29.524 -67.162  54.310  1.00  0.00     0.180 C 
ATOM     29  C   UNL     1     -30.094 -65.469  56.090  1.00  0.00     0.179 C 
ATOM     30  C   UNL     1     -30.651 -66.306  54.918  1.00  0.00     0.177 C 
BRANCH  26  31
ATOM     31  O   UNL     1     -28.542 -65.456  52.902  1.00  0.00    -0.384 OA
ATOM     32  H   UNL     1     -27.982 -65.786  52.152  1.00  0.00     0.211 HD
ENDBRANCH  26  31
BRANCH  28  33
ATOM     33  O   UNL     1     -29.185 -68.188  55.208  1.00  0.00    -0.387 OA
ATOM     34  H   UNL     1     -29.959 -68.808  55.243  1.00  0.00     0.211 HD
ENDBRANCH  28  33
BRANCH  29  35
ATOM     35  C   UNL     1     -31.186 -64.586  56.704  1.00  0.00     0.191 C 
BRANCH  35  36
ATOM     36  O   UNL     1     -32.422 -65.240  56.618  1.00  0.00    -0.394 OA
ATOM     37  H   UNL     1     -33.041 -64.739  57.210  1.00  0.00     0.210 HD
ENDBRANCH  35  36
ENDBRANCH  29  35
BRANCH  30  38
ATOM     38  O   UNL     1     -31.194 -65.456  53.938  1.00  0.00    -0.387 OA
ATOM     39  H   UNL     1     -30.524 -64.742  53.773  1.00  0.00     0.211 HD
ENDBRANCH  30  38
ENDBRANCH   1  25
TORSDOF 11
ENDMDL
