MODEL 1
REMARK VINA RESULT:    -3.935      0.000      0.000
REMARK INTER + INTRA:          -4.259
REMARK INTER:                  -4.165
REMARK INTRA:                  -0.094
REMARK UNBOUND:                -0.094
REMARK SMILES C=C(C)[C@H]1CC=C(C)C(=O)C1
REMARK SMILES IDX 8 1 7 2 6 3 5 4 4 5 11 6 9 7 10 8 2 9 1 10 3 11
REMARK H PARENT
REMARK Flexibility Score: inf
ROOT
ATOM      1  C   UNL     1       2.111 -16.356  11.686  1.00  0.00     0.048 C 
ATOM      2  C   UNL     1       1.984 -15.472  10.476  1.00  0.00    -0.012 C 
ATOM      3  C   UNL     1       0.791 -15.330   9.873  1.00  0.00    -0.019 C 
ATOM      4  C   UNL     1       0.611 -14.472   8.649  1.00  0.00     0.036 C 
ATOM      5  C   UNL     1       1.570 -13.266   8.672  1.00  0.00     0.025 C 
ATOM      6  C   UNL     1       3.025 -13.744   8.842  1.00  0.00     0.089 C 
ATOM      7  C   UNL     1       3.144 -14.663  10.027  1.00  0.00     0.158 C 
ATOM      8  O   UNL     1       4.255 -14.767  10.613  1.00  0.00    -0.295 OA
ENDROOT
BRANCH   5   9
ATOM      9  C   UNL     1       1.408 -12.394   7.434  1.00  0.00    -0.077 C 
ATOM     10  C   UNL     1       0.192 -12.041   6.981  1.00  0.00     0.008 C 
ATOM     11  C   UNL     1       2.623 -11.907   6.688  1.00  0.00     0.039 C 
ENDBRANCH   5   9
TORSDOF 1
ENDMDL
MODEL 2
REMARK VINA RESULT:    -3.823      2.014      4.835
REMARK INTER + INTRA:          -4.141
REMARK INTER:                  -4.045
REMARK INTRA:                  -0.095
REMARK UNBOUND:                -0.094
REMARK SMILES C=C(C)[C@H]1CC=C(C)C(=O)C1
REMARK SMILES IDX 8 1 7 2 6 3 5 4 4 5 11 6 9 7 10 8 2 9 1 10 3 11
REMARK H PARENT
REMARK Flexibility Score: inf
ROOT
ATOM      1  C   UNL     1       0.268 -13.019   7.751  1.00  0.00     0.048 C 
ATOM      2  C   UNL     1       0.995 -13.892   8.735  1.00  0.00    -0.012 C 
ATOM      3  C   UNL     1       2.010 -13.386   9.457  1.00  0.00    -0.019 C 
ATOM      4  C   UNL     1       2.784 -14.220  10.443  1.00  0.00     0.036 C 
ATOM      5  C   UNL     1       1.883 -15.288  11.093  1.00  0.00     0.025 C 
ATOM      6  C   UNL     1       1.203 -16.145  10.008  1.00  0.00     0.089 C 
ATOM      7  C   UNL     1       0.512 -15.270   8.999  1.00  0.00     0.158 C 
ATOM      8  O   UNL     1      -0.463 -15.736   8.349  1.00  0.00    -0.295 OA
ENDROOT
BRANCH   5   9
ATOM      9  C   UNL     1       2.654 -16.147  12.086  1.00  0.00    -0.077 C 
ATOM     10  C   UNL     1       2.038 -17.081  12.831  1.00  0.00     0.008 C 
ATOM     11  C   UNL     1       4.141 -15.962  12.248  1.00  0.00     0.039 C 
ENDBRANCH   5   9
TORSDOF 1
ENDMDL
MODEL 3
REMARK VINA RESULT:    -3.739      2.072      3.348
REMARK INTER + INTRA:          -4.052
REMARK INTER:                  -3.959
REMARK INTRA:                  -0.093
REMARK UNBOUND:                -0.094
REMARK SMILES C=C(C)[C@H]1CC=C(C)C(=O)C1
REMARK SMILES IDX 8 1 7 2 6 3 5 4 4 5 11 6 9 7 10 8 2 9 1 10 3 11
REMARK H PARENT
REMARK Flexibility Score: inf
ROOT
ATOM      1  C   UNL     1       4.660 -16.300  13.165  1.00  0.00     0.048 C 
ATOM      2  C   UNL     1       3.670 -15.818  12.141  1.00  0.00    -0.012 C 
ATOM      3  C   UNL     1       3.961 -15.913  10.832  1.00  0.00    -0.019 C 
ATOM      4  C   UNL     1       3.014 -15.429   9.766  1.00  0.00     0.036 C 
ATOM      5  C   UNL     1       1.547 -15.604  10.207  1.00  0.00     0.025 C 
ATOM      6  C   UNL     1       1.310 -14.906  11.560  1.00  0.00     0.089 C 
ATOM      7  C   UNL     1       2.328 -15.355  12.573  1.00  0.00     0.158 C 
ATOM      8  O   UNL     1       2.039 -15.299  13.798  1.00  0.00    -0.295 OA
ENDROOT
BRANCH   5   9
ATOM      9  C   UNL     1       0.577 -15.108   9.143  1.00  0.00    -0.077 C 
ATOM     10  C   UNL     1       0.569 -13.824   8.747  1.00  0.00     0.008 C 
ATOM     11  C   UNL     1      -0.399 -16.065   8.507  1.00  0.00     0.039 C 
ENDBRANCH   5   9
TORSDOF 1
ENDMDL
MODEL 4
REMARK VINA RESULT:    -3.733      1.748      2.781
REMARK INTER + INTRA:          -4.046
REMARK INTER:                  -3.951
REMARK INTRA:                  -0.095
REMARK UNBOUND:                -0.094
REMARK SMILES C=C(C)[C@H]1CC=C(C)C(=O)C1
REMARK SMILES IDX 8 1 7 2 6 3 5 4 4 5 11 6 9 7 10 8 2 9 1 10 3 11
REMARK H PARENT
REMARK Flexibility Score: inf
ROOT
ATOM      1  C   UNL     1       3.716 -15.400  13.645  1.00  0.00     0.048 C 
ATOM      2  C   UNL     1       2.996 -15.292  12.329  1.00  0.00    -0.012 C 
ATOM      3  C   UNL     1       2.455 -16.388  11.771  1.00  0.00    -0.019 C 
ATOM      4  C   UNL     1       1.740 -16.340  10.447  1.00  0.00     0.036 C 
ATOM      5  C   UNL     1       1.025 -14.988  10.251  1.00  0.00     0.025 C 
ATOM      6  C   UNL     1       2.025 -13.828  10.418  1.00  0.00     0.089 C 
ATOM      7  C   UNL     1       2.777 -13.959  11.714  1.00  0.00     0.158 C 
ATOM      8  O   UNL     1       3.253 -12.924  12.255  1.00  0.00    -0.295 OA
ENDROOT
BRANCH   5   9
ATOM      9  C   UNL     1       0.305 -14.921   8.911  1.00  0.00    -0.077 C 
ATOM     10  C   UNL     1      -0.369 -15.977   8.425  1.00  0.00     0.008 C 
ATOM     11  C   UNL     1       0.337 -13.651   8.100  1.00  0.00     0.039 C 
ENDBRANCH   5   9
TORSDOF 1
ENDMDL
MODEL 5
REMARK VINA RESULT:    -3.679      2.236      3.933
REMARK INTER + INTRA:          -3.988
REMARK INTER:                  -3.891
REMARK INTRA:                  -0.097
REMARK UNBOUND:                -0.094
REMARK SMILES C=C(C)[C@H]1CC=C(C)C(=O)C1
REMARK SMILES IDX 8 1 7 2 6 3 5 4 4 5 11 6 9 7 10 8 2 9 1 10 3 11
REMARK H PARENT
REMARK Flexibility Score: inf
ROOT
ATOM      1  C   UNL     1      -0.509 -16.008   8.509  1.00  0.00     0.048 C 
ATOM      2  C   UNL     1       0.809 -15.577   9.091  1.00  0.00    -0.012 C 
ATOM      3  C   UNL     1       1.635 -16.491   9.627  1.00  0.00    -0.019 C 
ATOM      4  C   UNL     1       2.958 -16.112  10.239  1.00  0.00     0.036 C 
ATOM      5  C   UNL     1       3.576 -14.899   9.515  1.00  0.00     0.025 C 
ATOM      6  C   UNL     1       2.581 -13.724   9.499  1.00  0.00     0.089 C 
ATOM      7  C   UNL     1       1.248 -14.165   8.958  1.00  0.00     0.158 C 
ATOM      8  O   UNL     1       0.490 -13.312   8.422  1.00  0.00    -0.295 OA
ENDROOT
BRANCH   5   9
ATOM      9  C   UNL     1       4.910 -14.497  10.130  1.00  0.00    -0.077 C 
ATOM     10  C   UNL     1       5.543 -13.373   9.753  1.00  0.00     0.008 C 
ATOM     11  C   UNL     1       5.547 -15.364  11.186  1.00  0.00     0.039 C 
ENDBRANCH   5   9
TORSDOF 1
ENDMDL
MODEL 6
REMARK VINA RESULT:    -3.590      2.023      4.648
REMARK INTER + INTRA:          -3.894
REMARK INTER:                  -3.804
REMARK INTRA:                  -0.090
REMARK UNBOUND:                -0.094
REMARK SMILES C=C(C)[C@H]1CC=C(C)C(=O)C1
REMARK SMILES IDX 8 1 7 2 6 3 5 4 4 5 11 6 9 7 10 8 2 9 1 10 3 11
REMARK H PARENT
REMARK Flexibility Score: inf
ROOT
ATOM      1  C   UNL     1       2.710 -11.875   6.488  1.00  0.00     0.048 C 
ATOM      2  C   UNL     1       2.445 -12.795   7.647  1.00  0.00    -0.012 C 
ATOM      3  C   UNL     1       3.472 -13.282   8.364  1.00  0.00    -0.019 C 
ATOM      4  C   UNL     1       3.265 -14.221   9.522  1.00  0.00     0.036 C 
ATOM      5  C   UNL     1       1.941 -13.918  10.251  1.00  0.00     0.025 C 
ATOM      6  C   UNL     1       0.765 -13.949   9.256  1.00  0.00     0.089 C 
ATOM      7  C   UNL     1       1.048 -13.062   8.074  1.00  0.00     0.158 C 
ATOM      8  O   UNL     1       0.083 -12.577   7.426  1.00  0.00    -0.295 OA
ENDROOT
BRANCH   5   9
ATOM      9  C   UNL     1       1.712 -14.867  11.420  1.00  0.00    -0.077 C 
ATOM     10  C   UNL     1       1.317 -14.414  12.622  1.00  0.00     0.008 C 
ATOM     11  C   UNL     1       1.925 -16.349  11.243  1.00  0.00     0.039 C 
ENDBRANCH   5   9
TORSDOF 1
ENDMDL
MODEL 7
REMARK VINA RESULT:    -3.527      1.521      4.411
REMARK INTER + INTRA:          -3.827
REMARK INTER:                  -3.730
REMARK INTRA:                  -0.098
REMARK UNBOUND:                -0.094
REMARK SMILES C=C(C)[C@H]1CC=C(C)C(=O)C1
REMARK SMILES IDX 8 1 7 2 6 3 5 4 4 5 11 6 9 7 10 8 2 9 1 10 3 11
REMARK H PARENT
REMARK Flexibility Score: inf
ROOT
ATOM      1  C   UNL     1       0.301 -12.597   7.333  1.00  0.00     0.048 C 
ATOM      2  C   UNL     1       1.002 -13.292   8.466  1.00  0.00    -0.012 C 
ATOM      3  C   UNL     1       0.325 -14.152   9.246  1.00  0.00    -0.019 C 
ATOM      4  C   UNL     1       0.973 -14.861  10.405  1.00  0.00     0.036 C 
ATOM      5  C   UNL     1       2.461 -15.145  10.119  1.00  0.00     0.025 C 
ATOM      6  C   UNL     1       3.191 -13.841   9.749  1.00  0.00     0.089 C 
ATOM      7  C   UNL     1       2.466 -13.123   8.644  1.00  0.00     0.158 C 
ATOM      8  O   UNL     1       3.111 -12.344   7.892  1.00  0.00    -0.295 OA
ENDROOT
BRANCH   5   9
ATOM      9  C   UNL     1       3.133 -15.853  11.288  1.00  0.00    -0.077 C 
ATOM     10  C   UNL     1       4.453 -15.737  11.511  1.00  0.00     0.008 C 
ATOM     11  C   UNL     1       2.316 -16.704  12.226  1.00  0.00     0.039 C 
ENDBRANCH   5   9
TORSDOF 1
ENDMDL
MODEL 8
REMARK VINA RESULT:    -3.473      2.073      5.030
REMARK INTER + INTRA:          -3.770
REMARK INTER:                  -3.677
REMARK INTRA:                  -0.093
REMARK UNBOUND:                -0.094
REMARK SMILES C=C(C)[C@H]1CC=C(C)C(=O)C1
REMARK SMILES IDX 8 1 7 2 6 3 5 4 4 5 11 6 9 7 10 8 2 9 1 10 3 11
REMARK H PARENT
REMARK Flexibility Score: inf
ROOT
ATOM      1  C   UNL     1       0.623 -13.319   8.468  1.00  0.00     0.048 C 
ATOM      2  C   UNL     1       0.995 -14.216   9.615  1.00  0.00    -0.012 C 
ATOM      3  C   UNL     1       1.393 -15.477   9.377  1.00  0.00    -0.019 C 
ATOM      4  C   UNL     1       1.759 -16.424  10.489  1.00  0.00     0.036 C 
ATOM      5  C   UNL     1       2.390 -15.667  11.675  1.00  0.00     0.025 C 
ATOM      6  C   UNL     1       1.450 -14.542  12.150  1.00  0.00     0.089 C 
ATOM      7  C   UNL     1       1.043 -13.670  10.995  1.00  0.00     0.158 C 
ATOM      8  O   UNL     1       0.705 -12.476  11.217  1.00  0.00    -0.295 OA
ENDROOT
BRANCH   5   9
ATOM      9  C   UNL     1       2.756 -16.610  12.813  1.00  0.00    -0.077 C 
ATOM     10  C   UNL     1       1.825 -17.362  13.427  1.00  0.00     0.008 C 
ATOM     11  C   UNL     1       4.187 -16.718  13.274  1.00  0.00     0.039 C 
ENDBRANCH   5   9
TORSDOF 1
ENDMDL
MODEL 9
REMARK VINA RESULT:    -3.445      1.805      2.044
REMARK INTER + INTRA:          -3.740
REMARK INTER:                  -3.647
REMARK INTRA:                  -0.093
REMARK UNBOUND:                -0.094
REMARK SMILES C=C(C)[C@H]1CC=C(C)C(=O)C1
REMARK SMILES IDX 8 1 7 2 6 3 5 4 4 5 11 6 9 7 10 8 2 9 1 10 3 11
REMARK H PARENT
REMARK Flexibility Score: inf
ROOT
ATOM      1  C   UNL     1       1.432 -14.722  13.415  1.00  0.00     0.048 C 
ATOM      2  C   UNL     1       1.255 -14.250  11.999  1.00  0.00    -0.012 C 
ATOM      3  C   UNL     1       1.025 -12.949  11.751  1.00  0.00    -0.019 C 
ATOM      4  C   UNL     1       0.822 -12.425  10.354  1.00  0.00     0.036 C 
ATOM      5  C   UNL     1       1.651 -13.231   9.334  1.00  0.00     0.025 C 
ATOM      6  C   UNL     1       1.323 -14.732   9.449  1.00  0.00     0.089 C 
ATOM      7  C   UNL     1       1.458 -15.196  10.874  1.00  0.00     0.158 C 
ATOM      8  O   UNL     1       1.709 -16.410  11.103  1.00  0.00    -0.295 OA
ENDROOT
BRANCH   5   9
ATOM      9  C   UNL     1       1.447 -12.719   7.915  1.00  0.00    -0.077 C 
ATOM     10  C   UNL     1       0.222 -12.638   7.369  1.00  0.00     0.008 C 
ATOM     11  C   UNL     1       2.634 -12.289   7.090  1.00  0.00     0.039 C 
ENDBRANCH   5   9
TORSDOF 1
ENDMDL
