MODEL 1
REMARK VINA RESULT:    -5.367      0.000      0.000
REMARK INTER + INTRA:          -9.282
REMARK INTER:                  -7.877
REMARK INTRA:                  -1.405
REMARK UNBOUND:                -1.405
REMARK SMILES CC(C)COC(=O)c1ccccc1C(=O)OCC(C)C
REMARK SMILES IDX 8 1 9 2 10 3 11 4 12 5 13 6 6 7 7 8 5 9 4 10 2 11 1 12 3 13
REMARK SMILES IDX 14 14 15 15 16 16 17 17 18 18 19 19 20 20
REMARK H PARENT
REMARK Flexibility Score: inf
ROOT
ATOM      1  C   UNL     1     182.164 179.212 183.776  1.00  0.00     0.074 A 
ATOM      2  C   UNL     1     183.168 178.386 183.240  1.00  0.00     0.016 A 
ATOM      3  C   UNL     1     182.922 177.037 182.986  1.00  0.00     0.001 A 
ATOM      4  C   UNL     1     181.671 176.491 183.261  1.00  0.00     0.001 A 
ATOM      5  C   UNL     1     180.653 177.297 183.771  1.00  0.00     0.016 A 
ATOM      6  C   UNL     1     180.871 178.665 184.014  1.00  0.00     0.074 A 
ENDROOT
BRANCH   1   7
ATOM      7  C   UNL     1     182.529 180.603 184.126  1.00  0.00     0.339 C 
ATOM      8  O   UNL     1     182.677 181.471 183.222  1.00  0.00    -0.246 OA
BRANCH   7   9
ATOM      9  O   UNL     1     182.650 180.965 185.471  1.00  0.00    -0.462 OA
BRANCH   9  10
ATOM     10  C   UNL     1     183.270 180.127 186.441  1.00  0.00     0.236 C 
BRANCH  10  11
ATOM     11  C   UNL     1     182.378 180.016 187.687  1.00  0.00     0.021 C 
ATOM     12  C   UNL     1     181.503 181.265 187.833  1.00  0.00     0.011 C 
ATOM     13  C   UNL     1     183.222 179.806 188.951  1.00  0.00     0.011 C 
ENDBRANCH  10  11
ENDBRANCH   9  10
ENDBRANCH   7   9
ENDBRANCH   1   7
BRANCH   6  14
ATOM     14  C   UNL     1     179.716 179.484 184.447  1.00  0.00     0.339 C 
ATOM     15  O   UNL     1     179.420 179.568 185.670  1.00  0.00    -0.246 OA
BRANCH  14  16
ATOM     16  O   UNL     1     178.993 180.214 183.494  1.00  0.00    -0.462 OA
BRANCH  16  17
ATOM     17  C   UNL     1     179.074 181.632 183.346  1.00  0.00     0.236 C 
BRANCH  17  18
ATOM     18  C   UNL     1     179.291 182.025 181.872  1.00  0.00     0.021 C 
ATOM     19  C   UNL     1     180.037 183.358 181.743  1.00  0.00     0.011 C 
ATOM     20  C   UNL     1     180.058 180.918 181.137  1.00  0.00     0.011 C 
ENDBRANCH  17  18
ENDBRANCH  16  17
ENDBRANCH  14  16
ENDBRANCH   6  14
TORSDOF 8
ENDMDL
MODEL 2
REMARK VINA RESULT:    -5.295      1.675      4.807
REMARK INTER + INTRA:          -9.176
REMARK INTER:                  -7.538
REMARK INTRA:                  -1.638
REMARK UNBOUND:                -1.405
REMARK SMILES CC(C)COC(=O)c1ccccc1C(=O)OCC(C)C
REMARK SMILES IDX 8 1 9 2 10 3 11 4 12 5 13 6 6 7 7 8 5 9 4 10 2 11 1 12 3 13
REMARK SMILES IDX 14 14 15 15 16 16 17 17 18 18 19 19 20 20
REMARK H PARENT
REMARK Flexibility Score: inf
ROOT
ATOM      1  C   UNL     1     181.318 180.496 183.756  1.00  0.00     0.074 A 
ATOM      2  C   UNL     1     181.459 179.474 182.800  1.00  0.00     0.016 A 
ATOM      3  C   UNL     1     181.162 178.150 183.122  1.00  0.00     0.001 A 
ATOM      4  C   UNL     1     180.719 177.823 184.401  1.00  0.00     0.001 A 
ATOM      5  C   UNL     1     180.549 178.824 185.358  1.00  0.00     0.016 A 
ATOM      6  C   UNL     1     180.820 180.170 185.050  1.00  0.00     0.074 A 
ENDROOT
BRANCH   1   7
ATOM      7  C   UNL     1     181.758 181.858 183.381  1.00  0.00     0.339 C 
ATOM      8  O   UNL     1     182.900 182.275 183.716  1.00  0.00    -0.246 OA
BRANCH   7   9
ATOM      9  O   UNL     1     180.920 182.660 182.599  1.00  0.00    -0.462 OA
BRANCH   9  10
ATOM     10  C   UNL     1     180.451 183.934 183.029  1.00  0.00     0.236 C 
BRANCH  10  11
ATOM     11  C   UNL     1     178.932 184.033 182.821  1.00  0.00     0.021 C 
ATOM     12  C   UNL     1     178.264 184.665 184.047  1.00  0.00     0.011 C 
ATOM     13  C   UNL     1     178.325 182.653 182.536  1.00  0.00     0.011 C 
ENDBRANCH  10  11
ENDBRANCH   9  10
ENDBRANCH   7   9
ENDBRANCH   1   7
BRANCH   6  14
ATOM     14  C   UNL     1     180.509 181.190 186.076  1.00  0.00     0.339 C 
ATOM     15  O   UNL     1     179.483 181.915 185.961  1.00  0.00    -0.246 OA
BRANCH  14  16
ATOM     16  O   UNL     1     181.330 181.303 187.206  1.00  0.00    -0.462 OA
BRANCH  16  17
ATOM     17  C   UNL     1     182.689 181.738 187.165  1.00  0.00     0.236 C 
BRANCH  17  18
ATOM     18  C   UNL     1     183.649 180.591 187.536  1.00  0.00     0.021 C 
ATOM     19  C   UNL     1     183.011 179.613 188.529  1.00  0.00     0.011 C 
ATOM     20  C   UNL     1     184.095 179.845 186.272  1.00  0.00     0.011 C 
ENDBRANCH  17  18
ENDBRANCH  16  17
ENDBRANCH  14  16
ENDBRANCH   6  14
TORSDOF 8
ENDMDL
MODEL 3
REMARK VINA RESULT:    -5.294      1.430      1.880
REMARK INTER + INTRA:          -9.175
REMARK INTER:                  -7.206
REMARK INTRA:                  -1.969
REMARK UNBOUND:                -1.405
REMARK SMILES CC(C)COC(=O)c1ccccc1C(=O)OCC(C)C
REMARK SMILES IDX 8 1 9 2 10 3 11 4 12 5 13 6 6 7 7 8 5 9 4 10 2 11 1 12 3 13
REMARK SMILES IDX 14 14 15 15 16 16 17 17 18 18 19 19 20 20
REMARK H PARENT
REMARK Flexibility Score: inf
ROOT
ATOM      1  C   UNL     1     181.966 180.474 184.716  1.00  0.00     0.074 A 
ATOM      2  C   UNL     1     182.626 179.239 184.574  1.00  0.00     0.016 A 
ATOM      3  C   UNL     1     181.903 178.053 184.454  1.00  0.00     0.001 A 
ATOM      4  C   UNL     1     180.510 178.079 184.473  1.00  0.00     0.001 A 
ATOM      5  C   UNL     1     179.835 179.294 184.589  1.00  0.00     0.016 A 
ATOM      6  C   UNL     1     180.543 180.505 184.688  1.00  0.00     0.074 A 
ENDROOT
BRANCH   1   7
ATOM      7  C   UNL     1     182.796 181.676 184.951  1.00  0.00     0.339 C 
ATOM      8  O   UNL     1     183.433 182.209 184.001  1.00  0.00    -0.246 OA
BRANCH   7   9
ATOM      9  O   UNL     1     182.823 182.255 186.224  1.00  0.00    -0.462 OA
BRANCH   9  10
ATOM     10  C   UNL     1     183.784 181.899 187.212  1.00  0.00     0.236 C 
BRANCH  10  11
ATOM     11  C   UNL     1     183.109 181.107 188.342  1.00  0.00     0.021 C 
ATOM     12  C   UNL     1     183.488 179.625 188.258  1.00  0.00     0.011 C 
ATOM     13  C   UNL     1     181.584 181.271 188.294  1.00  0.00     0.011 C 
ENDBRANCH  10  11
ENDBRANCH   9  10
ENDBRANCH   7   9
ENDBRANCH   1   7
BRANCH   6  14
ATOM     14  C   UNL     1     179.764 181.764 184.694  1.00  0.00     0.339 C 
ATOM     15  O   UNL     1     179.283 182.209 185.772  1.00  0.00    -0.246 OA
BRANCH  14  16
ATOM     16  O   UNL     1     179.618 182.490 183.504  1.00  0.00    -0.462 OA
BRANCH  16  17
ATOM     17  C   UNL     1     178.970 181.985 182.337  1.00  0.00     0.236 C 
BRANCH  17  18
ATOM     18  C   UNL     1     179.972 181.797 181.183  1.00  0.00     0.021 C 
ATOM     19  C   UNL     1     181.197 182.706 181.339  1.00  0.00     0.011 C 
ATOM     20  C   UNL     1     180.412 180.330 181.098  1.00  0.00     0.011 C 
ENDBRANCH  17  18
ENDBRANCH  16  17
ENDBRANCH  14  16
ENDBRANCH   6  14
TORSDOF 8
ENDMDL
MODEL 4
REMARK VINA RESULT:    -5.285      1.349      4.653
REMARK INTER + INTRA:          -9.161
REMARK INTER:                  -7.871
REMARK INTRA:                  -1.290
REMARK UNBOUND:                -1.405
REMARK SMILES CC(C)COC(=O)c1ccccc1C(=O)OCC(C)C
REMARK SMILES IDX 8 1 9 2 10 3 11 4 12 5 13 6 6 7 7 8 5 9 4 10 2 11 1 12 3 13
REMARK SMILES IDX 14 14 15 15 16 16 17 17 18 18 19 19 20 20
REMARK H PARENT
REMARK Flexibility Score: inf
ROOT
ATOM      1  C   UNL     1     180.950 179.782 183.138  1.00  0.00     0.074 A 
ATOM      2  C   UNL     1     181.276 178.819 182.165  1.00  0.00     0.016 A 
ATOM      3  C   UNL     1     181.382 177.470 182.503  1.00  0.00     0.001 A 
ATOM      4  C   UNL     1     181.165 177.060 183.816  1.00  0.00     0.001 A 
ATOM      5  C   UNL     1     180.818 177.994 184.793  1.00  0.00     0.016 A 
ATOM      6  C   UNL     1     180.683 179.357 184.470  1.00  0.00     0.074 A 
ENDROOT
BRANCH   1   7
ATOM      7  C   UNL     1     180.966 181.205 182.733  1.00  0.00     0.339 C 
ATOM      8  O   UNL     1     181.968 181.929 182.983  1.00  0.00    -0.246 OA
BRANCH   7   9
ATOM      9  O   UNL     1     179.884 181.728 182.018  1.00  0.00    -0.462 OA
BRANCH   9  10
ATOM     10  C   UNL     1     178.619 181.990 182.616  1.00  0.00     0.236 C 
BRANCH  10  11
ATOM     11  C   UNL     1     178.521 183.470 183.014  1.00  0.00     0.021 C 
ATOM     12  C   UNL     1     179.409 184.328 182.107  1.00  0.00     0.011 C 
ATOM     13  C   UNL     1     178.908 183.672 184.485  1.00  0.00     0.011 C 
ENDBRANCH  10  11
ENDBRANCH   9  10
ENDBRANCH   7   9
ENDBRANCH   1   7
BRANCH   6  14
ATOM     14  C   UNL     1     180.203 180.273 185.529  1.00  0.00     0.339 C 
ATOM     15  O   UNL     1     179.021 180.183 185.960  1.00  0.00    -0.246 OA
BRANCH  14  16
ATOM     16  O   UNL     1     181.090 181.201 186.092  1.00  0.00    -0.462 OA
BRANCH  16  17
ATOM     17  C   UNL     1     181.588 181.119 187.427  1.00  0.00     0.236 C 
BRANCH  17  18
ATOM     18  C   UNL     1     182.574 179.946 187.581  1.00  0.00     0.021 C 
ATOM     19  C   UNL     1     183.704 180.013 186.546  1.00  0.00     0.011 C 
ATOM     20  C   UNL     1     183.159 179.928 188.999  1.00  0.00     0.011 C 
ENDBRANCH  17  18
ENDBRANCH  16  17
ENDBRANCH  14  16
ENDBRANCH   6  14
TORSDOF 8
ENDMDL
MODEL 5
REMARK VINA RESULT:    -5.271      1.671      2.715
REMARK INTER + INTRA:          -9.141
REMARK INTER:                  -7.724
REMARK INTRA:                  -1.418
REMARK UNBOUND:                -1.405
REMARK SMILES CC(C)COC(=O)c1ccccc1C(=O)OCC(C)C
REMARK SMILES IDX 8 1 9 2 10 3 11 4 12 5 13 6 6 7 7 8 5 9 4 10 2 11 1 12 3 13
REMARK SMILES IDX 14 14 15 15 16 16 17 17 18 18 19 19 20 20
REMARK H PARENT
REMARK Flexibility Score: inf
ROOT
ATOM      1  C   UNL     1     180.626 180.021 184.953  1.00  0.00     0.074 A 
ATOM      2  C   UNL     1     180.630 178.700 185.437  1.00  0.00     0.016 A 
ATOM      3  C   UNL     1     180.765 177.620 184.565  1.00  0.00     0.001 A 
ATOM      4  C   UNL     1     180.897 177.839 183.197  1.00  0.00     0.001 A 
ATOM      5  C   UNL     1     180.919 179.142 182.696  1.00  0.00     0.016 A 
ATOM      6  C   UNL     1     180.809 180.247 183.559  1.00  0.00     0.074 A 
ENDROOT
BRANCH   1   7
ATOM      7  C   UNL     1     180.367 181.110 185.920  1.00  0.00     0.339 C 
ATOM      8  O   UNL     1     179.284 181.756 185.880  1.00  0.00    -0.246 OA
BRANCH   7   9
ATOM      9  O   UNL     1     181.307 181.381 186.919  1.00  0.00    -0.462 OA
BRANCH   9  10
ATOM     10  C   UNL     1     182.653 181.748 186.632  1.00  0.00     0.236 C 
BRANCH  10  11
ATOM     11  C   UNL     1     183.615 180.673 187.159  1.00  0.00     0.021 C 
ATOM     12  C   UNL     1     184.131 179.803 186.007  1.00  0.00     0.011 C 
ATOM     13  C   UNL     1     182.936 179.800 188.223  1.00  0.00     0.011 C 
ENDBRANCH  10  11
ENDBRANCH   9  10
ENDBRANCH   7   9
ENDBRANCH   1   7
BRANCH   6  14
ATOM     14  C   UNL     1     180.954 181.599 182.973  1.00  0.00     0.339 C 
ATOM     15  O   UNL     1     181.991 182.281 183.198  1.00  0.00    -0.246 OA
BRANCH  14  16
ATOM     16  O   UNL     1     179.958 182.089 182.117  1.00  0.00    -0.462 OA
BRANCH  16  17
ATOM     17  C   UNL     1     178.634 182.415 182.538  1.00  0.00     0.236 C 
BRANCH  17  18
ATOM     18  C   UNL     1     178.409 183.939 182.530  1.00  0.00     0.021 C 
ATOM     19  C   UNL     1     178.158 184.485 183.941  1.00  0.00     0.011 C 
ATOM     20  C   UNL     1     179.612 184.649 181.897  1.00  0.00     0.011 C 
ENDBRANCH  17  18
ENDBRANCH  16  17
ENDBRANCH  14  16
ENDBRANCH   6  14
TORSDOF 8
ENDMDL
MODEL 6
REMARK VINA RESULT:    -5.264      1.338      2.415
REMARK INTER + INTRA:          -9.131
REMARK INTER:                  -8.085
REMARK INTRA:                  -1.046
REMARK UNBOUND:                -1.405
REMARK SMILES CC(C)COC(=O)c1ccccc1C(=O)OCC(C)C
REMARK SMILES IDX 8 1 9 2 10 3 11 4 12 5 13 6 6 7 7 8 5 9 4 10 2 11 1 12 3 13
REMARK SMILES IDX 14 14 15 15 16 16 17 17 18 18 19 19 20 20
REMARK H PARENT
REMARK Flexibility Score: inf
ROOT
ATOM      1  C   UNL     1     180.985 178.686 184.351  1.00  0.00     0.074 A 
ATOM      2  C   UNL     1     181.035 177.286 184.471  1.00  0.00     0.016 A 
ATOM      3  C   UNL     1     181.314 176.484 183.364  1.00  0.00     0.001 A 
ATOM      4  C   UNL     1     181.547 177.066 182.121  1.00  0.00     0.001 A 
ATOM      5  C   UNL     1     181.525 178.455 181.984  1.00  0.00     0.016 A 
ATOM      6  C   UNL     1     181.269 179.284 183.091  1.00  0.00     0.074 A 
ENDROOT
BRANCH   1   7
ATOM      7  C   UNL     1     180.573 179.466 185.540  1.00  0.00     0.339 C 
ATOM      8  O   UNL     1     179.355 179.724 185.744  1.00  0.00    -0.246 OA
BRANCH   7   9
ATOM      9  O   UNL     1     181.539 179.866 186.468  1.00  0.00    -0.462 OA
BRANCH   9  10
ATOM     10  C   UNL     1     181.419 181.055 187.242  1.00  0.00     0.236 C 
BRANCH  10  11
ATOM     11  C   UNL     1     182.528 181.107 188.304  1.00  0.00     0.021 C 
ATOM     12  C   UNL     1     183.687 181.988 187.826  1.00  0.00     0.011 C 
ATOM     13  C   UNL     1     183.034 179.697 188.639  1.00  0.00     0.011 C 
ENDBRANCH  10  11
ENDBRANCH   9  10
ENDBRANCH   7   9
ENDBRANCH   1   7
BRANCH   6  14
ATOM     14  C   UNL     1     181.373 180.748 182.897  1.00  0.00     0.339 C 
ATOM     15  O   UNL     1     182.399 181.370 183.289  1.00  0.00    -0.246 OA
BRANCH  14  16
ATOM     16  O   UNL     1     180.352 181.428 182.219  1.00  0.00    -0.462 OA
BRANCH  16  17
ATOM     17  C   UNL     1     178.999 181.489 182.669  1.00  0.00     0.236 C 
BRANCH  17  18
ATOM     18  C   UNL     1     178.638 182.909 183.148  1.00  0.00     0.021 C 
ATOM     19  C   UNL     1     179.058 183.143 184.604  1.00  0.00     0.011 C 
ATOM     20  C   UNL     1     179.289 183.956 182.236  1.00  0.00     0.011 C 
ENDBRANCH  17  18
ENDBRANCH  16  17
ENDBRANCH  14  16
ENDBRANCH   6  14
TORSDOF 8
ENDMDL
MODEL 7
REMARK VINA RESULT:    -5.240      0.732      5.134
REMARK INTER + INTRA:          -9.096
REMARK INTER:                  -7.901
REMARK INTRA:                  -1.195
REMARK UNBOUND:                -1.405
REMARK SMILES CC(C)COC(=O)c1ccccc1C(=O)OCC(C)C
REMARK SMILES IDX 8 1 9 2 10 3 11 4 12 5 13 6 6 7 7 8 5 9 4 10 2 11 1 12 3 13
REMARK SMILES IDX 14 14 15 15 16 16 17 17 18 18 19 19 20 20
REMARK H PARENT
REMARK Flexibility Score: inf
ROOT
ATOM      1  C   UNL     1     180.829 178.597 184.056  1.00  0.00     0.074 A 
ATOM      2  C   UNL     1     180.576 177.285 183.616  1.00  0.00     0.016 A 
ATOM      3  C   UNL     1     181.609 176.484 183.130  1.00  0.00     0.001 A 
ATOM      4  C   UNL     1     182.910 176.978 183.075  1.00  0.00     0.001 A 
ATOM      5  C   UNL     1     183.188 178.268 183.528  1.00  0.00     0.016 A 
ATOM      6  C   UNL     1     182.166 179.086 184.044  1.00  0.00     0.074 A 
ENDROOT
BRANCH   1   7
ATOM      7  C   UNL     1     179.670 179.428 184.452  1.00  0.00     0.339 C 
ATOM      8  O   UNL     1     179.342 179.529 185.666  1.00  0.00    -0.246 OA
BRANCH   7   9
ATOM      9  O   UNL     1     178.975 180.149 183.475  1.00  0.00    -0.462 OA
BRANCH   9  10
ATOM     10  C   UNL     1     179.088 181.561 183.334  1.00  0.00     0.236 C 
BRANCH  10  11
ATOM     11  C   UNL     1     179.408 181.920 181.875  1.00  0.00     0.021 C 
ATOM     12  C   UNL     1     180.205 180.793 181.209  1.00  0.00     0.011 C 
ATOM     13  C   UNL     1     180.182 183.242 181.791  1.00  0.00     0.011 C 
ENDBRANCH  10  11
ENDBRANCH   9  10
ENDBRANCH   7   9
ENDBRANCH   1   7
BRANCH   6  14
ATOM     14  C   UNL     1     182.551 180.398 184.610  1.00  0.00     0.339 C 
ATOM     15  O   UNL     1     182.575 181.425 183.877  1.00  0.00    -0.246 OA
BRANCH  14  16
ATOM     16  O   UNL     1     182.828 180.503 185.980  1.00  0.00    -0.462 OA
BRANCH  16  17
ATOM     17  C   UNL     1     182.122 181.366 186.872  1.00  0.00     0.236 C 
BRANCH  17  18
ATOM     18  C   UNL     1     182.667 181.244 188.308  1.00  0.00     0.021 C 
ATOM     19  C   UNL     1     182.994 179.791 188.671  1.00  0.00     0.011 C 
ATOM     20  C   UNL     1     183.912 182.124 188.478  1.00  0.00     0.011 C 
ENDBRANCH  17  18
ENDBRANCH  16  17
ENDBRANCH  14  16
ENDBRANCH   6  14
TORSDOF 8
ENDMDL
MODEL 8
REMARK VINA RESULT:    -5.118      1.154      2.490
REMARK INTER + INTRA:          -8.916
REMARK INTER:                  -7.568
REMARK INTRA:                  -1.348
REMARK UNBOUND:                -1.405
REMARK SMILES CC(C)COC(=O)c1ccccc1C(=O)OCC(C)C
REMARK SMILES IDX 8 1 9 2 10 3 11 4 12 5 13 6 6 7 7 8 5 9 4 10 2 11 1 12 3 13
REMARK SMILES IDX 14 14 15 15 16 16 17 17 18 18 19 19 20 20
REMARK H PARENT
REMARK Flexibility Score: inf
ROOT
ATOM      1  C   UNL     1     181.258 178.664 184.533  1.00  0.00     0.074 A 
ATOM      2  C   UNL     1     180.849 177.331 184.351  1.00  0.00     0.016 A 
ATOM      3  C   UNL     1     181.239 176.612 183.222  1.00  0.00     0.001 A 
ATOM      4  C   UNL     1     182.044 177.212 182.255  1.00  0.00     0.001 A 
ATOM      5  C   UNL     1     182.481 178.526 182.427  1.00  0.00     0.016 A 
ATOM      6  C   UNL     1     182.119 179.262 183.569  1.00  0.00     0.074 A 
ENDROOT
BRANCH   1   7
ATOM      7  C   UNL     1     180.715 179.400 185.697  1.00  0.00     0.339 C 
ATOM      8  O   UNL     1     179.487 179.680 185.759  1.00  0.00    -0.246 OA
BRANCH   7   9
ATOM      9  O   UNL     1     181.564 179.733 186.757  1.00  0.00    -0.462 OA
BRANCH   9  10
ATOM     10  C   UNL     1     181.509 180.990 187.423  1.00  0.00     0.236 C 
BRANCH  10  11
ATOM     11  C   UNL     1     182.631 181.081 188.469  1.00  0.00     0.021 C 
ATOM     12  C   UNL     1     183.727 182.042 187.997  1.00  0.00     0.011 C 
ATOM     13  C   UNL     1     183.225 179.696 188.761  1.00  0.00     0.011 C 
ENDBRANCH  10  11
ENDBRANCH   9  10
ENDBRANCH   7   9
ENDBRANCH   1   7
BRANCH   6  14
ATOM     14  C   UNL     1     182.710 180.609 183.740  1.00  0.00     0.339 C 
ATOM     15  O   UNL     1     183.643 180.793 184.569  1.00  0.00    -0.246 OA
BRANCH  14  16
ATOM     16  O   UNL     1     182.268 181.663 182.929  1.00  0.00    -0.462 OA
BRANCH  16  17
ATOM     17  C   UNL     1     181.069 182.401 183.164  1.00  0.00     0.236 C 
BRANCH  17  18
ATOM     18  C   UNL     1     180.005 182.086 182.095  1.00  0.00     0.021 C 
ATOM     19  C   UNL     1     180.639 181.575 180.796  1.00  0.00     0.011 C 
ATOM     20  C   UNL     1     179.003 181.057 182.634  1.00  0.00     0.011 C 
ENDBRANCH  17  18
ENDBRANCH  16  17
ENDBRANCH  14  16
ENDBRANCH   6  14
TORSDOF 8
ENDMDL
MODEL 9
REMARK VINA RESULT:    -5.112      1.736      4.605
REMARK INTER + INTRA:          -8.907
REMARK INTER:                  -7.492
REMARK INTRA:                  -1.415
REMARK UNBOUND:                -1.405
REMARK SMILES CC(C)COC(=O)c1ccccc1C(=O)OCC(C)C
REMARK SMILES IDX 8 1 9 2 10 3 11 4 12 5 13 6 6 7 7 8 5 9 4 10 2 11 1 12 3 13
REMARK SMILES IDX 14 14 15 15 16 16 17 17 18 18 19 19 20 20
REMARK H PARENT
REMARK Flexibility Score: inf
ROOT
ATOM      1  C   UNL     1     181.271 181.380 186.461  1.00  0.00     0.074 A 
ATOM      2  C   UNL     1     181.684 181.077 187.771  1.00  0.00     0.016 A 
ATOM      3  C   UNL     1     182.970 181.396 188.206  1.00  0.00     0.001 A 
ATOM      4  C   UNL     1     183.864 182.023 187.342  1.00  0.00     0.001 A 
ATOM      5  C   UNL     1     183.468 182.354 186.045  1.00  0.00     0.016 A 
ATOM      6  C   UNL     1     182.169 182.063 185.593  1.00  0.00     0.074 A 
ENDROOT
BRANCH   1   7
ATOM      7  C   UNL     1     179.933 180.913 186.034  1.00  0.00     0.339 C 
ATOM      8  O   UNL     1     178.968 181.721 185.957  1.00  0.00    -0.246 OA
BRANCH   7   9
ATOM      9  O   UNL     1     179.760 179.577 185.658  1.00  0.00    -0.462 OA
BRANCH   9  10
ATOM     10  C   UNL     1     180.115 179.086 184.370  1.00  0.00     0.236 C 
BRANCH  10  11
ATOM     11  C   UNL     1     181.194 178.000 184.499  1.00  0.00     0.021 C 
ATOM     12  C   UNL     1     182.588 178.604 184.304  1.00  0.00     0.011 C 
ATOM     13  C   UNL     1     180.958 176.867 183.492  1.00  0.00     0.011 C 
ENDBRANCH  10  11
ENDBRANCH   9  10
ENDBRANCH   7   9
ENDBRANCH   1   7
BRANCH   6  14
ATOM     14  C   UNL     1     181.781 182.544 184.247  1.00  0.00     0.339 C 
ATOM     15  O   UNL     1     182.130 181.903 183.218  1.00  0.00    -0.246 OA
BRANCH  14  16
ATOM     16  O   UNL     1     180.971 183.681 184.129  1.00  0.00    -0.462 OA
BRANCH  16  17
ATOM     17  C   UNL     1     180.483 184.187 182.886  1.00  0.00     0.236 C 
BRANCH  17  18
ATOM     18  C   UNL     1     178.953 184.035 182.789  1.00  0.00     0.021 C 
ATOM     19  C   UNL     1     178.537 182.572 182.598  1.00  0.00     0.011 C 
ATOM     20  C   UNL     1     178.282 184.616 184.040  1.00  0.00     0.011 C 
ENDBRANCH  17  18
ENDBRANCH  16  17
ENDBRANCH  14  16
ENDBRANCH   6  14
TORSDOF 8
ENDMDL
