MODEL 1
REMARK VINA RESULT:    -2.361      0.000      0.000
REMARK INTER + INTRA:          -3.895
REMARK INTER:                  -3.604
REMARK INTRA:                  -0.291
REMARK UNBOUND:                -0.291
REMARK SMILES CCCCCCCCCCC(=O)[O-]
REMARK SMILES IDX 7 1 8 2 9 3 10 4 11 5 12 6 13 7 6 8 5 9 4 10 3 11 2 12 1 13
REMARK H PARENT
REMARK Flexibility Score: inf
ROOT
ATOM      1  C   UNL     1      -4.617  35.274  19.303  1.00  0.00     0.000 C 
ENDROOT
BRANCH   1   2
ATOM      2  C   UNL     1      -6.036  35.394  19.875  1.00  0.00     0.000 C 
BRANCH   2   3
ATOM      3  C   UNL     1      -6.007  35.965  21.300  1.00  0.00     0.006 C 
BRANCH   3   4
ATOM      4  C   UNL     1      -4.964  35.269  22.185  1.00  0.00     0.053 C 
BRANCH   4   5
ATOM      5  C   UNL     1      -5.554  34.805  23.481  1.00  0.00     0.041 C 
ATOM      6  O   UNL     1      -5.563  35.569  24.482  1.00  0.00    -0.550 OA
ATOM      7  O   UNL     1      -6.125  33.542  23.573  1.00  0.00    -0.550 OA
ENDBRANCH   4   5
ENDBRANCH   3   4
ENDBRANCH   2   3
ENDBRANCH   1   2
BRANCH   1   8
ATOM      8  C   UNL     1      -4.595  34.720  17.866  1.00  0.00     0.000 C 
BRANCH   8   9
ATOM      9  C   UNL     1      -4.206  35.742  16.780  1.00  0.00    -0.000 C 
BRANCH   9  10
ATOM     10  C   UNL     1      -3.153  35.250  15.768  1.00  0.00    -0.000 C 
BRANCH  10  11
ATOM     11  C   UNL     1      -2.823  36.242  14.634  1.00  0.00    -0.000 C 
BRANCH  11  12
ATOM     12  C   UNL     1      -4.050  36.837  13.920  1.00  0.00    -0.003 C 
ATOM     13  C   UNL     1      -4.230  38.331  14.190  1.00  0.00     0.004 C 
ENDBRANCH  11  12
ENDBRANCH  10  11
ENDBRANCH   9  10
ENDBRANCH   8   9
ENDBRANCH   1   8
TORSDOF 9
ENDMDL
MODEL 2
REMARK VINA RESULT:    -2.330      4.157      7.688
REMARK INTER + INTRA:          -3.848
REMARK INTER:                  -3.487
REMARK INTRA:                  -0.361
REMARK UNBOUND:                -0.291
REMARK SMILES CCCCCCCCCCC(=O)[O-]
REMARK SMILES IDX 7 1 8 2 9 3 10 4 11 5 12 6 13 7 6 8 5 9 4 10 3 11 2 12 1 13
REMARK H PARENT
REMARK Flexibility Score: inf
ROOT
ATOM      1  C   UNL     1      -4.792  34.933  19.284  1.00  0.00     0.000 C 
ENDROOT
BRANCH   1   2
ATOM      2  C   UNL     1      -4.708  34.549  17.800  1.00  0.00     0.000 C 
BRANCH   2   3
ATOM      3  C   UNL     1      -3.998  35.643  16.989  1.00  0.00     0.006 C 
BRANCH   3   4
ATOM      4  C   UNL     1      -3.309  35.085  15.737  1.00  0.00     0.053 C 
BRANCH   4   5
ATOM      5  C   UNL     1      -3.184  36.121  14.663  1.00  0.00     0.041 C 
ATOM      6  O   UNL     1      -2.053  36.410  14.190  1.00  0.00    -0.550 OA
ATOM      7  O   UNL     1      -4.320  36.744  14.159  1.00  0.00    -0.550 OA
ENDBRANCH   4   5
ENDBRANCH   3   4
ENDBRANCH   2   3
ENDBRANCH   1   2
BRANCH   1   8
ATOM      8  C   UNL     1      -4.976  36.446  19.500  1.00  0.00     0.000 C 
BRANCH   8   9
ATOM      9  C   UNL     1      -5.614  36.838  20.848  1.00  0.00    -0.000 C 
BRANCH   9  10
ATOM     10  C   UNL     1      -5.777  35.681  21.853  1.00  0.00    -0.000 C 
BRANCH  10  11
ATOM     11  C   UNL     1      -6.125  36.113  23.293  1.00  0.00    -0.000 C 
BRANCH  11  12
ATOM     12  C   UNL     1      -6.083  34.981  24.335  1.00  0.00    -0.003 C 
ATOM     13  C   UNL     1      -6.117  33.589  23.704  1.00  0.00     0.004 C 
ENDBRANCH  11  12
ENDBRANCH  10  11
ENDBRANCH   9  10
ENDBRANCH   8   9
ENDBRANCH   1   8
TORSDOF 9
ENDMDL
MODEL 3
REMARK VINA RESULT:    -2.184      2.268      2.614
REMARK INTER + INTRA:          -3.624
REMARK INTER:                  -3.127
REMARK INTRA:                  -0.497
REMARK UNBOUND:                -0.291
REMARK SMILES CCCCCCCCCCC(=O)[O-]
REMARK SMILES IDX 7 1 8 2 9 3 10 4 11 5 12 6 13 7 6 8 5 9 4 10 3 11 2 12 1 13
REMARK H PARENT
REMARK Flexibility Score: inf
ROOT
ATOM      1  C   UNL     1      -5.632  34.229  18.396  1.00  0.00     0.000 C 
ENDROOT
BRANCH   1   2
ATOM      2  C   UNL     1      -6.104  34.703  19.778  1.00  0.00     0.000 C 
BRANCH   2   3
ATOM      3  C   UNL     1      -4.980  35.446  20.516  1.00  0.00     0.006 C 
BRANCH   3   4
ATOM      4  C   UNL     1      -5.520  36.529  21.459  1.00  0.00     0.053 C 
BRANCH   4   5
ATOM      5  C   UNL     1      -5.477  37.887  20.830  1.00  0.00     0.041 C 
ATOM      6  O   UNL     1      -5.335  38.003  19.584  1.00  0.00    -0.550 OA
ATOM      7  O   UNL     1      -5.629  39.024  21.615  1.00  0.00    -0.550 OA
ENDBRANCH   4   5
ENDBRANCH   3   4
ENDBRANCH   2   3
ENDBRANCH   1   2
BRANCH   1   8
ATOM      8  C   UNL     1      -4.229  34.750  18.032  1.00  0.00     0.000 C 
BRANCH   8   9
ATOM      9  C   UNL     1      -4.156  35.564  16.725  1.00  0.00    -0.000 C 
BRANCH   9  10
ATOM     10  C   UNL     1      -2.897  35.315  15.871  1.00  0.00    -0.000 C 
BRANCH  10  11
ATOM     11  C   UNL     1      -2.836  36.112  14.553  1.00  0.00    -0.000 C 
BRANCH  11  12
ATOM     12  C   UNL     1      -4.175  36.723  14.104  1.00  0.00    -0.003 C 
ATOM     13  C   UNL     1      -4.201  38.247  14.210  1.00  0.00     0.004 C 
ENDBRANCH  11  12
ENDBRANCH  10  11
ENDBRANCH   9  10
ENDBRANCH   8   9
ENDBRANCH   1   8
TORSDOF 9
ENDMDL
MODEL 4
REMARK VINA RESULT:    -1.975      1.043      1.560
REMARK INTER + INTRA:          -3.306
REMARK INTER:                  -3.019
REMARK INTRA:                  -0.286
REMARK UNBOUND:                -0.291
REMARK SMILES CCCCCCCCCCC(=O)[O-]
REMARK SMILES IDX 7 1 8 2 9 3 10 4 11 5 12 6 13 7 6 8 5 9 4 10 3 11 2 12 1 13
REMARK H PARENT
REMARK Flexibility Score: inf
ROOT
ATOM      1  C   UNL     1      -5.342  36.326  19.669  1.00  0.00     0.000 C 
ENDROOT
BRANCH   1   2
ATOM      2  C   UNL     1      -5.369  36.527  21.191  1.00  0.00     0.000 C 
BRANCH   2   3
ATOM      3  C   UNL     1      -6.089  35.361  21.885  1.00  0.00     0.006 C 
BRANCH   3   4
ATOM      4  C   UNL     1      -5.348  34.885  23.141  1.00  0.00     0.053 C 
BRANCH   4   5
ATOM      5  C   UNL     1      -5.840  35.579  24.374  1.00  0.00     0.041 C 
ATOM      6  O   UNL     1      -6.027  36.824  24.368  1.00  0.00    -0.550 OA
ATOM      7  O   UNL     1      -6.125  34.845  25.520  1.00  0.00    -0.550 OA
ENDBRANCH   4   5
ENDBRANCH   3   4
ENDBRANCH   2   3
ENDBRANCH   1   2
BRANCH   1   8
ATOM      8  C   UNL     1      -5.469  34.848  19.259  1.00  0.00     0.000 C 
BRANCH   8   9
ATOM      9  C   UNL     1      -4.729  34.466  17.961  1.00  0.00    -0.000 C 
BRANCH   9  10
ATOM     10  C   UNL     1      -4.351  35.653  17.053  1.00  0.00    -0.000 C 
BRANCH  10  11
ATOM     11  C   UNL     1      -3.168  35.391  16.098  1.00  0.00    -0.000 C 
BRANCH  11  12
ATOM     12  C   UNL     1      -3.430  35.766  14.628  1.00  0.00    -0.003 C 
ATOM     13  C   UNL     1      -3.827  37.231  14.449  1.00  0.00     0.004 C 
ENDBRANCH  11  12
ENDBRANCH  10  11
ENDBRANCH   9  10
ENDBRANCH   8   9
ENDBRANCH   1   8
TORSDOF 9
ENDMDL
MODEL 5
REMARK VINA RESULT:    -1.877      1.538      2.468
REMARK INTER + INTRA:          -3.156
REMARK INTER:                  -2.829
REMARK INTRA:                  -0.327
REMARK UNBOUND:                -0.291
REMARK SMILES CCCCCCCCCCC(=O)[O-]
REMARK SMILES IDX 7 1 8 2 9 3 10 4 11 5 12 6 13 7 6 8 5 9 4 10 3 11 2 12 1 13
REMARK H PARENT
REMARK Flexibility Score: inf
ROOT
ATOM      1  C   UNL     1      -5.008  35.778  20.983  1.00  0.00     0.000 C 
ENDROOT
BRANCH   1   2
ATOM      2  C   UNL     1      -6.076  35.136  21.880  1.00  0.00     0.000 C 
BRANCH   2   3
ATOM      3  C   UNL     1      -5.446  34.565  23.159  1.00  0.00     0.006 C 
BRANCH   3   4
ATOM      4  C   UNL     1      -6.125  35.095  24.429  1.00  0.00     0.053 C 
BRANCH   4   5
ATOM      5  C   UNL     1      -5.539  36.401  24.869  1.00  0.00     0.041 C 
ATOM      6  O   UNL     1      -5.903  37.475  24.323  1.00  0.00    -0.550 OA
ATOM      7  O   UNL     1      -4.615  36.435  25.907  1.00  0.00    -0.550 OA
ENDBRANCH   4   5
ENDBRANCH   3   4
ENDBRANCH   2   3
ENDBRANCH   1   2
BRANCH   1   8
ATOM      8  C   UNL     1      -5.457  35.904  19.515  1.00  0.00     0.000 C 
BRANCH   8   9
ATOM      9  C   UNL     1      -5.503  34.576  18.732  1.00  0.00    -0.000 C 
BRANCH   9  10
ATOM     10  C   UNL     1      -4.373  34.388  17.700  1.00  0.00    -0.000 C 
BRANCH  10  11
ATOM     11  C   UNL     1      -4.016  35.649  16.887  1.00  0.00    -0.000 C 
BRANCH  11  12
ATOM     12  C   UNL     1      -3.116  35.396  15.665  1.00  0.00    -0.003 C 
ATOM     13  C   UNL     1      -3.482  36.270  14.465  1.00  0.00     0.004 C 
ENDBRANCH  11  12
ENDBRANCH  10  11
ENDBRANCH   9  10
ENDBRANCH   8   9
ENDBRANCH   1   8
TORSDOF 9
ENDMDL
MODEL 6
REMARK VINA RESULT:    -1.782      3.286      4.666
REMARK INTER + INTRA:          -3.010
REMARK INTER:                  -2.556
REMARK INTRA:                  -0.454
REMARK UNBOUND:                -0.291
REMARK SMILES CCCCCCCCCCC(=O)[O-]
REMARK SMILES IDX 7 1 8 2 9 3 10 4 11 5 12 6 13 7 6 8 5 9 4 10 3 11 2 12 1 13
REMARK H PARENT
REMARK Flexibility Score: inf
ROOT
ATOM      1  C   UNL     1      -4.343  34.945  21.592  1.00  0.00     0.000 C 
ENDROOT
BRANCH   1   2
ATOM      2  C   UNL     1      -4.711  34.066  22.795  1.00  0.00     0.000 C 
BRANCH   2   3
ATOM      3  C   UNL     1      -6.114  34.409  23.316  1.00  0.00     0.006 C 
BRANCH   3   4
ATOM      4  C   UNL     1      -6.097  34.853  24.785  1.00  0.00     0.053 C 
BRANCH   4   5
ATOM      5  C   UNL     1      -5.722  36.296  24.926  1.00  0.00     0.041 C 
ATOM      6  O   UNL     1      -6.124  37.140  24.082  1.00  0.00    -0.550 OA
ATOM      7  O   UNL     1      -4.957  36.714  26.008  1.00  0.00    -0.550 OA
ENDBRANCH   4   5
ENDBRANCH   3   4
ENDBRANCH   2   3
ENDBRANCH   1   2
BRANCH   1   8
ATOM      8  C   UNL     1      -5.517  35.145  20.615  1.00  0.00     0.000 C 
BRANCH   8   9
ATOM      9  C   UNL     1      -5.187  35.980  19.362  1.00  0.00    -0.000 C 
BRANCH   9  10
ATOM     10  C   UNL     1      -5.084  37.499  19.599  1.00  0.00    -0.000 C 
BRANCH  10  11
ATOM     11  C   UNL     1      -5.636  37.987  20.954  1.00  0.00    -0.000 C 
BRANCH  11  12
ATOM     12  C   UNL     1      -4.716  38.959  21.714  1.00  0.00    -0.003 C 
ATOM     13  C   UNL     1      -5.457  40.183  22.251  1.00  0.00     0.004 C 
ENDBRANCH  11  12
ENDBRANCH  10  11
ENDBRANCH   9  10
ENDBRANCH   8   9
ENDBRANCH   1   8
TORSDOF 9
ENDMDL
