MODEL 1
REMARK VINA RESULT:    -4.523      0.000      0.000
REMARK INTER + INTRA:          -5.963
REMARK INTER:                  -5.845
REMARK INTRA:                  -0.118
REMARK UNBOUND:                -0.118
REMARK SMILES CCCCCCC(=O)[O-]
REMARK SMILES IDX 5 1 6 2 7 3 8 4 9 5 4 6 3 7 2 8 1 9
REMARK H PARENT
REMARK Flexibility Score: inf
ROOT
ATOM      1  C   UNL     1       9.054  54.660  21.537  1.00  0.00     0.006 C 
ENDROOT
BRANCH   1   2
ATOM      2  C   UNL     1      10.124  53.603  21.244  1.00  0.00     0.053 C 
BRANCH   2   3
ATOM      3  C   UNL     1      10.598  52.972  22.515  1.00  0.00     0.041 C 
ATOM      4  O   UNL     1      10.867  53.690  23.515  1.00  0.00    -0.550 OA
ATOM      5  O   UNL     1      10.696  51.591  22.613  1.00  0.00    -0.550 OA
ENDBRANCH   2   3
ENDBRANCH   1   2
BRANCH   1   6
ATOM      6  C   UNL     1       7.807  54.516  20.646  1.00  0.00     0.000 C 
BRANCH   6   7
ATOM      7  C   UNL     1       7.878  55.268  19.304  1.00  0.00    -0.000 C 
BRANCH   7   8
ATOM      8  C   UNL     1       7.528  54.381  18.101  1.00  0.00    -0.003 C 
ATOM      9  C   UNL     1       7.069  55.221  16.913  1.00  0.00     0.004 C 
ENDBRANCH   7   8
ENDBRANCH   6   7
ENDBRANCH   1   6
TORSDOF 5
ENDMDL
MODEL 2
REMARK VINA RESULT:    -4.454      0.525      1.201
REMARK INTER + INTRA:          -5.874
REMARK INTER:                  -5.733
REMARK INTRA:                  -0.141
REMARK UNBOUND:                -0.118
REMARK SMILES CCCCCCC(=O)[O-]
REMARK SMILES IDX 5 1 6 2 7 3 8 4 9 5 4 6 3 7 2 8 1 9
REMARK H PARENT
REMARK Flexibility Score: inf
ROOT
ATOM      1  C   UNL     1       8.780  54.666  21.561  1.00  0.00     0.006 C 
ENDROOT
BRANCH   1   2
ATOM      2  C   UNL     1       9.932  53.711  21.223  1.00  0.00     0.053 C 
BRANCH   2   3
ATOM      3  C   UNL     1      10.505  53.121  22.473  1.00  0.00     0.041 C 
ATOM      4  O   UNL     1      10.674  51.876  22.564  1.00  0.00    -0.550 OA
ATOM      5  O   UNL     1      10.897  53.947  23.517  1.00  0.00    -0.550 OA
ENDBRANCH   2   3
ENDBRANCH   1   2
BRANCH   1   6
ATOM      6  C   UNL     1       8.182  55.349  20.318  1.00  0.00     0.000 C 
BRANCH   6   7
ATOM      7  C   UNL     1       7.186  54.488  19.520  1.00  0.00    -0.000 C 
BRANCH   7   8
ATOM      8  C   UNL     1       7.654  54.206  18.085  1.00  0.00    -0.003 C 
ATOM      9  C   UNL     1       7.146  55.274  17.121  1.00  0.00     0.004 C 
ENDBRANCH   7   8
ENDBRANCH   6   7
ENDBRANCH   1   6
TORSDOF 5
ENDMDL
MODEL 3
REMARK VINA RESULT:    -4.396      3.160      5.270
REMARK INTER + INTRA:          -5.799
REMARK INTER:                  -5.528
REMARK INTRA:                  -0.271
REMARK UNBOUND:                -0.118
REMARK SMILES CCCCCCC(=O)[O-]
REMARK SMILES IDX 5 1 6 2 7 3 8 4 9 5 4 6 3 7 2 8 1 9
REMARK H PARENT
REMARK Flexibility Score: inf
ROOT
ATOM      1  C   UNL     1       8.843  54.110  21.284  1.00  0.00     0.006 C 
ENDROOT
BRANCH   1   2
ATOM      2  C   UNL     1       8.380  55.557  21.076  1.00  0.00     0.053 C 
BRANCH   2   3
ATOM      3  C   UNL     1       8.004  55.785  19.646  1.00  0.00     0.041 C 
ATOM      4  O   UNL     1       7.737  56.948  19.240  1.00  0.00    -0.550 OA
ATOM      5  O   UNL     1       7.995  54.725  18.751  1.00  0.00    -0.550 OA
ENDBRANCH   2   3
ENDBRANCH   1   2
BRANCH   1   6
ATOM      6  C   UNL     1      10.338  54.002  21.636  1.00  0.00     0.000 C 
BRANCH   6   7
ATOM      7  C   UNL     1      10.634  53.549  23.078  1.00  0.00    -0.000 C 
BRANCH   7   8
ATOM      8  C   UNL     1      10.670  54.714  24.077  1.00  0.00    -0.003 C 
ATOM      9  C   UNL     1       9.439  54.704  24.978  1.00  0.00     0.004 C 
ENDBRANCH   7   8
ENDBRANCH   6   7
ENDBRANCH   1   6
TORSDOF 5
ENDMDL
MODEL 4
REMARK VINA RESULT:    -4.391      1.684      2.160
REMARK INTER + INTRA:          -5.793
REMARK INTER:                  -5.594
REMARK INTRA:                  -0.199
REMARK UNBOUND:                -0.118
REMARK SMILES CCCCCCC(=O)[O-]
REMARK SMILES IDX 5 1 6 2 7 3 8 4 9 5 4 6 3 7 2 8 1 9
REMARK H PARENT
REMARK Flexibility Score: inf
ROOT
ATOM      1  C   UNL     1      10.200  54.082  21.623  1.00  0.00     0.006 C 
ENDROOT
BRANCH   1   2
ATOM      2  C   UNL     1      10.145  53.606  23.080  1.00  0.00     0.053 C 
BRANCH   2   3
ATOM      3  C   UNL     1      10.474  54.731  24.010  1.00  0.00     0.041 C 
ATOM      4  O   UNL     1       9.866  55.830  23.914  1.00  0.00    -0.550 OA
ATOM      5  O   UNL     1      11.415  54.551  25.015  1.00  0.00    -0.550 OA
ENDBRANCH   2   3
ENDBRANCH   1   2
BRANCH   1   6
ATOM      6  C   UNL     1       8.806  54.265  20.998  1.00  0.00     0.000 C 
BRANCH   6   7
ATOM      7  C   UNL     1       8.424  55.722  20.679  1.00  0.00    -0.000 C 
BRANCH   7   8
ATOM      8  C   UNL     1       7.719  55.873  19.323  1.00  0.00    -0.003 C 
ATOM      9  C   UNL     1       7.800  54.581  18.515  1.00  0.00     0.004 C 
ENDBRANCH   7   8
ENDBRANCH   6   7
ENDBRANCH   1   6
TORSDOF 5
ENDMDL
MODEL 5
REMARK VINA RESULT:    -4.384      2.959      4.721
REMARK INTER + INTRA:          -5.784
REMARK INTER:                  -5.482
REMARK INTRA:                  -0.302
REMARK UNBOUND:                -0.118
REMARK SMILES CCCCCCC(=O)[O-]
REMARK SMILES IDX 5 1 6 2 7 3 8 4 9 5 4 6 3 7 2 8 1 9
REMARK H PARENT
REMARK Flexibility Score: inf
ROOT
ATOM      1  C   UNL     1       7.269  54.885  21.954  1.00  0.00     0.006 C 
ENDROOT
BRANCH   1   2
ATOM      2  C   UNL     1       7.874  56.147  21.328  1.00  0.00     0.053 C 
BRANCH   2   3
ATOM      3  C   UNL     1       7.901  56.030  19.837  1.00  0.00     0.041 C 
ATOM      4  O   UNL     1       7.774  57.058  19.119  1.00  0.00    -0.550 OA
ATOM      5  O   UNL     1       8.115  54.796  19.239  1.00  0.00    -0.550 OA
ENDBRANCH   2   3
ENDBRANCH   1   2
BRANCH   1   6
ATOM      6  C   UNL     1       8.295  54.057  22.748  1.00  0.00     0.000 C 
BRANCH   6   7
ATOM      7  C   UNL     1       9.753  54.535  22.621  1.00  0.00    -0.000 C 
BRANCH   7   8
ATOM      8  C   UNL     1      10.620  53.594  21.774  1.00  0.00    -0.003 C 
ATOM      9  C   UNL     1      10.493  52.151  22.252  1.00  0.00     0.004 C 
ENDBRANCH   7   8
ENDBRANCH   6   7
ENDBRANCH   1   6
TORSDOF 5
ENDMDL
MODEL 6
REMARK VINA RESULT:    -4.364      1.328      2.305
REMARK INTER + INTRA:          -5.758
REMARK INTER:                  -5.628
REMARK INTRA:                  -0.130
REMARK UNBOUND:                -0.118
REMARK SMILES CCCCCCC(=O)[O-]
REMARK SMILES IDX 5 1 6 2 7 3 8 4 9 5 4 6 3 7 2 8 1 9
REMARK H PARENT
REMARK Flexibility Score: inf
ROOT
ATOM      1  C   UNL     1       9.217  54.647  21.392  1.00  0.00     0.006 C 
ENDROOT
BRANCH   1   2
ATOM      2  C   UNL     1      10.203  53.487  21.207  1.00  0.00     0.053 C 
BRANCH   2   3
ATOM      3  C   UNL     1      10.591  52.914  22.534  1.00  0.00     0.041 C 
ATOM      4  O   UNL     1      10.670  51.666  22.685  1.00  0.00    -0.550 OA
ATOM      5  O   UNL     1      10.914  53.757  23.589  1.00  0.00    -0.550 OA
ENDBRANCH   2   3
ENDBRANCH   1   2
BRANCH   1   6
ATOM      6  C   UNL     1       8.085  54.645  20.350  1.00  0.00     0.000 C 
BRANCH   6   7
ATOM      7  C   UNL     1       7.723  56.030  19.783  1.00  0.00    -0.000 C 
BRANCH   7   8
ATOM      8  C   UNL     1       6.864  56.865  20.743  1.00  0.00    -0.003 C 
ATOM      9  C   UNL     1       5.814  56.000  21.434  1.00  0.00     0.004 C 
ENDBRANCH   7   8
ENDBRANCH   6   7
ENDBRANCH   1   6
TORSDOF 5
ENDMDL
MODEL 7
REMARK VINA RESULT:    -4.289      2.031      2.702
REMARK INTER + INTRA:          -5.661
REMARK INTER:                  -5.457
REMARK INTRA:                  -0.204
REMARK UNBOUND:                -0.118
REMARK SMILES CCCCCCC(=O)[O-]
REMARK SMILES IDX 5 1 6 2 7 3 8 4 9 5 4 6 3 7 2 8 1 9
REMARK H PARENT
REMARK Flexibility Score: inf
ROOT
ATOM      1  C   UNL     1       8.274  53.683  23.785  1.00  0.00     0.006 C 
ENDROOT
BRANCH   1   2
ATOM      2  C   UNL     1       9.182  54.668  24.531  1.00  0.00     0.053 C 
BRANCH   2   3
ATOM      3  C   UNL     1      10.621  54.374  24.243  1.00  0.00     0.041 C 
ATOM      4  O   UNL     1      11.513  54.719  25.062  1.00  0.00    -0.550 OA
ATOM      5  O   UNL     1      10.972  53.675  23.096  1.00  0.00    -0.550 OA
ENDBRANCH   2   3
ENDBRANCH   1   2
BRANCH   1   6
ATOM      6  C   UNL     1       7.366  54.369  22.750  1.00  0.00     0.000 C 
BRANCH   6   7
ATOM      7  C   UNL     1       8.090  54.889  21.494  1.00  0.00    -0.000 C 
BRANCH   7   8
ATOM      8  C   UNL     1       7.704  56.331  21.135  1.00  0.00    -0.003 C 
ATOM      9  C   UNL     1       7.925  56.604  19.650  1.00  0.00     0.004 C 
ENDBRANCH   7   8
ENDBRANCH   6   7
ENDBRANCH   1   6
TORSDOF 5
ENDMDL
MODEL 8
REMARK VINA RESULT:    -4.209      3.525      5.200
REMARK INTER + INTRA:          -5.558
REMARK INTER:                  -5.303
REMARK INTRA:                  -0.254
REMARK UNBOUND:                -0.118
REMARK SMILES CCCCCCC(=O)[O-]
REMARK SMILES IDX 5 1 6 2 7 3 8 4 9 5 4 6 3 7 2 8 1 9
REMARK H PARENT
REMARK Flexibility Score: inf
ROOT
ATOM      1  C   UNL     1       7.907  54.439  20.498  1.00  0.00     0.006 C 
ENDROOT
BRANCH   1   2
ATOM      2  C   UNL     1       7.137  55.229  21.564  1.00  0.00     0.053 C 
BRANCH   2   3
ATOM      3  C   UNL     1       6.578  56.488  20.980  1.00  0.00     0.041 C 
ATOM      4  O   UNL     1       7.068  56.966  19.923  1.00  0.00    -0.550 OA
ATOM      5  O   UNL     1       5.486  57.105  21.574  1.00  0.00    -0.550 OA
ENDBRANCH   2   3
ENDBRANCH   1   2
BRANCH   1   6
ATOM      6  C   UNL     1       9.357  54.130  20.909  1.00  0.00     0.000 C 
BRANCH   6   7
ATOM      7  C   UNL     1       9.715  54.505  22.359  1.00  0.00    -0.000 C 
BRANCH   7   8
ATOM      8  C   UNL     1      10.603  53.458  23.046  1.00  0.00    -0.003 C 
ATOM      9  C   UNL     1      10.497  52.105  22.349  1.00  0.00     0.004 C 
ENDBRANCH   7   8
ENDBRANCH   6   7
ENDBRANCH   1   6
TORSDOF 5
ENDMDL
MODEL 9
REMARK VINA RESULT:    -4.036      3.641      5.427
REMARK INTER + INTRA:          -5.334
REMARK INTER:                  -5.180
REMARK INTRA:                  -0.154
REMARK UNBOUND:                -0.118
REMARK SMILES CCCCCCC(=O)[O-]
REMARK SMILES IDX 5 1 6 2 7 3 8 4 9 5 4 6 3 7 2 8 1 9
REMARK H PARENT
REMARK Flexibility Score: inf
ROOT
ATOM      1  C   UNL     1       7.660  54.896  20.320  1.00  0.00     0.006 C 
ENDROOT
BRANCH   1   2
ATOM      2  C   UNL     1       7.667  55.813  19.091  1.00  0.00     0.053 C 
BRANCH   2   3
ATOM      3  C   UNL     1       7.319  55.039  17.859  1.00  0.00     0.041 C 
ATOM      4  O   UNL     1       7.248  53.782  17.902  1.00  0.00    -0.550 OA
ATOM      5  O   UNL     1       7.025  55.706  16.678  1.00  0.00    -0.550 OA
ENDBRANCH   2   3
ENDBRANCH   1   2
BRANCH   1   6
ATOM      6  C   UNL     1       9.069  54.637  20.883  1.00  0.00     0.000 C 
BRANCH   6   7
ATOM      7  C   UNL     1       9.200  54.809  22.408  1.00  0.00    -0.000 C 
BRANCH   7   8
ATOM      8  C   UNL     1       9.116  53.479  23.170  1.00  0.00    -0.003 C 
ATOM      9  C   UNL     1       7.980  53.500  24.189  1.00  0.00     0.004 C 
ENDBRANCH   7   8
ENDBRANCH   6   7
ENDBRANCH   1   6
TORSDOF 5
ENDMDL
