MODEL 1
REMARK VINA RESULT:    -4.791      0.000      0.000
REMARK INTER + INTRA:          -5.957
REMARK INTER:                  -5.912
REMARK INTRA:                  -0.046
REMARK UNBOUND:                -0.046
REMARK SMILES CCCCCC(=O)[O-]
REMARK SMILES IDX 4 1 5 2 6 3 7 4 8 5 3 6 2 7 1 8
REMARK H PARENT
REMARK Flexibility Score: inf
ROOT
ATOM      1  C   UNL     1      -0.556  -0.984  -0.879  1.00  0.00     0.006 C 
ENDROOT
BRANCH   1   2
ATOM      2  C   UNL     1      -1.889  -0.995  -1.636  1.00  0.00     0.053 C 
BRANCH   2   3
ATOM      3  C   UNL     1      -2.853  -1.937  -0.987  1.00  0.00     0.041 C 
ATOM      4  O   UNL     1      -3.871  -1.493  -0.394  1.00  0.00    -0.550 OA
ATOM      5  O   UNL     1      -2.653  -3.308  -1.079  1.00  0.00    -0.550 OA
ENDBRANCH   2   3
ENDBRANCH   1   2
BRANCH   1   6
ATOM      6  C   UNL     1       0.104   0.401  -0.949  1.00  0.00     0.000 C 
BRANCH   6   7
ATOM      7  C   UNL     1       1.469   0.369  -1.651  1.00  0.00    -0.003 C 
ATOM      8  C   UNL     1       2.366   1.541  -1.254  1.00  0.00     0.004 C 
ENDBRANCH   6   7
ENDBRANCH   1   6
TORSDOF 4
ENDMDL
MODEL 2
REMARK VINA RESULT:    -4.723      3.910      5.369
REMARK INTER + INTRA:          -5.873
REMARK INTER:                  -5.825
REMARK INTRA:                  -0.047
REMARK UNBOUND:                -0.046
REMARK SMILES CCCCCC(=O)[O-]
REMARK SMILES IDX 4 1 5 2 6 3 7 4 8 5 3 6 2 7 1 8
REMARK H PARENT
REMARK Flexibility Score: inf
ROOT
ATOM      1  C   UNL     1       0.339   0.739  -0.829  1.00  0.00     0.006 C 
ENDROOT
BRANCH   1   2
ATOM      2  C   UNL     1       1.620   0.781  -1.669  1.00  0.00     0.053 C 
BRANCH   2   3
ATOM      3  C   UNL     1       2.640   1.667  -1.026  1.00  0.00     0.041 C 
ATOM      4  O   UNL     1       2.502   2.918  -1.058  1.00  0.00    -0.550 OA
ATOM      5  O   UNL     1       3.717   1.109  -0.350  1.00  0.00    -0.550 OA
ENDBRANCH   2   3
ENDBRANCH   1   2
BRANCH   1   6
ATOM      6  C   UNL     1      -0.335  -0.638  -0.924  1.00  0.00     0.000 C 
BRANCH   6   7
ATOM      7  C   UNL     1      -1.624  -0.607  -1.757  1.00  0.00    -0.003 C 
ATOM      8  C   UNL     1      -2.614  -1.700  -1.355  1.00  0.00     0.004 C 
ENDBRANCH   6   7
ENDBRANCH   1   6
TORSDOF 4
ENDMDL
MODEL 3
REMARK VINA RESULT:    -4.195      3.210      4.980
REMARK INTER + INTRA:          -5.221
REMARK INTER:                  -5.142
REMARK INTRA:                  -0.080
REMARK UNBOUND:                -0.046
REMARK SMILES CCCCCC(=O)[O-]
REMARK SMILES IDX 4 1 5 2 6 3 7 4 8 5 3 6 2 7 1 8
REMARK H PARENT
REMARK Flexibility Score: inf
ROOT
ATOM      1  C   UNL     1      -0.555  -0.538  -0.675  1.00  0.00     0.006 C 
ENDROOT
BRANCH   1   2
ATOM      2  C   UNL     1       0.025   0.863  -0.892  1.00  0.00     0.053 C 
BRANCH   2   3
ATOM      3  C   UNL     1       1.435   0.777  -1.385  1.00  0.00     0.041 C 
ATOM      4  O   UNL     1       1.809  -0.215  -2.064  1.00  0.00    -0.550 OA
ATOM      5  O   UNL     1       2.324   1.814  -1.134  1.00  0.00    -0.550 OA
ENDBRANCH   2   3
ENDBRANCH   1   2
BRANCH   1   6
ATOM      6  C   UNL     1      -1.749  -0.789  -1.607  1.00  0.00     0.000 C 
BRANCH   6   7
ATOM      7  C   UNL     1      -2.916  -1.488  -0.895  1.00  0.00    -0.003 C 
ATOM      8  C   UNL     1      -2.889  -3.007  -1.065  1.00  0.00     0.004 C 
ENDBRANCH   6   7
ENDBRANCH   1   6
TORSDOF 4
ENDMDL
MODEL 4
REMARK VINA RESULT:    -4.186      1.203      1.709
REMARK INTER + INTRA:          -5.211
REMARK INTER:                  -5.130
REMARK INTRA:                  -0.081
REMARK UNBOUND:                -0.046
REMARK SMILES CCCCCC(=O)[O-]
REMARK SMILES IDX 4 1 5 2 6 3 7 4 8 5 3 6 2 7 1 8
REMARK H PARENT
REMARK Flexibility Score: inf
ROOT
ATOM      1  C   UNL     1       0.270   0.262  -0.723  1.00  0.00     0.006 C 
ENDROOT
BRANCH   1   2
ATOM      2  C   UNL     1      -0.313  -1.149  -0.864  1.00  0.00     0.053 C 
BRANCH   2   3
ATOM      3  C   UNL     1      -1.706  -1.089  -1.407  1.00  0.00     0.041 C 
ATOM      4  O   UNL     1      -2.065  -0.119  -2.125  1.00  0.00    -0.550 OA
ATOM      5  O   UNL     1      -2.593  -2.129  -1.160  1.00  0.00    -0.550 OA
ENDBRANCH   2   3
ENDBRANCH   1   2
BRANCH   1   6
ATOM      6  C   UNL     1       1.492   0.445  -1.634  1.00  0.00     0.000 C 
BRANCH   6   7
ATOM      7  C   UNL     1       2.683   1.081  -0.903  1.00  0.00    -0.003 C 
ATOM      8  C   UNL     1       2.698   2.606  -1.012  1.00  0.00     0.004 C 
ENDBRANCH   6   7
ENDBRANCH   1   6
TORSDOF 4
ENDMDL
MODEL 5
REMARK VINA RESULT:    -3.629      4.210      5.817
REMARK INTER + INTRA:          -4.524
REMARK INTER:                  -4.394
REMARK INTRA:                  -0.130
REMARK UNBOUND:                -0.046
REMARK SMILES CCCCCC(=O)[O-]
REMARK SMILES IDX 4 1 5 2 6 3 7 4 8 5 3 6 2 7 1 8
REMARK H PARENT
REMARK Flexibility Score: inf
ROOT
ATOM      1  C   UNL     1       1.874   1.282  -1.772  1.00  0.00     0.006 C 
ENDROOT
BRANCH   1   2
ATOM      2  C   UNL     1       2.915   1.881  -0.820  1.00  0.00     0.053 C 
BRANCH   2   3
ATOM      3  C   UNL     1       2.511   3.261  -0.404  1.00  0.00     0.041 C 
ATOM      4  O   UNL     1       3.388   4.125  -0.143  1.00  0.00    -0.550 OA
ATOM      5  O   UNL     1       1.167   3.605  -0.352  1.00  0.00    -0.550 OA
ENDBRANCH   2   3
ENDBRANCH   1   2
BRANCH   1   6
ATOM      6  C   UNL     1       1.127   0.117  -1.107  1.00  0.00     0.000 C 
BRANCH   6   7
ATOM      7  C   UNL     1      -0.365   0.414  -0.901  1.00  0.00    -0.003 C 
ATOM      8  C   UNL     1      -1.264  -0.746  -1.329  1.00  0.00     0.004 C 
ENDBRANCH   6   7
ENDBRANCH   1   6
TORSDOF 4
ENDMDL
MODEL 6
REMARK VINA RESULT:    -3.537      1.329      1.752
REMARK INTER + INTRA:          -4.410
REMARK INTER:                  -4.311
REMARK INTRA:                  -0.099
REMARK UNBOUND:                -0.046
REMARK SMILES CCCCCC(=O)[O-]
REMARK SMILES IDX 4 1 5 2 6 3 7 4 8 5 3 6 2 7 1 8
REMARK H PARENT
REMARK Flexibility Score: inf
ROOT
ATOM      1  C   UNL     1      -1.843  -1.271  -1.749  1.00  0.00     0.006 C 
ENDROOT
BRANCH   1   2
ATOM      2  C   UNL     1      -2.982  -1.981  -1.010  1.00  0.00     0.053 C 
BRANCH   2   3
ATOM      3  C   UNL     1      -2.570  -3.366  -0.619  1.00  0.00     0.041 C 
ATOM      4  O   UNL     1      -3.442  -4.241  -0.376  1.00  0.00    -0.550 OA
ATOM      5  O   UNL     1      -1.223  -3.702  -0.570  1.00  0.00    -0.550 OA
ENDBRANCH   2   3
ENDBRANCH   1   2
BRANCH   1   6
ATOM      6  C   UNL     1      -1.114  -0.289  -0.821  1.00  0.00     0.000 C 
BRANCH   6   7
ATOM      7  C   UNL     1       0.401  -0.535  -0.775  1.00  0.00    -0.003 C 
ATOM      8  C   UNL     1       1.201   0.564  -1.473  1.00  0.00     0.004 C 
ENDBRANCH   6   7
ENDBRANCH   1   6
TORSDOF 4
ENDMDL
MODEL 7
REMARK VINA RESULT:    -3.371     14.354     15.479
REMARK INTER + INTRA:          -4.205
REMARK INTER:                  -4.103
REMARK INTRA:                  -0.103
REMARK UNBOUND:                -0.046
REMARK SMILES CCCCCC(=O)[O-]
REMARK SMILES IDX 4 1 5 2 6 3 7 4 8 5 3 6 2 7 1 8
REMARK H PARENT
REMARK Flexibility Score: inf
ROOT
ATOM      1  C   UNL     1       8.570   4.046   7.746  1.00  0.00     0.006 C 
ENDROOT
BRANCH   1   2
ATOM      2  C   UNL     1       9.480   4.624   8.835  1.00  0.00     0.053 C 
BRANCH   2   3
ATOM      3  C   UNL     1       9.205   6.082   9.029  1.00  0.00     0.041 C 
ATOM      4  O   UNL     1      10.095   6.935   8.773  1.00  0.00    -0.550 OA
ATOM      5  O   UNL     1       7.948   6.503   9.447  1.00  0.00    -0.550 OA
ENDBRANCH   2   3
ENDBRANCH   1   2
BRANCH   1   6
ATOM      6  C   UNL     1       8.716   2.520   7.661  1.00  0.00     0.000 C 
BRANCH   6   7
ATOM      7  C   UNL     1       9.450   1.929   8.873  1.00  0.00    -0.003 C 
ATOM      8  C   UNL     1       9.079   0.470   9.135  1.00  0.00     0.004 C 
ENDBRANCH   6   7
ENDBRANCH   1   6
TORSDOF 4
ENDMDL
MODEL 8
REMARK VINA RESULT:    -3.265      2.290      3.521
REMARK INTER + INTRA:          -4.075
REMARK INTER:                  -3.986
REMARK INTRA:                  -0.089
REMARK UNBOUND:                -0.046
REMARK SMILES CCCCCC(=O)[O-]
REMARK SMILES IDX 4 1 5 2 6 3 7 4 8 5 3 6 2 7 1 8
REMARK H PARENT
REMARK Flexibility Score: inf
ROOT
ATOM      1  C   UNL     1       1.982   1.096  -1.921  1.00  0.00     0.006 C 
ENDROOT
BRANCH   1   2
ATOM      2  C   UNL     1       1.356  -0.099  -1.194  1.00  0.00     0.053 C 
BRANCH   2   3
ATOM      3  C   UNL     1      -0.129   0.065  -1.099  1.00  0.00     0.041 C 
ATOM      4  O   UNL     1      -0.884  -0.939  -1.184  1.00  0.00    -0.550 OA
ATOM      5  O   UNL     1      -0.676   1.321  -0.867  1.00  0.00    -0.550 OA
ENDBRANCH   2   3
ENDBRANCH   1   2
BRANCH   1   6
ATOM      6  C   UNL     1       2.821   1.947  -0.957  1.00  0.00     0.000 C 
BRANCH   6   7
ATOM      7  C   UNL     1       2.092   3.220  -0.506  1.00  0.00    -0.003 C 
ATOM      8  C   UNL     1       3.023   4.427  -0.392  1.00  0.00     0.004 C 
ENDBRANCH   6   7
ENDBRANCH   1   6
TORSDOF 4
ENDMDL
MODEL 9
REMARK VINA RESULT:    -3.263     12.613     13.547
REMARK INTER + INTRA:          -4.072
REMARK INTER:                  -3.960
REMARK INTRA:                  -0.112
REMARK UNBOUND:                -0.046
REMARK SMILES CCCCCC(=O)[O-]
REMARK SMILES IDX 4 1 5 2 6 3 7 4 8 5 3 6 2 7 1 8
REMARK H PARENT
REMARK Flexibility Score: inf
ROOT
ATOM      1  C   UNL     1      -8.629  -4.868   7.540  1.00  0.00     0.006 C 
ENDROOT
BRANCH   1   2
ATOM      2  C   UNL     1      -9.576  -5.454   8.592  1.00  0.00     0.053 C 
BRANCH   2   3
ATOM      3  C   UNL     1      -9.196  -6.866   8.911  1.00  0.00     0.041 C 
ATOM      4  O   UNL     1      -8.050  -7.127   9.362  1.00  0.00    -0.550 OA
ATOM      5  O   UNL     1     -10.124  -7.888   8.754  1.00  0.00    -0.550 OA
ENDBRANCH   2   3
ENDBRANCH   1   2
BRANCH   1   6
ATOM      6  C   UNL     1      -8.727  -3.336   7.506  1.00  0.00     0.000 C 
BRANCH   6   7
ATOM      7  C   UNL     1      -9.696  -2.783   8.560  1.00  0.00    -0.003 C 
ATOM      8  C   UNL     1      -9.341  -1.364   9.004  1.00  0.00     0.004 C 
ENDBRANCH   6   7
ENDBRANCH   1   6
TORSDOF 4
ENDMDL
