MODEL 1
REMARK VINA RESULT:    -4.796      0.000      0.000
REMARK INTER + INTRA:          -4.796
REMARK INTER:                  -4.796
REMARK INTRA:                   0.000
REMARK UNBOUND:                 0.000
REMARK SMILES O=c1ccc2ccccc2o1
REMARK SMILES IDX 7 1 8 2 9 3 10 4 5 5 6 6 4 7 3 8 2 9 1 10 11 11
REMARK H PARENT
REMARK Flexibility Score: inf
ROOT
ATOM      1  C   UNL     1      27.340  14.262  25.278  1.00  0.00     0.001 A 
ATOM      2  C   UNL     1      27.107  14.103  26.647  1.00  0.00     0.004 A 
ATOM      3  C   UNL     1      26.602  15.166  27.404  1.00  0.00     0.048 A 
ATOM      4  C   UNL     1      26.327  16.393  26.791  1.00  0.00     0.138 A 
ATOM      5  C   UNL     1      26.562  16.554  25.407  1.00  0.00     0.018 A 
ATOM      6  C   UNL     1      27.069  15.485  24.655  1.00  0.00     0.012 A 
ATOM      7  C   UNL     1      26.278  17.793  24.823  1.00  0.00     0.019 A 
ATOM      8  C   UNL     1      25.776  18.824  25.615  1.00  0.00     0.094 A 
ATOM      9  C   UNL     1      25.568  18.592  26.979  1.00  0.00     0.336 A 
ATOM     10  O   UNL     1      25.115  19.512  27.711  1.00  0.00    -0.246 OA
ATOM     11  O   UNL     1      25.846  17.405  27.511  1.00  0.00    -0.423 OA
ENDROOT
TORSDOF 0
ENDMDL
MODEL 2
REMARK VINA RESULT:    -4.655      9.613     10.918
REMARK INTER + INTRA:          -4.655
REMARK INTER:                  -4.655
REMARK INTRA:                   0.000
REMARK UNBOUND:                 0.000
REMARK SMILES O=c1ccc2ccccc2o1
REMARK SMILES IDX 7 1 8 2 9 3 10 4 5 5 6 6 4 7 3 8 2 9 1 10 11 11
REMARK H PARENT
REMARK Flexibility Score: inf
ROOT
ATOM      1  C   UNL     1      31.019  24.993  19.547  1.00  0.00     0.001 A 
ATOM      2  C   UNL     1      31.883  25.439  20.552  1.00  0.00     0.004 A 
ATOM      3  C   UNL     1      32.685  24.527  21.246  1.00  0.00     0.048 A 
ATOM      4  C   UNL     1      32.624  23.164  20.937  1.00  0.00     0.138 A 
ATOM      5  C   UNL     1      31.751  22.713  19.922  1.00  0.00     0.018 A 
ATOM      6  C   UNL     1      30.949  23.633  19.230  1.00  0.00     0.012 A 
ATOM      7  C   UNL     1      31.711  21.345  19.636  1.00  0.00     0.019 A 
ATOM      8  C   UNL     1      32.527  20.472  20.354  1.00  0.00     0.094 A 
ATOM      9  C   UNL     1      33.368  20.989  21.345  1.00  0.00     0.336 A 
ATOM     10  O   UNL     1      34.112  20.216  22.004  1.00  0.00    -0.246 OA
ATOM     11  O   UNL     1      33.386  22.295  21.599  1.00  0.00    -0.423 OA
ENDROOT
TORSDOF 0
ENDMDL
MODEL 3
REMARK VINA RESULT:    -4.638      1.380      2.207
REMARK INTER + INTRA:          -4.638
REMARK INTER:                  -4.638
REMARK INTRA:                   0.000
REMARK UNBOUND:                 0.000
REMARK SMILES O=c1ccc2ccccc2o1
REMARK SMILES IDX 7 1 8 2 9 3 10 4 5 5 6 6 4 7 3 8 2 9 1 10 11 11
REMARK H PARENT
REMARK Flexibility Score: inf
ROOT
ATOM      1  C   UNL     1      26.934  14.251  26.644  1.00  0.00     0.001 A 
ATOM      2  C   UNL     1      27.135  14.332  25.263  1.00  0.00     0.004 A 
ATOM      3  C   UNL     1      26.944  15.545  24.594  1.00  0.00     0.048 A 
ATOM      4  C   UNL     1      26.550  16.683  25.305  1.00  0.00     0.138 A 
ATOM      5  C   UNL     1      26.347  16.602  26.701  1.00  0.00     0.018 A 
ATOM      6  C   UNL     1      26.540  15.383  27.366  1.00  0.00     0.012 A 
ATOM      7  C   UNL     1      25.953  17.756  27.385  1.00  0.00     0.019 A 
ATOM      8  C   UNL     1      25.773  18.944  26.677  1.00  0.00     0.094 A 
ATOM      9  C   UNL     1      25.993  18.950  25.296  1.00  0.00     0.336 A 
ATOM     10  O   UNL     1      25.836  20.013  24.639  1.00  0.00    -0.246 OA
ATOM     11  O   UNL     1      26.367  17.838  24.668  1.00  0.00    -0.423 OA
ENDROOT
TORSDOF 0
ENDMDL
MODEL 4
REMARK VINA RESULT:    -4.633      1.746      2.923
REMARK INTER + INTRA:          -4.633
REMARK INTER:                  -4.633
REMARK INTRA:                   0.000
REMARK UNBOUND:                 0.000
REMARK SMILES O=c1ccc2ccccc2o1
REMARK SMILES IDX 7 1 8 2 9 3 10 4 5 5 6 6 4 7 3 8 2 9 1 10 11 11
REMARK H PARENT
REMARK Flexibility Score: inf
ROOT
ATOM      1  C   UNL     1      27.643  11.845  26.090  1.00  0.00     0.001 A 
ATOM      2  C   UNL     1      28.778  12.467  25.561  1.00  0.00     0.004 A 
ATOM      3  C   UNL     1      28.858  13.863  25.514  1.00  0.00     0.048 A 
ATOM      4  C   UNL     1      27.802  14.641  25.997  1.00  0.00     0.138 A 
ATOM      5  C   UNL     1      26.655  14.013  26.532  1.00  0.00     0.018 A 
ATOM      6  C   UNL     1      26.580  12.614  26.576  1.00  0.00     0.012 A 
ATOM      7  C   UNL     1      25.615  14.818  27.007  1.00  0.00     0.019 A 
ATOM      8  C   UNL     1      25.738  16.205  26.940  1.00  0.00     0.094 A 
ATOM      9  C   UNL     1      26.903  16.758  26.398  1.00  0.00     0.336 A 
ATOM     10  O   UNL     1      27.032  18.008  26.329  1.00  0.00    -0.246 OA
ATOM     11  O   UNL     1      27.878  15.970  25.952  1.00  0.00    -0.423 OA
ENDROOT
TORSDOF 0
ENDMDL
MODEL 5
REMARK VINA RESULT:    -4.599      9.516     10.367
REMARK INTER + INTRA:          -4.599
REMARK INTER:                  -4.599
REMARK INTRA:                   0.000
REMARK UNBOUND:                 0.000
REMARK SMILES O=c1ccc2ccccc2o1
REMARK SMILES IDX 7 1 8 2 9 3 10 4 5 5 6 6 4 7 3 8 2 9 1 10 11 11
REMARK H PARENT
REMARK Flexibility Score: inf
ROOT
ATOM      1  C   UNL     1      32.943  20.145  21.024  1.00  0.00     0.001 A 
ATOM      2  C   UNL     1      32.013  20.040  19.986  1.00  0.00     0.004 A 
ATOM      3  C   UNL     1      31.403  21.187  19.468  1.00  0.00     0.048 A 
ATOM      4  C   UNL     1      31.723  22.445  19.989  1.00  0.00     0.138 A 
ATOM      5  C   UNL     1      32.662  22.552  21.038  1.00  0.00     0.018 A 
ATOM      6  C   UNL     1      33.270  21.398  21.553  1.00  0.00     0.012 A 
ATOM      7  C   UNL     1      32.961  23.824  21.538  1.00  0.00     0.019 A 
ATOM      8  C   UNL     1      32.329  24.940  20.992  1.00  0.00     0.094 A 
ATOM      9  C   UNL     1      31.409  24.758  19.954  1.00  0.00     0.336 A 
ATOM     10  O   UNL     1      30.828  25.754  19.448  1.00  0.00    -0.246 OA
ATOM     11  O   UNL     1      31.142  23.538  19.496  1.00  0.00    -0.423 OA
ENDROOT
TORSDOF 0
ENDMDL
MODEL 6
REMARK VINA RESULT:    -4.550     10.229     11.499
REMARK INTER + INTRA:          -4.550
REMARK INTER:                  -4.550
REMARK INTRA:                   0.000
REMARK UNBOUND:                 0.000
REMARK SMILES O=c1ccc2ccccc2o1
REMARK SMILES IDX 7 1 8 2 9 3 10 4 5 5 6 6 4 7 3 8 2 9 1 10 11 11
REMARK H PARENT
REMARK Flexibility Score: inf
ROOT
ATOM      1  C   UNL     1      30.304  19.347  34.476  1.00  0.00     0.001 A 
ATOM      2  C   UNL     1      31.523  19.728  33.909  1.00  0.00     0.004 A 
ATOM      3  C   UNL     1      32.665  18.944  34.103  1.00  0.00     0.048 A 
ATOM      4  C   UNL     1      32.590  17.775  34.867  1.00  0.00     0.138 A 
ATOM      5  C   UNL     1      31.359  17.390  35.442  1.00  0.00     0.018 A 
ATOM      6  C   UNL     1      30.217  18.181  35.243  1.00  0.00     0.012 A 
ATOM      7  C   UNL     1      31.315  16.217  36.201  1.00  0.00     0.019 A 
ATOM      8  C   UNL     1      32.478  15.467  36.369  1.00  0.00     0.094 A 
ATOM      9  C   UNL     1      33.663  15.909  35.771  1.00  0.00     0.336 A 
ATOM     10  O   UNL     1      34.723  15.244  35.911  1.00  0.00    -0.246 OA
ATOM     11  O   UNL     1      33.678  17.029  35.053  1.00  0.00    -0.423 OA
ENDROOT
TORSDOF 0
ENDMDL
MODEL 7
REMARK VINA RESULT:    -4.547      3.060      4.998
REMARK INTER + INTRA:          -4.547
REMARK INTER:                  -4.547
REMARK INTRA:                   0.000
REMARK UNBOUND:                 0.000
REMARK SMILES O=c1ccc2ccccc2o1
REMARK SMILES IDX 7 1 8 2 9 3 10 4 5 5 6 6 4 7 3 8 2 9 1 10 11 11
REMARK H PARENT
REMARK Flexibility Score: inf
ROOT
ATOM      1  C   UNL     1      26.543  16.529  26.451  1.00  0.00     0.001 A 
ATOM      2  C   UNL     1      25.477  15.830  27.026  1.00  0.00     0.004 A 
ATOM      3  C   UNL     1      25.507  14.434  27.097  1.00  0.00     0.048 A 
ATOM      4  C   UNL     1      26.606  13.731  26.591  1.00  0.00     0.138 A 
ATOM      5  C   UNL     1      27.682  14.436  26.009  1.00  0.00     0.018 A 
ATOM      6  C   UNL     1      27.646  15.836  25.941  1.00  0.00     0.012 A 
ATOM      7  C   UNL     1      28.766  13.705  25.512  1.00  0.00     0.019 A 
ATOM      8  C   UNL     1      28.754  12.314  25.603  1.00  0.00     0.094 A 
ATOM      9  C   UNL     1      27.653  11.683  26.193  1.00  0.00     0.336 A 
ATOM     10  O   UNL     1      27.624  10.428  26.284  1.00  0.00    -0.246 OA
ATOM     11  O   UNL     1      26.634  12.401  26.658  1.00  0.00    -0.423 OA
ENDROOT
TORSDOF 0
ENDMDL
MODEL 8
REMARK VINA RESULT:    -4.484      2.121      4.240
REMARK INTER + INTRA:          -4.484
REMARK INTER:                  -4.484
REMARK INTRA:                   0.000
REMARK UNBOUND:                 0.000
REMARK SMILES O=c1ccc2ccccc2o1
REMARK SMILES IDX 7 1 8 2 9 3 10 4 5 5 6 6 4 7 3 8 2 9 1 10 11 11
REMARK H PARENT
REMARK Flexibility Score: inf
ROOT
ATOM      1  C   UNL     1      24.555  17.775  26.917  1.00  0.00     0.001 A 
ATOM      2  C   UNL     1      25.716  18.507  26.652  1.00  0.00     0.004 A 
ATOM      3  C   UNL     1      26.903  17.848  26.320  1.00  0.00     0.048 A 
ATOM      4  C   UNL     1      26.933  16.451  26.251  1.00  0.00     0.138 A 
ATOM      5  C   UNL     1      25.761  15.711  26.520  1.00  0.00     0.018 A 
ATOM      6  C   UNL     1      24.573  16.378  26.853  1.00  0.00     0.012 A 
ATOM      7  C   UNL     1      25.822  14.316  26.444  1.00  0.00     0.019 A 
ATOM      8  C   UNL     1      27.027  13.701  26.110  1.00  0.00     0.094 A 
ATOM      9  C   UNL     1      28.149  14.498  25.856  1.00  0.00     0.336 A 
ATOM     10  O   UNL     1      29.246  13.960  25.553  1.00  0.00    -0.246 OA
ATOM     11  O   UNL     1      28.064  15.823  25.935  1.00  0.00    -0.423 OA
ENDROOT
TORSDOF 0
ENDMDL
MODEL 9
REMARK VINA RESULT:    -4.467      4.451      6.619
REMARK INTER + INTRA:          -4.467
REMARK INTER:                  -4.467
REMARK INTRA:                   0.000
REMARK UNBOUND:                 0.000
REMARK SMILES O=c1ccc2ccccc2o1
REMARK SMILES IDX 7 1 8 2 9 3 10 4 5 5 6 6 4 7 3 8 2 9 1 10 11 11
REMARK H PARENT
REMARK Flexibility Score: inf
ROOT
ATOM      1  C   UNL     1      26.323  14.102  25.818  1.00  0.00     0.001 A 
ATOM      2  C   UNL     1      27.616  14.543  26.115  1.00  0.00     0.004 A 
ATOM      3  C   UNL     1      28.674  13.630  26.174  1.00  0.00     0.048 A 
ATOM      4  C   UNL     1      28.441  12.271  25.936  1.00  0.00     0.138 A 
ATOM      5  C   UNL     1      27.135  11.826  25.636  1.00  0.00     0.018 A 
ATOM      6  C   UNL     1      26.078  12.746  25.579  1.00  0.00     0.012 A 
ATOM      7  C   UNL     1      26.933  10.462  25.404  1.00  0.00     0.019 A 
ATOM      8  C   UNL     1      28.017   9.588  25.474  1.00  0.00     0.094 A 
ATOM      9  C   UNL     1      29.283  10.100  25.775  1.00  0.00     0.336 A 
ATOM     10  O   UNL     1      30.274   9.326  25.843  1.00  0.00    -0.246 OA
ATOM     11  O   UNL     1      29.449  11.402  25.993  1.00  0.00    -0.423 OA
ENDROOT
TORSDOF 0
ENDMDL
