MODEL 1
REMARK VINA RESULT:    -6.910      0.000      0.000
REMARK INTER + INTRA:          -8.632
REMARK INTER:                  -8.324
REMARK INTRA:                  -0.308
REMARK UNBOUND:                -0.308
REMARK SMILES O=c1c(O)c(-c2ccc(O)c(O)c2)oc2cc(O)cc(O)c12
REMARK SMILES IDX 5 1 3 2 2 3 1 4 22 5 20 6 19 7 17 8 16 9 15 10 14 11 6 12
REMARK SMILES IDX 7 13 8 14 9 15 13 16 11 17 10 18 12 20 4 22 21 24 18 26
REMARK H PARENT 10 19 12 21 4 23 21 25 18 27
REMARK Flexibility Score: inf
ROOT
ATOM      1  C   UNL     1      60.274  -2.748  28.958  1.00  0.00     0.180 A 
ATOM      2  C   UNL     1      59.958  -1.380  28.904  1.00  0.00     0.208 A 
ATOM      3  C   UNL     1      58.704  -0.951  29.368  1.00  0.00     0.238 A 
ATOM      4  O   UNL     1      58.456   0.283  29.385  1.00  0.00    -0.285 OA
ATOM      5  C   UNL     1      57.760  -1.902  29.827  1.00  0.00     0.111 A 
ATOM      6  C   UNL     1      56.442  -1.584  30.278  1.00  0.00     0.134 A 
ATOM      7  C   UNL     1      55.633  -2.596  30.811  1.00  0.00     0.093 A 
ATOM      8  C   UNL     1      56.069  -3.922  30.849  1.00  0.00     0.123 A 
ATOM      9  C   UNL     1      57.331  -4.250  30.361  1.00  0.00     0.094 A 
ATOM     10  C   UNL     1      58.177  -3.258  29.860  1.00  0.00     0.146 A 
ATOM     11  O   UNL     1      59.380  -3.612  29.424  1.00  0.00    -0.452 OA
ENDROOT
BRANCH   1  12
ATOM     12  C   UNL     1      61.580  -3.275  28.502  1.00  0.00     0.025 A 
ATOM     13  C   UNL     1      62.607  -3.477  29.436  1.00  0.00     0.016 A 
ATOM     14  C   UNL     1      63.855  -3.953  29.024  1.00  0.00     0.051 A 
ATOM     15  C   UNL     1      64.100  -4.218  27.673  1.00  0.00     0.157 A 
ATOM     16  C   UNL     1      61.835  -3.521  27.140  1.00  0.00     0.062 A 
ATOM     17  C   UNL     1      63.087  -3.997  26.725  1.00  0.00     0.158 A 
BRANCH  15  18
ATOM     18  O   UNL     1      65.353  -4.695  27.292  1.00  0.00    -0.504 OA
ATOM     19  H   UNL     1      65.465  -5.554  26.765  1.00  0.00     0.293 HD
ENDBRANCH  15  18
BRANCH  17  20
ATOM     20  O   UNL     1      63.329  -4.246  25.375  1.00  0.00    -0.504 OA
ATOM     21  H   UNL     1      63.170  -3.537  24.668  1.00  0.00     0.293 HD
ENDBRANCH  17  20
ENDBRANCH   1  12
BRANCH   2  22
ATOM     22  O   UNL     1      60.875  -0.467  28.375  1.00  0.00    -0.502 OA
ATOM     23  H   UNL     1      60.587   0.389  27.915  1.00  0.00     0.293 HD
ENDBRANCH   2  22
BRANCH   6  24
ATOM     24  O   UNL     1      55.874  -0.310  30.203  1.00  0.00    -0.507 OA
ATOM     25  H   UNL     1      55.742   0.312  30.987  1.00  0.00     0.293 HD
ENDBRANCH   6  24
BRANCH   8  26
ATOM     26  O   UNL     1      55.250  -4.925  31.364  1.00  0.00    -0.508 OA
ATOM     27  H   UNL     1      55.606  -5.620  32.010  1.00  0.00     0.293 HD
ENDBRANCH   8  26
TORSDOF 6
ENDMDL
MODEL 2
REMARK VINA RESULT:    -6.649      1.353      1.901
REMARK INTER + INTRA:          -8.317
REMARK INTER:                  -8.019
REMARK INTRA:                  -0.298
REMARK UNBOUND:                -0.308
REMARK SMILES O=c1c(O)c(-c2ccc(O)c(O)c2)oc2cc(O)cc(O)c12
REMARK SMILES IDX 5 1 3 2 2 3 1 4 22 5 20 6 19 7 17 8 16 9 15 10 14 11 6 12
REMARK SMILES IDX 7 13 8 14 9 15 13 16 11 17 10 18 12 20 4 22 21 24 18 26
REMARK H PARENT 10 19 12 21 4 23 21 25 18 27
REMARK Flexibility Score: inf
ROOT
ATOM      1  C   UNL     1      59.587  -2.187  29.475  1.00  0.00     0.180 A 
ATOM      2  C   UNL     1      58.964  -0.934  29.354  1.00  0.00     0.208 A 
ATOM      3  C   UNL     1      57.652  -0.776  29.824  1.00  0.00     0.238 A 
ATOM      4  O   UNL     1      57.127   0.368  29.779  1.00  0.00    -0.285 OA
ATOM      5  C   UNL     1      56.956  -1.888  30.360  1.00  0.00     0.111 A 
ATOM      6  C   UNL     1      55.606  -1.854  30.825  1.00  0.00     0.134 A 
ATOM      7  C   UNL     1      55.058  -2.990  31.433  1.00  0.00     0.093 A 
ATOM      8  C   UNL     1      55.786  -4.176  31.534  1.00  0.00     0.123 A 
ATOM      9  C   UNL     1      57.084  -4.236  31.033  1.00  0.00     0.094 A 
ATOM     10  C   UNL     1      57.674  -3.108  30.457  1.00  0.00     0.146 A 
ATOM     11  O   UNL     1      58.921  -3.203  30.011  1.00  0.00    -0.452 OA
ENDROOT
BRANCH   1  12
ATOM     12  C   UNL     1      60.973  -2.428  29.015  1.00  0.00     0.025 A 
ATOM     13  C   UNL     1      61.192  -3.139  27.826  1.00  0.00     0.016 A 
ATOM     14  C   UNL     1      62.493  -3.397  27.383  1.00  0.00     0.051 A 
ATOM     15  C   UNL     1      63.592  -2.962  28.130  1.00  0.00     0.157 A 
ATOM     16  C   UNL     1      62.081  -2.010  29.776  1.00  0.00     0.062 A 
ATOM     17  C   UNL     1      63.386  -2.269  29.335  1.00  0.00     0.158 A 
BRANCH  15  18
ATOM     18  O   UNL     1      64.878  -3.231  27.663  1.00  0.00    -0.504 OA
ATOM     19  H   UNL     1      65.610  -3.577  28.271  1.00  0.00     0.293 HD
ENDBRANCH  15  18
BRANCH  17  20
ATOM     20  O   UNL     1      64.478  -1.846  30.091  1.00  0.00    -0.504 OA
ATOM     21  H   UNL     1      64.744  -0.869  30.138  1.00  0.00     0.293 HD
ENDBRANCH  17  20
ENDBRANCH   1  12
BRANCH   2  22
ATOM     22  O   UNL     1      59.641   0.132  28.751  1.00  0.00    -0.502 OA
ATOM     23  H   UNL     1      60.607   0.350  28.962  1.00  0.00     0.293 HD
ENDBRANCH   2  22
BRANCH   6  24
ATOM     24  O   UNL     1      54.760  -0.749  30.694  1.00  0.00    -0.507 OA
ATOM     25  H   UNL     1      53.753  -0.783  30.747  1.00  0.00     0.293 HD
ENDBRANCH   6  24
BRANCH   8  26
ATOM     26  O   UNL     1      55.226  -5.308  32.125  1.00  0.00    -0.508 OA
ATOM     27  H   UNL     1      55.172  -6.191  31.631  1.00  0.00     0.293 HD
ENDBRANCH   8  26
TORSDOF 6
ENDMDL
MODEL 3
REMARK VINA RESULT:    -6.174      1.650      7.027
REMARK INTER + INTRA:          -7.745
REMARK INTER:                  -7.442
REMARK INTRA:                  -0.303
REMARK UNBOUND:                -0.308
REMARK SMILES O=c1c(O)c(-c2ccc(O)c(O)c2)oc2cc(O)cc(O)c12
REMARK SMILES IDX 5 1 3 2 2 3 1 4 22 5 20 6 19 7 17 8 16 9 15 10 14 11 6 12
REMARK SMILES IDX 7 13 8 14 9 15 13 16 11 17 10 18 12 20 4 22 21 24 18 26
REMARK H PARENT 10 19 12 21 4 23 21 25 18 27
REMARK Flexibility Score: inf
ROOT
ATOM      1  C   UNL     1      60.057  -2.247  29.766  1.00  0.00     0.180 A 
ATOM      2  C   UNL     1      60.976  -2.304  30.827  1.00  0.00     0.208 A 
ATOM      3  C   UNL     1      62.277  -2.768  30.578  1.00  0.00     0.238 A 
ATOM      4  O   UNL     1      63.116  -2.746  31.516  1.00  0.00    -0.285 OA
ATOM      5  C   UNL     1      62.627  -3.223  29.283  1.00  0.00     0.111 A 
ATOM      6  C   UNL     1      63.903  -3.757  28.928  1.00  0.00     0.134 A 
ATOM      7  C   UNL     1      64.169  -4.077  27.590  1.00  0.00     0.093 A 
ATOM      8  C   UNL     1      63.185  -3.943  26.608  1.00  0.00     0.123 A 
ATOM      9  C   UNL     1      61.920  -3.476  26.955  1.00  0.00     0.094 A 
ATOM     10  C   UNL     1      61.636  -3.112  28.273  1.00  0.00     0.146 A 
ATOM     11  O   UNL     1      60.423  -2.651  28.556  1.00  0.00    -0.452 OA
ENDROOT
BRANCH   1  12
ATOM     12  C   UNL     1      58.672  -1.757  29.947  1.00  0.00     0.025 A 
ATOM     13  C   UNL     1      57.615  -2.678  30.001  1.00  0.00     0.016 A 
ATOM     14  C   UNL     1      56.297  -2.236  30.149  1.00  0.00     0.051 A 
ATOM     15  C   UNL     1      56.015  -0.869  30.232  1.00  0.00     0.157 A 
ATOM     16  C   UNL     1      58.384  -0.381  30.008  1.00  0.00     0.062 A 
ATOM     17  C   UNL     1      57.063   0.065  30.157  1.00  0.00     0.158 A 
BRANCH  15  18
ATOM     18  O   UNL     1      54.691  -0.458  30.383  1.00  0.00    -0.504 OA
ATOM     19  H   UNL     1      53.929  -0.909  29.891  1.00  0.00     0.293 HD
ENDBRANCH  15  18
BRANCH  17  20
ATOM     20  O   UNL     1      56.786   1.429  30.223  1.00  0.00    -0.504 OA
ATOM     21  H   UNL     1      56.167   1.878  29.558  1.00  0.00     0.293 HD
ENDBRANCH  17  20
ENDBRANCH   1  12
BRANCH   2  22
ATOM     22  O   UNL     1      60.588  -1.922  32.115  1.00  0.00    -0.502 OA
ATOM     23  H   UNL     1      61.050  -1.178  32.624  1.00  0.00     0.293 HD
ENDBRANCH   2  22
BRANCH   6  24
ATOM     24  O   UNL     1      64.928  -4.014  29.843  1.00  0.00    -0.507 OA
ATOM     25  H   UNL     1      65.564  -3.322  30.209  1.00  0.00     0.293 HD
ENDBRANCH   6  24
BRANCH   8  26
ATOM     26  O   UNL     1      63.453  -4.281  25.283  1.00  0.00    -0.508 OA
ATOM     27  H   UNL     1      64.198  -4.923  25.040  1.00  0.00     0.293 HD
ENDBRANCH   8  26
TORSDOF 6
ENDMDL
MODEL 4
REMARK VINA RESULT:    -6.147      1.553      6.971
REMARK INTER + INTRA:          -7.713
REMARK INTER:                  -7.396
REMARK INTRA:                  -0.316
REMARK UNBOUND:                -0.308
REMARK SMILES O=c1c(O)c(-c2ccc(O)c(O)c2)oc2cc(O)cc(O)c12
REMARK SMILES IDX 5 1 3 2 2 3 1 4 22 5 20 6 19 7 17 8 16 9 15 10 14 11 6 12
REMARK SMILES IDX 7 13 8 14 9 15 13 16 11 17 10 18 12 20 4 22 21 24 18 26
REMARK H PARENT 10 19 12 21 4 23 21 25 18 27
REMARK Flexibility Score: inf
ROOT
ATOM      1  C   UNL     1      59.697  -2.994  29.786  1.00  0.00     0.180 A 
ATOM      2  C   UNL     1      60.598  -2.750  30.837  1.00  0.00     0.208 A 
ATOM      3  C   UNL     1      61.976  -2.798  30.578  1.00  0.00     0.238 A 
ATOM      4  O   UNL     1      62.775  -2.506  31.505  1.00  0.00    -0.285 OA
ATOM      5  C   UNL     1      62.439  -3.145  29.285  1.00  0.00     0.111 A 
ATOM      6  C   UNL     1      63.815  -3.269  28.921  1.00  0.00     0.134 A 
ATOM      7  C   UNL     1      64.155  -3.513  27.584  1.00  0.00     0.093 A 
ATOM      8  C   UNL     1      63.171  -3.703  26.613  1.00  0.00     0.123 A 
ATOM      9  C   UNL     1      61.826  -3.639  26.969  1.00  0.00     0.094 A 
ATOM     10  C   UNL     1      61.454  -3.358  28.286  1.00  0.00     0.146 A 
ATOM     11  O   UNL     1      60.161  -3.286  28.577  1.00  0.00    -0.452 OA
ENDROOT
BRANCH   1  12
ATOM     12  C   UNL     1      58.230  -2.947  29.977  1.00  0.00     0.025 A 
ATOM     13  C   UNL     1      57.564  -1.714  29.910  1.00  0.00     0.016 A 
ATOM     14  C   UNL     1      56.182  -1.643  30.108  1.00  0.00     0.051 A 
ATOM     15  C   UNL     1      55.449  -2.799  30.393  1.00  0.00     0.157 A 
ATOM     16  C   UNL     1      57.494  -4.106  30.285  1.00  0.00     0.062 A 
ATOM     17  C   UNL     1      56.108  -4.038  30.486  1.00  0.00     0.158 A 
BRANCH  15  18
ATOM     18  O   UNL     1      54.072  -2.699  30.584  1.00  0.00    -0.504 OA
ATOM     19  H   UNL     1      53.672  -2.370  31.455  1.00  0.00     0.293 HD
ENDBRANCH  15  18
BRANCH  17  20
ATOM     20  O   UNL     1      55.385  -5.191  30.784  1.00  0.00    -0.504 OA
ATOM     21  H   UNL     1      54.826  -5.265  31.627  1.00  0.00     0.293 HD
ENDBRANCH  17  20
ENDBRANCH   1  12
BRANCH   2  22
ATOM     22  O   UNL     1      60.121  -2.485  32.124  1.00  0.00    -0.502 OA
ATOM     23  H   UNL     1      59.145  -2.289  32.312  1.00  0.00     0.293 HD
ENDBRANCH   2  22
BRANCH   6  24
ATOM     24  O   UNL     1      64.875  -3.186  29.827  1.00  0.00    -0.507 OA
ATOM     25  H   UNL     1      65.748  -3.687  29.744  1.00  0.00     0.293 HD
ENDBRANCH   6  24
BRANCH   8  26
ATOM     26  O   UNL     1      63.519  -3.963  25.289  1.00  0.00    -0.508 OA
ATOM     27  H   UNL     1      64.471  -4.188  25.026  1.00  0.00     0.293 HD
ENDBRANCH   8  26
TORSDOF 6
ENDMDL
MODEL 5
REMARK VINA RESULT:    -5.990      1.457      2.938
REMARK INTER + INTRA:          -7.523
REMARK INTER:                  -7.330
REMARK INTRA:                  -0.193
REMARK UNBOUND:                -0.308
REMARK SMILES O=c1c(O)c(-c2ccc(O)c(O)c2)oc2cc(O)cc(O)c12
REMARK SMILES IDX 5 1 3 2 2 3 1 4 22 5 20 6 19 7 17 8 16 9 15 10 14 11 6 12
REMARK SMILES IDX 7 13 8 14 9 15 13 16 11 17 10 18 12 20 4 22 21 24 18 26
REMARK H PARENT 10 19 12 21 4 23 21 25 18 27
REMARK Flexibility Score: inf
ROOT
ATOM      1  C   UNL     1      60.505  -2.418  28.928  1.00  0.00     0.180 A 
ATOM      2  C   UNL     1      59.763  -3.514  29.400  1.00  0.00     0.208 A 
ATOM      3  C   UNL     1      58.476  -3.294  29.914  1.00  0.00     0.238 A 
ATOM      4  O   UNL     1      57.788  -4.288  30.267  1.00  0.00    -0.285 OA
ATOM      5  C   UNL     1      57.968  -1.974  30.003  1.00  0.00     0.111 A 
ATOM      6  C   UNL     1      56.693  -1.630  30.549  1.00  0.00     0.134 A 
ATOM      7  C   UNL     1      56.253  -0.302  30.486  1.00  0.00     0.093 A 
ATOM      8  C   UNL     1      57.065   0.703  29.957  1.00  0.00     0.123 A 
ATOM      9  C   UNL     1      58.331   0.386  29.473  1.00  0.00     0.094 A 
ATOM     10  C   UNL     1      58.784  -0.935  29.485  1.00  0.00     0.146 A 
ATOM     11  O   UNL     1      59.990  -1.196  28.994  1.00  0.00    -0.452 OA
ENDROOT
BRANCH   1  12
ATOM     12  C   UNL     1      61.863  -2.572  28.359  1.00  0.00     0.025 A 
ATOM     13  C   UNL     1      62.951  -1.951  28.991  1.00  0.00     0.016 A 
ATOM     14  C   UNL     1      64.238  -2.064  28.460  1.00  0.00     0.051 A 
ATOM     15  C   UNL     1      64.456  -2.786  27.282  1.00  0.00     0.157 A 
ATOM     16  C   UNL     1      62.080  -3.279  27.162  1.00  0.00     0.062 A 
ATOM     17  C   UNL     1      63.371  -3.393  26.626  1.00  0.00     0.158 A 
BRANCH  15  18
ATOM     18  O   UNL     1      65.751  -2.885  26.777  1.00  0.00    -0.504 OA
ATOM     19  H   UNL     1      66.565  -2.894  27.381  1.00  0.00     0.293 HD
ENDBRANCH  15  18
BRANCH  17  20
ATOM     20  O   UNL     1      63.579  -4.102  25.444  1.00  0.00    -0.504 OA
ATOM     21  H   UNL     1      64.286  -4.826  25.377  1.00  0.00     0.293 HD
ENDBRANCH  17  20
ENDBRANCH   1  12
BRANCH   2  22
ATOM     22  O   UNL     1      60.313  -4.799  29.375  1.00  0.00    -0.502 OA
ATOM     23  H   UNL     1      59.917  -5.570  29.899  1.00  0.00     0.293 HD
ENDBRANCH   2  22
BRANCH   6  24
ATOM     24  O   UNL     1      55.840  -2.539  31.180  1.00  0.00    -0.507 OA
ATOM     25  H   UNL     1      54.857  -2.386  31.351  1.00  0.00     0.293 HD
ENDBRANCH   6  24
BRANCH   8  26
ATOM     26  O   UNL     1      56.625   2.025  29.915  1.00  0.00    -0.508 OA
ATOM     27  H   UNL     1      56.697   2.633  30.723  1.00  0.00     0.293 HD
ENDBRANCH   8  26
TORSDOF 6
ENDMDL
MODEL 6
REMARK VINA RESULT:    -5.820     13.451     15.679
REMARK INTER + INTRA:          -7.318
REMARK INTER:                  -7.005
REMARK INTRA:                  -0.313
REMARK UNBOUND:                -0.308
REMARK SMILES O=c1c(O)c(-c2ccc(O)c(O)c2)oc2cc(O)cc(O)c12
REMARK SMILES IDX 5 1 3 2 2 3 1 4 22 5 20 6 19 7 17 8 16 9 15 10 14 11 6 12
REMARK SMILES IDX 7 13 8 14 9 15 13 16 11 17 10 18 12 20 4 22 21 24 18 26
REMARK H PARENT 10 19 12 21 4 23 21 25 18 27
REMARK Flexibility Score: inf
ROOT
ATOM      1  C   UNL     1      63.972 -12.535  18.199  1.00  0.00     0.180 A 
ATOM      2  C   UNL     1      64.559 -11.557  19.019  1.00  0.00     0.208 A 
ATOM      3  C   UNL     1      64.725 -11.825  20.387  1.00  0.00     0.238 A 
ATOM      4  O   UNL     1      65.319 -10.975  21.101  1.00  0.00    -0.285 OA
ATOM      5  C   UNL     1      64.252 -13.045  20.929  1.00  0.00     0.111 A 
ATOM      6  C   UNL     1      64.327 -13.404  22.310  1.00  0.00     0.134 A 
ATOM      7  C   UNL     1      63.923 -14.683  22.713  1.00  0.00     0.093 A 
ATOM      8  C   UNL     1      63.386 -15.591  21.798  1.00  0.00     0.123 A 
ATOM      9  C   UNL     1      63.257 -15.230  20.460  1.00  0.00     0.094 A 
ATOM     10  C   UNL     1      63.688 -13.977  20.018  1.00  0.00     0.146 A 
ATOM     11  O   UNL     1      63.566 -13.682  18.730  1.00  0.00    -0.452 OA
ENDROOT
BRANCH   1  12
ATOM     12  C   UNL     1      63.775 -12.331  16.746  1.00  0.00     0.025 A 
ATOM     13  C   UNL     1      62.636 -11.648  16.292  1.00  0.00     0.016 A 
ATOM     14  C   UNL     1      62.419 -11.464  14.924  1.00  0.00     0.051 A 
ATOM     15  C   UNL     1      63.327 -11.971  13.990  1.00  0.00     0.157 A 
ATOM     16  C   UNL     1      64.676 -12.860  15.803  1.00  0.00     0.062 A 
ATOM     17  C   UNL     1      64.460 -12.677  14.430  1.00  0.00     0.158 A 
BRANCH  15  18
ATOM     18  O   UNL     1      63.086 -11.768  12.632  1.00  0.00    -0.504 OA
ATOM     19  H   UNL     1      62.672 -10.913  12.280  1.00  0.00     0.293 HD
ENDBRANCH  15  18
BRANCH  17  20
ATOM     20  O   UNL     1      65.360 -13.197  13.503  1.00  0.00    -0.504 OA
ATOM     21  H   UNL     1      66.268 -13.550  13.785  1.00  0.00     0.293 HD
ENDBRANCH  17  20
ENDBRANCH   1  12
BRANCH   2  22
ATOM     22  O   UNL     1      64.949 -10.328  18.479  1.00  0.00    -0.502 OA
ATOM     23  H   UNL     1      64.660 -10.023  17.557  1.00  0.00     0.293 HD
ENDBRANCH   2  22
BRANCH   6  24
ATOM     24  O   UNL     1      64.763 -12.542  23.320  1.00  0.00    -0.507 OA
ATOM     25  H   UNL     1      64.371 -12.494  24.248  1.00  0.00     0.293 HD
ENDBRANCH   6  24
BRANCH   8  26
ATOM     26  O   UNL     1      62.969 -16.855  22.212  1.00  0.00    -0.508 OA
ATOM     27  H   UNL     1      61.996 -17.132  22.168  1.00  0.00     0.293 HD
ENDBRANCH   8  26
TORSDOF 6
ENDMDL
MODEL 7
REMARK VINA RESULT:    -5.792     14.343     17.765
REMARK INTER + INTRA:          -7.285
REMARK INTER:                  -7.037
REMARK INTRA:                  -0.248
REMARK UNBOUND:                -0.308
REMARK SMILES O=c1c(O)c(-c2ccc(O)c(O)c2)oc2cc(O)cc(O)c12
REMARK SMILES IDX 5 1 3 2 2 3 1 4 22 5 20 6 19 7 17 8 16 9 15 10 14 11 6 12
REMARK SMILES IDX 7 13 8 14 9 15 13 16 11 17 10 18 12 20 4 22 21 24 18 26
REMARK H PARENT 10 19 12 21 4 23 21 25 18 27
REMARK Flexibility Score: inf
ROOT
ATOM      1  C   UNL     1      63.359 -13.999  15.966  1.00  0.00     0.180 A 
ATOM      2  C   UNL     1      63.970 -12.886  15.366  1.00  0.00     0.208 A 
ATOM      3  C   UNL     1      64.562 -11.910  16.183  1.00  0.00     0.238 A 
ATOM      4  O   UNL     1      65.172 -10.954  15.636  1.00  0.00    -0.285 OA
ATOM      5  C   UNL     1      64.487 -12.030  17.592  1.00  0.00     0.111 A 
ATOM      6  C   UNL     1      65.013 -11.078  18.518  1.00  0.00     0.134 A 
ATOM      7  C   UNL     1      64.974 -11.355  19.890  1.00  0.00     0.093 A 
ATOM      8  C   UNL     1      64.372 -12.519  20.373  1.00  0.00     0.123 A 
ATOM      9  C   UNL     1      63.807 -13.427  19.482  1.00  0.00     0.094 A 
ATOM     10  C   UNL     1      63.864 -13.198  18.105  1.00  0.00     0.146 A 
ATOM     11  O   UNL     1      63.332 -14.101  17.290  1.00  0.00    -0.452 OA
ENDROOT
BRANCH   1  12
ATOM     12  C   UNL     1      62.725 -15.076  15.172  1.00  0.00     0.025 A 
ATOM     13  C   UNL     1      63.534 -15.980  14.467  1.00  0.00     0.016 A 
ATOM     14  C   UNL     1      62.958 -16.991  13.693  1.00  0.00     0.051 A 
ATOM     15  C   UNL     1      61.568 -17.105  13.600  1.00  0.00     0.157 A 
ATOM     16  C   UNL     1      61.327 -15.178  15.059  1.00  0.00     0.062 A 
ATOM     17  C   UNL     1      60.746 -16.191  14.283  1.00  0.00     0.158 A 
BRANCH  15  18
ATOM     18  O   UNL     1      61.021 -18.125  12.823  1.00  0.00    -0.504 OA
ATOM     19  H   UNL     1      60.330 -18.769  13.190  1.00  0.00     0.293 HD
ENDBRANCH  15  18
BRANCH  17  20
ATOM     20  O   UNL     1      59.360 -16.289  14.182  1.00  0.00    -0.504 OA
ATOM     21  H   UNL     1      58.782 -15.478  13.994  1.00  0.00     0.293 HD
ENDBRANCH  17  20
ENDBRANCH   1  12
BRANCH   2  22
ATOM     22  O   UNL     1      63.965 -12.747  13.975  1.00  0.00    -0.502 OA
ATOM     23  H   UNL     1      64.816 -12.624  13.438  1.00  0.00     0.293 HD
ENDBRANCH   2  22
BRANCH   6  24
ATOM     24  O   UNL     1      65.556  -9.844  18.148  1.00  0.00    -0.507 OA
ATOM     25  H   UNL     1      65.761  -9.089  18.785  1.00  0.00     0.293 HD
ENDBRANCH   6  24
BRANCH   8  26
ATOM     26  O   UNL     1      64.322 -12.778  21.742  1.00  0.00    -0.508 OA
ATOM     27  H   UNL     1      63.930 -13.640  22.103  1.00  0.00     0.293 HD
ENDBRANCH   8  26
TORSDOF 6
ENDMDL
MODEL 8
REMARK VINA RESULT:    -5.773      1.846      2.360
REMARK INTER + INTRA:          -7.262
REMARK INTER:                  -7.144
REMARK INTRA:                  -0.118
REMARK UNBOUND:                -0.308
REMARK SMILES O=c1c(O)c(-c2ccc(O)c(O)c2)oc2cc(O)cc(O)c12
REMARK SMILES IDX 5 1 3 2 2 3 1 4 22 5 20 6 19 7 17 8 16 9 15 10 14 11 6 12
REMARK SMILES IDX 7 13 8 14 9 15 13 16 11 17 10 18 12 20 4 22 21 24 18 26
REMARK H PARENT 10 19 12 21 4 23 21 25 18 27
REMARK Flexibility Score: inf
ROOT
ATOM      1  C   UNL     1      59.393  -1.895  30.214  1.00  0.00     0.180 A 
ATOM      2  C   UNL     1      59.080  -0.816  29.370  1.00  0.00     0.208 A 
ATOM      3  C   UNL     1      57.733  -0.485  29.157  1.00  0.00     0.238 A 
ATOM      4  O   UNL     1      57.463   0.527  28.460  1.00  0.00    -0.285 OA
ATOM      5  C   UNL     1      56.713  -1.272  29.744  1.00  0.00     0.111 A 
ATOM      6  C   UNL     1      55.313  -1.056  29.560  1.00  0.00     0.134 A 
ATOM      7  C   UNL     1      54.394  -1.833  30.278  1.00  0.00     0.093 A 
ATOM      8  C   UNL     1      54.823  -2.859  31.122  1.00  0.00     0.123 A 
ATOM      9  C   UNL     1      56.185  -3.114  31.265  1.00  0.00     0.094 A 
ATOM     10  C   UNL     1      57.127  -2.331  30.594  1.00  0.00     0.146 A 
ATOM     11  O   UNL     1      58.415  -2.595  30.776  1.00  0.00    -0.452 OA
ENDROOT
BRANCH   1  12
ATOM     12  C   UNL     1      60.790  -2.296  30.498  1.00  0.00     0.025 A 
ATOM     13  C   UNL     1      61.277  -2.216  31.811  1.00  0.00     0.016 A 
ATOM     14  C   UNL     1      62.598  -2.568  32.100  1.00  0.00     0.051 A 
ATOM     15  C   UNL     1      63.455  -2.990  31.079  1.00  0.00     0.157 A 
ATOM     16  C   UNL     1      61.660  -2.700  29.469  1.00  0.00     0.062 A 
ATOM     17  C   UNL     1      62.986  -3.053  29.755  1.00  0.00     0.158 A 
BRANCH  15  18
ATOM     18  O   UNL     1      64.767  -3.338  31.397  1.00  0.00    -0.504 OA
ATOM     19  H   UNL     1      65.564  -2.895  30.954  1.00  0.00     0.293 HD
ENDBRANCH  15  18
BRANCH  17  20
ATOM     20  O   UNL     1      63.840  -3.459  28.732  1.00  0.00    -0.504 OA
ATOM     21  H   UNL     1      63.581  -3.365  27.756  1.00  0.00     0.293 HD
ENDBRANCH  17  20
ENDBRANCH   1  12
BRANCH   2  22
ATOM     22  O   UNL     1      60.101  -0.099  28.737  1.00  0.00    -0.502 OA
ATOM     23  H   UNL     1      59.977   0.853  28.415  1.00  0.00     0.293 HD
ENDBRANCH   2  22
BRANCH   6  24
ATOM     24  O   UNL     1      54.775  -0.118  28.674  1.00  0.00    -0.507 OA
ATOM     25  H   UNL     1      54.120  -0.329  27.936  1.00  0.00     0.293 HD
ENDBRANCH   6  24
BRANCH   8  26
ATOM     26  O   UNL     1      53.902  -3.640  31.818  1.00  0.00    -0.508 OA
ATOM     27  H   UNL     1      54.199  -4.328  32.500  1.00  0.00     0.293 HD
ENDBRANCH   8  26
TORSDOF 6
ENDMDL
MODEL 9
REMARK VINA RESULT:    -5.672     12.547     16.141
REMARK INTER + INTRA:          -7.140
REMARK INTER:                  -7.160
REMARK INTRA:                   0.020
REMARK UNBOUND:                -0.308
REMARK SMILES O=c1c(O)c(-c2ccc(O)c(O)c2)oc2cc(O)cc(O)c12
REMARK SMILES IDX 5 1 3 2 2 3 1 4 22 5 20 6 19 7 17 8 16 9 15 10 14 11 6 12
REMARK SMILES IDX 7 13 8 14 9 15 13 16 11 17 10 18 12 20 4 22 21 24 18 26
REMARK H PARENT 10 19 12 21 4 23 21 25 18 27
REMARK Flexibility Score: inf
ROOT
ATOM      1  C   UNL     1      63.906 -12.958  17.551  1.00  0.00     0.180 A 
ATOM      2  C   UNL     1      63.289 -14.029  18.219  1.00  0.00     0.208 A 
ATOM      3  C   UNL     1      63.323 -14.069  19.621  1.00  0.00     0.238 A 
ATOM      4  O   UNL     1      62.705 -14.992  20.214  1.00  0.00    -0.285 OA
ATOM      5  C   UNL     1      64.022 -13.068  20.338  1.00  0.00     0.111 A 
ATOM      6  C   UNL     1      64.160 -13.033  21.759  1.00  0.00     0.134 A 
ATOM      7  C   UNL     1      64.783 -11.935  22.365  1.00  0.00     0.093 A 
ATOM      8  C   UNL     1      65.329 -10.903  21.600  1.00  0.00     0.123 A 
ATOM      9  C   UNL     1      65.249 -10.955  20.210  1.00  0.00     0.094 A 
ATOM     10  C   UNL     1      64.599 -12.017  19.577  1.00  0.00     0.146 A 
ATOM     11  O   UNL     1      64.526 -12.016  18.252  1.00  0.00    -0.452 OA
ENDROOT
BRANCH   1  12
ATOM     12  C   UNL     1      63.900 -12.839  16.075  1.00  0.00     0.025 A 
ATOM     13  C   UNL     1      64.323 -13.924  15.294  1.00  0.00     0.016 A 
ATOM     14  C   UNL     1      64.347 -13.827  13.900  1.00  0.00     0.051 A 
ATOM     15  C   UNL     1      63.963 -12.641  13.268  1.00  0.00     0.157 A 
ATOM     16  C   UNL     1      63.535 -11.638  15.439  1.00  0.00     0.062 A 
ATOM     17  C   UNL     1      63.559 -11.538  14.040  1.00  0.00     0.158 A 
BRANCH  15  18
ATOM     18  O   UNL     1      63.994 -12.573  11.876  1.00  0.00    -0.504 OA
ATOM     19  H   UNL     1      63.147 -12.563  11.319  1.00  0.00     0.293 HD
ENDBRANCH  15  18
BRANCH  17  20
ATOM     20  O   UNL     1      63.189 -10.348  13.417  1.00  0.00    -0.504 OA
ATOM     21  H   UNL     1      63.842  -9.822  12.847  1.00  0.00     0.293 HD
ENDBRANCH  17  20
ENDBRANCH   1  12
BRANCH   2  22
ATOM     22  O   UNL     1      62.671 -15.049  17.489  1.00  0.00    -0.502 OA
ATOM     23  H   UNL     1      62.349 -15.908  17.920  1.00  0.00     0.293 HD
ENDBRANCH   2  22
BRANCH   6  24
ATOM     24  O   UNL     1      63.730 -14.053  22.613  1.00  0.00    -0.507 OA
ATOM     25  H   UNL     1      63.946 -14.112  23.597  1.00  0.00     0.293 HD
ENDBRANCH   6  24
BRANCH   8  26
ATOM     26  O   UNL     1      65.964  -9.823  22.210  1.00  0.00    -0.508 OA
ATOM     27  H   UNL     1      66.691  -9.299  21.737  1.00  0.00     0.293 HD
ENDBRANCH   8  26
TORSDOF 6
ENDMDL
