MODEL 1
REMARK VINA RESULT:    -2.974      0.000      0.000
REMARK INTER + INTRA:          -3.503
REMARK INTER:                  -4.365
REMARK INTRA:                   0.862
REMARK UNBOUND:                 0.862
REMARK SMILES C=C1CC=CC(C)(C)CC=C(C)CCC1
REMARK SMILES IDX 2 1 1 2 15 3 14 4 13 5 11 6 12 7 10 8 3 10 4 11 5 12 6 13
REMARK SMILES IDX 7 14 8 15 9 16
REMARK H PARENT
REMARK Flexibility Score: 60.00
ROOT
ATOM      1  C   UNL     1     147.239 145.647 132.867  1.00  0.00    -0.074 C 
ATOM      2  C   UNL     1     147.783 145.343 134.062  1.00  0.00     0.008 C 
ENDROOT
BRANCH   1   3
ATOM      3  C   UNL     1     146.835 147.094 132.620  1.00  0.00     0.031 C 
BRANCH   3   4
ATOM      4  C   UNL     1     145.960 147.730 133.713  1.00  0.00     0.009 C 
BRANCH   4   5
ATOM      5  C   UNL     1     144.652 146.975 134.051  1.00  0.00     0.030 C 
BRANCH   5   6
ATOM      6  C   UNL     1     143.627 146.882 132.928  1.00  0.00    -0.077 C 
ATOM      7  C   UNL     1     143.180 148.151 132.245  1.00  0.00     0.039 C 
ATOM      8  C   UNL     1     143.133 145.710 132.469  1.00  0.00    -0.027 CG0
ATOM      9  G   UNL     1     143.520 144.350 133.003  1.00  0.00     0.000 G0
ENDBRANCH   5   6
ENDBRANCH   4   5
ENDBRANCH   3   4
ENDBRANCH   1   3
BRANCH   1  10
ATOM     10  C   UNL     1     147.318 144.651 131.711  1.00  0.00     0.057 C 
BRANCH  10  11
ATOM     11  C   UNL     1     146.159 144.767 130.743  1.00  0.00    -0.026 C 
ATOM     12  C   UNL     1     144.929 144.213 130.834  1.00  0.00    -0.024 C 
BRANCH  12  13
ATOM     13  C   UNL     1     144.292 143.451 132.004  1.00  0.00    -0.014 C 
ATOM     14  C   UNL     1     143.347 142.368 131.440  1.00  0.00     0.016 C 
ATOM     15  C   UNL     1     145.424 142.725 132.772  1.00  0.00     0.016 C 
BRANCH  13  16
ATOM     16  C   UNL     1     143.521 144.353 133.014  1.00  0.00     0.038 CG0
ATOM     17  G   UNL     1     143.122 145.696 132.449  1.00  0.00     0.000 G0
ENDBRANCH  13  16
ENDBRANCH  12  13
ENDBRANCH  10  11
ENDBRANCH   1  10
TORSDOF 0
ENDMDL
MODEL 2
REMARK VINA RESULT:    -2.525      1.358      3.279
REMARK INTER + INTRA:          -2.845
REMARK INTER:                  -3.783
REMARK INTRA:                   0.938
REMARK UNBOUND:                 0.862
REMARK SMILES C=C1CC=CC(C)(C)CC=C(C)CCC1
REMARK SMILES IDX 2 1 1 2 15 3 14 4 13 5 11 6 12 7 10 8 3 10 4 11 5 12 6 13
REMARK SMILES IDX 7 14 8 15 9 16
REMARK H PARENT
REMARK Flexibility Score: 60.00
ROOT
ATOM      1  C   UNL     1     145.156 147.262 132.880  1.00  0.00    -0.074 C 
ATOM      2  C   UNL     1     145.500 147.815 134.061  1.00  0.00     0.008 C 
ENDROOT
BRANCH   1   3
ATOM      3  C   UNL     1     143.704 146.842 132.691  1.00  0.00     0.031 C 
BRANCH   3   4
ATOM      4  C   UNL     1     143.125 145.954 133.805  1.00  0.00     0.009 C 
BRANCH   4   5
ATOM      5  C   UNL     1     143.862 144.615 134.049  1.00  0.00     0.030 C 
BRANCH   5   6
ATOM      6  C   UNL     1     143.890 143.646 132.874  1.00  0.00    -0.077 C 
ATOM      7  C   UNL     1     142.590 143.280 132.202  1.00  0.00     0.039 C 
ATOM      8  C   UNL     1     145.033 143.136 132.361  1.00  0.00    -0.027 CG0
ATOM      9  G   UNL     1     146.418 143.446 132.878  1.00  0.00     0.000 G0
ENDBRANCH   5   6
ENDBRANCH   4   5
ENDBRANCH   3   4
ENDBRANCH   1   3
BRANCH   1  10
ATOM     10  C   UNL     1     146.106 147.347 131.686  1.00  0.00     0.057 C 
BRANCH  10  11
ATOM     11  C   UNL     1     145.934 146.207 130.705  1.00  0.00    -0.026 C 
ATOM     12  C   UNL     1     146.476 144.969 130.753  1.00  0.00    -0.024 C 
BRANCH  12  13
ATOM     13  C   UNL     1     147.277 144.302 131.880  1.00  0.00    -0.014 C 
ATOM     14  C   UNL     1     148.373 143.413 131.256  1.00  0.00     0.016 C 
ATOM     15  C   UNL     1     147.988 145.419 132.683  1.00  0.00     0.016 C 
BRANCH  13  16
ATOM     16  C   UNL     1     146.416 143.464 132.872  1.00  0.00     0.038 CG0
ATOM     17  G   UNL     1     145.036 143.135 132.351  1.00  0.00     0.000 G0
ENDBRANCH  13  16
ENDBRANCH  12  13
ENDBRANCH  10  11
ENDBRANCH   1  10
TORSDOF 0
ENDMDL
MODEL 3
REMARK VINA RESULT:    -2.405      1.687      4.622
REMARK INTER + INTRA:          -2.668
REMARK INTER:                  -3.329
REMARK INTRA:                   0.661
REMARK UNBOUND:                 0.862
REMARK SMILES C=C1CC=CC(C)(C)CC=C(C)CCC1
REMARK SMILES IDX 2 1 1 2 15 3 14 4 13 5 11 6 12 7 10 8 3 10 4 11 5 12 6 13
REMARK SMILES IDX 7 14 8 15 9 16
REMARK H PARENT
REMARK Flexibility Score: 60.00
ROOT
ATOM      1  C   UNL     1     143.960 144.129 131.515  1.00  0.00    -0.074 C 
ATOM      2  C   UNL     1     144.318 143.159 130.649  1.00  0.00     0.008 C 
ENDROOT
BRANCH   1   3
ATOM      3  C   UNL     1     143.843 143.755 132.987  1.00  0.00     0.031 C 
BRANCH   3   4
ATOM      4  C   UNL     1     144.896 142.758 133.498  1.00  0.00     0.009 C 
BRANCH   4   5
ATOM      5  C   UNL     1     146.211 143.380 134.028  1.00  0.00     0.030 C 
BRANCH   5   6
ATOM      6  C   UNL     1     147.050 144.135 133.006  1.00  0.00    -0.077 C 
ATOM      7  C   UNL     1     147.801 143.349 131.959  1.00  0.00     0.039 C 
ATOM      8  C   UNL     1     147.114 145.485 132.950  1.00  0.00    -0.027 CG0
ATOM      9  G   UNL     1     146.379 146.417 133.885  1.00  0.00     0.000 G0
ENDBRANCH   5   6
ENDBRANCH   4   5
ENDBRANCH   3   4
ENDBRANCH   1   3
BRANCH   1  10
ATOM     10  C   UNL     1     143.980 145.593 131.081  1.00  0.00     0.057 C 
BRANCH  10  11
ATOM     11  C   UNL     1     143.409 146.532 132.122  1.00  0.00    -0.026 C 
ATOM     12  C   UNL     1     144.073 147.285 133.028  1.00  0.00    -0.024 C 
BRANCH  12  13
ATOM     13  C   UNL     1     145.582 147.539 133.161  1.00  0.00    -0.014 C 
ATOM     14  C   UNL     1     146.175 147.769 131.755  1.00  0.00     0.016 C 
ATOM     15  C   UNL     1     145.775 148.848 133.965  1.00  0.00     0.016 C 
BRANCH  13  16
ATOM     16  C   UNL     1     146.364 146.403 133.886  1.00  0.00     0.038 CG0
ATOM     17  G   UNL     1     147.116 145.488 132.948  1.00  0.00     0.000 G0
ENDBRANCH  13  16
ENDBRANCH  12  13
ENDBRANCH  10  11
ENDBRANCH   1  10
TORSDOF 0
ENDMDL
MODEL 4
REMARK VINA RESULT:    -2.291      1.868      3.524
REMARK INTER + INTRA:          -2.500
REMARK INTER:                  -3.878
REMARK INTRA:                   1.377
REMARK UNBOUND:                 0.862
REMARK SMILES C=C1CC=CC(C)(C)CC=C(C)CCC1
REMARK SMILES IDX 2 1 1 2 15 3 14 4 13 5 11 6 12 7 10 8 3 10 4 11 5 12 6 13
REMARK SMILES IDX 7 14 8 15 9 16
REMARK H PARENT
REMARK Flexibility Score: 60.00
ROOT
ATOM      1  C   UNL     1     143.461 145.686 131.542  1.00  0.00    -0.074 C 
ATOM      2  C   UNL     1     143.148 146.748 130.772  1.00  0.00     0.008 C 
ENDROOT
BRANCH   1   3
ATOM      3  C   UNL     1     142.783 145.574 132.901  1.00  0.00     0.031 C 
BRANCH   3   4
ATOM      4  C   UNL     1     143.595 146.117 134.089  1.00  0.00     0.009 C 
BRANCH   4   5
ATOM      5  C   UNL     1     145.088 145.711 134.125  1.00  0.00     0.030 C 
BRANCH   5   6
ATOM      6  C   UNL     1     146.060 146.687 133.477  1.00  0.00    -0.077 C 
ATOM      7  C   UNL     1     145.670 148.142 133.377  1.00  0.00     0.039 C 
ATOM      8  C   UNL     1     147.286 146.330 133.033  1.00  0.00    -0.027 CG0
ATOM      9  G   UNL     1     147.852 144.930 133.111  1.00  0.00     0.000 G0
ENDBRANCH   5   6
ENDBRANCH   4   5
ENDBRANCH   3   4
ENDBRANCH   1   3
BRANCH   1  10
ATOM     10  C   UNL     1     144.213 144.499 130.945  1.00  0.00     0.057 C 
BRANCH  10  11
ATOM     11  C   UNL     1     145.509 144.893 130.267  1.00  0.00    -0.026 C 
ATOM     12  C   UNL     1     146.773 144.748 130.724  1.00  0.00    -0.024 C 
BRANCH  12  13
ATOM     13  C   UNL     1     147.277 144.004 131.969  1.00  0.00    -0.014 C 
ATOM     14  C   UNL     1     146.125 143.152 132.541  1.00  0.00     0.016 C 
ATOM     15  C   UNL     1     148.395 143.031 131.521  1.00  0.00     0.016 C 
BRANCH  13  16
ATOM     16  C   UNL     1     147.855 144.930 133.081  1.00  0.00     0.038 CG0
ATOM     17  G   UNL     1     147.283 146.328 133.067  1.00  0.00     0.000 G0
ENDBRANCH  13  16
ENDBRANCH  12  13
ENDBRANCH  10  11
ENDBRANCH   1  10
TORSDOF 0
ENDMDL
MODEL 5
REMARK VINA RESULT:    -2.260      1.752      3.426
REMARK INTER + INTRA:          -2.455
REMARK INTER:                  -3.928
REMARK INTRA:                   1.473
REMARK UNBOUND:                 0.862
REMARK SMILES C=C1CC=CC(C)(C)CC=C(C)CCC1
REMARK SMILES IDX 2 1 1 2 15 3 14 4 13 5 11 6 12 7 10 8 3 10 4 11 5 12 6 13
REMARK SMILES IDX 7 14 8 15 9 16
REMARK H PARENT
REMARK Flexibility Score: 60.00
ROOT
ATOM      1  C   UNL     1     143.465 145.985 132.549  1.00  0.00    -0.074 C 
ATOM      2  C   UNL     1     142.839 146.837 131.712  1.00  0.00     0.008 C 
ENDROOT
BRANCH   1   3
ATOM      3  C   UNL     1     143.852 146.503 133.928  1.00  0.00     0.031 C 
BRANCH   3   4
ATOM      4  C   UNL     1     145.337 146.862 134.103  1.00  0.00     0.009 C 
BRANCH   4   5
ATOM      5  C   UNL     1     145.882 147.957 133.154  1.00  0.00     0.030 C 
BRANCH   5   6
ATOM      6  C   UNL     1     146.752 147.468 132.005  1.00  0.00    -0.077 C 
ATOM      7  C   UNL     1     147.023 148.402 130.850  1.00  0.00     0.039 C 
ATOM      8  C   UNL     1     147.347 146.254 131.988  1.00  0.00    -0.027 CG0
ATOM      9  G   UNL     1     147.227 145.226 133.089  1.00  0.00     0.000 G0
ENDBRANCH   5   6
ENDBRANCH   4   5
ENDBRANCH   3   4
ENDBRANCH   1   3
BRANCH   1  10
ATOM     10  C   UNL     1     143.497 144.489 132.240  1.00  0.00     0.057 C 
BRANCH  10  11
ATOM     11  C   UNL     1     144.496 144.123 131.163  1.00  0.00    -0.026 C 
ATOM     12  C   UNL     1     145.828 143.923 131.285  1.00  0.00    -0.024 C 
BRANCH  12  13
ATOM     13  C   UNL     1     146.685 143.842 132.556  1.00  0.00    -0.014 C 
ATOM     14  C   UNL     1     145.863 143.160 133.670  1.00  0.00     0.016 C 
ATOM     15  C   UNL     1     147.901 142.933 132.254  1.00  0.00     0.016 C 
BRANCH  13  16
ATOM     16  C   UNL     1     147.220 145.217 133.059  1.00  0.00     0.038 CG0
ATOM     17  G   UNL     1     147.358 146.252 131.968  1.00  0.00     0.000 G0
ENDBRANCH  13  16
ENDBRANCH  12  13
ENDBRANCH  10  11
ENDBRANCH   1  10
TORSDOF 0
ENDMDL
MODEL 6
REMARK VINA RESULT:    -2.195      1.643      4.337
REMARK INTER + INTRA:          -2.360
REMARK INTER:                  -3.809
REMARK INTRA:                   1.448
REMARK UNBOUND:                 0.862
REMARK SMILES C=C1CC=CC(C)(C)CC=C(C)CCC1
REMARK SMILES IDX 2 1 1 2 15 3 14 4 13 5 11 6 12 7 10 8 3 10 4 11 5 12 6 13
REMARK SMILES IDX 7 14 8 15 9 16
REMARK H PARENT
REMARK Flexibility Score: 60.00
ROOT
ATOM      1  C   UNL     1     144.567 143.347 132.673  1.00  0.00    -0.074 C 
ATOM      2  C   UNL     1     143.631 142.984 131.774  1.00  0.00     0.008 C 
ENDROOT
BRANCH   1   3
ATOM      3  C   UNL     1     146.007 142.930 132.402  1.00  0.00     0.031 C 
BRANCH   3   4
ATOM      4  C   UNL     1     147.012 144.086 132.263  1.00  0.00     0.009 C 
BRANCH   4   5
ATOM      5  C   UNL     1     147.214 144.634 130.830  1.00  0.00     0.030 C 
BRANCH   5   6
ATOM      6  C   UNL     1     146.032 145.385 130.231  1.00  0.00    -0.077 C 
ATOM      7  C   UNL     1     145.211 144.713 129.159  1.00  0.00     0.039 C 
ATOM      8  C   UNL     1     145.642 146.611 130.651  1.00  0.00    -0.027 CG0
ATOM      9  G   UNL     1     146.319 147.395 131.752  1.00  0.00     0.000 G0
ENDBRANCH   5   6
ENDBRANCH   4   5
ENDBRANCH   3   4
ENDBRANCH   1   3
BRANCH   1  10
ATOM     10  C   UNL     1     144.245 144.390 133.742  1.00  0.00     0.057 C 
BRANCH  10  11
ATOM     11  C   UNL     1     143.559 145.620 133.187  1.00  0.00    -0.026 C 
ATOM     12  C   UNL     1     144.076 146.855 132.994  1.00  0.00    -0.024 C 
BRANCH  12  13
ATOM     13  C   UNL     1     145.531 147.329 133.118  1.00  0.00    -0.014 C 
ATOM     14  C   UNL     1     145.547 148.722 133.781  1.00  0.00     0.016 C 
ATOM     15  C   UNL     1     146.269 146.354 134.068  1.00  0.00     0.016 C 
BRANCH  13  16
ATOM     16  C   UNL     1     146.310 147.375 131.769  1.00  0.00     0.038 CG0
ATOM     17  G   UNL     1     145.635 146.616 130.651  1.00  0.00     0.000 G0
ENDBRANCH  13  16
ENDBRANCH  12  13
ENDBRANCH  10  11
ENDBRANCH   1  10
TORSDOF 0
ENDMDL
MODEL 7
REMARK VINA RESULT:    -2.183      0.782      3.479
REMARK INTER + INTRA:          -2.342
REMARK INTER:                  -3.997
REMARK INTRA:                   1.655
REMARK UNBOUND:                 0.862
REMARK SMILES C=C1CC=CC(C)(C)CC=C(C)CCC1
REMARK SMILES IDX 2 1 1 2 15 3 14 4 13 5 11 6 12 7 10 8 3 10 4 11 5 12 6 13
REMARK SMILES IDX 7 14 8 15 9 16
REMARK H PARENT
REMARK Flexibility Score: 60.00
ROOT
ATOM      1  C   UNL     1     147.559 145.396 132.886  1.00  0.00    -0.074 C 
ATOM      2  C   UNL     1     148.032 145.145 134.123  1.00  0.00     0.008 C 
ENDROOT
BRANCH   1   3
ATOM      3  C   UNL     1     147.418 144.219 131.930  1.00  0.00     0.031 C 
BRANCH   3   4
ATOM      4  C   UNL     1     146.226 144.296 130.961  1.00  0.00     0.009 C 
BRANCH   4   5
ATOM      5  C   UNL     1     144.967 143.498 131.377  1.00  0.00     0.030 C 
BRANCH   5   6
ATOM      6  C   UNL     1     144.565 143.604 132.842  1.00  0.00    -0.077 C 
ATOM      7  C   UNL     1     145.247 142.711 133.849  1.00  0.00     0.039 C 
ATOM      8  C   UNL     1     143.664 144.502 133.302  1.00  0.00    -0.027 CG0
ATOM      9  G   UNL     1     142.936 145.505 132.437  1.00  0.00     0.000 G0
ENDBRANCH   5   6
ENDBRANCH   4   5
ENDBRANCH   3   4
ENDBRANCH   1   3
BRANCH   1  10
ATOM     10  C   UNL     1     146.903 146.739 132.571  1.00  0.00     0.057 C 
BRANCH  10  11
ATOM     11  C   UNL     1     145.873 147.156 133.601  1.00  0.00    -0.026 C 
ATOM     12  C   UNL     1     144.535 147.278 133.449  1.00  0.00    -0.024 C 
BRANCH  12  13
ATOM     13  C   UNL     1     143.653 146.875 132.258  1.00  0.00    -0.014 C 
ATOM     14  C   UNL     1     142.619 147.993 132.003  1.00  0.00     0.016 C 
ATOM     15  C   UNL     1     144.557 146.784 131.005  1.00  0.00     0.016 C 
BRANCH  13  16
ATOM     16  C   UNL     1     142.923 145.509 132.432  1.00  0.00     0.038 CG0
ATOM     17  G   UNL     1     143.668 144.529 133.308  1.00  0.00     0.000 G0
ENDBRANCH  13  16
ENDBRANCH  12  13
ENDBRANCH  10  11
ENDBRANCH   1  10
TORSDOF 0
ENDMDL
MODEL 8
REMARK VINA RESULT:    -2.089      1.381      3.298
REMARK INTER + INTRA:          -2.204
REMARK INTER:                  -3.024
REMARK INTRA:                   0.820
REMARK UNBOUND:                 0.862
REMARK SMILES C=C1CC=CC(C)(C)CC=C(C)CCC1
REMARK SMILES IDX 2 1 1 2 15 3 14 4 13 5 11 6 12 7 10 8 3 10 4 11 5 12 6 13
REMARK SMILES IDX 7 14 8 15 9 16
REMARK H PARENT
REMARK Flexibility Score: 60.00
ROOT
ATOM      1  C   UNL     1     146.259 143.937 131.398  1.00  0.00    -0.074 C 
ATOM      2  C   UNL     1     146.812 144.604 130.366  1.00  0.00     0.008 C 
ENDROOT
BRANCH   1   3
ATOM      3  C   UNL     1     147.087 143.784 132.667  1.00  0.00     0.031 C 
BRANCH   3   4
ATOM      4  C   UNL     1     148.001 144.975 133.004  1.00  0.00     0.009 C 
BRANCH   4   5
ATOM      5  C   UNL     1     147.339 146.129 133.795  1.00  0.00     0.030 C 
BRANCH   5   6
ATOM      6  C   UNL     1     146.617 147.179 132.963  1.00  0.00    -0.077 C 
ATOM      7  C   UNL     1     147.384 147.909 131.889  1.00  0.00     0.039 C 
ATOM      8  C   UNL     1     145.299 147.455 133.097  1.00  0.00    -0.027 CG0
ATOM      9  G   UNL     1     144.377 146.774 134.082  1.00  0.00     0.000 G0
ENDBRANCH   5   6
ENDBRANCH   4   5
ENDBRANCH   3   4
ENDBRANCH   1   3
BRANCH   1  10
ATOM     10  C   UNL     1     144.763 143.628 131.402  1.00  0.00     0.057 C 
BRANCH  10  11
ATOM     11  C   UNL     1     144.206 143.390 132.790  1.00  0.00    -0.026 C 
ATOM     12  C   UNL     1     143.692 144.293 133.655  1.00  0.00    -0.024 C 
BRANCH  12  13
ATOM     13  C   UNL     1     143.370 145.777 133.433  1.00  0.00    -0.014 C 
ATOM     14  C   UNL     1     143.276 146.045 131.916  1.00  0.00     0.016 C 
ATOM     15  C   UNL     1     141.973 146.057 134.040  1.00  0.00     0.016 C 
BRANCH  13  16
ATOM     16  C   UNL     1     144.389 146.761 134.082  1.00  0.00     0.038 CG0
ATOM     17  G   UNL     1     145.298 147.441 133.086  1.00  0.00     0.000 G0
ENDBRANCH  13  16
ENDBRANCH  12  13
ENDBRANCH  10  11
ENDBRANCH   1  10
TORSDOF 0
ENDMDL
MODEL 9
REMARK VINA RESULT:    -2.015      1.488      3.738
REMARK INTER + INTRA:          -2.096
REMARK INTER:                  -2.928
REMARK INTRA:                   0.832
REMARK UNBOUND:                 0.862
REMARK SMILES C=C1CC=CC(C)(C)CC=C(C)CCC1
REMARK SMILES IDX 2 1 1 2 15 3 14 4 13 5 11 6 12 7 10 8 3 10 4 11 5 12 6 13
REMARK SMILES IDX 7 14 8 15 9 16
REMARK H PARENT
REMARK Flexibility Score: 60.00
ROOT
ATOM      1  C   UNL     1     144.998 143.597 131.092  1.00  0.00    -0.074 C 
ATOM      2  C   UNL     1     143.965 143.064 130.408  1.00  0.00     0.008 C 
ENDROOT
BRANCH   1   3
ATOM      3  C   UNL     1     145.218 143.124 132.522  1.00  0.00     0.031 C 
BRANCH   3   4
ATOM      4  C   UNL     1     144.202 143.645 133.552  1.00  0.00     0.009 C 
BRANCH   4   5
ATOM      5  C   UNL     1     144.485 145.055 134.123  1.00  0.00     0.030 C 
BRANCH   5   6
ATOM      6  C   UNL     1     143.726 146.203 133.470  1.00  0.00    -0.077 C 
ATOM      7  C   UNL     1     142.226 146.105 133.347  1.00  0.00     0.039 C 
ATOM      8  C   UNL     1     144.323 147.338 133.041  1.00  0.00    -0.027 CG0
ATOM      9  G   UNL     1     145.804 147.619 133.143  1.00  0.00     0.000 G0
ENDBRANCH   5   6
ENDBRANCH   4   5
ENDBRANCH   3   4
ENDBRANCH   1   3
BRANCH   1  10
ATOM     10  C   UNL     1     146.075 144.395 130.359  1.00  0.00     0.057 C 
BRANCH  10  11
ATOM     11  C   UNL     1     145.623 145.787 129.968  1.00  0.00    -0.026 C 
ATOM     12  C   UNL     1     145.797 146.947 130.641  1.00  0.00    -0.024 C 
BRANCH  12  13
ATOM     13  C   UNL     1     146.635 147.224 131.898  1.00  0.00    -0.014 C 
ATOM     14  C   UNL     1     147.489 145.978 132.214  1.00  0.00     0.016 C 
ATOM     15  C   UNL     1     147.608 148.383 131.575  1.00  0.00     0.016 C 
BRANCH  13  16
ATOM     16  C   UNL     1     145.800 147.625 133.151  1.00  0.00     0.038 CG0
ATOM     17  G   UNL     1     144.321 147.346 133.012  1.00  0.00     0.000 G0
ENDBRANCH  13  16
ENDBRANCH  12  13
ENDBRANCH  10  11
ENDBRANCH   1  10
TORSDOF 0
ENDMDL
