MODEL 1
REMARK VINA RESULT:    -5.999      0.000      0.000
REMARK INTER + INTRA:          -6.765
REMARK INTER:                  -7.226
REMARK INTRA:                   0.461
REMARK UNBOUND:                 0.461
REMARK SMILES O=c1c(O)c(-c2ccc(O)c(O)c2)oc2cc(O)cc(O)c12
REMARK SMILES IDX 5 1 3 2 2 3 1 4 22 5 20 6 19 7 17 8 16 9 15 10 14 11 6 12
REMARK SMILES IDX 7 13 8 14 9 15 13 16 11 17 10 18 12 20 4 22 21 24 18 26
REMARK H PARENT 10 19 12 21 4 23 21 25 18 27
REMARK Flexibility Score: inf
ROOT
ATOM      1  C   UNL     1      24.656 -52.563 149.726  1.00  0.00     0.180 A 
ATOM      2  C   UNL     1      24.677 -53.015 148.395  1.00  0.00     0.208 A 
ATOM      3  C   UNL     1      23.480 -53.457 147.807  1.00  0.00     0.238 A 
ATOM      4  O   UNL     1      23.515 -53.911 146.634  1.00  0.00    -0.285 OA
ATOM      5  C   UNL     1      22.277 -53.427 148.553  1.00  0.00     0.111 A 
ATOM      6  C   UNL     1      21.000 -53.813 148.044  1.00  0.00     0.134 A 
ATOM      7  C   UNL     1      19.900 -53.866 148.909  1.00  0.00     0.093 A 
ATOM      8  C   UNL     1      20.015 -53.486 150.245  1.00  0.00     0.123 A 
ATOM      9  C   UNL     1      21.245 -53.051 150.738  1.00  0.00     0.094 A 
ATOM     10  C   UNL     1      22.370 -53.021 149.908  1.00  0.00     0.146 A 
ATOM     11  O   UNL     1      23.524 -52.610 150.418  1.00  0.00    -0.452 OA
ENDROOT
BRANCH   1  12
ATOM     12  C   UNL     1      25.871 -52.060 150.406  1.00  0.00     0.025 A 
ATOM     13  C   UNL     1      27.089 -51.920 149.718  1.00  0.00     0.016 A 
ATOM     14  C   UNL     1      28.217 -51.418 150.374  1.00  0.00     0.051 A 
ATOM     15  C   UNL     1      28.142 -51.038 151.720  1.00  0.00     0.157 A 
ATOM     16  C   UNL     1      25.795 -51.657 151.749  1.00  0.00     0.062 A 
ATOM     17  C   UNL     1      26.924 -51.156 152.410  1.00  0.00     0.158 A 
BRANCH  15  18
ATOM     18  O   UNL     1      29.270 -50.540 152.372  1.00  0.00    -0.504 OA
ATOM     19  H   UNL     1      29.726 -49.689 152.068  1.00  0.00     0.293 HD
ENDBRANCH  15  18
BRANCH  17  20
ATOM     20  O   UNL     1      26.813 -50.779 153.748  1.00  0.00    -0.504 OA
ATOM     21  H   UNL     1      26.058 -51.106 154.337  1.00  0.00     0.293 HD
ENDBRANCH  17  20
ENDBRANCH   1  12
BRANCH   2  22
ATOM     22  O   UNL     1      25.880 -53.057 147.685  1.00  0.00    -0.502 OA
ATOM     23  H   UNL     1      26.538 -53.821 147.774  1.00  0.00     0.293 HD
ENDBRANCH   2  22
BRANCH   6  24
ATOM     24  O   UNL     1      20.755 -54.125 146.703  1.00  0.00    -0.507 OA
ATOM     25  H   UNL     1      21.467 -54.205 145.993  1.00  0.00     0.293 HD
ENDBRANCH   6  24
BRANCH   8  26
ATOM     26  O   UNL     1      18.896 -53.537 151.073  1.00  0.00    -0.508 OA
ATOM     27  H   UNL     1      18.210 -54.279 150.993  1.00  0.00     0.293 HD
ENDBRANCH   8  26
TORSDOF 6
ENDMDL
MODEL 2
REMARK VINA RESULT:    -5.783     17.438     17.877
REMARK INTER + INTRA:          -6.506
REMARK INTER:                  -6.983
REMARK INTRA:                   0.477
REMARK UNBOUND:                 0.461
REMARK SMILES O=c1c(O)c(-c2ccc(O)c(O)c2)oc2cc(O)cc(O)c12
REMARK SMILES IDX 5 1 3 2 2 3 1 4 22 5 20 6 19 7 17 8 16 9 15 10 14 11 6 12
REMARK SMILES IDX 7 13 8 14 9 15 13 16 11 17 10 18 12 20 4 22 21 24 18 26
REMARK H PARENT 10 19 12 21 4 23 21 25 18 27
REMARK Flexibility Score: inf
ROOT
ATOM      1  C   UNL     1      19.718 -35.315 149.979  1.00  0.00     0.180 A 
ATOM      2  C   UNL     1      19.041 -35.022 148.782  1.00  0.00     0.208 A 
ATOM      3  C   UNL     1      17.696 -35.404 148.650  1.00  0.00     0.238 A 
ATOM      4  O   UNL     1      17.111 -35.188 147.557  1.00  0.00    -0.285 OA
ATOM      5  C   UNL     1      17.042 -36.061 149.721  1.00  0.00     0.111 A 
ATOM      6  C   UNL     1      15.670 -36.457 149.711  1.00  0.00     0.134 A 
ATOM      7  C   UNL     1      15.164 -37.215 150.774  1.00  0.00     0.093 A 
ATOM      8  C   UNL     1      15.958 -37.535 151.874  1.00  0.00     0.123 A 
ATOM      9  C   UNL     1      17.283 -37.101 151.921  1.00  0.00     0.094 A 
ATOM     10  C   UNL     1      17.828 -36.374 150.859  1.00  0.00     0.146 A 
ATOM     11  O   UNL     1      19.096 -35.989 150.938  1.00  0.00    -0.452 OA
ENDROOT
BRANCH   1  12
ATOM     12  C   UNL     1      21.128 -34.922 150.202  1.00  0.00     0.025 A 
ATOM     13  C   UNL     1      21.698 -34.941 151.487  1.00  0.00     0.016 A 
ATOM     14  C   UNL     1      23.038 -34.590 151.670  1.00  0.00     0.051 A 
ATOM     15  C   UNL     1      23.831 -34.227 150.573  1.00  0.00     0.157 A 
ATOM     16  C   UNL     1      21.932 -34.578 149.103  1.00  0.00     0.062 A 
ATOM     17  C   UNL     1      23.275 -34.225 149.283  1.00  0.00     0.158 A 
BRANCH  15  18
ATOM     18  O   UNL     1      25.167 -33.876 150.760  1.00  0.00    -0.504 OA
ATOM     19  H   UNL     1      25.522 -33.601 151.668  1.00  0.00     0.293 HD
ENDBRANCH  15  18
BRANCH  17  20
ATOM     20  O   UNL     1      24.038 -33.877 148.170  1.00  0.00    -0.504 OA
ATOM     21  H   UNL     1      24.812 -33.226 148.231  1.00  0.00     0.293 HD
ENDBRANCH  17  20
ENDBRANCH   1  12
BRANCH   2  22
ATOM     22  O   UNL     1      19.712 -34.393 147.730  1.00  0.00    -0.502 OA
ATOM     23  H   UNL     1      20.152 -33.487 147.830  1.00  0.00     0.293 HD
ENDBRANCH   2  22
BRANCH   6  24
ATOM     24  O   UNL     1      14.765 -36.112 148.703  1.00  0.00    -0.507 OA
ATOM     25  H   UNL     1      14.723 -35.210 148.254  1.00  0.00     0.293 HD
ENDBRANCH   6  24
BRANCH   8  26
ATOM     26  O   UNL     1      15.416 -38.277 152.921  1.00  0.00    -0.508 OA
ATOM     27  H   UNL     1      14.459 -38.609 152.895  1.00  0.00     0.293 HD
ENDBRANCH   8  26
TORSDOF 6
ENDMDL
MODEL 3
REMARK VINA RESULT:    -5.639      3.983      7.035
REMARK INTER + INTRA:          -6.332
REMARK INTER:                  -6.001
REMARK INTRA:                  -0.331
REMARK UNBOUND:                 0.461
REMARK SMILES O=c1c(O)c(-c2ccc(O)c(O)c2)oc2cc(O)cc(O)c12
REMARK SMILES IDX 5 1 3 2 2 3 1 4 22 5 20 6 19 7 17 8 16 9 15 10 14 11 6 12
REMARK SMILES IDX 7 13 8 14 9 15 13 16 11 17 10 18 12 20 4 22 21 24 18 26
REMARK H PARENT 10 19 12 21 4 23 21 25 18 27
REMARK Flexibility Score: inf
ROOT
ATOM      1  C   UNL     1      25.246 -52.709 154.457  1.00  0.00     0.180 A 
ATOM      2  C   UNL     1      24.655 -53.328 153.342  1.00  0.00     0.208 A 
ATOM      3  C   UNL     1      25.203 -53.103 152.068  1.00  0.00     0.238 A 
ATOM      4  O   UNL     1      24.637 -53.616 151.068  1.00  0.00    -0.285 OA
ATOM      5  C   UNL     1      26.343 -52.274 151.928  1.00  0.00     0.111 A 
ATOM      6  C   UNL     1      27.004 -52.009 150.692  1.00  0.00     0.134 A 
ATOM      7  C   UNL     1      28.043 -51.070 150.652  1.00  0.00     0.093 A 
ATOM      8  C   UNL     1      28.487 -50.438 151.812  1.00  0.00     0.123 A 
ATOM      9  C   UNL     1      27.887 -50.734 153.036  1.00  0.00     0.094 A 
ATOM     10  C   UNL     1      26.824 -51.639 153.102  1.00  0.00     0.146 A 
ATOM     11  O   UNL     1      26.273 -51.886 154.284  1.00  0.00    -0.452 OA
ENDROOT
BRANCH   1  12
ATOM     12  C   UNL     1      24.741 -52.918 155.833  1.00  0.00     0.025 A 
ATOM     13  C   UNL     1      25.226 -53.962 156.639  1.00  0.00     0.016 A 
ATOM     14  C   UNL     1      24.753 -54.125 157.944  1.00  0.00     0.051 A 
ATOM     15  C   UNL     1      23.799 -53.241 158.466  1.00  0.00     0.157 A 
ATOM     16  C   UNL     1      23.801 -52.022 156.368  1.00  0.00     0.062 A 
ATOM     17  C   UNL     1      23.324 -52.183 157.675  1.00  0.00     0.158 A 
BRANCH  15  18
ATOM     18  O   UNL     1      23.328 -53.408 159.768  1.00  0.00    -0.504 OA
ATOM     19  H   UNL     1      23.553 -52.749 160.503  1.00  0.00     0.293 HD
ENDBRANCH  15  18
BRANCH  17  20
ATOM     20  O   UNL     1      22.381 -51.282 158.167  1.00  0.00    -0.504 OA
ATOM     21  H   UNL     1      22.633 -50.343 158.452  1.00  0.00     0.293 HD
ENDBRANCH  17  20
ENDBRANCH   1  12
BRANCH   2  22
ATOM     22  O   UNL     1      23.518 -54.125 153.500  1.00  0.00    -0.502 OA
ATOM     23  H   UNL     1      22.590 -53.734 153.604  1.00  0.00     0.293 HD
ENDBRANCH   2  22
BRANCH   6  24
ATOM     24  O   UNL     1      26.700 -52.654 149.489  1.00  0.00    -0.507 OA
ATOM     25  H   UNL     1      26.407 -53.616 149.412  1.00  0.00     0.293 HD
ENDBRANCH   6  24
BRANCH   8  26
ATOM     26  O   UNL     1      29.534 -49.521 151.738  1.00  0.00    -0.508 OA
ATOM     27  H   UNL     1      29.474 -48.695 151.153  1.00  0.00     0.293 HD
ENDBRANCH   8  26
TORSDOF 6
ENDMDL
MODEL 4
REMARK VINA RESULT:    -5.620     17.427     18.785
REMARK INTER + INTRA:          -6.309
REMARK INTER:                  -6.780
REMARK INTRA:                   0.471
REMARK UNBOUND:                 0.461
REMARK SMILES O=c1c(O)c(-c2ccc(O)c(O)c2)oc2cc(O)cc(O)c12
REMARK SMILES IDX 5 1 3 2 2 3 1 4 22 5 20 6 19 7 17 8 16 9 15 10 14 11 6 12
REMARK SMILES IDX 7 13 8 14 9 15 13 16 11 17 10 18 12 20 4 22 21 24 18 26
REMARK H PARENT 10 19 12 21 4 23 21 25 18 27
REMARK Flexibility Score: inf
ROOT
ATOM      1  C   UNL     1      18.869 -35.649 149.666  1.00  0.00     0.180 A 
ATOM      2  C   UNL     1      18.962 -35.179 148.344  1.00  0.00     0.208 A 
ATOM      3  C   UNL     1      20.191 -34.677 147.886  1.00  0.00     0.238 A 
ATOM      4  O   UNL     1      20.255 -34.208 146.719  1.00  0.00    -0.285 OA
ATOM      5  C   UNL     1      21.314 -34.665 148.749  1.00  0.00     0.111 A 
ATOM      6  C   UNL     1      22.617 -34.217 148.377  1.00  0.00     0.134 A 
ATOM      7  C   UNL     1      23.620 -34.128 149.350  1.00  0.00     0.093 A 
ATOM      8  C   UNL     1      23.387 -34.532 150.664  1.00  0.00     0.123 A 
ATOM      9  C   UNL     1      22.134 -35.028 151.025  1.00  0.00     0.094 A 
ATOM     10  C   UNL     1      21.102 -35.095 150.085  1.00  0.00     0.146 A 
ATOM     11  O   UNL     1      19.922 -35.564 150.470  1.00  0.00    -0.452 OA
ENDROOT
BRANCH   1  12
ATOM     12  C   UNL     1      17.615 -36.215 150.213  1.00  0.00     0.025 A 
ATOM     13  C   UNL     1      16.464 -36.348 149.418  1.00  0.00     0.016 A 
ATOM     14  C   UNL     1      15.299 -36.909 149.949  1.00  0.00     0.051 A 
ATOM     15  C   UNL     1      15.271 -37.356 151.276  1.00  0.00     0.157 A 
ATOM     16  C   UNL     1      17.588 -36.685 151.537  1.00  0.00     0.062 A 
ATOM     17  C   UNL     1      16.422 -37.246 152.073  1.00  0.00     0.158 A 
BRANCH  15  18
ATOM     18  O   UNL     1      14.106 -37.913 151.803  1.00  0.00    -0.504 OA
ATOM     19  H   UNL     1      13.265 -37.362 151.931  1.00  0.00     0.293 HD
ENDBRANCH  15  18
BRANCH  17  20
ATOM     20  O   UNL     1      16.430 -37.688 153.395  1.00  0.00    -0.504 OA
ATOM     21  H   UNL     1      15.592 -37.693 153.964  1.00  0.00     0.293 HD
ENDBRANCH  17  20
ENDBRANCH   1  12
BRANCH   2  22
ATOM     22  O   UNL     1      17.836 -35.180 147.516  1.00  0.00    -0.502 OA
ATOM     23  H   UNL     1      17.441 -36.031 147.137  1.00  0.00     0.293 HD
ENDBRANCH   2  22
BRANCH   6  24
ATOM     24  O   UNL     1      22.982 -33.875 147.072  1.00  0.00    -0.507 OA
ATOM     25  H   UNL     1      22.485 -33.217 146.491  1.00  0.00     0.293 HD
ENDBRANCH   6  24
BRANCH   8  26
ATOM     26  O   UNL     1      24.413 -34.445 151.602  1.00  0.00    -0.508 OA
ATOM     27  H   UNL     1      24.881 -33.566 151.796  1.00  0.00     0.293 HD
ENDBRANCH   8  26
TORSDOF 6
ENDMDL
MODEL 5
REMARK VINA RESULT:    -5.515      1.102      6.530
REMARK INTER + INTRA:          -6.183
REMARK INTER:                  -6.645
REMARK INTRA:                   0.462
REMARK UNBOUND:                 0.461
REMARK SMILES O=c1c(O)c(-c2ccc(O)c(O)c2)oc2cc(O)cc(O)c12
REMARK SMILES IDX 5 1 3 2 2 3 1 4 22 5 20 6 19 7 17 8 16 9 15 10 14 11 6 12
REMARK SMILES IDX 7 13 8 14 9 15 13 16 11 17 10 18 12 20 4 22 21 24 18 26
REMARK H PARENT 10 19 12 21 4 23 21 25 18 27
REMARK Flexibility Score: inf
ROOT
ATOM      1  C   UNL     1      23.722 -52.950 149.643  1.00  0.00     0.180 A 
ATOM      2  C   UNL     1      24.572 -53.266 148.568  1.00  0.00     0.208 A 
ATOM      3  C   UNL     1      25.944 -52.986 148.681  1.00  0.00     0.238 A 
ATOM      4  O   UNL     1      26.691 -53.221 147.695  1.00  0.00    -0.285 OA
ATOM      5  C   UNL     1      26.450 -52.407 149.870  1.00  0.00     0.111 A 
ATOM      6  C   UNL     1      27.827 -52.118 150.108  1.00  0.00     0.134 A 
ATOM      7  C   UNL     1      28.197 -51.427 151.269  1.00  0.00     0.093 A 
ATOM      8  C   UNL     1      27.250 -51.073 152.229  1.00  0.00     0.123 A 
ATOM      9  C   UNL     1      25.909 -51.404 152.034  1.00  0.00     0.094 A 
ATOM     10  C   UNL     1      25.504 -52.061 150.869  1.00  0.00     0.146 A 
ATOM     11  O   UNL     1      24.217 -52.349 150.718  1.00  0.00    -0.452 OA
ENDROOT
BRANCH   1  12
ATOM     12  C   UNL     1      22.271 -53.239 149.608  1.00  0.00     0.025 A 
ATOM     13  C   UNL     1      21.638 -53.671 148.430  1.00  0.00     0.016 A 
ATOM     14  C   UNL     1      20.271 -53.961 148.427  1.00  0.00     0.051 A 
ATOM     15  C   UNL     1      19.519 -53.836 149.603  1.00  0.00     0.157 A 
ATOM     16  C   UNL     1      21.517 -53.136 150.789  1.00  0.00     0.062 A 
ATOM     17  C   UNL     1      20.147 -53.425 150.790  1.00  0.00     0.158 A 
BRANCH  15  18
ATOM     18  O   UNL     1      18.155 -54.125 149.596  1.00  0.00    -0.504 OA
ATOM     19  H   UNL     1      17.551 -53.856 150.363  1.00  0.00     0.293 HD
ENDBRANCH  15  18
BRANCH  17  20
ATOM     20  O   UNL     1      19.429 -53.298 151.979  1.00  0.00    -0.504 OA
ATOM     21  H   UNL     1      18.791 -52.529 152.141  1.00  0.00     0.293 HD
ENDBRANCH  17  20
ENDBRANCH   1  12
BRANCH   2  22
ATOM     22  O   UNL     1      24.049 -53.816 147.395  1.00  0.00    -0.502 OA
ATOM     23  H   UNL     1      24.040 -54.813 147.219  1.00  0.00     0.293 HD
ENDBRANCH   2  22
BRANCH   6  24
ATOM     24  O   UNL     1      28.865 -52.508 149.256  1.00  0.00    -0.507 OA
ATOM     25  H   UNL     1      28.736 -52.959 148.363  1.00  0.00     0.293 HD
ENDBRANCH   6  24
BRANCH   8  26
ATOM     26  O   UNL     1      27.656 -50.400 153.379  1.00  0.00    -0.508 OA
ATOM     27  H   UNL     1      27.299 -50.651 154.294  1.00  0.00     0.293 HD
ENDBRANCH   8  26
TORSDOF 6
ENDMDL
MODEL 6
REMARK VINA RESULT:    -5.401      2.779      6.880
REMARK INTER + INTRA:          -6.046
REMARK INTER:                  -6.023
REMARK INTRA:                  -0.023
REMARK UNBOUND:                 0.461
REMARK SMILES O=c1c(O)c(-c2ccc(O)c(O)c2)oc2cc(O)cc(O)c12
REMARK SMILES IDX 5 1 3 2 2 3 1 4 22 5 20 6 19 7 17 8 16 9 15 10 14 11 6 12
REMARK SMILES IDX 7 13 8 14 9 15 13 16 11 17 10 18 12 20 4 22 21 24 18 26
REMARK H PARENT 10 19 12 21 4 23 21 25 18 27
REMARK Flexibility Score: inf
ROOT
ATOM      1  C   UNL     1      25.993 -52.517 148.510  1.00  0.00     0.180 A 
ATOM      2  C   UNL     1      24.980 -52.942 149.387  1.00  0.00     0.208 A 
ATOM      3  C   UNL     1      25.129 -52.706 150.764  1.00  0.00     0.238 A 
ATOM      4  O   UNL     1      24.245 -53.137 151.550  1.00  0.00    -0.285 OA
ATOM      5  C   UNL     1      26.282 -52.037 151.243  1.00  0.00     0.111 A 
ATOM      6  C   UNL     1      26.517 -51.710 152.613  1.00  0.00     0.134 A 
ATOM      7  C   UNL     1      27.750 -51.163 152.989  1.00  0.00     0.093 A 
ATOM      8  C   UNL     1      28.729 -50.871 152.040  1.00  0.00     0.123 A 
ATOM      9  C   UNL     1      28.486 -51.131 150.692  1.00  0.00     0.094 A 
ATOM     10  C   UNL     1      27.279 -51.710 150.289  1.00  0.00     0.146 A 
ATOM     11  O   UNL     1      27.091 -51.951 148.997  1.00  0.00    -0.452 OA
ENDROOT
BRANCH   1  12
ATOM     12  C   UNL     1      25.896 -52.708 147.045  1.00  0.00     0.025 A 
ATOM     13  C   UNL     1      25.634 -53.971 146.487  1.00  0.00     0.016 A 
ATOM     14  C   UNL     1      25.522 -54.122 145.103  1.00  0.00     0.051 A 
ATOM     15  C   UNL     1      25.657 -53.014 144.257  1.00  0.00     0.157 A 
ATOM     16  C   UNL     1      26.010 -51.596 146.194  1.00  0.00     0.062 A 
ATOM     17  C   UNL     1      25.899 -51.744 144.806  1.00  0.00     0.158 A 
BRANCH  15  18
ATOM     18  O   UNL     1      25.547 -53.169 142.875  1.00  0.00    -0.504 OA
ATOM     19  H   UNL     1      26.286 -53.592 142.327  1.00  0.00     0.293 HD
ENDBRANCH  15  18
BRANCH  17  20
ATOM     20  O   UNL     1      26.031 -50.620 143.993  1.00  0.00    -0.504 OA
ATOM     21  H   UNL     1      25.549 -50.538 143.106  1.00  0.00     0.293 HD
ENDBRANCH  17  20
ENDBRANCH   1  12
BRANCH   2  22
ATOM     22  O   UNL     1      23.862 -53.621 148.895  1.00  0.00    -0.502 OA
ATOM     23  H   UNL     1      23.379 -54.332 149.429  1.00  0.00     0.293 HD
ENDBRANCH   2  22
BRANCH   6  24
ATOM     24  O   UNL     1      25.572 -51.877 153.629  1.00  0.00    -0.507 OA
ATOM     25  H   UNL     1      25.104 -52.745 153.841  1.00  0.00     0.293 HD
ENDBRANCH   6  24
BRANCH   8  26
ATOM     26  O   UNL     1      29.937 -50.313 152.449  1.00  0.00    -0.508 OA
ATOM     27  H   UNL     1      30.131 -50.124 153.427  1.00  0.00     0.293 HD
ENDBRANCH   8  26
TORSDOF 6
ENDMDL
MODEL 7
REMARK VINA RESULT:    -5.312     18.077     20.328
REMARK INTER + INTRA:          -5.938
REMARK INTER:                  -5.678
REMARK INTRA:                  -0.260
REMARK UNBOUND:                 0.461
REMARK SMILES O=c1c(O)c(-c2ccc(O)c(O)c2)oc2cc(O)cc(O)c12
REMARK SMILES IDX 5 1 3 2 2 3 1 4 22 5 20 6 19 7 17 8 16 9 15 10 14 11 6 12
REMARK SMILES IDX 7 13 8 14 9 15 13 16 11 17 10 18 12 20 4 22 21 24 18 26
REMARK H PARENT 10 19 12 21 4 23 21 25 18 27
REMARK Flexibility Score: inf
ROOT
ATOM      1  C   UNL     1      17.841 -37.328 160.391  1.00  0.00     0.180 A 
ATOM      2  C   UNL     1      18.694 -38.363 160.815  1.00  0.00     0.208 A 
ATOM      3  C   UNL     1      19.911 -38.559 160.143  1.00  0.00     0.238 A 
ATOM      4  O   UNL     1      20.645 -39.521 160.492  1.00  0.00    -0.285 OA
ATOM      5  C   UNL     1      20.267 -37.711 159.067  1.00  0.00     0.111 A 
ATOM      6  C   UNL     1      21.494 -37.794 158.341  1.00  0.00     0.134 A 
ATOM      7  C   UNL     1      21.683 -36.988 157.212  1.00  0.00     0.093 A 
ATOM      8  C   UNL     1      20.721 -36.058 156.821  1.00  0.00     0.123 A 
ATOM      9  C   UNL     1      19.545 -35.926 157.558  1.00  0.00     0.094 A 
ATOM     10  C   UNL     1      19.311 -36.742 158.669  1.00  0.00     0.146 A 
ATOM     11  O   UNL     1      18.174 -36.592 159.338  1.00  0.00    -0.452 OA
ENDROOT
BRANCH   1  12
ATOM     12  C   UNL     1      16.554 -37.043 161.065  1.00  0.00     0.025 A 
ATOM     13  C   UNL     1      16.396 -35.920 161.896  1.00  0.00     0.016 A 
ATOM     14  C   UNL     1      15.164 -35.657 162.501  1.00  0.00     0.051 A 
ATOM     15  C   UNL     1      14.070 -36.504 162.276  1.00  0.00     0.157 A 
ATOM     16  C   UNL     1      15.449 -37.877 160.826  1.00  0.00     0.062 A 
ATOM     17  C   UNL     1      14.213 -37.617 161.432  1.00  0.00     0.158 A 
BRANCH  15  18
ATOM     18  O   UNL     1      12.843 -36.240 162.884  1.00  0.00    -0.504 OA
ATOM     19  H   UNL     1      12.074 -35.829 162.369  1.00  0.00     0.293 HD
ENDBRANCH  15  18
BRANCH  17  20
ATOM     20  O   UNL     1      13.144 -38.475 161.181  1.00  0.00    -0.504 OA
ATOM     21  H   UNL     1      13.124 -39.088 160.376  1.00  0.00     0.293 HD
ENDBRANCH  17  20
ENDBRANCH   1  12
BRANCH   2  22
ATOM     22  O   UNL     1      18.313 -39.202 161.866  1.00  0.00    -0.502 OA
ATOM     23  H   UNL     1      18.506 -40.196 161.865  1.00  0.00     0.293 HD
ENDBRANCH   2  22
BRANCH   6  24
ATOM     24  O   UNL     1      22.558 -38.626 158.700  1.00  0.00    -0.507 OA
ATOM     25  H   UNL     1      22.613 -39.611 158.490  1.00  0.00     0.293 HD
ENDBRANCH   6  24
BRANCH   8  26
ATOM     26  O   UNL     1      20.951 -35.261 155.701  1.00  0.00    -0.508 OA
ATOM     27  H   UNL     1      21.405 -34.358 155.777  1.00  0.00     0.293 HD
ENDBRANCH   8  26
TORSDOF 6
ENDMDL
MODEL 8
REMARK VINA RESULT:    -5.191     18.337     20.549
REMARK INTER + INTRA:          -5.792
REMARK INTER:                  -5.615
REMARK INTRA:                  -0.177
REMARK UNBOUND:                 0.461
REMARK SMILES O=c1c(O)c(-c2ccc(O)c(O)c2)oc2cc(O)cc(O)c12
REMARK SMILES IDX 5 1 3 2 2 3 1 4 22 5 20 6 19 7 17 8 16 9 15 10 14 11 6 12
REMARK SMILES IDX 7 13 8 14 9 15 13 16 11 17 10 18 12 20 4 22 21 24 18 26
REMARK H PARENT 10 19 12 21 4 23 21 25 18 27
REMARK Flexibility Score: inf
ROOT
ATOM      1  C   UNL     1      17.266 -36.999 160.425  1.00  0.00     0.180 A 
ATOM      2  C   UNL     1      17.626 -36.133 159.377  1.00  0.00     0.208 A 
ATOM      3  C   UNL     1      18.849 -36.336 158.716  1.00  0.00     0.238 A 
ATOM      4  O   UNL     1      19.191 -35.526 157.816  1.00  0.00    -0.285 OA
ATOM      5  C   UNL     1      19.688 -37.410 159.102  1.00  0.00     0.111 A 
ATOM      6  C   UNL     1      20.929 -37.733 158.475  1.00  0.00     0.134 A 
ATOM      7  C   UNL     1      21.738 -38.737 159.023  1.00  0.00     0.093 A 
ATOM      8  C   UNL     1      21.322 -39.472 160.132  1.00  0.00     0.123 A 
ATOM      9  C   UNL     1      20.084 -39.204 160.716  1.00  0.00     0.094 A 
ATOM     10  C   UNL     1      19.271 -38.185 160.215  1.00  0.00     0.146 A 
ATOM     11  O   UNL     1      18.104 -37.955 160.805  1.00  0.00    -0.452 OA
ENDROOT
BRANCH   1  12
ATOM     12  C   UNL     1      15.983 -36.863 161.152  1.00  0.00     0.025 A 
ATOM     13  C   UNL     1      15.714 -35.743 161.957  1.00  0.00     0.016 A 
ATOM     14  C   UNL     1      14.486 -35.625 162.614  1.00  0.00     0.051 A 
ATOM     15  C   UNL     1      13.506 -36.615 162.466  1.00  0.00     0.157 A 
ATOM     16  C   UNL     1      14.990 -37.843 160.989  1.00  0.00     0.062 A 
ATOM     17  C   UNL     1      13.759 -37.728 161.647  1.00  0.00     0.158 A 
BRANCH  15  18
ATOM     18  O   UNL     1      12.283 -36.494 163.124  1.00  0.00    -0.504 OA
ATOM     19  H   UNL     1      11.995 -37.156 163.835  1.00  0.00     0.293 HD
ENDBRANCH  15  18
BRANCH  17  20
ATOM     20  O   UNL     1      12.802 -38.727 161.472  1.00  0.00    -0.504 OA
ATOM     21  H   UNL     1      11.816 -38.560 161.631  1.00  0.00     0.293 HD
ENDBRANCH  17  20
ENDBRANCH   1  12
BRANCH   2  22
ATOM     22  O   UNL     1      16.793 -35.066 159.028  1.00  0.00    -0.502 OA
ATOM     23  H   UNL     1      17.114 -34.106 159.019  1.00  0.00     0.293 HD
ENDBRANCH   2  22
BRANCH   6  24
ATOM     24  O   UNL     1      21.397 -37.122 157.308  1.00  0.00    -0.507 OA
ATOM     25  H   UNL     1      20.808 -36.718 156.596  1.00  0.00     0.293 HD
ENDBRANCH   6  24
BRANCH   8  26
ATOM     26  O   UNL     1      22.146 -40.473 160.641  1.00  0.00    -0.508 OA
ATOM     27  H   UNL     1      21.779 -41.383 160.897  1.00  0.00     0.293 HD
ENDBRANCH   8  26
TORSDOF 6
ENDMDL
MODEL 9
REMARK VINA RESULT:    -5.162      2.428      4.695
REMARK INTER + INTRA:          -5.757
REMARK INTER:                  -5.428
REMARK INTRA:                  -0.329
REMARK UNBOUND:                 0.461
REMARK SMILES O=c1c(O)c(-c2ccc(O)c(O)c2)oc2cc(O)cc(O)c12
REMARK SMILES IDX 5 1 3 2 2 3 1 4 22 5 20 6 19 7 17 8 16 9 15 10 14 11 6 12
REMARK SMILES IDX 7 13 8 14 9 15 13 16 11 17 10 18 12 20 4 22 21 24 18 26
REMARK H PARENT 10 19 12 21 4 23 21 25 18 27
REMARK Flexibility Score: inf
ROOT
ATOM      1  C   UNL     1      24.282 -53.072 148.665  1.00  0.00     0.180 A 
ATOM      2  C   UNL     1      24.991 -53.221 149.869  1.00  0.00     0.208 A 
ATOM      3  C   UNL     1      24.274 -53.438 151.058  1.00  0.00     0.238 A 
ATOM      4  O   UNL     1      24.911 -53.517 152.141  1.00  0.00    -0.285 OA
ATOM      5  C   UNL     1      22.861 -53.516 151.024  1.00  0.00     0.111 A 
ATOM      6  C   UNL     1      22.036 -53.772 152.161  1.00  0.00     0.134 A 
ATOM      7  C   UNL     1      20.644 -53.698 152.034  1.00  0.00     0.093 A 
ATOM      8  C   UNL     1      20.045 -53.444 150.801  1.00  0.00     0.123 A 
ATOM      9  C   UNL     1      20.840 -53.251 149.671  1.00  0.00     0.094 A 
ATOM     10  C   UNL     1      22.234 -53.283 149.773  1.00  0.00     0.146 A 
ATOM     11  O   UNL     1      22.955 -53.085 148.676  1.00  0.00    -0.452 OA
ENDROOT
BRANCH   1  12
ATOM     12  C   UNL     1      24.968 -52.866 147.369  1.00  0.00     0.025 A 
ATOM     13  C   UNL     1      25.312 -53.951 146.543  1.00  0.00     0.016 A 
ATOM     14  C   UNL     1      25.936 -53.731 145.312  1.00  0.00     0.051 A 
ATOM     15  C   UNL     1      26.214 -52.427 144.883  1.00  0.00     0.157 A 
ATOM     16  C   UNL     1      25.229 -51.560 146.924  1.00  0.00     0.062 A 
ATOM     17  C   UNL     1      25.856 -51.336 145.692  1.00  0.00     0.158 A 
BRANCH  15  18
ATOM     18  O   UNL     1      26.839 -52.212 143.655  1.00  0.00    -0.504 OA
ATOM     19  H   UNL     1      26.307 -52.097 142.801  1.00  0.00     0.293 HD
ENDBRANCH  15  18
BRANCH  17  20
ATOM     20  O   UNL     1      26.111 -50.026 145.291  1.00  0.00    -0.504 OA
ATOM     21  H   UNL     1      25.872 -49.691 144.365  1.00  0.00     0.293 HD
ENDBRANCH  17  20
ENDBRANCH   1  12
BRANCH   2  22
ATOM     22  O   UNL     1      26.385 -53.119 149.884  1.00  0.00    -0.502 OA
ATOM     23  H   UNL     1      26.960 -53.620 150.549  1.00  0.00     0.293 HD
ENDBRANCH   2  22
BRANCH   6  24
ATOM     24  O   UNL     1      22.531 -54.125 153.420  1.00  0.00    -0.507 OA
ATOM     25  H   UNL     1      22.423 -55.034 153.845  1.00  0.00     0.293 HD
ENDBRANCH   6  24
BRANCH   8  26
ATOM     26  O   UNL     1      18.656 -53.393 150.709  1.00  0.00    -0.508 OA
ATOM     27  H   UNL     1      18.192 -52.932 149.934  1.00  0.00     0.293 HD
ENDBRANCH   8  26
TORSDOF 6
ENDMDL
