MODEL 1
REMARK VINA RESULT:    -3.889      0.000      0.000
REMARK INTER + INTRA:          -4.531
REMARK INTER:                  -4.458
REMARK INTRA:                  -0.073
REMARK UNBOUND:                -0.073
REMARK SMILES COc1cc(C(=O)[O-])ccc1O
REMARK SMILES IDX 5 1 9 2 4 3 10 4 3 5 11 6 6 7 7 8 8 9 2 10 1 11 12 12
REMARK H PARENT 12 13
REMARK Flexibility Score: inf
ROOT
ATOM      1  C   UNL     1      34.423  67.948   6.323  1.00  0.00     0.001 A 
ATOM      2  C   UNL     1      34.880  67.934   7.649  1.00  0.00     0.014 A 
ATOM      3  C   UNL     1      33.552  66.931   5.888  1.00  0.00     0.060 A 
ATOM      4  C   UNL     1      34.476  66.925   8.525  1.00  0.00     0.051 A 
ATOM      5  C   UNL     1      33.141  65.909   6.768  1.00  0.00     0.161 A 
ATOM      6  C   UNL     1      33.611  65.916   8.093  1.00  0.00     0.157 A 
ENDROOT
BRANCH   1   7
ATOM      7  C   UNL     1      34.854  69.020   5.397  1.00  0.00     0.072 C 
ATOM      8  O   UNL     1      34.103  70.004   5.161  1.00  0.00    -0.545 OA
ATOM      9  O   UNL     1      36.096  68.956   4.775  1.00  0.00    -0.545 OA
ENDBRANCH   1   7
BRANCH   5  10
ATOM     10  O   UNL     1      32.273  64.882   6.363  1.00  0.00    -0.493 OA
ATOM     11  C   UNL     1      31.545  64.875   5.139  1.00  0.00     0.278 C 
ENDBRANCH   5  10
BRANCH   6  12
ATOM     12  O   UNL     1      33.230  64.924   8.998  1.00  0.00    -0.504 OA
ATOM     13  H   UNL     1      33.143  65.103   9.991  1.00  0.00     0.293 HD
ENDBRANCH   6  12
TORSDOF 3
ENDMDL
MODEL 2
REMARK VINA RESULT:    -3.345      1.321      4.196
REMARK INTER + INTRA:          -3.907
REMARK INTER:                  -3.822
REMARK INTRA:                  -0.086
REMARK UNBOUND:                -0.073
REMARK SMILES COc1cc(C(=O)[O-])ccc1O
REMARK SMILES IDX 5 1 9 2 4 3 10 4 3 5 11 6 6 7 7 8 8 9 2 10 1 11 12 12
REMARK H PARENT 12 13
REMARK Flexibility Score: inf
ROOT
ATOM      1  C   UNL     1      33.278  66.358   6.474  1.00  0.00     0.001 A 
ATOM      2  C   UNL     1      33.860  66.158   7.735  1.00  0.00     0.014 A 
ATOM      3  C   UNL     1      33.572  67.537   5.764  1.00  0.00     0.060 A 
ATOM      4  C   UNL     1      34.716  67.117   8.278  1.00  0.00     0.051 A 
ATOM      5  C   UNL     1      34.436  68.509   6.307  1.00  0.00     0.161 A 
ATOM      6  C   UNL     1      35.008  68.288   7.573  1.00  0.00     0.157 A 
ENDROOT
BRANCH   1   7
ATOM      7  C   UNL     1      32.370  65.338   5.902  1.00  0.00     0.072 C 
ATOM      8  O   UNL     1      32.570  64.876   4.747  1.00  0.00    -0.545 OA
ATOM      9  O   UNL     1      31.282  64.875   6.634  1.00  0.00    -0.545 OA
ENDBRANCH   1   7
BRANCH   5  10
ATOM     10  O   UNL     1      34.748  69.695   5.622  1.00  0.00    -0.493 OA
ATOM     11  C   UNL     1      35.236  69.752   4.285  1.00  0.00     0.278 C 
ENDBRANCH   5  10
BRANCH   6  12
ATOM     12  O   UNL     1      35.869  69.223   8.148  1.00  0.00    -0.504 OA
ATOM     13  H   UNL     1      35.556  69.891   8.842  1.00  0.00     0.293 HD
ENDBRANCH   6  12
TORSDOF 3
ENDMDL
MODEL 3
REMARK VINA RESULT:    -2.866     18.263     18.884
REMARK INTER + INTRA:          -3.358
REMARK INTER:                  -3.261
REMARK INTRA:                  -0.097
REMARK UNBOUND:                -0.073
REMARK SMILES COc1cc(C(=O)[O-])ccc1O
REMARK SMILES IDX 5 1 9 2 4 3 10 4 3 5 11 6 6 7 7 8 8 9 2 10 1 11 12 12
REMARK H PARENT 12 13
REMARK Flexibility Score: inf
ROOT
ATOM      1  C   UNL     1      19.099  79.565   9.828  1.00  0.00     0.001 A 
ATOM      2  C   UNL     1      17.887  78.959   9.465  1.00  0.00     0.014 A 
ATOM      3  C   UNL     1      20.303  78.866   9.617  1.00  0.00     0.060 A 
ATOM      4  C   UNL     1      17.875  77.682   8.904  1.00  0.00     0.051 A 
ATOM      5  C   UNL     1      20.297  77.575   9.051  1.00  0.00     0.161 A 
ATOM      6  C   UNL     1      19.070  76.988   8.695  1.00  0.00     0.157 A 
ENDROOT
BRANCH   1   7
ATOM      7  C   UNL     1      19.107  80.920  10.423  1.00  0.00     0.072 C 
ATOM      8  O   UNL     1      20.113  81.669  10.301  1.00  0.00    -0.545 OA
ATOM      9  O   UNL     1      18.002  81.387  11.125  1.00  0.00    -0.545 OA
ENDBRANCH   1   7
BRANCH   5  10
ATOM     10  O   UNL     1      21.481  76.854   8.830  1.00  0.00    -0.493 OA
ATOM     11  C   UNL     1      22.340  76.372   9.859  1.00  0.00     0.278 C 
ENDBRANCH   5  10
BRANCH   6  12
ATOM     12  O   UNL     1      19.018  75.712   8.132  1.00  0.00    -0.504 OA
ATOM     13  H   UNL     1      19.328  74.888   8.632  1.00  0.00     0.293 HD
ENDBRANCH   6  12
TORSDOF 3
ENDMDL
MODEL 4
REMARK VINA RESULT:    -2.774     16.935     17.412
REMARK INTER + INTRA:          -3.253
REMARK INTER:                  -3.180
REMARK INTRA:                  -0.073
REMARK UNBOUND:                -0.073
REMARK SMILES COc1cc(C(=O)[O-])ccc1O
REMARK SMILES IDX 5 1 9 2 4 3 10 4 3 5 11 6 6 7 7 8 8 9 2 10 1 11 12 12
REMARK H PARENT 12 13
REMARK Flexibility Score: inf
ROOT
ATOM      1  C   UNL     1      21.386  76.978   9.504  1.00  0.00     0.001 A 
ATOM      2  C   UNL     1      21.308  78.365   9.303  1.00  0.00     0.014 A 
ATOM      3  C   UNL     1      20.268  76.298  10.022  1.00  0.00     0.060 A 
ATOM      4  C   UNL     1      20.138  79.059   9.614  1.00  0.00     0.051 A 
ATOM      5  C   UNL     1      19.083  76.994  10.337  1.00  0.00     0.161 A 
ATOM      6  C   UNL     1      19.028  78.384  10.127  1.00  0.00     0.157 A 
ENDROOT
BRANCH   1   7
ATOM      7  C   UNL     1      22.629  76.246   9.174  1.00  0.00     0.072 C 
ATOM      8  O   UNL     1      22.796  75.748   8.029  1.00  0.00    -0.545 OA
ATOM      9  O   UNL     1      23.633  76.098  10.125  1.00  0.00    -0.545 OA
ENDBRANCH   1   7
BRANCH   5  10
ATOM     10  O   UNL     1      17.952  76.343  10.855  1.00  0.00    -0.493 OA
ATOM     11  C   UNL     1      17.876  74.946  11.124  1.00  0.00     0.278 C 
ENDBRANCH   5  10
BRANCH   6  12
ATOM     12  O   UNL     1      17.875  79.112  10.425  1.00  0.00    -0.504 OA
ATOM     13  H   UNL     1      17.258  78.858  11.187  1.00  0.00     0.293 HD
ENDBRANCH   6  12
TORSDOF 3
ENDMDL
MODEL 5
REMARK VINA RESULT:    -2.691     16.889     17.475
REMARK INTER + INTRA:          -3.158
REMARK INTER:                  -3.202
REMARK INTRA:                   0.044
REMARK UNBOUND:                -0.073
REMARK SMILES COc1cc(C(=O)[O-])ccc1O
REMARK SMILES IDX 5 1 9 2 4 3 10 4 3 5 11 6 6 7 7 8 8 9 2 10 1 11 12 12
REMARK H PARENT 12 13
REMARK Flexibility Score: inf
ROOT
ATOM      1  C   UNL     1      21.698  76.714  10.018  1.00  0.00     0.001 A 
ATOM      2  C   UNL     1      20.819  75.940  10.791  1.00  0.00     0.014 A 
ATOM      3  C   UNL     1      21.286  77.988   9.584  1.00  0.00     0.060 A 
ATOM      4  C   UNL     1      19.555  76.428  11.125  1.00  0.00     0.051 A 
ATOM      5  C   UNL     1      20.011  78.486   9.918  1.00  0.00     0.161 A 
ATOM      6  C   UNL     1      19.147  77.693  10.695  1.00  0.00     0.157 A 
ENDROOT
BRANCH   1   7
ATOM      7  C   UNL     1      23.038  76.192   9.666  1.00  0.00     0.072 C 
ATOM      8  O   UNL     1      23.999  76.296  10.473  1.00  0.00    -0.545 OA
ATOM      9  O   UNL     1      23.254  75.579   8.437  1.00  0.00    -0.545 OA
ENDBRANCH   1   7
BRANCH   5  10
ATOM     10  O   UNL     1      19.573  79.754   9.500  1.00  0.00    -0.493 OA
ATOM     11  C   UNL     1      19.419  80.880  10.359  1.00  0.00     0.278 C 
ENDBRANCH   5  10
BRANCH   6  12
ATOM     12  O   UNL     1      17.875  78.147  11.049  1.00  0.00    -0.504 OA
ATOM     13  H   UNL     1      17.046  77.580  10.925  1.00  0.00     0.293 HD
ENDBRANCH   6  12
TORSDOF 3
ENDMDL
MODEL 6
REMARK VINA RESULT:    -2.568     17.869     18.324
REMARK INTER + INTRA:          -3.017
REMARK INTER:                  -2.933
REMARK INTRA:                  -0.084
REMARK UNBOUND:                -0.073
REMARK SMILES COc1cc(C(=O)[O-])ccc1O
REMARK SMILES IDX 5 1 9 2 4 3 10 4 3 5 11 6 6 7 7 8 8 9 2 10 1 11 12 12
REMARK H PARENT 12 13
REMARK Flexibility Score: inf
ROOT
ATOM      1  C   UNL     1      19.200  78.604  10.487  1.00  0.00     0.001 A 
ATOM      2  C   UNL     1      18.038  77.818  10.538  1.00  0.00     0.014 A 
ATOM      3  C   UNL     1      20.452  77.984  10.650  1.00  0.00     0.060 A 
ATOM      4  C   UNL     1      18.125  76.441  10.749  1.00  0.00     0.051 A 
ATOM      5  C   UNL     1      20.547  76.594  10.863  1.00  0.00     0.161 A 
ATOM      6  C   UNL     1      19.369  75.826  10.910  1.00  0.00     0.157 A 
ENDROOT
BRANCH   1   7
ATOM      7  C   UNL     1      19.103  80.064  10.264  1.00  0.00     0.072 C 
ATOM      8  O   UNL     1      20.067  80.702   9.764  1.00  0.00    -0.545 OA
ATOM      9  O   UNL     1      17.943  80.752  10.603  1.00  0.00    -0.545 OA
ENDBRANCH   1   7
BRANCH   5  10
ATOM     10  O   UNL     1      21.783  75.948  11.029  1.00  0.00    -0.493 OA
ATOM     11  C   UNL     1      22.959  76.250  10.285  1.00  0.00     0.278 C 
ENDBRANCH   5  10
BRANCH   6  12
ATOM     12  O   UNL     1      19.416  74.447  11.119  1.00  0.00    -0.504 OA
ATOM     13  H   UNL     1      18.596  73.859  11.031  1.00  0.00     0.293 HD
ENDBRANCH   6  12
TORSDOF 3
ENDMDL
MODEL 7
REMARK VINA RESULT:    -2.526     17.405     17.763
REMARK INTER + INTRA:          -2.968
REMARK INTER:                  -2.888
REMARK INTRA:                  -0.080
REMARK UNBOUND:                -0.073
REMARK SMILES COc1cc(C(=O)[O-])ccc1O
REMARK SMILES IDX 5 1 9 2 4 3 10 4 3 5 11 6 6 7 7 8 8 9 2 10 1 11 12 12
REMARK H PARENT 12 13
REMARK Flexibility Score: inf
ROOT
ATOM      1  C   UNL     1      19.886  78.305  10.057  1.00  0.00     0.001 A 
ATOM      2  C   UNL     1      21.285  78.259   9.959  1.00  0.00     0.014 A 
ATOM      3  C   UNL     1      19.190  77.145  10.447  1.00  0.00     0.060 A 
ATOM      4  C   UNL     1      21.975  77.080  10.242  1.00  0.00     0.051 A 
ATOM      5  C   UNL     1      19.882  75.951  10.734  1.00  0.00     0.161 A 
ATOM      6  C   UNL     1      21.284  75.929  10.629  1.00  0.00     0.157 A 
ENDROOT
BRANCH   1   7
ATOM      7  C   UNL     1      19.158  79.558   9.756  1.00  0.00     0.072 C 
ATOM      8  O   UNL     1      19.689  80.679   9.979  1.00  0.00    -0.545 OA
ATOM      9  O   UNL     1      17.875  79.515   9.221  1.00  0.00    -0.545 OA
ENDBRANCH   1   7
BRANCH   5  10
ATOM     10  O   UNL     1      19.214  74.779  11.125  1.00  0.00    -0.493 OA
ATOM     11  C   UNL     1      17.878  74.449  10.758  1.00  0.00     0.278 C 
ENDBRANCH   5  10
BRANCH   6  12
ATOM     12  O   UNL     1      22.009  74.769  10.903  1.00  0.00    -0.504 OA
ATOM     13  H   UNL     1      22.739  74.742  11.604  1.00  0.00     0.293 HD
ENDBRANCH   6  12
TORSDOF 3
ENDMDL
