MODEL 1
REMARK VINA RESULT:    -3.330      0.000      0.000
REMARK INTER + INTRA:          -4.938
REMARK INTER:                  -4.401
REMARK INTRA:                  -0.537
REMARK UNBOUND:                -0.537
REMARK SMILES C=C[C@@H](O)CCCCC
REMARK SMILES IDX 6 1 7 2 8 3 9 4 5 5 3 6 2 7 1 8 4 9
REMARK H PARENT 4 10
REMARK Flexibility Score: inf
ROOT
ATOM      1  C   UNL     1     137.443 132.999 150.517  1.00  0.00     0.003 C 
ENDROOT
BRANCH   1   2
ATOM      2  C   UNL     1     136.856 132.531 149.169  1.00  0.00    -0.000 C 
BRANCH   2   3
ATOM      3  C   UNL     1     137.545 133.203 147.972  1.00  0.00    -0.003 C 
ATOM      4  C   UNL     1     138.439 132.218 147.225  1.00  0.00     0.004 C 
ENDBRANCH   2   3
ENDBRANCH   1   2
BRANCH   1   5
ATOM      5  C   UNL     1     138.657 132.178 150.990  1.00  0.00     0.036 C 
BRANCH   5   6
ATOM      6  C   UNL     1     139.820 133.041 151.520  1.00  0.00     0.136 C 
BRANCH   6   7
ATOM      7  C   UNL     1     139.975 134.295 150.691  1.00  0.00    -0.004 C 
ATOM      8  C   UNL     1     140.750 134.338 149.603  1.00  0.00     0.007 C 
ENDBRANCH   6   7
BRANCH   6   9
ATOM      9  O   UNL     1     139.588 133.388 152.861  1.00  0.00    -0.389 OA
ATOM     10  H   UNL     1     138.903 134.107 152.856  1.00  0.00     0.211 HD
ENDBRANCH   6   9
ENDBRANCH   5   6
ENDBRANCH   1   5
TORSDOF 6
ENDMDL
MODEL 2
REMARK VINA RESULT:    -3.306     11.254     12.648
REMARK INTER + INTRA:          -4.907
REMARK INTER:                  -4.520
REMARK INTRA:                  -0.386
REMARK UNBOUND:                -0.537
REMARK SMILES C=C[C@@H](O)CCCCC
REMARK SMILES IDX 6 1 7 2 8 3 9 4 5 5 3 6 2 7 1 8 4 9
REMARK H PARENT 4 10
REMARK Flexibility Score: inf
ROOT
ATOM      1  C   UNL     1     143.505 144.488 143.844  1.00  0.00     0.003 C 
ENDROOT
BRANCH   1   2
ATOM      2  C   UNL     1     143.025 143.950 142.481  1.00  0.00    -0.000 C 
BRANCH   2   3
ATOM      3  C   UNL     1     141.512 143.682 142.465  1.00  0.00    -0.003 C 
ATOM      4  C   UNL     1     140.984 143.577 141.037  1.00  0.00     0.004 C 
ENDBRANCH   2   3
ENDBRANCH   1   2
BRANCH   1   5
ATOM      5  C   UNL     1     143.764 143.391 144.894  1.00  0.00     0.036 C 
BRANCH   5   6
ATOM      6  C   UNL     1     143.016 143.617 146.223  1.00  0.00     0.136 C 
BRANCH   6   7
ATOM      7  C   UNL     1     141.611 143.068 146.145  1.00  0.00    -0.004 C 
ATOM      8  C   UNL     1     140.542 143.859 146.005  1.00  0.00     0.007 C 
ENDBRANCH   6   7
BRANCH   6   9
ATOM      9  O   UNL     1     143.707 142.997 147.276  1.00  0.00    -0.389 OA
ATOM     10  H   UNL     1     143.910 142.071 146.979  1.00  0.00     0.211 HD
ENDBRANCH   6   9
ENDBRANCH   5   6
ENDBRANCH   1   5
TORSDOF 6
ENDMDL
MODEL 3
REMARK VINA RESULT:    -3.250      9.976     11.282
REMARK INTER + INTRA:          -4.832
REMARK INTER:                  -4.267
REMARK INTRA:                  -0.565
REMARK UNBOUND:                -0.537
REMARK SMILES C=C[C@@H](O)CCCCC
REMARK SMILES IDX 6 1 7 2 8 3 9 4 5 5 3 6 2 7 1 8 4 9
REMARK H PARENT 4 10
REMARK Flexibility Score: inf
ROOT
ATOM      1  C   UNL     1     143.393 142.609 143.693  1.00  0.00     0.003 C 
ENDROOT
BRANCH   1   2
ATOM      2  C   UNL     1     142.312 141.841 142.906  1.00  0.00    -0.000 C 
BRANCH   2   3
ATOM      3  C   UNL     1     142.010 140.468 143.526  1.00  0.00    -0.003 C 
ATOM      4  C   UNL     1     140.523 140.315 143.831  1.00  0.00     0.004 C 
ENDBRANCH   2   3
ENDBRANCH   1   2
BRANCH   1   5
ATOM      5  C   UNL     1     143.550 142.149 145.154  1.00  0.00     0.036 C 
BRANCH   5   6
ATOM      6  C   UNL     1     143.086 143.197 146.186  1.00  0.00     0.136 C 
BRANCH   6   7
ATOM      7  C   UNL     1     141.610 143.049 146.471  1.00  0.00    -0.004 C 
ATOM      8  C   UNL     1     140.687 143.807 145.869  1.00  0.00     0.007 C 
ENDBRANCH   6   7
BRANCH   6   9
ATOM      9  O   UNL     1     143.814 143.053 147.378  1.00  0.00    -0.389 OA
ATOM     10  H   UNL     1     144.410 142.268 147.257  1.00  0.00     0.211 HD
ENDBRANCH   6   9
ENDBRANCH   5   6
ENDBRANCH   1   5
TORSDOF 6
ENDMDL
MODEL 4
REMARK VINA RESULT:    -3.205      0.981      1.457
REMARK INTER + INTRA:          -4.773
REMARK INTER:                  -4.469
REMARK INTRA:                  -0.305
REMARK UNBOUND:                -0.537
REMARK SMILES C=C[C@@H](O)CCCCC
REMARK SMILES IDX 6 1 7 2 8 3 9 4 5 5 3 6 2 7 1 8 4 9
REMARK H PARENT 4 10
REMARK Flexibility Score: inf
ROOT
ATOM      1  C   UNL     1     137.452 133.262 150.180  1.00  0.00     0.003 C 
ENDROOT
BRANCH   1   2
ATOM      2  C   UNL     1     137.069 132.585 148.848  1.00  0.00    -0.000 C 
BRANCH   2   3
ATOM      3  C   UNL     1     137.339 131.072 148.868  1.00  0.00    -0.003 C 
ATOM      4  C   UNL     1     136.068 130.288 149.180  1.00  0.00     0.004 C 
ENDBRANCH   2   3
ENDBRANCH   1   2
BRANCH   1   5
ATOM      5  C   UNL     1     138.356 132.401 151.083  1.00  0.00     0.036 C 
BRANCH   5   6
ATOM      6  C   UNL     1     139.690 133.081 151.450  1.00  0.00     0.136 C 
BRANCH   6   7
ATOM      7  C   UNL     1     139.883 134.347 150.648  1.00  0.00    -0.004 C 
ATOM      8  C   UNL     1     140.818 134.454 149.698  1.00  0.00     0.007 C 
ENDBRANCH   6   7
BRANCH   6   9
ATOM      9  O   UNL     1     139.715 133.382 152.821  1.00  0.00    -0.389 OA
ATOM     10  H   UNL     1     139.897 134.356 152.897  1.00  0.00     0.211 HD
ENDBRANCH   6   9
ENDBRANCH   5   6
ENDBRANCH   1   5
TORSDOF 6
ENDMDL
MODEL 5
REMARK VINA RESULT:    -3.158     12.200     13.240
REMARK INTER + INTRA:          -4.711
REMARK INTER:                  -4.082
REMARK INTRA:                  -0.629
REMARK UNBOUND:                -0.537
REMARK SMILES C=C[C@@H](O)CCCCC
REMARK SMILES IDX 6 1 7 2 8 3 9 4 5 5 3 6 2 7 1 8 4 9
REMARK H PARENT 4 10
REMARK Flexibility Score: inf
ROOT
ATOM      1  C   UNL     1     143.983 143.712 145.309  1.00  0.00     0.003 C 
ENDROOT
BRANCH   1   2
ATOM      2  C   UNL     1     142.763 143.575 146.244  1.00  0.00    -0.000 C 
BRANCH   2   3
ATOM      3  C   UNL     1     141.622 144.525 145.850  1.00  0.00    -0.003 C 
ATOM      4  C   UNL     1     140.273 143.813 145.887  1.00  0.00     0.004 C 
ENDBRANCH   2   3
ENDBRANCH   1   2
BRANCH   1   5
ATOM      5  C   UNL     1     143.863 142.905 144.003  1.00  0.00     0.036 C 
BRANCH   5   6
ATOM      6  C   UNL     1     143.708 143.784 142.745  1.00  0.00     0.136 C 
BRANCH   6   7
ATOM      7  C   UNL     1     142.299 143.703 142.207  1.00  0.00    -0.004 C 
ATOM      8  C   UNL     1     141.480 142.688 142.503  1.00  0.00     0.007 C 
ENDBRANCH   6   7
BRANCH   6   9
ATOM      9  O   UNL     1     144.020 145.119 143.050  1.00  0.00    -0.389 OA
ATOM     10  H   UNL     1     144.906 145.111 143.498  1.00  0.00     0.211 HD
ENDBRANCH   6   9
ENDBRANCH   5   6
ENDBRANCH   1   5
TORSDOF 6
ENDMDL
MODEL 6
REMARK VINA RESULT:    -3.154      1.941      2.668
REMARK INTER + INTRA:          -4.705
REMARK INTER:                  -4.433
REMARK INTRA:                  -0.272
REMARK UNBOUND:                -0.537
REMARK SMILES C=C[C@@H](O)CCCCC
REMARK SMILES IDX 6 1 7 2 8 3 9 4 5 5 3 6 2 7 1 8 4 9
REMARK H PARENT 4 10
REMARK Flexibility Score: inf
ROOT
ATOM      1  C   UNL     1     139.955 133.930 150.345  1.00  0.00     0.003 C 
ENDROOT
BRANCH   1   2
ATOM      2  C   UNL     1     138.671 133.553 149.577  1.00  0.00    -0.000 C 
BRANCH   2   3
ATOM      3  C   UNL     1     137.533 133.139 150.522  1.00  0.00    -0.003 C 
ATOM      4  C   UNL     1     136.573 132.170 149.839  1.00  0.00     0.004 C 
ENDBRANCH   2   3
ENDBRANCH   1   2
BRANCH   1   5
ATOM      5  C   UNL     1     140.074 133.268 151.730  1.00  0.00     0.036 C 
BRANCH   5   6
ATOM      6  C   UNL     1     141.200 132.218 151.819  1.00  0.00     0.136 C 
BRANCH   6   7
ATOM      7  C   UNL     1     142.273 132.497 150.793  1.00  0.00    -0.004 C 
ATOM      8  C   UNL     1     143.556 132.184 151.000  1.00  0.00     0.007 C 
ENDBRANCH   6   7
BRANCH   6   9
ATOM      9  O   UNL     1     141.763 132.225 153.105  1.00  0.00    -0.389 OA
ATOM     10  H   UNL     1     141.799 133.174 153.397  1.00  0.00     0.211 HD
ENDBRANCH   6   9
ENDBRANCH   5   6
ENDBRANCH   1   5
TORSDOF 6
ENDMDL
MODEL 7
REMARK VINA RESULT:    -3.136     11.028     12.433
REMARK INTER + INTRA:          -4.682
REMARK INTER:                  -4.034
REMARK INTRA:                  -0.649
REMARK UNBOUND:                -0.537
REMARK SMILES C=C[C@@H](O)CCCCC
REMARK SMILES IDX 6 1 7 2 8 3 9 4 5 5 3 6 2 7 1 8 4 9
REMARK H PARENT 4 10
REMARK Flexibility Score: inf
ROOT
ATOM      1  C   UNL     1     141.992 143.039 142.870  1.00  0.00     0.003 C 
ENDROOT
BRANCH   1   2
ATOM      2  C   UNL     1     141.379 141.655 143.168  1.00  0.00    -0.000 C 
BRANCH   2   3
ATOM      3  C   UNL     1     142.110 140.931 144.308  1.00  0.00    -0.003 C 
ATOM      4  C   UNL     1     143.538 141.446 144.464  1.00  0.00     0.004 C 
ENDBRANCH   2   3
ENDBRANCH   1   2
BRANCH   1   5
ATOM      5  C   UNL     1     141.142 144.222 143.371  1.00  0.00     0.036 C 
BRANCH   5   6
ATOM      6  C   UNL     1     141.806 145.021 144.510  1.00  0.00     0.136 C 
BRANCH   6   7
ATOM      7  C   UNL     1     141.598 144.331 145.838  1.00  0.00    -0.004 C 
ATOM      8  C   UNL     1     140.439 143.750 146.167  1.00  0.00     0.007 C 
ENDBRANCH   6   7
BRANCH   6   9
ATOM      9  O   UNL     1     143.181 145.161 144.262  1.00  0.00    -0.389 OA
ATOM     10  H   UNL     1     143.363 146.136 144.205  1.00  0.00     0.211 HD
ENDBRANCH   6   9
ENDBRANCH   5   6
ENDBRANCH   1   5
TORSDOF 6
ENDMDL
MODEL 8
REMARK VINA RESULT:    -3.131      2.015      2.522
REMARK INTER + INTRA:          -4.676
REMARK INTER:                  -4.500
REMARK INTRA:                  -0.175
REMARK UNBOUND:                -0.537
REMARK SMILES C=C[C@@H](O)CCCCC
REMARK SMILES IDX 6 1 7 2 8 3 9 4 5 5 3 6 2 7 1 8 4 9
REMARK H PARENT 4 10
REMARK Flexibility Score: inf
ROOT
ATOM      1  C   UNL     1     137.445 133.304 148.100  1.00  0.00     0.003 C 
ENDROOT
BRANCH   1   2
ATOM      2  C   UNL     1     137.971 133.342 146.650  1.00  0.00    -0.000 C 
BRANCH   2   3
ATOM      3  C   UNL     1     137.172 134.314 145.769  1.00  0.00    -0.003 C 
ATOM      4  C   UNL     1     136.765 133.659 144.453  1.00  0.00     0.004 C 
ENDBRANCH   2   3
ENDBRANCH   1   2
BRANCH   1   5
ATOM      5  C   UNL     1     138.349 132.526 149.074  1.00  0.00     0.036 C 
BRANCH   5   6
ATOM      6  C   UNL     1     137.986 132.739 150.558  1.00  0.00     0.136 C 
BRANCH   6   7
ATOM      7  C   UNL     1     139.113 133.429 151.290  1.00  0.00    -0.004 C 
ATOM      8  C   UNL     1     140.081 134.091 150.648  1.00  0.00     0.007 C 
ENDBRANCH   6   7
BRANCH   6   9
ATOM      9  O   UNL     1     136.816 133.508 150.661  1.00  0.00    -0.389 OA
ATOM     10  H   UNL     1     136.901 134.049 151.489  1.00  0.00     0.211 HD
ENDBRANCH   6   9
ENDBRANCH   5   6
ENDBRANCH   1   5
TORSDOF 6
ENDMDL
MODEL 9
REMARK VINA RESULT:    -3.088     10.311     12.014
REMARK INTER + INTRA:          -4.618
REMARK INTER:                  -3.999
REMARK INTRA:                  -0.619
REMARK UNBOUND:                -0.537
REMARK SMILES C=C[C@@H](O)CCCCC
REMARK SMILES IDX 6 1 7 2 8 3 9 4 5 5 3 6 2 7 1 8 4 9
REMARK H PARENT 4 10
REMARK Flexibility Score: inf
ROOT
ATOM      1  C   UNL     1     143.477 142.521 144.811  1.00  0.00     0.003 C 
ENDROOT
BRANCH   1   2
ATOM      2  C   UNL     1     143.015 143.567 145.846  1.00  0.00    -0.000 C 
BRANCH   2   3
ATOM      3  C   UNL     1     141.713 143.150 146.548  1.00  0.00    -0.003 C 
ATOM      4  C   UNL     1     140.501 143.821 145.909  1.00  0.00     0.004 C 
ENDBRANCH   2   3
ENDBRANCH   1   2
BRANCH   1   5
ATOM      5  C   UNL     1     143.099 142.867 143.358  1.00  0.00     0.036 C 
BRANCH   5   6
ATOM      6  C   UNL     1     141.998 141.960 142.773  1.00  0.00     0.136 C 
BRANCH   6   7
ATOM      7  C   UNL     1     141.721 140.794 143.693  1.00  0.00    -0.004 C 
ATOM      8  C   UNL     1     140.494 140.290 143.855  1.00  0.00     0.007 C 
ENDBRANCH   6   7
BRANCH   6   9
ATOM      9  O   UNL     1     140.819 142.699 142.580  1.00  0.00    -0.389 OA
ATOM     10  H   UNL     1     140.954 143.576 143.026  1.00  0.00     0.211 HD
ENDBRANCH   6   9
ENDBRANCH   5   6
ENDBRANCH   1   5
TORSDOF 6
ENDMDL
