MODEL 1
REMARK VINA RESULT:    -5.930      0.000      0.000
REMARK INTER + INTRA:          -7.252
REMARK INTER:                  -7.144
REMARK INTRA:                  -0.108
REMARK UNBOUND:                -0.108
REMARK SMILES O=c1c(O)c(-c2ccc(O)c(O)c2)oc2cc(O)cc(O)c12
REMARK SMILES IDX 5 1 3 2 2 3 1 4 22 5 20 6 19 7 17 8 16 9 15 10 14 11 6 12
REMARK SMILES IDX 7 13 8 14 9 15 13 16 11 17 10 18 12 20 4 22 21 24 18 26
REMARK H PARENT 10 19 12 21 4 23 21 25 18 27
REMARK Flexibility Score: inf
ROOT
ATOM      1  C   UNL     1      -2.414  67.898 165.523  1.00  0.00     0.180 A 
ATOM      2  C   UNL     1      -2.275  68.895 164.541  1.00  0.00     0.208 A 
ATOM      3  C   UNL     1      -1.124  69.699 164.545  1.00  0.00     0.238 A 
ATOM      4  O   UNL     1      -1.032  70.624 163.698  1.00  0.00    -0.285 OA
ATOM      5  C   UNL     1      -0.119  69.487 165.519  1.00  0.00     0.111 A 
ATOM      6  C   UNL     1       1.105  70.215 165.593  1.00  0.00     0.134 A 
ATOM      7  C   UNL     1       1.967  70.010 166.676  1.00  0.00     0.093 A 
ATOM      8  C   UNL     1       1.680  69.054 167.655  1.00  0.00     0.123 A 
ATOM      9  C   UNL     1       0.515  68.296 167.560  1.00  0.00     0.094 A 
ATOM     10  C   UNL     1      -0.382  68.504 166.510  1.00  0.00     0.146 A 
ATOM     11  O   UNL     1      -1.485  67.768 166.463  1.00  0.00    -0.452 OA
ENDROOT
BRANCH   1  12
ATOM     12  C   UNL     1      -3.587  66.994 165.568  1.00  0.00     0.025 A 
ATOM     13  C   UNL     1      -3.402  65.614 165.386  1.00  0.00     0.016 A 
ATOM     14  C   UNL     1      -4.497  64.746 165.404  1.00  0.00     0.051 A 
ATOM     15  C   UNL     1      -5.790  65.243 165.588  1.00  0.00     0.157 A 
ATOM     16  C   UNL     1      -4.891  67.495 165.732  1.00  0.00     0.062 A 
ATOM     17  C   UNL     1      -5.990  66.624 165.748  1.00  0.00     0.158 A 
BRANCH  15  18
ATOM     18  O   UNL     1      -6.863  64.351 165.603  1.00  0.00    -0.504 OA
ATOM     19  H   UNL     1      -7.646  64.441 164.967  1.00  0.00     0.293 HD
ENDBRANCH  15  18
BRANCH  17  20
ATOM     20  O   UNL     1      -7.280  67.127 165.918  1.00  0.00    -0.504 OA
ATOM     21  H   UNL     1      -7.967  66.646 166.486  1.00  0.00     0.293 HD
ENDBRANCH  17  20
ENDBRANCH   1  12
BRANCH   2  22
ATOM     22  O   UNL     1      -3.290  69.102 163.602  1.00  0.00    -0.502 OA
ATOM     23  H   UNL     1      -3.432  68.486 162.811  1.00  0.00     0.293 HD
ENDBRANCH   2  22
BRANCH   6  24
ATOM     24  O   UNL     1       1.532  71.125 164.621  1.00  0.00    -0.507 OA
ATOM     25  H   UNL     1       2.229  71.839 164.769  1.00  0.00     0.293 HD
ENDBRANCH   6  24
BRANCH   8  26
ATOM     26  O   UNL     1       2.551  68.845 168.721  1.00  0.00    -0.508 OA
ATOM     27  H   UNL     1       3.069  67.980 168.822  1.00  0.00     0.293 HD
ENDBRANCH   8  26
TORSDOF 6
ENDMDL
MODEL 2
REMARK VINA RESULT:    -5.428      0.990      1.632
REMARK INTER + INTRA:          -6.647
REMARK INTER:                  -6.492
REMARK INTRA:                  -0.155
REMARK UNBOUND:                -0.108
REMARK SMILES O=c1c(O)c(-c2ccc(O)c(O)c2)oc2cc(O)cc(O)c12
REMARK SMILES IDX 5 1 3 2 2 3 1 4 22 5 20 6 19 7 17 8 16 9 15 10 14 11 6 12
REMARK SMILES IDX 7 13 8 14 9 15 13 16 11 17 10 18 12 20 4 22 21 24 18 26
REMARK H PARENT 10 19 12 21 4 23 21 25 18 27
REMARK Flexibility Score: inf
ROOT
ATOM      1  C   UNL     1      -1.840  68.494 165.392  1.00  0.00     0.180 A 
ATOM      2  C   UNL     1      -1.454  69.349 164.345  1.00  0.00     0.208 A 
ATOM      3  C   UNL     1      -0.199  69.976 164.406  1.00  0.00     0.238 A 
ATOM      4  O   UNL     1       0.118  70.782 163.494  1.00  0.00    -0.285 OA
ATOM      5  C   UNL     1       0.661  69.727 165.503  1.00  0.00     0.111 A 
ATOM      6  C   UNL     1       1.970  70.275 165.647  1.00  0.00     0.134 A 
ATOM      7  C   UNL     1       2.680  70.065 166.835  1.00  0.00     0.093 A 
ATOM      8  C   UNL     1       2.154  69.271 167.858  1.00  0.00     0.123 A 
ATOM      9  C   UNL     1       0.901  68.682 167.701  1.00  0.00     0.094 A 
ATOM     10  C   UNL     1       0.154  68.904 166.542  1.00  0.00     0.146 A 
ATOM     11  O   UNL     1      -1.039  68.332 166.438  1.00  0.00    -0.452 OA
ENDROOT
BRANCH   1  12
ATOM     12  C   UNL     1      -3.137  67.778 165.386  1.00  0.00     0.025 A 
ATOM     13  C   UNL     1      -4.331  68.511 165.485  1.00  0.00     0.016 A 
ATOM     14  C   UNL     1      -5.564  67.855 165.502  1.00  0.00     0.051 A 
ATOM     15  C   UNL     1      -5.624  66.460 165.437  1.00  0.00     0.157 A 
ATOM     16  C   UNL     1      -3.198  66.374 165.342  1.00  0.00     0.062 A 
ATOM     17  C   UNL     1      -4.437  65.714 165.361  1.00  0.00     0.158 A 
BRANCH  15  18
ATOM     18  O   UNL     1      -6.871  65.834 165.454  1.00  0.00    -0.504 OA
ATOM     19  H   UNL     1      -7.725  66.343 165.649  1.00  0.00     0.293 HD
ENDBRANCH  15  18
BRANCH  17  20
ATOM     20  O   UNL     1      -4.489  64.322 165.310  1.00  0.00    -0.504 OA
ATOM     21  H   UNL     1      -3.665  63.766 165.108  1.00  0.00     0.293 HD
ENDBRANCH  17  20
ENDBRANCH   1  12
BRANCH   2  22
ATOM     22  O   UNL     1      -2.327  69.598 163.282  1.00  0.00    -0.502 OA
ATOM     23  H   UNL     1      -2.412  68.973 162.491  1.00  0.00     0.293 HD
ENDBRANCH   2  22
BRANCH   6  24
ATOM     24  O   UNL     1       2.625  71.005 164.651  1.00  0.00    -0.507 OA
ATOM     25  H   UNL     1       2.289  71.117 163.706  1.00  0.00     0.293 HD
ENDBRANCH   6  24
BRANCH   8  26
ATOM     26  O   UNL     1       2.874  69.054 169.031  1.00  0.00    -0.508 OA
ATOM     27  H   UNL     1       2.465  69.221 169.943  1.00  0.00     0.293 HD
ENDBRANCH   8  26
TORSDOF 6
ENDMDL
MODEL 3
REMARK VINA RESULT:    -5.283      1.922      7.241
REMARK INTER + INTRA:          -6.472
REMARK INTER:                  -6.762
REMARK INTRA:                   0.291
REMARK UNBOUND:                -0.108
REMARK SMILES O=c1c(O)c(-c2ccc(O)c(O)c2)oc2cc(O)cc(O)c12
REMARK SMILES IDX 5 1 3 2 2 3 1 4 22 5 20 6 19 7 17 8 16 9 15 10 14 11 6 12
REMARK SMILES IDX 7 13 8 14 9 15 13 16 11 17 10 18 12 20 4 22 21 24 18 26
REMARK H PARENT 10 19 12 21 4 23 21 25 18 27
REMARK Flexibility Score: inf
ROOT
ATOM      1  C   UNL     1       0.825  69.636 166.070  1.00  0.00     0.180 A 
ATOM      2  C   UNL     1       0.615  70.334 164.867  1.00  0.00     0.208 A 
ATOM      3  C   UNL     1      -0.614  70.190 164.203  1.00  0.00     0.238 A 
ATOM      4  O   UNL     1      -0.776  70.773 163.100  1.00  0.00    -0.285 OA
ATOM      5  C   UNL     1      -1.623  69.365 164.758  1.00  0.00     0.111 A 
ATOM      6  C   UNL     1      -2.919  69.179 164.192  1.00  0.00     0.134 A 
ATOM      7  C   UNL     1      -3.790  68.239 164.755  1.00  0.00     0.093 A 
ATOM      8  C   UNL     1      -3.436  67.526 165.904  1.00  0.00     0.123 A 
ATOM      9  C   UNL     1      -2.195  67.745 166.498  1.00  0.00     0.094 A 
ATOM     10  C   UNL     1      -1.291  68.649 165.937  1.00  0.00     0.146 A 
ATOM     11  O   UNL     1      -0.115  68.820 166.529  1.00  0.00    -0.452 OA
ENDROOT
BRANCH   1  12
ATOM     12  C   UNL     1       2.085  69.757 166.840  1.00  0.00     0.025 A 
ATOM     13  C   UNL     1       2.049  69.663 168.240  1.00  0.00     0.016 A 
ATOM     14  C   UNL     1       3.222  69.795 168.988  1.00  0.00     0.051 A 
ATOM     15  C   UNL     1       4.443  70.037 168.351  1.00  0.00     0.157 A 
ATOM     16  C   UNL     1       3.310  70.023 166.202  1.00  0.00     0.062 A 
ATOM     17  C   UNL     1       4.488  70.157 166.953  1.00  0.00     0.158 A 
BRANCH  15  18
ATOM     18  O   UNL     1       5.598  70.162 169.125  1.00  0.00    -0.504 OA
ATOM     19  H   UNL     1       6.450  69.660 168.903  1.00  0.00     0.293 HD
ENDBRANCH  15  18
BRANCH  17  20
ATOM     20  O   UNL     1       5.700  70.413 166.312  1.00  0.00    -0.504 OA
ATOM     21  H   UNL     1       6.575  70.043 166.664  1.00  0.00     0.293 HD
ENDBRANCH  17  20
ENDBRANCH   1  12
BRANCH   2  22
ATOM     22  O   UNL     1       1.632  71.125 164.325  1.00  0.00    -0.502 OA
ATOM     23  H   UNL     1       2.166  71.780 164.884  1.00  0.00     0.293 HD
ENDBRANCH   2  22
BRANCH   6  24
ATOM     24  O   UNL     1      -3.407  69.906 163.102  1.00  0.00    -0.507 OA
ATOM     25  H   UNL     1      -3.357  70.909 163.012  1.00  0.00     0.293 HD
ENDBRANCH   6  24
BRANCH   8  26
ATOM     26  O   UNL     1      -4.315  66.604 166.467  1.00  0.00    -0.508 OA
ATOM     27  H   UNL     1      -5.222  66.415 166.056  1.00  0.00     0.293 HD
ENDBRANCH   8  26
TORSDOF 6
ENDMDL
MODEL 4
REMARK VINA RESULT:    -5.219      3.828      7.058
REMARK INTER + INTRA:          -6.395
REMARK INTER:                  -6.262
REMARK INTRA:                  -0.132
REMARK UNBOUND:                -0.108
REMARK SMILES O=c1c(O)c(-c2ccc(O)c(O)c2)oc2cc(O)cc(O)c12
REMARK SMILES IDX 5 1 3 2 2 3 1 4 22 5 20 6 19 7 17 8 16 9 15 10 14 11 6 12
REMARK SMILES IDX 7 13 8 14 9 15 13 16 11 17 10 18 12 20 4 22 21 24 18 26
REMARK H PARENT 10 19 12 21 4 23 21 25 18 27
REMARK Flexibility Score: inf
ROOT
ATOM      1  C   UNL     1       0.359  70.303 165.325  1.00  0.00     0.180 A 
ATOM      2  C   UNL     1      -0.980  70.545 165.683  1.00  0.00     0.208 A 
ATOM      3  C   UNL     1      -1.934  70.722 164.669  1.00  0.00     0.238 A 
ATOM      4  O   UNL     1      -3.119  70.993 164.996  1.00  0.00    -0.285 OA
ATOM      5  C   UNL     1      -1.544  70.638 163.311  1.00  0.00     0.111 A 
ATOM      6  C   UNL     1      -2.433  70.761 162.202  1.00  0.00     0.134 A 
ATOM      7  C   UNL     1      -1.917  70.792 160.902  1.00  0.00     0.093 A 
ATOM      8  C   UNL     1      -0.548  70.638 160.666  1.00  0.00     0.123 A 
ATOM      9  C   UNL     1       0.322  70.458 161.739  1.00  0.00     0.094 A 
ATOM     10  C   UNL     1      -0.160  70.460 163.050  1.00  0.00     0.146 A 
ATOM     11  O   UNL     1       0.705  70.295 164.044  1.00  0.00    -0.452 OA
ENDROOT
BRANCH   1  12
ATOM     12  C   UNL     1       1.417  70.081 166.338  1.00  0.00     0.025 A 
ATOM     13  C   UNL     1       2.557  70.901 166.336  1.00  0.00     0.016 A 
ATOM     14  C   UNL     1       3.577  70.696 167.268  1.00  0.00     0.051 A 
ATOM     15  C   UNL     1       3.482  69.663 168.205  1.00  0.00     0.157 A 
ATOM     16  C   UNL     1       1.332  69.028 167.266  1.00  0.00     0.062 A 
ATOM     17  C   UNL     1       2.357  68.821 168.202  1.00  0.00     0.158 A 
BRANCH  15  18
ATOM     18  O   UNL     1       4.515  69.485 169.125  1.00  0.00    -0.504 OA
ATOM     19  H   UNL     1       4.453  68.812 169.880  1.00  0.00     0.293 HD
ENDBRANCH  15  18
BRANCH  17  20
ATOM     20  O   UNL     1       2.262  67.780 169.125  1.00  0.00    -0.504 OA
ATOM     21  H   UNL     1       1.638  66.995 168.977  1.00  0.00     0.293 HD
ENDBRANCH  17  20
ENDBRANCH   1  12
BRANCH   2  22
ATOM     22  O   UNL     1      -1.339  70.647 167.030  1.00  0.00    -0.502 OA
ATOM     23  H   UNL     1      -2.270  70.426 167.362  1.00  0.00     0.293 HD
ENDBRANCH   2  22
BRANCH   6  24
ATOM     24  O   UNL     1      -3.825  70.828 162.322  1.00  0.00    -0.507 OA
ATOM     25  H   UNL     1      -4.332  70.731 163.189  1.00  0.00     0.293 HD
ENDBRANCH   6  24
BRANCH   8  26
ATOM     26  O   UNL     1      -0.044  70.654 159.368  1.00  0.00    -0.508 OA
ATOM     27  H   UNL     1      -0.559  71.075 158.604  1.00  0.00     0.293 HD
ENDBRANCH   8  26
TORSDOF 6
ENDMDL
MODEL 5
REMARK VINA RESULT:    -5.049      3.300      5.270
REMARK INTER + INTRA:          -6.190
REMARK INTER:                  -6.308
REMARK INTRA:                   0.119
REMARK UNBOUND:                -0.108
REMARK SMILES O=c1c(O)c(-c2ccc(O)c(O)c2)oc2cc(O)cc(O)c12
REMARK SMILES IDX 5 1 3 2 2 3 1 4 22 5 20 6 19 7 17 8 16 9 15 10 14 11 6 12
REMARK SMILES IDX 7 13 8 14 9 15 13 16 11 17 10 18 12 20 4 22 21 24 18 26
REMARK H PARENT 10 19 12 21 4 23 21 25 18 27
REMARK Flexibility Score: inf
ROOT
ATOM      1  C   UNL     1      -0.554  69.971 163.424  1.00  0.00     0.180 A 
ATOM      2  C   UNL     1      -1.225  69.208 164.396  1.00  0.00     0.208 A 
ATOM      3  C   UNL     1      -0.611  69.002 165.642  1.00  0.00     0.238 A 
ATOM      4  O   UNL     1      -1.192  68.272 166.487  1.00  0.00    -0.285 OA
ATOM      5  C   UNL     1       0.656  69.574 165.907  1.00  0.00     0.111 A 
ATOM      6  C   UNL     1       1.352  69.464 167.148  1.00  0.00     0.134 A 
ATOM      7  C   UNL     1       2.656  69.960 167.255  1.00  0.00     0.093 A 
ATOM      8  C   UNL     1       3.266  70.621 166.185  1.00  0.00     0.123 A 
ATOM      9  C   UNL     1       2.572  70.785 164.989  1.00  0.00     0.094 A 
ATOM     10  C   UNL     1       1.283  70.269 164.840  1.00  0.00     0.146 A 
ATOM     11  O   UNL     1       0.662  70.439 163.679  1.00  0.00    -0.452 OA
ENDROOT
BRANCH   1  12
ATOM     12  C   UNL     1      -1.148  70.253 162.096  1.00  0.00     0.025 A 
ATOM     13  C   UNL     1      -0.320  70.282 160.962  1.00  0.00     0.016 A 
ATOM     14  C   UNL     1      -0.855  70.566 159.703  1.00  0.00     0.051 A 
ATOM     15  C   UNL     1      -2.219  70.841 159.560  1.00  0.00     0.157 A 
ATOM     16  C   UNL     1      -2.515  70.551 161.954  1.00  0.00     0.062 A 
ATOM     17  C   UNL     1      -3.052  70.838 160.690  1.00  0.00     0.158 A 
BRANCH  15  18
ATOM     18  O   UNL     1      -2.724  71.119 158.290  1.00  0.00    -0.504 OA
ATOM     19  H   UNL     1      -2.158  71.551 157.569  1.00  0.00     0.293 HD
ENDBRANCH  15  18
BRANCH  17  20
ATOM     20  O   UNL     1      -4.411  71.125 160.557  1.00  0.00    -0.504 OA
ATOM     21  H   UNL     1      -5.046  70.485 160.095  1.00  0.00     0.293 HD
ENDBRANCH  17  20
ENDBRANCH   1  12
BRANCH   2  22
ATOM     22  O   UNL     1      -2.465  68.633 164.105  1.00  0.00    -0.502 OA
ATOM     23  H   UNL     1      -2.896  68.704 163.191  1.00  0.00     0.293 HD
ENDBRANCH   2  22
BRANCH   6  24
ATOM     24  O   UNL     1       0.800  68.905 168.305  1.00  0.00    -0.507 OA
ATOM     25  H   UNL     1       0.727  69.379 169.192  1.00  0.00     0.293 HD
ENDBRANCH   6  24
BRANCH   8  26
ATOM     26  O   UNL     1       4.559  71.125 166.305  1.00  0.00    -0.508 OA
ATOM     27  H   UNL     1       5.244  71.011 165.568  1.00  0.00     0.293 HD
ENDBRANCH   8  26
TORSDOF 6
ENDMDL
MODEL 6
REMARK VINA RESULT:    -5.028      3.834      7.206
REMARK INTER + INTRA:          -6.165
REMARK INTER:                  -6.474
REMARK INTRA:                   0.310
REMARK UNBOUND:                -0.108
REMARK SMILES O=c1c(O)c(-c2ccc(O)c(O)c2)oc2cc(O)cc(O)c12
REMARK SMILES IDX 5 1 3 2 2 3 1 4 22 5 20 6 19 7 17 8 16 9 15 10 14 11 6 12
REMARK SMILES IDX 7 13 8 14 9 15 13 16 11 17 10 18 12 20 4 22 21 24 18 26
REMARK H PARENT 10 19 12 21 4 23 21 25 18 27
REMARK Flexibility Score: inf
ROOT
ATOM      1  C   UNL     1       0.370  70.179 165.208  1.00  0.00     0.180 A 
ATOM      2  C   UNL     1      -0.957  70.448 165.588  1.00  0.00     0.208 A 
ATOM      3  C   UNL     1      -1.917  70.680 164.589  1.00  0.00     0.238 A 
ATOM      4  O   UNL     1      -3.090  70.974 164.937  1.00  0.00    -0.285 OA
ATOM      5  C   UNL     1      -1.543  70.624 163.225  1.00  0.00     0.111 A 
ATOM      6  C   UNL     1      -2.441  70.804 162.131  1.00  0.00     0.134 A 
ATOM      7  C   UNL     1      -1.937  70.857 160.826  1.00  0.00     0.093 A 
ATOM      8  C   UNL     1      -0.575  70.673 160.571  1.00  0.00     0.123 A 
ATOM      9  C   UNL     1       0.300  70.438 161.628  1.00  0.00     0.094 A 
ATOM     10  C   UNL     1      -0.167  70.415 162.944  1.00  0.00     0.146 A 
ATOM     11  O   UNL     1       0.703  70.199 163.923  1.00  0.00    -0.452 OA
ENDROOT
BRANCH   1  12
ATOM     12  C   UNL     1       1.432  69.899 166.202  1.00  0.00     0.025 A 
ATOM     13  C   UNL     1       1.092  69.294 167.422  1.00  0.00     0.016 A 
ATOM     14  C   UNL     1       2.075  69.039 168.383  1.00  0.00     0.051 A 
ATOM     15  C   UNL     1       3.405  69.398 168.146  1.00  0.00     0.157 A 
ATOM     16  C   UNL     1       2.766  70.279 165.974  1.00  0.00     0.062 A 
ATOM     17  C   UNL     1       3.753  70.025 166.939  1.00  0.00     0.158 A 
BRANCH  15  18
ATOM     18  O   UNL     1       4.363  69.129 169.123  1.00  0.00    -0.504 OA
ATOM     19  H   UNL     1       4.329  69.556 170.042  1.00  0.00     0.293 HD
ENDBRANCH  15  18
BRANCH  17  20
ATOM     20  O   UNL     1       5.075  70.399 166.702  1.00  0.00    -0.504 OA
ATOM     21  H   UNL     1       5.385  71.357 166.814  1.00  0.00     0.293 HD
ENDBRANCH  17  20
ENDBRANCH   1  12
BRANCH   2  22
ATOM     22  O   UNL     1      -1.300  70.520 166.941  1.00  0.00    -0.502 OA
ATOM     23  H   UNL     1      -0.606  70.525 167.678  1.00  0.00     0.293 HD
ENDBRANCH   2  22
BRANCH   6  24
ATOM     24  O   UNL     1      -3.828  70.906 162.268  1.00  0.00    -0.507 OA
ATOM     25  H   UNL     1      -4.379  71.695 161.965  1.00  0.00     0.293 HD
ENDBRANCH   6  24
BRANCH   8  26
ATOM     26  O   UNL     1      -0.085  70.712 159.268  1.00  0.00    -0.508 OA
ATOM     27  H   UNL     1       0.808  70.299 159.024  1.00  0.00     0.293 HD
ENDBRANCH   8  26
TORSDOF 6
ENDMDL
MODEL 7
REMARK VINA RESULT:    -4.610      1.774      3.375
REMARK INTER + INTRA:          -5.661
REMARK INTER:                  -5.588
REMARK INTRA:                  -0.072
REMARK UNBOUND:                -0.108
REMARK SMILES O=c1c(O)c(-c2ccc(O)c(O)c2)oc2cc(O)cc(O)c12
REMARK SMILES IDX 5 1 3 2 2 3 1 4 22 5 20 6 19 7 17 8 16 9 15 10 14 11 6 12
REMARK SMILES IDX 7 13 8 14 9 15 13 16 11 17 10 18 12 20 4 22 21 24 18 26
REMARK H PARENT 10 19 12 21 4 23 21 25 18 27
REMARK Flexibility Score: inf
ROOT
ATOM      1  C   UNL     1      -1.895  68.039 165.126  1.00  0.00     0.180 A 
ATOM      2  C   UNL     1      -0.891  68.419 166.034  1.00  0.00     0.208 A 
ATOM      3  C   UNL     1       0.171  69.218 165.579  1.00  0.00     0.238 A 
ATOM      4  O   UNL     1       1.094  69.509 166.383  1.00  0.00    -0.285 OA
ATOM      5  C   UNL     1       0.207  69.642 164.229  1.00  0.00     0.111 A 
ATOM      6  C   UNL     1       1.212  70.486 163.671  1.00  0.00     0.134 A 
ATOM      7  C   UNL     1       1.219  70.734 162.294  1.00  0.00     0.093 A 
ATOM      8  C   UNL     1       0.219  70.221 161.464  1.00  0.00     0.123 A 
ATOM      9  C   UNL     1      -0.801  69.444 162.009  1.00  0.00     0.094 A 
ATOM     10  C   UNL     1      -0.814  69.150 163.374  1.00  0.00     0.146 A 
ATOM     11  O   UNL     1      -1.798  68.397 163.851  1.00  0.00    -0.452 OA
ENDROOT
BRANCH   1  12
ATOM     12  C   UNL     1      -3.058  67.219 165.536  1.00  0.00     0.025 A 
ATOM     13  C   UNL     1      -2.845  65.940 166.077  1.00  0.00     0.016 A 
ATOM     14  C   UNL     1      -3.928  65.141 166.451  1.00  0.00     0.051 A 
ATOM     15  C   UNL     1      -5.238  65.599 166.278  1.00  0.00     0.157 A 
ATOM     16  C   UNL     1      -4.376  67.669 165.342  1.00  0.00     0.062 A 
ATOM     17  C   UNL     1      -5.464  66.866 165.717  1.00  0.00     0.158 A 
BRANCH  15  18
ATOM     18  O   UNL     1      -6.298  64.779 166.663  1.00  0.00    -0.504 OA
ATOM     19  H   UNL     1      -6.159  63.949 167.228  1.00  0.00     0.293 HD
ENDBRANCH  15  18
BRANCH  17  20
ATOM     20  O   UNL     1      -6.768  67.323 165.528  1.00  0.00    -0.504 OA
ATOM     21  H   UNL     1      -7.269  67.816 166.258  1.00  0.00     0.293 HD
ENDBRANCH  17  20
ENDBRANCH   1  12
BRANCH   2  22
ATOM     22  O   UNL     1      -0.934  67.971 167.357  1.00  0.00    -0.502 OA
ATOM     23  H   UNL     1      -1.479  68.439 168.071  1.00  0.00     0.293 HD
ENDBRANCH   2  22
BRANCH   6  24
ATOM     24  O   UNL     1       2.203  71.123 164.424  1.00  0.00    -0.507 OA
ATOM     25  H   UNL     1       3.193  70.957 164.328  1.00  0.00     0.293 HD
ENDBRANCH   6  24
BRANCH   8  26
ATOM     26  O   UNL     1       0.225  70.486 160.096  1.00  0.00    -0.508 OA
ATOM     27  H   UNL     1       1.088  70.525 159.567  1.00  0.00     0.293 HD
ENDBRANCH   8  26
TORSDOF 6
ENDMDL
MODEL 8
REMARK VINA RESULT:    -4.277      3.581      7.338
REMARK INTER + INTRA:          -5.260
REMARK INTER:                  -5.335
REMARK INTRA:                   0.075
REMARK UNBOUND:                -0.108
REMARK SMILES O=c1c(O)c(-c2ccc(O)c(O)c2)oc2cc(O)cc(O)c12
REMARK SMILES IDX 5 1 3 2 2 3 1 4 22 5 20 6 19 7 17 8 16 9 15 10 14 11 6 12
REMARK SMILES IDX 7 13 8 14 9 15 13 16 11 17 10 18 12 20 4 22 21 24 18 26
REMARK H PARENT 10 19 12 21 4 23 21 25 18 27
REMARK Flexibility Score: inf
ROOT
ATOM      1  C   UNL     1       0.928  70.432 165.150  1.00  0.00     0.180 A 
ATOM      2  C   UNL     1       0.955  70.200 163.764  1.00  0.00     0.208 A 
ATOM      3  C   UNL     1      -0.250  70.239 163.044  1.00  0.00     0.238 A 
ATOM      4  O   UNL     1      -0.226  69.976 161.813  1.00  0.00    -0.285 OA
ATOM      5  C   UNL     1      -1.463  70.527 163.714  1.00  0.00     0.111 A 
ATOM      6  C   UNL     1      -2.736  70.632 163.078  1.00  0.00     0.134 A 
ATOM      7  C   UNL     1      -3.887  70.791 163.858  1.00  0.00     0.093 A 
ATOM      8  C   UNL     1      -3.804  70.915 165.248  1.00  0.00     0.123 A 
ATOM      9  C   UNL     1      -2.560  70.873 165.873  1.00  0.00     0.094 A 
ATOM     10  C   UNL     1      -1.397  70.678 165.124  1.00  0.00     0.146 A 
ATOM     11  O   UNL     1      -0.233  70.634 165.761  1.00  0.00    -0.452 OA
ENDROOT
BRANCH   1  12
ATOM     12  C   UNL     1       2.160  70.433 165.973  1.00  0.00     0.025 A 
ATOM     13  C   UNL     1       3.295  71.123 165.516  1.00  0.00     0.016 A 
ATOM     14  C   UNL     1       4.474  71.119 166.265  1.00  0.00     0.051 A 
ATOM     15  C   UNL     1       4.543  70.416 167.471  1.00  0.00     0.157 A 
ATOM     16  C   UNL     1       2.238  69.707 167.175  1.00  0.00     0.062 A 
ATOM     17  C   UNL     1       3.423  69.702 167.927  1.00  0.00     0.158 A 
BRANCH  15  18
ATOM     18  O   UNL     1       5.734  70.432 168.198  1.00  0.00    -0.504 OA
ATOM     19  H   UNL     1       5.891  71.084 168.958  1.00  0.00     0.293 HD
ENDBRANCH  15  18
BRANCH  17  20
ATOM     20  O   UNL     1       3.489  68.986 169.122  1.00  0.00    -0.504 OA
ATOM     21  H   UNL     1       2.689  68.480 169.483  1.00  0.00     0.293 HD
ENDBRANCH  17  20
ENDBRANCH   1  12
BRANCH   2  22
ATOM     22  O   UNL     1       2.161  69.896 163.125  1.00  0.00    -0.502 OA
ATOM     23  H   UNL     1       2.441  68.945 162.919  1.00  0.00     0.293 HD
ENDBRANCH   2  22
BRANCH   6  24
ATOM     24  O   UNL     1      -2.919  70.614 161.692  1.00  0.00    -0.507 OA
ATOM     25  H   UNL     1      -2.260  70.233 161.031  1.00  0.00     0.293 HD
ENDBRANCH   6  24
BRANCH   8  26
ATOM     26  O   UNL     1      -4.954  71.089 166.015  1.00  0.00    -0.508 OA
ATOM     27  H   UNL     1      -5.839  71.345 165.594  1.00  0.00     0.293 HD
ENDBRANCH   8  26
TORSDOF 6
ENDMDL
MODEL 9
REMARK VINA RESULT:    -4.006      3.551      8.172
REMARK INTER + INTRA:          -4.934
REMARK INTER:                  -5.484
REMARK INTRA:                   0.551
REMARK UNBOUND:                -0.108
REMARK SMILES O=c1c(O)c(-c2ccc(O)c(O)c2)oc2cc(O)cc(O)c12
REMARK SMILES IDX 5 1 3 2 2 3 1 4 22 5 20 6 19 7 17 8 16 9 15 10 14 11 6 12
REMARK SMILES IDX 7 13 8 14 9 15 13 16 11 17 10 18 12 20 4 22 21 24 18 26
REMARK H PARENT 10 19 12 21 4 23 21 25 18 27
REMARK Flexibility Score: inf
ROOT
ATOM      1  C   UNL     1       1.986  70.255 166.258  1.00  0.00     0.180 A 
ATOM      2  C   UNL     1       0.768  70.063 166.934  1.00  0.00     0.208 A 
ATOM      3  C   UNL     1      -0.411  69.915 166.185  1.00  0.00     0.238 A 
ATOM      4  O   UNL     1      -1.504  69.798 166.796  1.00  0.00    -0.285 OA
ATOM      5  C   UNL     1      -0.355  69.945 164.770  1.00  0.00     0.111 A 
ATOM      6  C   UNL     1      -1.480  69.766 163.911  1.00  0.00     0.134 A 
ATOM      7  C   UNL     1      -1.331  69.945 162.531  1.00  0.00     0.093 A 
ATOM      8  C   UNL     1      -0.082  70.232 161.973  1.00  0.00     0.123 A 
ATOM      9  C   UNL     1       1.033  70.351 162.798  1.00  0.00     0.094 A 
ATOM     10  C   UNL     1       0.908  70.214 164.183  1.00  0.00     0.146 A 
ATOM     11  O   UNL     1       1.995  70.345 164.934  1.00  0.00    -0.452 OA
ENDROOT
BRANCH   1  12
ATOM     12  C   UNL     1       3.273  70.393 166.978  1.00  0.00     0.025 A 
ATOM     13  C   UNL     1       3.295  70.284 168.378  1.00  0.00     0.016 A 
ATOM     14  C   UNL     1       4.495  70.432 169.080  1.00  0.00     0.051 A 
ATOM     15  C   UNL     1       5.684  70.704 168.397  1.00  0.00     0.157 A 
ATOM     16  C   UNL     1       4.466  70.689 166.295  1.00  0.00     0.062 A 
ATOM     17  C   UNL     1       5.670  70.839 166.999  1.00  0.00     0.158 A 
BRANCH  15  18
ATOM     18  O   UNL     1       6.866  70.844 169.125  1.00  0.00    -0.504 OA
ATOM     19  H   UNL     1       7.574  70.120 169.144  1.00  0.00     0.293 HD
ENDBRANCH  15  18
BRANCH  17  20
ATOM     20  O   UNL     1       6.850  71.125 166.314  1.00  0.00    -0.504 OA
ATOM     21  H   UNL     1       7.520  71.798 166.667  1.00  0.00     0.293 HD
ENDBRANCH  17  20
ENDBRANCH   1  12
BRANCH   2  22
ATOM     22  O   UNL     1       0.732  70.059 168.332  1.00  0.00    -0.502 OA
ATOM     23  H   UNL     1       1.474  69.659 168.892  1.00  0.00     0.293 HD
ENDBRANCH   2  22
BRANCH   6  24
ATOM     24  O   UNL     1      -2.750  69.387 164.357  1.00  0.00    -0.507 OA
ATOM     25  H   UNL     1      -3.155  69.664 165.239  1.00  0.00     0.293 HD
ENDBRANCH   6  24
BRANCH   8  26
ATOM     26  O   UNL     1       0.060  70.393 160.597  1.00  0.00    -0.508 OA
ATOM     27  H   UNL     1      -0.693  70.175 159.956  1.00  0.00     0.293 HD
ENDBRANCH   8  26
TORSDOF 6
ENDMDL
