MODEL 1
REMARK VINA RESULT:    -4.700      0.000      0.000
REMARK INTER + INTRA:          -7.269
REMARK INTER:                  -6.898
REMARK INTRA:                  -0.371
REMARK UNBOUND:                -0.371
REMARK SMILES O=C([O-])CCCCCCCC(=O)[O-]
REMARK SMILES IDX 7 1 6 2 5 3 4 4 2 5 1 6 3 7 8 8 9 9 10 10 11 11 12 12 13 13
REMARK H PARENT
REMARK Flexibility Score: inf
ROOT
ATOM      1  C   UNL     1      -6.514 -20.301  -5.029  1.00  0.00     0.000 C 
ENDROOT
BRANCH   1   2
ATOM      2  C   UNL     1      -7.151 -20.205  -3.633  1.00  0.00     0.000 C 
BRANCH   2   3
ATOM      3  C   UNL     1      -6.393 -21.031  -2.579  1.00  0.00     0.006 C 
BRANCH   3   4
ATOM      4  C   UNL     1      -6.054 -22.441  -3.083  1.00  0.00     0.053 C 
BRANCH   4   5
ATOM      5  C   UNL     1      -4.591 -22.740  -2.963  1.00  0.00     0.041 C 
ATOM      6  O   UNL     1      -3.998 -23.379  -3.873  1.00  0.00    -0.550 OA
ATOM      7  O   UNL     1      -3.875 -22.288  -1.862  1.00  0.00    -0.550 OA
ENDBRANCH   4   5
ENDBRANCH   3   4
ENDBRANCH   2   3
ENDBRANCH   1   2
BRANCH   1   8
ATOM      8  C   UNL     1      -7.539 -20.139  -6.161  1.00  0.00     0.000 C 
BRANCH   8   9
ATOM      9  C   UNL     1      -8.804 -19.432  -5.660  1.00  0.00     0.006 C 
BRANCH   9  10
ATOM     10  C   UNL     1      -9.530 -18.724  -6.808  1.00  0.00     0.053 C 
BRANCH  10  11
ATOM     11  C   UNL     1     -10.462 -19.667  -7.500  1.00  0.00     0.041 C 
ATOM     12  O   UNL     1     -10.971 -20.630  -6.870  1.00  0.00    -0.550 OA
ATOM     13  O   UNL     1     -10.807 -19.454  -8.828  1.00  0.00    -0.550 OA
ENDBRANCH  10  11
ENDBRANCH   9  10
ENDBRANCH   8   9
ENDBRANCH   1   8
TORSDOF 8
ENDMDL
MODEL 2
REMARK VINA RESULT:    -4.634     12.549     13.108
REMARK INTER + INTRA:          -7.173
REMARK INTER:                  -6.872
REMARK INTRA:                  -0.301
REMARK UNBOUND:                -0.371
REMARK SMILES O=C([O-])CCCCCCCC(=O)[O-]
REMARK SMILES IDX 7 1 6 2 5 3 4 4 2 5 1 6 3 7 8 8 9 9 10 10 11 11 12 12 13 13
REMARK H PARENT
REMARK Flexibility Score: inf
ROOT
ATOM      1  C   UNL     1       0.438 -21.276 -14.589  1.00  0.00     0.000 C 
ENDROOT
BRANCH   1   2
ATOM      2  C   UNL     1       1.314 -20.144 -14.031  1.00  0.00     0.000 C 
BRANCH   2   3
ATOM      3  C   UNL     1       2.759 -20.596 -13.756  1.00  0.00     0.006 C 
BRANCH   3   4
ATOM      4  C   UNL     1       3.169 -20.369 -12.295  1.00  0.00     0.053 C 
BRANCH   4   5
ATOM      5  C   UNL     1       4.319 -21.242 -11.895  1.00  0.00     0.041 C 
ATOM      6  O   UNL     1       5.437 -21.116 -12.462  1.00  0.00    -0.550 OA
ATOM      7  O   UNL     1       4.165 -22.174 -10.877  1.00  0.00    -0.550 OA
ENDBRANCH   4   5
ENDBRANCH   3   4
ENDBRANCH   2   3
ENDBRANCH   1   2
BRANCH   1   8
ATOM      8  C   UNL     1       1.115 -22.041 -15.737  1.00  0.00     0.000 C 
BRANCH   8   9
ATOM      9  C   UNL     1       0.228 -23.189 -16.231  1.00  0.00     0.006 C 
BRANCH   9  10
ATOM     10  C   UNL     1      -0.979 -23.388 -15.309  1.00  0.00     0.053 C 
BRANCH  10  11
ATOM     11  C   UNL     1      -1.845 -24.498 -15.812  1.00  0.00     0.041 C 
ATOM     12  O   UNL     1      -2.221 -24.513 -17.014  1.00  0.00    -0.550 OA
ATOM     13  O   UNL     1      -2.199 -25.543 -14.968  1.00  0.00    -0.550 OA
ENDBRANCH  10  11
ENDBRANCH   9  10
ENDBRANCH   8   9
ENDBRANCH   1   8
TORSDOF 8
ENDMDL
MODEL 3
REMARK VINA RESULT:    -4.629     12.275     13.161
REMARK INTER + INTRA:          -7.166
REMARK INTER:                  -6.654
REMARK INTRA:                  -0.511
REMARK UNBOUND:                -0.371
REMARK SMILES O=C([O-])CCCCCCCC(=O)[O-]
REMARK SMILES IDX 7 1 6 2 5 3 4 4 2 5 1 6 3 7 8 8 9 9 10 10 11 11 12 12 13 13
REMARK H PARENT
REMARK Flexibility Score: inf
ROOT
ATOM      1  C   UNL     1       0.693 -20.911 -13.077  1.00  0.00     0.000 C 
ENDROOT
BRANCH   1   2
ATOM      2  C   UNL     1       1.590 -20.419 -14.224  1.00  0.00     0.000 C 
BRANCH   2   3
ATOM      3  C   UNL     1       3.065 -20.285 -13.804  1.00  0.00     0.006 C 
BRANCH   3   4
ATOM      4  C   UNL     1       3.239 -20.329 -12.280  1.00  0.00     0.053 C 
BRANCH   4   5
ATOM      5  C   UNL     1       4.347 -21.251 -11.871  1.00  0.00     0.041 C 
ATOM      6  O   UNL     1       5.499 -21.114 -12.361  1.00  0.00    -0.550 OA
ATOM      7  O   UNL     1       4.115 -22.242 -10.926  1.00  0.00    -0.550 OA
ENDBRANCH   4   5
ENDBRANCH   3   4
ENDBRANCH   2   3
ENDBRANCH   1   2
BRANCH   1   8
ATOM      8  C   UNL     1      -0.611 -21.551 -13.577  1.00  0.00     0.000 C 
BRANCH   8   9
ATOM      9  C   UNL     1      -0.864 -21.206 -15.049  1.00  0.00     0.006 C 
BRANCH   9  10
ATOM     10  C   UNL     1      -1.154 -22.467 -15.868  1.00  0.00     0.053 C 
BRANCH  10  11
ATOM     11  C   UNL     1       0.064 -22.896 -16.621  1.00  0.00     0.041 C 
ATOM     12  O   UNL     1       0.982 -23.527 -16.034  1.00  0.00    -0.550 OA
ATOM     13  O   UNL     1       0.166 -22.643 -17.983  1.00  0.00    -0.550 OA
ENDBRANCH  10  11
ENDBRANCH   9  10
ENDBRANCH   8   9
ENDBRANCH   1   8
TORSDOF 8
ENDMDL
MODEL 4
REMARK VINA RESULT:    -4.623      0.704      6.672
REMARK INTER + INTRA:          -7.157
REMARK INTER:                  -6.868
REMARK INTRA:                  -0.289
REMARK UNBOUND:                -0.371
REMARK SMILES O=C([O-])CCCCCCCC(=O)[O-]
REMARK SMILES IDX 7 1 6 2 5 3 4 4 2 5 1 6 3 7 8 8 9 9 10 10 11 11 12 12 13 13
REMARK H PARENT
REMARK Flexibility Score: inf
ROOT
ATOM      1  C   UNL     1      -6.810 -20.296  -4.790  1.00  0.00     0.000 C 
ENDROOT
BRANCH   1   2
ATOM      2  C   UNL     1      -7.514 -19.097  -5.444  1.00  0.00     0.000 C 
BRANCH   2   3
ATOM      3  C   UNL     1      -9.036 -19.294  -5.557  1.00  0.00     0.006 C 
BRANCH   3   4
ATOM      4  C   UNL     1      -9.597 -18.729  -6.869  1.00  0.00     0.053 C 
BRANCH   4   5
ATOM      5  C   UNL     1     -10.507 -19.704  -7.553  1.00  0.00     0.041 C 
ATOM      6  O   UNL     1     -10.967 -20.691  -6.920  1.00  0.00    -0.550 OA
ATOM      7  O   UNL     1     -10.871 -19.506  -8.878  1.00  0.00    -0.550 OA
ENDBRANCH   4   5
ENDBRANCH   3   4
ENDBRANCH   2   3
ENDBRANCH   1   2
BRANCH   1   8
ATOM      8  C   UNL     1      -7.061 -20.379  -3.276  1.00  0.00     0.000 C 
BRANCH   8   9
ATOM      9  C   UNL     1      -6.170 -21.445  -2.630  1.00  0.00     0.006 C 
BRANCH   9  10
ATOM     10  C   UNL     1      -6.304 -22.788  -3.354  1.00  0.00     0.053 C 
BRANCH  10  11
ATOM     11  C   UNL     1      -4.955 -23.359  -3.654  1.00  0.00     0.041 C 
ATOM     12  O   UNL     1      -4.791 -24.105  -4.655  1.00  0.00    -0.550 OA
ATOM     13  O   UNL     1      -3.866 -23.030  -2.858  1.00  0.00    -0.550 OA
ENDBRANCH  10  11
ENDBRANCH   9  10
ENDBRANCH   8   9
ENDBRANCH   1   8
TORSDOF 8
ENDMDL
MODEL 5
REMARK VINA RESULT:    -4.623     12.366     14.122
REMARK INTER + INTRA:          -7.157
REMARK INTER:                  -6.859
REMARK INTRA:                  -0.297
REMARK UNBOUND:                -0.371
REMARK SMILES O=C([O-])CCCCCCCC(=O)[O-]
REMARK SMILES IDX 7 1 6 2 5 3 4 4 2 5 1 6 3 7 8 8 9 9 10 10 11 11 12 12 13 13
REMARK H PARENT
REMARK Flexibility Score: inf
ROOT
ATOM      1  C   UNL     1       1.533 -21.441 -15.006  1.00  0.00     0.000 C 
ENDROOT
BRANCH   1   2
ATOM      2  C   UNL     1       0.200 -21.512 -15.769  1.00  0.00     0.000 C 
BRANCH   2   3
ATOM      3  C   UNL     1       0.071 -22.791 -16.615  1.00  0.00     0.006 C 
BRANCH   3   4
ATOM      4  C   UNL     1       0.029 -24.057 -15.748  1.00  0.00     0.053 C 
BRANCH   4   5
ATOM      5  C   UNL     1      -1.375 -24.450 -15.402  1.00  0.00     0.041 C 
ATOM      6  O   UNL     1      -2.156 -24.864 -16.299  1.00  0.00    -0.550 OA
ATOM      7  O   UNL     1      -1.812 -24.389 -14.085  1.00  0.00    -0.550 OA
ENDBRANCH   4   5
ENDBRANCH   3   4
ENDBRANCH   2   3
ENDBRANCH   1   2
BRANCH   1   8
ATOM      8  C   UNL     1       1.686 -20.143 -14.198  1.00  0.00     0.000 C 
BRANCH   8   9
ATOM      9  C   UNL     1       2.975 -20.162 -13.369  1.00  0.00     0.006 C 
BRANCH   9  10
ATOM     10  C   UNL     1       2.830 -21.073 -12.146  1.00  0.00     0.053 C 
BRANCH  10  11
ATOM     11  C   UNL     1       4.167 -21.578 -11.707  1.00  0.00     0.041 C 
ATOM     12  O   UNL     1       4.276 -22.237 -10.639  1.00  0.00    -0.550 OA
ATOM     13  O   UNL     1       5.287 -21.364 -12.500  1.00  0.00    -0.550 OA
ENDBRANCH  10  11
ENDBRANCH   9  10
ENDBRANCH   8   9
ENDBRANCH   1   8
TORSDOF 8
ENDMDL
MODEL 6
REMARK VINA RESULT:    -4.564      0.997      1.475
REMARK INTER + INTRA:          -7.069
REMARK INTER:                  -6.715
REMARK INTRA:                  -0.354
REMARK UNBOUND:                -0.371
REMARK SMILES O=C([O-])CCCCCCCC(=O)[O-]
REMARK SMILES IDX 7 1 6 2 5 3 4 4 2 5 1 6 3 7 8 8 9 9 10 10 11 11 12 12 13 13
REMARK H PARENT
REMARK Flexibility Score: inf
ROOT
ATOM      1  C   UNL     1      -7.180 -19.793  -5.938  1.00  0.00     0.000 C 
ENDROOT
BRANCH   1   2
ATOM      2  C   UNL     1      -6.411 -20.513  -4.820  1.00  0.00     0.000 C 
BRANCH   2   3
ATOM      3  C   UNL     1      -7.066 -20.330  -3.439  1.00  0.00     0.006 C 
BRANCH   3   4
ATOM      4  C   UNL     1      -6.315 -21.090  -2.337  1.00  0.00     0.053 C 
BRANCH   4   5
ATOM      5  C   UNL     1      -5.786 -22.404  -2.825  1.00  0.00     0.041 C 
ATOM      6  O   UNL     1      -4.546 -22.623  -2.836  1.00  0.00    -0.550 OA
ATOM      7  O   UNL     1      -6.664 -23.397  -3.240  1.00  0.00    -0.550 OA
ENDBRANCH   4   5
ENDBRANCH   3   4
ENDBRANCH   2   3
ENDBRANCH   1   2
BRANCH   1   8
ATOM      8  C   UNL     1      -7.974 -18.581  -5.427  1.00  0.00     0.000 C 
BRANCH   8   9
ATOM      9  C   UNL     1      -9.221 -18.341  -6.286  1.00  0.00     0.006 C 
BRANCH   9  10
ATOM     10  C   UNL     1      -9.195 -19.205  -7.550  1.00  0.00     0.053 C 
BRANCH  10  11
ATOM     11  C   UNL     1     -10.540 -19.811  -7.799  1.00  0.00     0.041 C 
ATOM     12  O   UNL     1     -11.033 -20.621  -6.971  1.00  0.00    -0.550 OA
ATOM     13  O   UNL     1     -11.271 -19.444  -8.921  1.00  0.00    -0.550 OA
ENDBRANCH  10  11
ENDBRANCH   9  10
ENDBRANCH   8   9
ENDBRANCH   1   8
TORSDOF 8
ENDMDL
MODEL 7
REMARK VINA RESULT:    -4.443     12.209     14.069
REMARK INTER + INTRA:          -6.892
REMARK INTER:                  -6.508
REMARK INTRA:                  -0.384
REMARK UNBOUND:                -0.371
REMARK SMILES O=C([O-])CCCCCCCC(=O)[O-]
REMARK SMILES IDX 7 1 6 2 5 3 4 4 2 5 1 6 3 7 8 8 9 9 10 10 11 11 12 12 13 13
REMARK H PARENT
REMARK Flexibility Score: inf
ROOT
ATOM      1  C   UNL     1       0.647 -20.028 -14.218  1.00  0.00     0.000 C 
ENDROOT
BRANCH   1   2
ATOM      2  C   UNL     1      -0.497 -20.878 -14.791  1.00  0.00     0.000 C 
BRANCH   2   3
ATOM      3  C   UNL     1      -0.683 -22.206 -14.036  1.00  0.00     0.006 C 
BRANCH   3   4
ATOM      4  C   UNL     1      -0.015 -23.382 -14.761  1.00  0.00     0.053 C 
BRANCH   4   5
ATOM      5  C   UNL     1      -0.181 -23.289 -16.247  1.00  0.00     0.041 C 
ATOM      6  O   UNL     1      -1.285 -23.578 -16.781  1.00  0.00    -0.550 OA
ATOM      7  O   UNL     1       0.873 -22.853 -17.041  1.00  0.00    -0.550 OA
ENDBRANCH   4   5
ENDBRANCH   3   4
ENDBRANCH   2   3
ENDBRANCH   1   2
BRANCH   1   8
ATOM      8  C   UNL     1       2.033 -20.627 -14.504  1.00  0.00     0.000 C 
BRANCH   8   9
ATOM      9  C   UNL     1       3.048 -20.196 -13.440  1.00  0.00     0.006 C 
BRANCH   9  10
ATOM     10  C   UNL     1       2.844 -20.976 -12.137  1.00  0.00     0.053 C 
BRANCH  10  11
ATOM     11  C   UNL     1       4.134 -21.579 -11.679  1.00  0.00     0.041 C 
ATOM     12  O   UNL     1       4.169 -22.281 -10.635  1.00  0.00    -0.550 OA
ATOM     13  O   UNL     1       5.289 -21.407 -12.432  1.00  0.00    -0.550 OA
ENDBRANCH  10  11
ENDBRANCH   9  10
ENDBRANCH   8   9
ENDBRANCH   1   8
TORSDOF 8
ENDMDL
MODEL 8
REMARK VINA RESULT:    -4.410      1.404      6.220
REMARK INTER + INTRA:          -6.844
REMARK INTER:                  -6.323
REMARK INTRA:                  -0.521
REMARK UNBOUND:                -0.371
REMARK SMILES O=C([O-])CCCCCCCC(=O)[O-]
REMARK SMILES IDX 7 1 6 2 5 3 4 4 2 5 1 6 3 7 8 8 9 9 10 10 11 11 12 12 13 13
REMARK H PARENT
REMARK Flexibility Score: inf
ROOT
ATOM      1  C   UNL     1      -6.734 -19.588  -6.837  1.00  0.00     0.000 C 
ENDROOT
BRANCH   1   2
ATOM      2  C   UNL     1      -7.494 -18.881  -5.705  1.00  0.00     0.000 C 
BRANCH   2   3
ATOM      3  C   UNL     1      -8.965 -19.322  -5.615  1.00  0.00     0.006 C 
BRANCH   3   4
ATOM      4  C   UNL     1      -9.794 -18.822  -6.806  1.00  0.00     0.053 C 
BRANCH   4   5
ATOM      5  C   UNL     1     -10.474 -19.948  -7.524  1.00  0.00     0.041 C 
ATOM      6  O   UNL     1     -11.076 -20.843  -6.873  1.00  0.00    -0.550 OA
ATOM      7  O   UNL     1     -10.471 -19.992  -8.913  1.00  0.00    -0.550 OA
ENDBRANCH   4   5
ENDBRANCH   3   4
ENDBRANCH   2   3
ENDBRANCH   1   2
BRANCH   1   8
ATOM      8  C   UNL     1      -6.299 -21.013  -6.462  1.00  0.00     0.000 C 
BRANCH   8   9
ATOM      9  C   UNL     1      -5.417 -21.005  -5.209  1.00  0.00     0.006 C 
BRANCH   9  10
ATOM     10  C   UNL     1      -5.809 -22.134  -4.251  1.00  0.00     0.053 C 
BRANCH  10  11
ATOM     11  C   UNL     1      -6.045 -21.597  -2.875  1.00  0.00     0.041 C 
ATOM     12  O   UNL     1      -5.157 -21.712  -1.990  1.00  0.00    -0.550 OA
ATOM     13  O   UNL     1      -7.225 -20.926  -2.582  1.00  0.00    -0.550 OA
ENDBRANCH  10  11
ENDBRANCH   9  10
ENDBRANCH   8   9
ENDBRANCH   1   8
TORSDOF 8
ENDMDL
MODEL 9
REMARK VINA RESULT:    -4.398      1.293      1.982
REMARK INTER + INTRA:          -6.826
REMARK INTER:                  -6.360
REMARK INTRA:                  -0.466
REMARK UNBOUND:                -0.371
REMARK SMILES O=C([O-])CCCCCCCC(=O)[O-]
REMARK SMILES IDX 7 1 6 2 5 3 4 4 2 5 1 6 3 7 8 8 9 9 10 10 11 11 12 12 13 13
REMARK H PARENT
REMARK Flexibility Score: inf
ROOT
ATOM      1  C   UNL     1      -6.918 -20.032  -5.974  1.00  0.00     0.000 C 
ENDROOT
BRANCH   1   2
ATOM      2  C   UNL     1      -6.673 -21.545  -6.086  1.00  0.00     0.000 C 
BRANCH   2   3
ATOM      3  C   UNL     1      -5.532 -22.028  -5.174  1.00  0.00     0.006 C 
BRANCH   3   4
ATOM      4  C   UNL     1      -6.056 -22.682  -3.888  1.00  0.00     0.053 C 
BRANCH   4   5
ATOM      5  C   UNL     1      -5.872 -21.795  -2.695  1.00  0.00     0.041 C 
ATOM      6  O   UNL     1      -6.833 -21.105  -2.264  1.00  0.00    -0.550 OA
ATOM      7  O   UNL     1      -4.647 -21.755  -2.040  1.00  0.00    -0.550 OA
ENDBRANCH   4   5
ENDBRANCH   3   4
ENDBRANCH   2   3
ENDBRANCH   1   2
BRANCH   1   8
ATOM      8  C   UNL     1      -8.164 -19.693  -5.141  1.00  0.00     0.000 C 
BRANCH   8   9
ATOM      9  C   UNL     1      -9.074 -18.712  -5.889  1.00  0.00     0.006 C 
BRANCH   9  10
ATOM     10  C   UNL     1      -9.100 -19.020  -7.390  1.00  0.00     0.053 C 
BRANCH  10  11
ATOM     11  C   UNL     1     -10.376 -19.704  -7.763  1.00  0.00     0.041 C 
ATOM     12  O   UNL     1     -10.858 -19.560  -8.917  1.00  0.00    -0.550 OA
ATOM     13  O   UNL     1     -11.010 -20.541  -6.853  1.00  0.00    -0.550 OA
ENDBRANCH  10  11
ENDBRANCH   9  10
ENDBRANCH   8   9
ENDBRANCH   1   8
TORSDOF 8
ENDMDL
