MODEL 1
REMARK VINA RESULT:    -3.127      0.000      0.000
REMARK INTER + INTRA:          -3.498
REMARK INTER:                  -3.492
REMARK INTRA:                  -0.006
REMARK UNBOUND:                -0.006
REMARK SMILES CCCC(=O)[O-]
REMARK SMILES IDX 3 1 4 2 5 3 6 4 2 5 1 6
REMARK H PARENT
REMARK Flexibility Score: inf
ROOT
ATOM      1  C   UNL     1      38.363 -12.011  27.726  1.00  0.00     0.052 C 
ENDROOT
BRANCH   1   2
ATOM      2  C   UNL     1      36.992 -11.412  27.799  1.00  0.00     0.041 C 
ATOM      3  O   UNL     1      36.464 -11.173  28.916  1.00  0.00    -0.550 OA
ATOM      4  O   UNL     1      36.312 -11.087  26.632  1.00  0.00    -0.550 OA
ENDBRANCH   1   2
BRANCH   1   5
ATOM      5  C   UNL     1      39.407 -10.984  27.268  1.00  0.00     0.003 C 
ATOM      6  C   UNL     1      40.748 -11.631  26.927  1.00  0.00     0.004 C 
ENDBRANCH   1   5
TORSDOF 2
ENDMDL
MODEL 2
REMARK VINA RESULT:    -3.003     17.097     17.949
REMARK INTER + INTRA:          -3.360
REMARK INTER:                  -3.327
REMARK INTRA:                  -0.034
REMARK UNBOUND:                -0.006
REMARK SMILES CCCC(=O)[O-]
REMARK SMILES IDX 3 1 4 2 5 3 6 4 2 5 1 6
REMARK H PARENT
REMARK Flexibility Score: inf
ROOT
ATOM      1  C   UNL     1      50.545  -0.135  19.985  1.00  0.00     0.052 C 
ENDROOT
BRANCH   1   2
ATOM      2  C   UNL     1      49.513  -0.271  21.062  1.00  0.00     0.041 C 
ATOM      3  O   UNL     1      48.291  -0.134  20.790  1.00  0.00    -0.550 OA
ATOM      4  O   UNL     1      49.899  -0.583  22.360  1.00  0.00    -0.550 OA
ENDBRANCH   1   2
BRANCH   1   5
ATOM      5  C   UNL     1      51.662  -1.176  20.135  1.00  0.00     0.003 C 
ATOM      6  C   UNL     1      53.045  -0.534  20.234  1.00  0.00     0.004 C 
ENDBRANCH   1   5
TORSDOF 2
ENDMDL
MODEL 3
REMARK VINA RESULT:    -2.944      1.609      2.169
REMARK INTER + INTRA:          -3.294
REMARK INTER:                  -3.276
REMARK INTRA:                  -0.018
REMARK UNBOUND:                -0.006
REMARK SMILES CCCC(=O)[O-]
REMARK SMILES IDX 3 1 4 2 5 3 6 4 2 5 1 6
REMARK H PARENT
REMARK Flexibility Score: inf
ROOT
ATOM      1  C   UNL     1      39.571 -10.759  27.186  1.00  0.00     0.052 C 
ENDROOT
BRANCH   1   2
ATOM      2  C   UNL     1      38.209 -11.270  27.542  1.00  0.00     0.041 C 
ATOM      3  O   UNL     1      37.207 -10.937  26.857  1.00  0.00    -0.550 OA
ATOM      4  O   UNL     1      38.052 -12.142  28.613  1.00  0.00    -0.550 OA
ENDBRANCH   1   2
BRANCH   1   5
ATOM      5  C   UNL     1      39.494  -9.552  26.242  1.00  0.00     0.003 C 
ATOM      6  C   UNL     1      40.689  -9.478  25.293  1.00  0.00     0.004 C 
ENDBRANCH   1   5
TORSDOF 2
ENDMDL
MODEL 4
REMARK VINA RESULT:    -2.931     14.953     15.669
REMARK INTER + INTRA:          -3.279
REMARK INTER:                  -3.268
REMARK INTRA:                  -0.012
REMARK UNBOUND:                -0.006
REMARK SMILES CCCC(=O)[O-]
REMARK SMILES IDX 3 1 4 2 5 3 6 4 2 5 1 6
REMARK H PARENT
REMARK Flexibility Score: inf
ROOT
ATOM      1  C   UNL     1      41.571   0.157  18.320  1.00  0.00     0.052 C 
ENDROOT
BRANCH   1   2
ATOM      2  C   UNL     1      41.732   1.636  18.143  1.00  0.00     0.041 C 
ATOM      3  O   UNL     1      41.749   2.138  16.988  1.00  0.00    -0.550 OA
ATOM      4  O   UNL     1      41.829   2.464  19.254  1.00  0.00    -0.550 OA
ENDBRANCH   1   2
BRANCH   1   5
ATOM      5  C   UNL     1      41.600  -0.242  19.801  1.00  0.00     0.003 C 
ATOM      6  C   UNL     1      40.877  -1.562  20.061  1.00  0.00     0.004 C 
ENDBRANCH   1   5
TORSDOF 2
ENDMDL
MODEL 5
REMARK VINA RESULT:    -2.891      3.283      4.071
REMARK INTER + INTRA:          -3.234
REMARK INTER:                  -3.218
REMARK INTRA:                  -0.016
REMARK UNBOUND:                -0.006
REMARK SMILES CCCC(=O)[O-]
REMARK SMILES IDX 3 1 4 2 5 3 6 4 2 5 1 6
REMARK H PARENT
REMARK Flexibility Score: inf
ROOT
ATOM      1  C   UNL     1      39.489  -9.951  26.577  1.00  0.00     0.052 C 
ENDROOT
BRANCH   1   2
ATOM      2  C   UNL     1      40.768 -10.213  25.841  1.00  0.00     0.041 C 
ATOM      3  O   UNL     1      41.478 -11.209  26.139  1.00  0.00    -0.550 OA
ATOM      4  O   UNL     1      41.158  -9.374  24.804  1.00  0.00    -0.550 OA
ENDBRANCH   1   2
BRANCH   1   5
ATOM      5  C   UNL     1      39.094 -11.137  27.465  1.00  0.00     0.003 C 
ATOM      6  C   UNL     1      37.588 -11.393  27.456  1.00  0.00     0.004 C 
ENDBRANCH   1   5
TORSDOF 2
ENDMDL
MODEL 6
REMARK VINA RESULT:    -2.879      2.185      2.833
REMARK INTER + INTRA:          -3.221
REMARK INTER:                  -3.184
REMARK INTRA:                  -0.038
REMARK UNBOUND:                -0.006
REMARK SMILES CCCC(=O)[O-]
REMARK SMILES IDX 3 1 4 2 5 3 6 4 2 5 1 6
REMARK H PARENT
REMARK Flexibility Score: inf
ROOT
ATOM      1  C   UNL     1      36.318 -11.060  26.339  1.00  0.00     0.052 C 
ENDROOT
BRANCH   1   2
ATOM      2  C   UNL     1      37.069 -11.158  27.631  1.00  0.00     0.041 C 
ATOM      3  O   UNL     1      36.448 -11.157  28.727  1.00  0.00    -0.550 OA
ATOM      4  O   UNL     1      38.452 -11.284  27.624  1.00  0.00    -0.550 OA
ENDBRANCH   1   2
BRANCH   1   5
ATOM      5  C   UNL     1      36.184  -9.606  25.871  1.00  0.00     0.003 C 
ATOM      6  C   UNL     1      37.369  -9.159  25.016  1.00  0.00     0.004 C 
ENDBRANCH   1   5
TORSDOF 2
ENDMDL
MODEL 7
REMARK VINA RESULT:    -2.853      2.507      3.438
REMARK INTER + INTRA:          -3.192
REMARK INTER:                  -3.161
REMARK INTRA:                  -0.031
REMARK UNBOUND:                -0.006
REMARK SMILES CCCC(=O)[O-]
REMARK SMILES IDX 3 1 4 2 5 3 6 4 2 5 1 6
REMARK H PARENT
REMARK Flexibility Score: inf
ROOT
ATOM      1  C   UNL     1      38.798 -12.194  27.649  1.00  0.00     0.052 C 
ENDROOT
BRANCH   1   2
ATOM      2  C   UNL     1      39.894 -11.290  27.175  1.00  0.00     0.041 C 
ATOM      3  O   UNL     1      41.052 -11.744  26.984  1.00  0.00    -0.550 OA
ATOM      4  O   UNL     1      39.627  -9.952  26.914  1.00  0.00    -0.550 OA
ENDBRANCH   1   2
BRANCH   1   5
ATOM      5  C   UNL     1      37.437 -11.486  27.646  1.00  0.00     0.003 C 
ATOM      6  C   UNL     1      36.787 -11.470  29.028  1.00  0.00     0.004 C 
ENDBRANCH   1   5
TORSDOF 2
ENDMDL
MODEL 8
REMARK VINA RESULT:    -2.826     13.777     14.422
REMARK INTER + INTRA:          -3.163
REMARK INTER:                  -3.155
REMARK INTRA:                  -0.007
REMARK UNBOUND:                -0.006
REMARK SMILES CCCC(=O)[O-]
REMARK SMILES IDX 3 1 4 2 5 3 6 4 2 5 1 6
REMARK H PARENT
REMARK Flexibility Score: inf
ROOT
ATOM      1  C   UNL     1      41.527  -0.353  18.794  1.00  0.00     0.052 C 
ENDROOT
BRANCH   1   2
ATOM      2  C   UNL     1      41.279  -1.047  20.099  1.00  0.00     0.041 C 
ATOM      3  O   UNL     1      40.444  -1.986  20.168  1.00  0.00    -0.550 OA
ATOM      4  O   UNL     1      41.995  -0.676  21.230  1.00  0.00    -0.550 OA
ENDBRANCH   1   2
BRANCH   1   5
ATOM      5  C   UNL     1      42.005   1.090  19.001  1.00  0.00     0.003 C 
ATOM      6  C   UNL     1      41.783   1.958  17.764  1.00  0.00     0.004 C 
ENDBRANCH   1   5
TORSDOF 2
ENDMDL
MODEL 9
REMARK VINA RESULT:    -2.816     13.019     13.675
REMARK INTER + INTRA:          -3.151
REMARK INTER:                  -3.140
REMARK INTRA:                  -0.011
REMARK UNBOUND:                -0.006
REMARK SMILES CCCC(=O)[O-]
REMARK SMILES IDX 3 1 4 2 5 3 6 4 2 5 1 6
REMARK H PARENT
REMARK Flexibility Score: inf
ROOT
ATOM      1  C   UNL     1      42.254   0.198  21.257  1.00  0.00     0.052 C 
ENDROOT
BRANCH   1   2
ATOM      2  C   UNL     1      43.199  -0.302  22.307  1.00  0.00     0.041 C 
ATOM      3  O   UNL     1      44.433  -0.375  22.066  1.00  0.00    -0.550 OA
ATOM      4  O   UNL     1      42.720  -0.655  23.562  1.00  0.00    -0.550 OA
ENDBRANCH   1   2
BRANCH   1   5
ATOM      5  C   UNL     1      41.650  -0.953  20.444  1.00  0.00     0.003 C 
ATOM      6  C   UNL     1      41.566  -0.631  18.953  1.00  0.00     0.004 C 
ENDBRANCH   1   5
TORSDOF 2
ENDMDL
