MODEL 1
REMARK VINA RESULT:    -4.532      0.000      0.000
REMARK INTER + INTRA:          -5.264
REMARK INTER:                  -5.195
REMARK INTRA:                  -0.069
REMARK UNBOUND:                -0.069
REMARK SMILES CC(C)[C@H]([NH3+])C(=O)[O-]
REMARK SMILES IDX 4 1 5 2 6 6 7 7 8 8 2 9 1 10 3 11
REMARK H PARENT 5 3 5 4 5 5
REMARK Flexibility Score: inf
ROOT
ATOM      1  C   UNL     1       7.380   6.193  19.771  1.00  0.00     0.230 C 
ENDROOT
BRANCH   1   2
ATOM      2  N   UNL     1       6.349   5.837  18.784  1.00  0.00    -0.350 N 
ATOM      3  H   UNL     1       6.197   6.623  18.114  1.00  0.00     0.345 HD
ATOM      4  H   UNL     1       5.443   5.596  19.247  1.00  0.00     0.345 HD
ATOM      5  H   UNL     1       6.668   5.007  18.231  1.00  0.00     0.345 HD
ENDBRANCH   1   2
BRANCH   1   6
ATOM      6  C   UNL     1       8.479   7.008  19.135  1.00  0.00     0.099 C 
ATOM      7  O   UNL     1       8.501   7.203  17.889  1.00  0.00    -0.544 OA
ATOM      8  O   UNL     1       9.506   7.512  19.922  1.00  0.00    -0.544 OA
ENDBRANCH   1   6
BRANCH   1   9
ATOM      9  C   UNL     1       7.966   4.956  20.517  1.00  0.00     0.047 C 
ATOM     10  C   UNL     1       8.869   4.077  19.636  1.00  0.00     0.014 C 
ATOM     11  C   UNL     1       6.864   4.103  21.164  1.00  0.00     0.014 C 
ENDBRANCH   1   9
TORSDOF 3
ENDMDL
MODEL 2
REMARK VINA RESULT:    -4.483      0.955      1.857
REMARK INTER + INTRA:          -5.207
REMARK INTER:                  -5.280
REMARK INTRA:                   0.073
REMARK UNBOUND:                -0.069
REMARK SMILES CC(C)[C@H]([NH3+])C(=O)[O-]
REMARK SMILES IDX 4 1 5 2 6 6 7 7 8 8 2 9 1 10 3 11
REMARK H PARENT 5 3 5 4 5 5
REMARK Flexibility Score: inf
ROOT
ATOM      1  C   UNL     1       7.810   5.731  19.966  1.00  0.00     0.230 C 
ENDROOT
BRANCH   1   2
ATOM      2  N   UNL     1       6.469   5.474  19.415  1.00  0.00    -0.350 N 
ATOM      3  H   UNL     1       6.118   6.312  18.900  1.00  0.00     0.345 HD
ATOM      4  H   UNL     1       5.789   5.220  20.168  1.00  0.00     0.345 HD
ATOM      5  H   UNL     1       6.519   4.682  18.734  1.00  0.00     0.345 HD
ENDBRANCH   1   2
BRANCH   1   6
ATOM      6  C   UNL     1       8.498   6.843  19.214  1.00  0.00     0.099 C 
ATOM      7  O   UNL     1       9.415   7.519  19.755  1.00  0.00    -0.544 OA
ATOM      8  O   UNL     1       8.087   7.162  17.927  1.00  0.00    -0.544 OA
ENDBRANCH   1   6
BRANCH   1   9
ATOM      9  C   UNL     1       8.704   4.456  20.016  1.00  0.00     0.047 C 
ATOM     10  C   UNL     1       9.902   4.580  20.973  1.00  0.00     0.014 C 
ATOM     11  C   UNL     1       9.185   4.039  18.618  1.00  0.00     0.014 C 
ENDBRANCH   1   9
TORSDOF 3
ENDMDL
MODEL 3
REMARK VINA RESULT:    -4.387      2.915      3.627
REMARK INTER + INTRA:          -5.098
REMARK INTER:                  -5.132
REMARK INTRA:                   0.034
REMARK UNBOUND:                -0.069
REMARK SMILES CC(C)[C@H]([NH3+])C(=O)[O-]
REMARK SMILES IDX 4 1 5 2 6 6 7 7 8 8 2 9 1 10 3 11
REMARK H PARENT 5 3 5 4 5 5
REMARK Flexibility Score: inf
ROOT
ATOM      1  C   UNL     1       9.592   4.850  20.001  1.00  0.00     0.230 C 
ENDROOT
BRANCH   1   2
ATOM      2  N   UNL     1      10.725   4.783  20.939  1.00  0.00    -0.350 N 
ATOM      3  H   UNL     1      11.630   4.878  20.426  1.00  0.00     0.345 HD
ATOM      4  H   UNL     1      10.723   3.887  21.478  1.00  0.00     0.345 HD
ATOM      5  H   UNL     1      10.662   5.577  21.618  1.00  0.00     0.345 HD
ENDBRANCH   1   2
BRANCH   1   6
ATOM      6  C   UNL     1       9.944   4.210  18.682  1.00  0.00     0.099 C 
ATOM      7  O   UNL     1       9.044   3.768  17.916  1.00  0.00    -0.544 OA
ATOM      8  O   UNL     1      11.277   4.059  18.324  1.00  0.00    -0.544 OA
ENDBRANCH   1   6
BRANCH   1   9
ATOM      9  C   UNL     1       9.057   6.299  19.792  1.00  0.00     0.047 C 
ATOM     10  C   UNL     1       7.526   6.379  19.673  1.00  0.00     0.014 C 
ATOM     11  C   UNL     1       9.719   6.984  18.586  1.00  0.00     0.014 C 
ENDBRANCH   1   9
TORSDOF 3
ENDMDL
MODEL 4
REMARK VINA RESULT:    -4.304      2.114      3.014
REMARK INTER + INTRA:          -5.002
REMARK INTER:                  -5.087
REMARK INTRA:                   0.085
REMARK UNBOUND:                -0.069
REMARK SMILES CC(C)[C@H]([NH3+])C(=O)[O-]
REMARK SMILES IDX 4 1 5 2 6 6 7 7 8 8 2 9 1 10 3 11
REMARK H PARENT 5 3 5 4 5 5
REMARK Flexibility Score: inf
ROOT
ATOM      1  C   UNL     1       7.421   5.271  19.855  1.00  0.00     0.230 C 
ENDROOT
BRANCH   1   2
ATOM      2  N   UNL     1       6.699   5.315  21.137  1.00  0.00    -0.350 N 
ATOM      3  H   UNL     1       6.459   6.300  21.388  1.00  0.00     0.345 HD
ATOM      4  H   UNL     1       7.262   4.887  21.907  1.00  0.00     0.345 HD
ATOM      5  H   UNL     1       5.802   4.783  21.049  1.00  0.00     0.345 HD
ENDBRANCH   1   2
BRANCH   1   6
ATOM      6  C   UNL     1       8.705   4.491  19.983  1.00  0.00     0.099 C 
ATOM      7  O   UNL     1       9.168   3.841  19.007  1.00  0.00    -0.544 OA
ATOM      8  O   UNL     1       9.364   4.446  21.205  1.00  0.00    -0.544 OA
ENDBRANCH   1   6
BRANCH   1   9
ATOM      9  C   UNL     1       7.686   6.685  19.255  1.00  0.00     0.047 C 
ATOM     10  C   UNL     1       7.414   6.775  17.744  1.00  0.00     0.014 C 
ATOM     11  C   UNL     1       9.106   7.182  19.568  1.00  0.00     0.014 C 
ENDBRANCH   1   9
TORSDOF 3
ENDMDL
MODEL 5
REMARK VINA RESULT:    -4.235      2.296      2.777
REMARK INTER + INTRA:          -4.923
REMARK INTER:                  -4.884
REMARK INTRA:                  -0.039
REMARK UNBOUND:                -0.069
REMARK SMILES CC(C)[C@H]([NH3+])C(=O)[O-]
REMARK SMILES IDX 4 1 5 2 6 6 7 7 8 8 2 9 1 10 3 11
REMARK H PARENT 5 3 5 4 5 5
REMARK Flexibility Score: inf
ROOT
ATOM      1  C   UNL     1       9.231   6.188  18.744  1.00  0.00     0.230 C 
ENDROOT
BRANCH   1   2
ATOM      2  N   UNL     1       9.578   7.229  19.725  1.00  0.00    -0.350 N 
ATOM      3  H   UNL     1      10.611   7.259  19.877  1.00  0.00     0.345 HD
ATOM      4  H   UNL     1       9.097   7.070  20.639  1.00  0.00     0.345 HD
ATOM      5  H   UNL     1       9.285   8.164  19.356  1.00  0.00     0.345 HD
ENDBRANCH   1   2
BRANCH   1   6
ATOM      6  C   UNL     1       7.782   6.288  18.338  1.00  0.00     0.099 C 
ATOM      7  O   UNL     1       7.425   7.049  17.397  1.00  0.00    -0.544 OA
ATOM      8  O   UNL     1       6.819   5.573  19.038  1.00  0.00    -0.544 OA
ENDBRANCH   1   6
BRANCH   1   9
ATOM      9  C   UNL     1       9.572   4.748  19.236  1.00  0.00     0.047 C 
ATOM     10  C   UNL     1       9.723   4.639  20.763  1.00  0.00     0.014 C 
ATOM     11  C   UNL     1      10.821   4.186  18.540  1.00  0.00     0.014 C 
ENDBRANCH   1   9
TORSDOF 3
ENDMDL
MODEL 6
REMARK VINA RESULT:    -4.213      2.127      2.536
REMARK INTER + INTRA:          -4.898
REMARK INTER:                  -4.929
REMARK INTRA:                   0.031
REMARK UNBOUND:                -0.069
REMARK SMILES CC(C)[C@H]([NH3+])C(=O)[O-]
REMARK SMILES IDX 4 1 5 2 6 6 7 7 8 8 2 9 1 10 3 11
REMARK H PARENT 5 3 5 4 5 5
REMARK Flexibility Score: inf
ROOT
ATOM      1  C   UNL     1       7.392   6.326  19.322  1.00  0.00     0.230 C 
ENDROOT
BRANCH   1   2
ATOM      2  N   UNL     1       6.722   5.257  20.080  1.00  0.00    -0.350 N 
ATOM      3  H   UNL     1       6.537   4.433  19.465  1.00  0.00     0.345 HD
ATOM      4  H   UNL     1       5.822   5.588  20.496  1.00  0.00     0.345 HD
ATOM      5  H   UNL     1       7.347   4.938  20.857  1.00  0.00     0.345 HD
ENDBRANCH   1   2
BRANCH   1   6
ATOM      6  C   UNL     1       7.244   6.108  17.837  1.00  0.00     0.099 C 
ATOM      7  O   UNL     1       6.710   6.985  17.104  1.00  0.00    -0.544 OA
ATOM      8  O   UNL     1       7.657   4.908  17.272  1.00  0.00    -0.544 OA
ENDBRANCH   1   6
BRANCH   1   9
ATOM      9  C   UNL     1       8.890   6.506  19.712  1.00  0.00     0.047 C 
ATOM     10  C   UNL     1       9.754   7.095  18.584  1.00  0.00     0.014 C 
ATOM     11  C   UNL     1       9.509   5.197  20.225  1.00  0.00     0.014 C 
ENDBRANCH   1   9
TORSDOF 3
ENDMDL
MODEL 7
REMARK VINA RESULT:    -4.192      1.949      2.622
REMARK INTER + INTRA:          -4.874
REMARK INTER:                  -4.921
REMARK INTRA:                   0.047
REMARK UNBOUND:                -0.069
REMARK SMILES CC(C)[C@H]([NH3+])C(=O)[O-]
REMARK SMILES IDX 4 1 5 2 6 6 7 7 8 8 2 9 1 10 3 11
REMARK H PARENT 5 3 5 4 5 5
REMARK Flexibility Score: inf
ROOT
ATOM      1  C   UNL     1       9.557   5.282  18.795  1.00  0.00     0.230 C 
ENDROOT
BRANCH   1   2
ATOM      2  N   UNL     1      11.009   5.341  18.560  1.00  0.00    -0.350 N 
ATOM      3  H   UNL     1      11.291   6.301  18.259  1.00  0.00     0.345 HD
ATOM      4  H   UNL     1      11.308   4.649  17.836  1.00  0.00     0.345 HD
ATOM      5  H   UNL     1      11.515   5.127  19.451  1.00  0.00     0.345 HD
ENDBRANCH   1   2
BRANCH   1   6
ATOM      6  C   UNL     1       8.972   6.667  18.914  1.00  0.00     0.099 C 
ATOM      7  O   UNL     1       9.410   7.484  19.769  1.00  0.00    -0.544 OA
ATOM      8  O   UNL     1       7.903   7.034  18.106  1.00  0.00    -0.544 OA
ENDBRANCH   1   6
BRANCH   1   9
ATOM      9  C   UNL     1       9.174   4.408  20.028  1.00  0.00     0.047 C 
ATOM     10  C   UNL     1       7.736   4.637  20.522  1.00  0.00     0.014 C 
ATOM     11  C   UNL     1      10.167   4.585  21.186  1.00  0.00     0.014 C 
ENDBRANCH   1   9
TORSDOF 3
ENDMDL
MODEL 8
REMARK VINA RESULT:    -4.096      1.863      2.397
REMARK INTER + INTRA:          -4.764
REMARK INTER:                  -4.713
REMARK INTRA:                  -0.051
REMARK UNBOUND:                -0.069
REMARK SMILES CC(C)[C@H]([NH3+])C(=O)[O-]
REMARK SMILES IDX 4 1 5 2 6 6 7 7 8 8 2 9 1 10 3 11
REMARK H PARENT 5 3 5 4 5 5
REMARK Flexibility Score: inf
ROOT
ATOM      1  C   UNL     1       8.177   5.739  19.296  1.00  0.00     0.230 C 
ENDROOT
BRANCH   1   2
ATOM      2  N   UNL     1       7.124   6.676  19.721  1.00  0.00    -0.350 N 
ATOM      3  H   UNL     1       6.470   6.873  18.931  1.00  0.00     0.345 HD
ATOM      4  H   UNL     1       7.530   7.575  20.068  1.00  0.00     0.345 HD
ATOM      5  H   UNL     1       6.567   6.244  20.494  1.00  0.00     0.345 HD
ENDBRANCH   1   2
BRANCH   1   6
ATOM      6  C   UNL     1       7.931   5.251  17.890  1.00  0.00     0.099 C 
ATOM      7  O   UNL     1       7.067   5.803  17.155  1.00  0.00    -0.544 OA
ATOM      8  O   UNL     1       8.628   4.149  17.411  1.00  0.00    -0.544 OA
ENDBRANCH   1   6
BRANCH   1   9
ATOM      9  C   UNL     1       8.362   4.542  20.276  1.00  0.00     0.047 C 
ATOM     10  C   UNL     1       7.315   4.499  21.401  1.00  0.00     0.014 C 
ATOM     11  C   UNL     1       9.779   4.501  20.869  1.00  0.00     0.014 C 
ENDBRANCH   1   9
TORSDOF 3
ENDMDL
MODEL 9
REMARK VINA RESULT:    -4.066      2.378      3.195
REMARK INTER + INTRA:          -4.730
REMARK INTER:                  -4.689
REMARK INTRA:                  -0.041
REMARK UNBOUND:                -0.069
REMARK SMILES CC(C)[C@H]([NH3+])C(=O)[O-]
REMARK SMILES IDX 4 1 5 2 6 6 7 7 8 8 2 9 1 10 3 11
REMARK H PARENT 5 3 5 4 5 5
REMARK Flexibility Score: inf
ROOT
ATOM      1  C   UNL     1       7.845   5.163  19.416  1.00  0.00     0.230 C 
ENDROOT
BRANCH   1   2
ATOM      2  N   UNL     1       6.828   6.203  19.192  1.00  0.00    -0.350 N 
ATOM      3  H   UNL     1       6.063   5.840  18.581  1.00  0.00     0.345 HD
ATOM      4  H   UNL     1       7.244   7.058  18.757  1.00  0.00     0.345 HD
ATOM      5  H   UNL     1       6.400   6.474  20.108  1.00  0.00     0.345 HD
ENDBRANCH   1   2
BRANCH   1   6
ATOM      6  C   UNL     1       7.624   4.465  20.735  1.00  0.00     0.099 C 
ATOM      7  O   UNL     1       6.515   3.928  21.005  1.00  0.00    -0.544 OA
ATOM      8  O   UNL     1       8.635   4.453  21.686  1.00  0.00    -0.544 OA
ENDBRANCH   1   6
BRANCH   1   9
ATOM      9  C   UNL     1       9.304   5.702  19.310  1.00  0.00     0.047 C 
ATOM     10  C   UNL     1       9.404   7.080  18.635  1.00  0.00     0.014 C 
ATOM     11  C   UNL     1      10.235   4.700  18.610  1.00  0.00     0.014 C 
ENDBRANCH   1   9
TORSDOF 3
ENDMDL
