MODEL 1
REMARK VINA RESULT:    -1.303      0.000      0.000
REMARK INTER + INTRA:          -5.048
REMARK INTER:                  -3.283
REMARK INTRA:                  -1.765
REMARK UNBOUND:                -1.765
REMARK SMILES CCCCCCCCCCCCCCCCCCCCCCCCCCCC(=O)[O-]
REMARK SMILES IDX 15 1 16 2 17 3 18 4 19 5 20 6 21 7 22 8 23 9 24 10 25 11
REMARK SMILES IDX 26 12 27 13 28 14 29 15 30 16 14 17 13 18 12 19 11 20 10 21
REMARK SMILES IDX 9 22 8 23 7 24 6 25 5 26 4 27 3 28 2 29 1 30
REMARK H PARENT
REMARK Flexibility Score: inf
ROOT
ATOM      1  C   UNL     1     -22.599   3.229   9.656  1.00  0.00     0.000 C 
ENDROOT
BRANCH   1   2
ATOM      2  C   UNL     1     -21.874   4.168   8.681  1.00  0.00     0.000 C 
BRANCH   2   3
ATOM      3  C   UNL     1     -21.477   5.507   9.324  1.00  0.00     0.000 C 
BRANCH   3   4
ATOM      4  C   UNL     1     -19.999   5.916   9.145  1.00  0.00     0.000 C 
BRANCH   4   5
ATOM      5  C   UNL     1     -19.417   6.824  10.249  1.00  0.00     0.000 C 
BRANCH   5   6
ATOM      6  C   UNL     1     -17.880   6.973  10.211  1.00  0.00     0.000 C 
BRANCH   6   7
ATOM      7  C   UNL     1     -17.400   8.423  10.032  1.00  0.00     0.000 C 
BRANCH   7   8
ATOM      8  C   UNL     1     -15.916   8.609  10.397  1.00  0.00     0.000 C 
BRANCH   8   9
ATOM      9  C   UNL     1     -15.344   9.946   9.880  1.00  0.00     0.000 C 
BRANCH   9  10
ATOM     10  C   UNL     1     -14.670  10.797  10.970  1.00  0.00     0.000 C 
BRANCH  10  11
ATOM     11  C   UNL     1     -15.127  10.422  12.389  1.00  0.00     0.000 C 
BRANCH  11  12
ATOM     12  C   UNL     1     -13.951  10.296  13.376  1.00  0.00     0.006 C 
BRANCH  12  13
ATOM     13  C   UNL     1     -12.642  10.935  12.880  1.00  0.00     0.053 C 
BRANCH  13  14
ATOM     14  C   UNL     1     -11.446  10.407  13.612  1.00  0.00     0.041 C 
ATOM     15  O   UNL     1     -11.554  10.012  14.803  1.00  0.00    -0.550 OA
ATOM     16  O   UNL     1     -10.208  10.375  12.986  1.00  0.00    -0.550 OA
ENDBRANCH  13  14
ENDBRANCH  12  13
ENDBRANCH  11  12
ENDBRANCH  10  11
ENDBRANCH   9  10
ENDBRANCH   8   9
ENDBRANCH   7   8
ENDBRANCH   6   7
ENDBRANCH   5   6
ENDBRANCH   4   5
ENDBRANCH   3   4
ENDBRANCH   2   3
ENDBRANCH   1   2
BRANCH   1  17
ATOM     17  C   UNL     1     -21.851   1.898   9.789  1.00  0.00     0.000 C 
BRANCH  17  18
ATOM     18  C   UNL     1     -21.053   1.838  11.100  1.00  0.00     0.000 C 
BRANCH  18  19
ATOM     19  C   UNL     1     -21.754   1.010  12.193  1.00  0.00     0.000 C 
BRANCH  19  20
ATOM     20  C   UNL     1     -21.145   1.148  13.600  1.00  0.00     0.000 C 
BRANCH  20  21
ATOM     21  C   UNL     1     -20.429  -0.129  14.069  1.00  0.00     0.000 C 
BRANCH  21  22
ATOM     22  C   UNL     1     -21.241  -1.405  13.792  1.00  0.00    -0.000 C 
BRANCH  22  23
ATOM     23  C   UNL     1     -20.794  -2.155  12.521  1.00  0.00    -0.000 C 
BRANCH  23  24
ATOM     24  C   UNL     1     -19.453  -1.638  11.978  1.00  0.00    -0.000 C 
BRANCH  24  25
ATOM     25  C   UNL     1     -19.160  -2.219  10.590  1.00  0.00    -0.000 C 
BRANCH  25  26
ATOM     26  C   UNL     1     -20.371  -2.056   9.658  1.00  0.00    -0.000 C 
BRANCH  26  27
ATOM     27  C   UNL     1     -19.971  -1.975   8.175  1.00  0.00    -0.000 C 
BRANCH  27  28
ATOM     28  C   UNL     1     -20.728  -0.870   7.415  1.00  0.00    -0.000 C 
BRANCH  28  29
ATOM     29  C   UNL     1     -19.779   0.153   6.771  1.00  0.00    -0.003 C 
ATOM     30  C   UNL     1     -20.221   1.597   7.007  1.00  0.00     0.004 C 
ENDBRANCH  28  29
ENDBRANCH  27  28
ENDBRANCH  26  27
ENDBRANCH  25  26
ENDBRANCH  24  25
ENDBRANCH  23  24
ENDBRANCH  22  23
ENDBRANCH  21  22
ENDBRANCH  20  21
ENDBRANCH  19  20
ENDBRANCH  18  19
ENDBRANCH  17  18
ENDBRANCH   1  17
TORSDOF 26
ENDMDL
MODEL 2
REMARK VINA RESULT:    -1.178      0.656      3.563
REMARK INTER + INTRA:          -4.733
REMARK INTER:                  -3.485
REMARK INTRA:                  -1.248
REMARK UNBOUND:                -1.765
REMARK SMILES CCCCCCCCCCCCCCCCCCCCCCCCCCCC(=O)[O-]
REMARK SMILES IDX 15 1 16 2 17 3 18 4 19 5 20 6 21 7 22 8 23 9 24 10 25 11
REMARK SMILES IDX 26 12 27 13 28 14 29 15 30 16 14 17 13 18 12 19 11 20 10 21
REMARK SMILES IDX 9 22 8 23 7 24 6 25 5 26 4 27 3 28 2 29 1 30
REMARK H PARENT
REMARK Flexibility Score: inf
ROOT
ATOM      1  C   UNL     1     -22.352   3.151   9.592  1.00  0.00     0.000 C 
ENDROOT
BRANCH   1   2
ATOM      2  C   UNL     1     -21.877   4.190   8.565  1.00  0.00     0.000 C 
BRANCH   2   3
ATOM      3  C   UNL     1     -21.512   5.539   9.206  1.00  0.00     0.000 C 
BRANCH   3   4
ATOM      4  C   UNL     1     -20.022   5.935   9.114  1.00  0.00     0.000 C 
BRANCH   4   5
ATOM      5  C   UNL     1     -19.483   6.792  10.279  1.00  0.00     0.000 C 
BRANCH   5   6
ATOM      6  C   UNL     1     -17.954   6.711  10.479  1.00  0.00     0.000 C 
BRANCH   6   7
ATOM      7  C   UNL     1     -17.158   7.684   9.592  1.00  0.00     0.000 C 
BRANCH   7   8
ATOM      8  C   UNL     1     -15.894   8.224  10.285  1.00  0.00     0.000 C 
BRANCH   8   9
ATOM      9  C   UNL     1     -15.664   9.725  10.007  1.00  0.00     0.000 C 
BRANCH   9  10
ATOM     10  C   UNL     1     -14.717  10.405  11.010  1.00  0.00     0.000 C 
BRANCH  10  11
ATOM     11  C   UNL     1     -15.071  10.092  12.473  1.00  0.00     0.000 C 
BRANCH  11  12
ATOM     12  C   UNL     1     -14.137  10.802  13.473  1.00  0.00     0.006 C 
BRANCH  12  13
ATOM     13  C   UNL     1     -12.725  11.078  12.928  1.00  0.00     0.053 C 
BRANCH  13  14
ATOM     14  C   UNL     1     -11.658  10.598  13.864  1.00  0.00     0.041 C 
ATOM     15  O   UNL     1     -11.910  10.440  15.087  1.00  0.00    -0.550 OA
ATOM     16  O   UNL     1     -10.378  10.351  13.388  1.00  0.00    -0.550 OA
ENDBRANCH  13  14
ENDBRANCH  12  13
ENDBRANCH  11  12
ENDBRANCH  10  11
ENDBRANCH   9  10
ENDBRANCH   8   9
ENDBRANCH   7   8
ENDBRANCH   6   7
ENDBRANCH   5   6
ENDBRANCH   4   5
ENDBRANCH   3   4
ENDBRANCH   2   3
ENDBRANCH   1   2
BRANCH   1  17
ATOM     17  C   UNL     1     -21.227   2.168   9.933  1.00  0.00     0.000 C 
BRANCH  17  18
ATOM     18  C   UNL     1     -21.132   1.049   8.884  1.00  0.00     0.000 C 
BRANCH  18  19
ATOM     19  C   UNL     1     -20.270   1.436   7.668  1.00  0.00     0.000 C 
BRANCH  19  20
ATOM     20  C   UNL     1     -20.380   0.481   6.466  1.00  0.00     0.000 C 
BRANCH  20  21
ATOM     21  C   UNL     1     -20.823  -0.936   6.867  1.00  0.00     0.000 C 
BRANCH  21  22
ATOM     22  C   UNL     1     -19.666  -1.792   7.408  1.00  0.00    -0.000 C 
BRANCH  22  23
ATOM     23  C   UNL     1     -20.024  -2.571   8.691  1.00  0.00    -0.000 C 
BRANCH  23  24
ATOM     24  C   UNL     1     -20.030  -1.672   9.937  1.00  0.00    -0.000 C 
BRANCH  24  25
ATOM     25  C   UNL     1     -20.074  -2.512  11.220  1.00  0.00    -0.000 C 
BRANCH  25  26
ATOM     26  C   UNL     1     -20.048  -1.613  12.466  1.00  0.00    -0.000 C 
BRANCH  26  27
ATOM     27  C   UNL     1     -21.220  -1.891  13.422  1.00  0.00    -0.000 C 
BRANCH  27  28
ATOM     28  C   UNL     1     -21.610  -0.658  14.258  1.00  0.00    -0.000 C 
BRANCH  28  29
ATOM     29  C   UNL     1     -20.599   0.491  14.112  1.00  0.00    -0.003 C 
ATOM     30  C   UNL     1     -21.148   1.658  13.292  1.00  0.00     0.004 C 
ENDBRANCH  28  29
ENDBRANCH  27  28
ENDBRANCH  26  27
ENDBRANCH  25  26
ENDBRANCH  24  25
ENDBRANCH  23  24
ENDBRANCH  22  23
ENDBRANCH  21  22
ENDBRANCH  20  21
ENDBRANCH  19  20
ENDBRANCH  18  19
ENDBRANCH  17  18
ENDBRANCH   1  17
TORSDOF 26
ENDMDL
MODEL 3
REMARK VINA RESULT:    -0.776      3.401     10.953
REMARK INTER + INTRA:          -3.720
REMARK INTER:                  -2.051
REMARK INTRA:                  -1.669
REMARK UNBOUND:                -1.765
REMARK SMILES CCCCCCCCCCCCCCCCCCCCCCCCCCCC(=O)[O-]
REMARK SMILES IDX 15 1 16 2 17 3 18 4 19 5 20 6 21 7 22 8 23 9 24 10 25 11
REMARK SMILES IDX 26 12 27 13 28 14 29 15 30 16 14 17 13 18 12 19 11 20 10 21
REMARK SMILES IDX 9 22 8 23 7 24 6 25 5 26 4 27 3 28 2 29 1 30
REMARK H PARENT
REMARK Flexibility Score: inf
ROOT
ATOM      1  C   UNL     1     -21.533   2.007   8.718  1.00  0.00     0.000 C 
ENDROOT
BRANCH   1   2
ATOM      2  C   UNL     1     -20.723   2.206   7.428  1.00  0.00     0.000 C 
BRANCH   2   3
ATOM      3  C   UNL     1     -20.749   0.972   6.511  1.00  0.00     0.000 C 
BRANCH   3   4
ATOM      4  C   UNL     1     -19.775  -0.162   6.898  1.00  0.00     0.000 C 
BRANCH   4   5
ATOM      5  C   UNL     1     -20.427  -1.522   7.225  1.00  0.00     0.000 C 
BRANCH   5   6
ATOM      6  C   UNL     1     -19.826  -2.242   8.452  1.00  0.00     0.000 C 
BRANCH   6   7
ATOM      7  C   UNL     1     -20.017  -1.480   9.775  1.00  0.00     0.000 C 
BRANCH   7   8
ATOM      8  C   UNL     1     -20.621  -2.357  10.886  1.00  0.00     0.000 C 
BRANCH   8   9
ATOM      9  C   UNL     1     -20.107  -1.970  12.289  1.00  0.00     0.000 C 
BRANCH   9  10
ATOM     10  C   UNL     1     -20.945  -2.550  13.440  1.00  0.00     0.000 C 
BRANCH  10  11
ATOM     11  C   UNL     1     -21.436  -1.475  14.423  1.00  0.00     0.000 C 
BRANCH  11  12
ATOM     12  C   UNL     1     -20.569  -0.201  14.390  1.00  0.00     0.006 C 
BRANCH  12  13
ATOM     13  C   UNL     1     -21.362   1.093  14.138  1.00  0.00     0.053 C 
BRANCH  13  14
ATOM     14  C   UNL     1     -21.184   1.598  12.739  1.00  0.00     0.041 C 
ATOM     15  O   UNL     1     -21.724   0.996  11.773  1.00  0.00    -0.550 OA
ATOM     16  O   UNL     1     -20.401   2.718  12.500  1.00  0.00    -0.550 OA
ENDBRANCH  13  14
ENDBRANCH  12  13
ENDBRANCH  11  12
ENDBRANCH  10  11
ENDBRANCH   9  10
ENDBRANCH   8   9
ENDBRANCH   7   8
ENDBRANCH   6   7
ENDBRANCH   5   6
ENDBRANCH   4   5
ENDBRANCH   3   4
ENDBRANCH   2   3
ENDBRANCH   1   2
BRANCH   1  17
ATOM     17  C   UNL     1     -21.579   3.302   9.537  1.00  0.00     0.000 C 
BRANCH  17  18
ATOM     18  C   UNL     1     -21.906   4.510   8.646  1.00  0.00     0.000 C 
BRANCH  18  19
ATOM     19  C   UNL     1     -21.385   5.840   9.222  1.00  0.00     0.000 C 
BRANCH  19  20
ATOM     20  C   UNL     1     -19.864   6.045   9.106  1.00  0.00     0.000 C 
BRANCH  20  21
ATOM     21  C   UNL     1     -19.268   6.794  10.308  1.00  0.00     0.000 C 
BRANCH  21  22
ATOM     22  C   UNL     1     -17.751   7.015  10.181  1.00  0.00    -0.000 C 
BRANCH  22  23
ATOM     23  C   UNL     1     -17.335   8.498  10.269  1.00  0.00    -0.000 C 
BRANCH  23  24
ATOM     24  C   UNL     1     -16.147   8.827   9.353  1.00  0.00    -0.000 C 
BRANCH  24  25
ATOM     25  C   UNL     1     -15.140   9.738  10.064  1.00  0.00    -0.000 C 
BRANCH  25  26
ATOM     26  C   UNL     1     -15.513   9.922  11.544  1.00  0.00    -0.000 C 
BRANCH  26  27
ATOM     27  C   UNL     1     -14.471  10.745  12.320  1.00  0.00    -0.000 C 
BRANCH  27  28
ATOM     28  C   UNL     1     -14.055  10.078  13.644  1.00  0.00    -0.000 C 
BRANCH  28  29
ATOM     29  C   UNL     1     -12.632  10.469  14.075  1.00  0.00    -0.003 C 
ATOM     30  C   UNL     1     -11.800  11.031  12.922  1.00  0.00     0.004 C 
ENDBRANCH  28  29
ENDBRANCH  27  28
ENDBRANCH  26  27
ENDBRANCH  25  26
ENDBRANCH  24  25
ENDBRANCH  23  24
ENDBRANCH  22  23
ENDBRANCH  21  22
ENDBRANCH  20  21
ENDBRANCH  19  20
ENDBRANCH  18  19
ENDBRANCH  17  18
ENDBRANCH   1  17
TORSDOF 26
ENDMDL
MODEL 4
REMARK VINA RESULT:    -0.521      0.973      1.844
REMARK INTER + INTRA:          -3.078
REMARK INTER:                  -1.503
REMARK INTRA:                  -1.574
REMARK UNBOUND:                -1.765
REMARK SMILES CCCCCCCCCCCCCCCCCCCCCCCCCCCC(=O)[O-]
REMARK SMILES IDX 15 1 16 2 17 3 18 4 19 5 20 6 21 7 22 8 23 9 24 10 25 11
REMARK SMILES IDX 26 12 27 13 28 14 29 15 30 16 14 17 13 18 12 19 11 20 10 21
REMARK SMILES IDX 9 22 8 23 7 24 6 25 5 26 4 27 3 28 2 29 1 30
REMARK H PARENT
REMARK Flexibility Score: inf
ROOT
ATOM      1  C   UNL     1     -22.263   1.712  10.145  1.00  0.00     0.000 C 
ENDROOT
BRANCH   1   2
ATOM      2  C   UNL     1     -21.337   2.908   9.879  1.00  0.00     0.000 C 
BRANCH   2   3
ATOM      3  C   UNL     1     -21.879   3.853   8.794  1.00  0.00     0.000 C 
BRANCH   3   4
ATOM      4  C   UNL     1     -21.797   5.359   9.126  1.00  0.00     0.000 C 
BRANCH   4   5
ATOM      5  C   UNL     1     -20.380   5.970   9.117  1.00  0.00     0.000 C 
BRANCH   5   6
ATOM      6  C   UNL     1     -19.745   6.138  10.515  1.00  0.00     0.000 C 
BRANCH   6   7
ATOM      7  C   UNL     1     -18.317   6.707  10.485  1.00  0.00     0.000 C 
BRANCH   7   8
ATOM      8  C   UNL     1     -18.224   8.044   9.730  1.00  0.00     0.000 C 
BRANCH   8   9
ATOM      9  C   UNL     1     -17.190   9.005  10.355  1.00  0.00     0.000 C 
BRANCH   9  10
ATOM     10  C   UNL     1     -15.743   8.742   9.904  1.00  0.00     0.000 C 
BRANCH  10  11
ATOM     11  C   UNL     1     -14.959  10.035   9.627  1.00  0.00     0.000 C 
BRANCH  11  12
ATOM     12  C   UNL     1     -14.792  10.908  10.886  1.00  0.00     0.006 C 
BRANCH  12  13
ATOM     13  C   UNL     1     -13.378  10.876  11.490  1.00  0.00     0.053 C 
BRANCH  13  14
ATOM     14  C   UNL     1     -13.407  10.864  12.988  1.00  0.00     0.041 C 
ATOM     15  O   UNL     1     -12.336  10.773  13.643  1.00  0.00    -0.550 OA
ATOM     16  O   UNL     1     -14.620  10.929  13.659  1.00  0.00    -0.550 OA
ENDBRANCH  13  14
ENDBRANCH  12  13
ENDBRANCH  11  12
ENDBRANCH  10  11
ENDBRANCH   9  10
ENDBRANCH   8   9
ENDBRANCH   7   8
ENDBRANCH   6   7
ENDBRANCH   5   6
ENDBRANCH   4   5
ENDBRANCH   3   4
ENDBRANCH   2   3
ENDBRANCH   1   2
BRANCH   1  17
ATOM     17  C   UNL     1     -22.309   1.381  11.642  1.00  0.00     0.000 C 
BRANCH  17  18
ATOM     18  C   UNL     1     -21.002   1.787  12.339  1.00  0.00     0.000 C 
BRANCH  18  19
ATOM     19  C   UNL     1     -21.079   1.671  13.873  1.00  0.00     0.000 C 
BRANCH  19  20
ATOM     20  C   UNL     1     -20.604   0.323  14.444  1.00  0.00     0.000 C 
BRANCH  20  21
ATOM     21  C   UNL     1     -21.639  -0.800  14.265  1.00  0.00     0.000 C 
BRANCH  21  22
ATOM     22  C   UNL     1     -21.001  -2.139  13.856  1.00  0.00    -0.000 C 
BRANCH  22  23
ATOM     23  C   UNL     1     -20.961  -2.360  12.330  1.00  0.00    -0.000 C 
BRANCH  23  24
ATOM     24  C   UNL     1     -19.860  -1.532  11.648  1.00  0.00    -0.000 C 
BRANCH  24  25
ATOM     25  C   UNL     1     -19.482  -2.134  10.289  1.00  0.00    -0.000 C 
BRANCH  25  26
ATOM     26  C   UNL     1     -19.919  -1.213   9.139  1.00  0.00    -0.000 C 
BRANCH  26  27
ATOM     27  C   UNL     1     -20.374  -1.994   7.895  1.00  0.00    -0.000 C 
BRANCH  27  28
ATOM     28  C   UNL     1     -20.731  -1.072   6.714  1.00  0.00    -0.000 C 
BRANCH  28  29
ATOM     29  C   UNL     1     -19.701   0.052   6.517  1.00  0.00    -0.003 C 
ATOM     30  C   UNL     1     -20.083   1.337   7.252  1.00  0.00     0.004 C 
ENDBRANCH  28  29
ENDBRANCH  27  28
ENDBRANCH  26  27
ENDBRANCH  25  26
ENDBRANCH  24  25
ENDBRANCH  23  24
ENDBRANCH  22  23
ENDBRANCH  21  22
ENDBRANCH  20  21
ENDBRANCH  19  20
ENDBRANCH  18  19
ENDBRANCH  17  18
ENDBRANCH   1  17
TORSDOF 26
ENDMDL
MODEL 5
REMARK VINA RESULT:    -0.438      3.440     11.381
REMARK INTER + INTRA:          -2.869
REMARK INTER:                  -2.045
REMARK INTRA:                  -0.824
REMARK UNBOUND:                -1.765
REMARK SMILES CCCCCCCCCCCCCCCCCCCCCCCCCCCC(=O)[O-]
REMARK SMILES IDX 15 1 16 2 17 3 18 4 19 5 20 6 21 7 22 8 23 9 24 10 25 11
REMARK SMILES IDX 26 12 27 13 28 14 29 15 30 16 14 17 13 18 12 19 11 20 10 21
REMARK SMILES IDX 9 22 8 23 7 24 6 25 5 26 4 27 3 28 2 29 1 30
REMARK H PARENT
REMARK Flexibility Score: inf
ROOT
ATOM      1  C   UNL     1     -21.211   3.846   9.515  1.00  0.00     0.000 C 
ENDROOT
BRANCH   1   2
ATOM      2  C   UNL     1     -21.593   2.898   8.369  1.00  0.00     0.000 C 
BRANCH   2   3
ATOM      3  C   UNL     1     -20.789   1.587   8.386  1.00  0.00     0.000 C 
BRANCH   3   4
ATOM      4  C   UNL     1     -20.014   1.269   7.089  1.00  0.00     0.000 C 
BRANCH   4   5
ATOM      5  C   UNL     1     -20.456  -0.006   6.340  1.00  0.00     0.000 C 
BRANCH   5   6
ATOM      6  C   UNL     1     -20.679  -1.237   7.247  1.00  0.00     0.000 C 
BRANCH   6   7
ATOM      7  C   UNL     1     -19.549  -1.473   8.263  1.00  0.00     0.000 C 
BRANCH   7   8
ATOM      8  C   UNL     1     -19.727  -2.778   9.059  1.00  0.00     0.000 C 
BRANCH   8   9
ATOM      9  C   UNL     1     -19.394  -2.607  10.557  1.00  0.00     0.000 C 
BRANCH   9  10
ATOM     10  C   UNL     1     -20.436  -1.785  11.335  1.00  0.00     0.000 C 
BRANCH  10  11
ATOM     11  C   UNL     1     -20.340  -1.984  12.856  1.00  0.00     0.000 C 
BRANCH  11  12
ATOM     12  C   UNL     1     -21.404  -1.179  13.627  1.00  0.00     0.006 C 
BRANCH  12  13
ATOM     13  C   UNL     1     -20.896   0.158  14.192  1.00  0.00     0.053 C 
BRANCH  13  14
ATOM     14  C   UNL     1     -21.030   1.274  13.201  1.00  0.00     0.041 C 
ATOM     15  O   UNL     1     -20.730   2.452  13.528  1.00  0.00    -0.550 OA
ATOM     16  O   UNL     1     -21.511   1.015  11.926  1.00  0.00    -0.550 OA
ENDBRANCH  13  14
ENDBRANCH  12  13
ENDBRANCH  11  12
ENDBRANCH  10  11
ENDBRANCH   9  10
ENDBRANCH   8   9
ENDBRANCH   7   8
ENDBRANCH   6   7
ENDBRANCH   5   6
ENDBRANCH   4   5
ENDBRANCH   3   4
ENDBRANCH   2   3
ENDBRANCH   1   2
BRANCH   1  17
ATOM     17  C   UNL     1     -21.685   5.274   9.221  1.00  0.00     0.000 C 
BRANCH  17  18
ATOM     18  C   UNL     1     -20.493   6.226   9.034  1.00  0.00     0.000 C 
BRANCH  18  19
ATOM     19  C   UNL     1     -19.556   6.261  10.255  1.00  0.00     0.000 C 
BRANCH  19  20
ATOM     20  C   UNL     1     -18.582   7.453  10.289  1.00  0.00     0.000 C 
BRANCH  20  21
ATOM     21  C   UNL     1     -17.143   7.059   9.919  1.00  0.00     0.000 C 
BRANCH  21  22
ATOM     22  C   UNL     1     -16.089   7.967  10.576  1.00  0.00    -0.000 C 
BRANCH  22  23
ATOM     23  C   UNL     1     -16.167   9.436  10.114  1.00  0.00    -0.000 C 
BRANCH  23  24
ATOM     24  C   UNL     1     -14.918  10.240  10.508  1.00  0.00    -0.000 C 
BRANCH  24  25
ATOM     25  C   UNL     1     -15.092  10.883  11.889  1.00  0.00    -0.000 C 
BRANCH  25  26
ATOM     26  C   UNL     1     -14.065  10.326  12.888  1.00  0.00    -0.000 C 
BRANCH  26  27
ATOM     27  C   UNL     1     -12.751  11.125  12.895  1.00  0.00    -0.000 C 
BRANCH  27  28
ATOM     28  C   UNL     1     -11.891  10.863  11.645  1.00  0.00    -0.000 C 
BRANCH  28  29
ATOM     29  C   UNL     1     -10.385  10.919  11.949  1.00  0.00    -0.003 C 
ATOM     30  C   UNL     1     -10.048  10.428  13.356  1.00  0.00     0.004 C 
ENDBRANCH  28  29
ENDBRANCH  27  28
ENDBRANCH  26  27
ENDBRANCH  25  26
ENDBRANCH  24  25
ENDBRANCH  23  24
ENDBRANCH  22  23
ENDBRANCH  21  22
ENDBRANCH  20  21
ENDBRANCH  19  20
ENDBRANCH  18  19
ENDBRANCH  17  18
ENDBRANCH   1  17
TORSDOF 26
ENDMDL
MODEL 6
REMARK VINA RESULT:    -0.345      0.976      3.829
REMARK INTER + INTRA:          -2.633
REMARK INTER:                  -0.312
REMARK INTRA:                  -2.321
REMARK UNBOUND:                -1.765
REMARK SMILES CCCCCCCCCCCCCCCCCCCCCCCCCCCC(=O)[O-]
REMARK SMILES IDX 15 1 16 2 17 3 18 4 19 5 20 6 21 7 22 8 23 9 24 10 25 11
REMARK SMILES IDX 26 12 27 13 28 14 29 15 30 16 14 17 13 18 12 19 11 20 10 21
REMARK SMILES IDX 9 22 8 23 7 24 6 25 5 26 4 27 3 28 2 29 1 30
REMARK H PARENT
REMARK Flexibility Score: inf
ROOT
ATOM      1  C   UNL     1     -19.903   1.071   7.329  1.00  0.00     0.000 C 
ENDROOT
BRANCH   1   2
ATOM      2  C   UNL     1     -21.118   1.859   7.839  1.00  0.00     0.000 C 
BRANCH   2   3
ATOM      3  C   UNL     1     -20.770   3.305   8.231  1.00  0.00     0.000 C 
BRANCH   3   4
ATOM      4  C   UNL     1     -21.854   4.052   9.038  1.00  0.00     0.000 C 
BRANCH   4   5
ATOM      5  C   UNL     1     -21.608   5.561   9.253  1.00  0.00     0.000 C 
BRANCH   5   6
ATOM      6  C   UNL     1     -20.349   5.893  10.083  1.00  0.00     0.000 C 
BRANCH   6   7
ATOM      7  C   UNL     1     -19.311   6.740   9.327  1.00  0.00     0.000 C 
BRANCH   7   8
ATOM      8  C   UNL     1     -18.126   7.161  10.214  1.00  0.00     0.000 C 
BRANCH   8   9
ATOM      9  C   UNL     1     -17.515   8.511   9.781  1.00  0.00     0.000 C 
BRANCH   9  10
ATOM     10  C   UNL     1     -16.022   8.656  10.123  1.00  0.00     0.000 C 
BRANCH  10  11
ATOM     11  C   UNL     1     -15.771   9.583  11.323  1.00  0.00     0.000 C 
BRANCH  11  12
ATOM     12  C   UNL     1     -14.617  10.574  11.074  1.00  0.00     0.006 C 
BRANCH  12  13
ATOM     13  C   UNL     1     -13.933  11.078  12.357  1.00  0.00     0.053 C 
BRANCH  13  14
ATOM     14  C   UNL     1     -12.440  11.002  12.265  1.00  0.00     0.041 C 
ATOM     15  O   UNL     1     -11.740  10.964  13.311  1.00  0.00    -0.550 OA
ATOM     16  O   UNL     1     -11.821  10.999  11.023  1.00  0.00    -0.550 OA
ENDBRANCH  13  14
ENDBRANCH  12  13
ENDBRANCH  11  12
ENDBRANCH  10  11
ENDBRANCH   9  10
ENDBRANCH   8   9
ENDBRANCH   7   8
ENDBRANCH   6   7
ENDBRANCH   5   6
ENDBRANCH   4   5
ENDBRANCH   3   4
ENDBRANCH   2   3
ENDBRANCH   1   2
BRANCH   1  17
ATOM     17  C   UNL     1     -20.349  -0.157   6.525  1.00  0.00     0.000 C 
BRANCH  17  18
ATOM     18  C   UNL     1     -20.674  -1.338   7.452  1.00  0.00     0.000 C 
BRANCH  18  19
ATOM     19  C   UNL     1     -19.490  -2.308   7.625  1.00  0.00     0.000 C 
BRANCH  19  20
ATOM     20  C   UNL     1     -19.666  -3.351   8.742  1.00  0.00     0.000 C 
BRANCH  20  21
ATOM     21  C   UNL     1     -20.397  -2.791   9.974  1.00  0.00     0.000 C 
BRANCH  21  22
ATOM     22  C   UNL     1     -19.625  -1.650  10.657  1.00  0.00    -0.000 C 
BRANCH  22  23
ATOM     23  C   UNL     1     -19.703  -1.690  12.197  1.00  0.00    -0.000 C 
BRANCH  23  24
ATOM     24  C   UNL     1     -21.080  -2.147  12.701  1.00  0.00    -0.000 C 
BRANCH  24  25
ATOM     25  C   UNL     1     -21.325  -1.674  14.139  1.00  0.00    -0.000 C 
BRANCH  25  26
ATOM     26  C   UNL     1     -20.730  -0.275  14.367  1.00  0.00    -0.000 C 
BRANCH  26  27
ATOM     27  C   UNL     1     -21.599   0.843  13.768  1.00  0.00    -0.000 C 
BRANCH  27  28
ATOM     28  C   UNL     1     -20.768   1.911  13.034  1.00  0.00    -0.000 C 
BRANCH  28  29
ATOM     29  C   UNL     1     -20.921   1.825  11.507  1.00  0.00    -0.003 C 
ATOM     30  C   UNL     1     -22.206   1.115  11.082  1.00  0.00     0.004 C 
ENDBRANCH  28  29
ENDBRANCH  27  28
ENDBRANCH  26  27
ENDBRANCH  25  26
ENDBRANCH  24  25
ENDBRANCH  23  24
ENDBRANCH  22  23
ENDBRANCH  21  22
ENDBRANCH  20  21
ENDBRANCH  19  20
ENDBRANCH  18  19
ENDBRANCH  17  18
ENDBRANCH   1  17
TORSDOF 26
ENDMDL
MODEL 7
REMARK VINA RESULT:    -0.162      6.897     10.191
REMARK INTER + INTRA:          -2.174
REMARK INTER:                  -0.673
REMARK INTRA:                  -1.501
REMARK UNBOUND:                -1.765
REMARK SMILES CCCCCCCCCCCCCCCCCCCCCCCCCCCC(=O)[O-]
REMARK SMILES IDX 15 1 16 2 17 3 18 4 19 5 20 6 21 7 22 8 23 9 24 10 25 11
REMARK SMILES IDX 26 12 27 13 28 14 29 15 30 16 14 17 13 18 12 19 11 20 10 21
REMARK SMILES IDX 9 22 8 23 7 24 6 25 5 26 4 27 3 28 2 29 1 30
REMARK H PARENT
REMARK Flexibility Score: inf
ROOT
ATOM      1  C   UNL     1     -19.652  -3.397   9.595  1.00  0.00     0.000 C 
ENDROOT
BRANCH   1   2
ATOM      2  C   UNL     1     -19.975  -2.002   9.042  1.00  0.00     0.000 C 
BRANCH   2   3
ATOM      3  C   UNL     1     -19.996  -1.959   7.505  1.00  0.00     0.000 C 
BRANCH   3   4
ATOM      4  C   UNL     1     -20.677  -0.719   6.886  1.00  0.00     0.000 C 
BRANCH   4   5
ATOM      5  C   UNL     1     -19.964   0.628   7.129  1.00  0.00     0.000 C 
BRANCH   5   6
ATOM      6  C   UNL     1     -20.910   1.846   7.220  1.00  0.00     0.000 C 
BRANCH   6   7
ATOM      7  C   UNL     1     -21.042   2.426   8.638  1.00  0.00     0.000 C 
BRANCH   7   8
ATOM      8  C   UNL     1     -20.902   1.357   9.736  1.00  0.00     0.000 C 
BRANCH   8   9
ATOM      9  C   UNL     1     -21.797   1.645  10.960  1.00  0.00     0.000 C 
BRANCH   9  10
ATOM     10  C   UNL     1     -21.012   1.874  12.263  1.00  0.00     0.000 C 
BRANCH  10  11
ATOM     11  C   UNL     1     -21.653   1.180  13.476  1.00  0.00     0.000 C 
BRANCH  11  12
ATOM     12  C   UNL     1     -20.691   0.197  14.171  1.00  0.00     0.006 C 
BRANCH  12  13
ATOM     13  C   UNL     1     -21.220  -1.245  14.258  1.00  0.00     0.053 C 
BRANCH  13  14
ATOM     14  C   UNL     1     -20.900  -2.037  13.027  1.00  0.00     0.041 C 
ATOM     15  O   UNL     1     -21.371  -3.194  12.876  1.00  0.00    -0.550 OA
ATOM     16  O   UNL     1     -20.060  -1.504  12.060  1.00  0.00    -0.550 OA
ENDBRANCH  13  14
ENDBRANCH  12  13
ENDBRANCH  11  12
ENDBRANCH  10  11
ENDBRANCH   9  10
ENDBRANCH   8   9
ENDBRANCH   7   8
ENDBRANCH   6   7
ENDBRANCH   5   6
ENDBRANCH   4   5
ENDBRANCH   3   4
ENDBRANCH   2   3
ENDBRANCH   1   2
BRANCH   1  17
ATOM     17  C   UNL     1     -19.047  -4.289   8.504  1.00  0.00     0.000 C 
BRANCH  17  18
ATOM     18  C   UNL     1     -19.421  -5.763   8.723  1.00  0.00     0.000 C 
BRANCH  18  19
ATOM     19  C   UNL     1     -20.770  -6.142   8.085  1.00  0.00     0.000 C 
BRANCH  19  20
ATOM     20  C   UNL     1     -21.906  -6.414   9.087  1.00  0.00     0.000 C 
BRANCH  20  21
ATOM     21  C   UNL     1     -22.597  -7.768   8.854  1.00  0.00     0.000 C 
BRANCH  21  22
ATOM     22  C   UNL     1     -23.991  -7.624   8.221  1.00  0.00    -0.000 C 
BRANCH  22  23
ATOM     23  C   UNL     1     -24.750  -8.962   8.093  1.00  0.00    -0.000 C 
BRANCH  23  24
ATOM     24  C   UNL     1     -25.977  -9.028   9.015  1.00  0.00    -0.000 C 
BRANCH  24  25
ATOM     25  C   UNL     1     -26.009  -7.832   9.974  1.00  0.00    -0.000 C 
BRANCH  25  26
ATOM     26  C   UNL     1     -27.047  -8.047  11.087  1.00  0.00    -0.000 C 
BRANCH  26  27
ATOM     27  C   UNL     1     -26.964  -6.978  12.189  1.00  0.00    -0.000 C 
BRANCH  27  28
ATOM     28  C   UNL     1     -28.106  -5.949  12.105  1.00  0.00    -0.000 C 
BRANCH  28  29
ATOM     29  C   UNL     1     -27.708  -4.696  11.308  1.00  0.00    -0.003 C 
ATOM     30  C   UNL     1     -28.791  -3.617  11.326  1.00  0.00     0.004 C 
ENDBRANCH  28  29
ENDBRANCH  27  28
ENDBRANCH  26  27
ENDBRANCH  25  26
ENDBRANCH  24  25
ENDBRANCH  23  24
ENDBRANCH  22  23
ENDBRANCH  21  22
ENDBRANCH  20  21
ENDBRANCH  19  20
ENDBRANCH  18  19
ENDBRANCH  17  18
ENDBRANCH   1  17
TORSDOF 26
ENDMDL
MODEL 8
REMARK VINA RESULT:    -0.003      5.460     12.747
REMARK INTER + INTRA:          -1.772
REMARK INTER:                  -0.568
REMARK INTRA:                  -1.204
REMARK UNBOUND:                -1.765
REMARK SMILES CCCCCCCCCCCCCCCCCCCCCCCCCCCC(=O)[O-]
REMARK SMILES IDX 15 1 16 2 17 3 18 4 19 5 20 6 21 7 22 8 23 9 24 10 25 11
REMARK SMILES IDX 26 12 27 13 28 14 29 15 30 16 14 17 13 18 12 19 11 20 10 21
REMARK SMILES IDX 9 22 8 23 7 24 6 25 5 26 4 27 3 28 2 29 1 30
REMARK H PARENT
REMARK Flexibility Score: inf
ROOT
ATOM      1  C   UNL     1     -22.310   3.948   9.292  1.00  0.00     0.000 C 
ENDROOT
BRANCH   1   2
ATOM      2  C   UNL     1     -21.291   2.819   9.080  1.00  0.00     0.000 C 
BRANCH   2   3
ATOM      3  C   UNL     1     -20.991   2.557   7.594  1.00  0.00     0.000 C 
BRANCH   3   4
ATOM      4  C   UNL     1     -19.945   1.456   7.314  1.00  0.00     0.000 C 
BRANCH   4   5
ATOM      5  C   UNL     1     -20.513   0.070   6.945  1.00  0.00     0.000 C 
BRANCH   5   6
ATOM      6  C   UNL     1     -20.654  -0.902   8.137  1.00  0.00     0.000 C 
BRANCH   6   7
ATOM      7  C   UNL     1     -20.436  -0.241   9.508  1.00  0.00     0.000 C 
BRANCH   7   8
ATOM      8  C   UNL     1     -20.300  -1.265  10.649  1.00  0.00     0.000 C 
BRANCH   8   9
ATOM      9  C   UNL     1     -20.124  -2.708  10.129  1.00  0.00     0.000 C 
BRANCH   9  10
ATOM     10  C   UNL     1     -18.673  -3.065   9.763  1.00  0.00     0.000 C 
BRANCH  10  11
ATOM     11  C   UNL     1     -18.579  -4.217   8.750  1.00  0.00     0.000 C 
BRANCH  11  12
ATOM     12  C   UNL     1     -19.954  -4.623   8.184  1.00  0.00     0.006 C 
BRANCH  12  13
ATOM     13  C   UNL     1     -20.285  -6.116   8.346  1.00  0.00     0.053 C 
BRANCH  13  14
ATOM     14  C   UNL     1     -21.476  -6.335   9.229  1.00  0.00     0.041 C 
ATOM     15  O   UNL     1     -21.599  -5.688  10.301  1.00  0.00    -0.550 OA
ATOM     16  O   UNL     1     -22.436  -7.274   8.878  1.00  0.00    -0.550 OA
ENDBRANCH  13  14
ENDBRANCH  12  13
ENDBRANCH  11  12
ENDBRANCH  10  11
ENDBRANCH   9  10
ENDBRANCH   8   9
ENDBRANCH   7   8
ENDBRANCH   6   7
ENDBRANCH   5   6
ENDBRANCH   4   5
ENDBRANCH   3   4
ENDBRANCH   2   3
ENDBRANCH   1   2
BRANCH   1  17
ATOM     17  C   UNL     1     -21.692   5.310   8.955  1.00  0.00     0.000 C 
BRANCH  17  18
ATOM     18  C   UNL     1     -20.221   5.375   9.391  1.00  0.00     0.000 C 
BRANCH  18  19
ATOM     19  C   UNL     1     -19.843   6.724  10.029  1.00  0.00     0.000 C 
BRANCH  19  20
ATOM     20  C   UNL     1     -18.426   6.782  10.630  1.00  0.00     0.000 C 
BRANCH  20  21
ATOM     21  C   UNL     1     -17.394   7.392   9.668  1.00  0.00     0.000 C 
BRANCH  21  22
ATOM     22  C   UNL     1     -16.997   8.827  10.051  1.00  0.00    -0.000 C 
BRANCH  22  23
ATOM     23  C   UNL     1     -15.668   8.911  10.830  1.00  0.00    -0.000 C 
BRANCH  23  24
ATOM     24  C   UNL     1     -14.919  10.227  10.567  1.00  0.00    -0.000 C 
BRANCH  24  25
ATOM     25  C   UNL     1     -14.747  11.030  11.862  1.00  0.00    -0.000 C 
BRANCH  25  26
ATOM     26  C   UNL     1     -14.419  10.104  13.044  1.00  0.00    -0.000 C 
BRANCH  26  27
ATOM     27  C   UNL     1     -14.201  10.874  14.358  1.00  0.00    -0.000 C 
BRANCH  27  28
ATOM     28  C   UNL     1     -12.711  11.116  14.663  1.00  0.00    -0.000 C 
BRANCH  28  29
ATOM     29  C   UNL     1     -11.798  10.085  13.980  1.00  0.00    -0.003 C 
ATOM     30  C   UNL     1     -10.653  10.734  13.203  1.00  0.00     0.004 C 
ENDBRANCH  28  29
ENDBRANCH  27  28
ENDBRANCH  26  27
ENDBRANCH  25  26
ENDBRANCH  24  25
ENDBRANCH  23  24
ENDBRANCH  22  23
ENDBRANCH  21  22
ENDBRANCH  20  21
ENDBRANCH  19  20
ENDBRANCH  18  19
ENDBRANCH  17  18
ENDBRANCH   1  17
TORSDOF 26
ENDMDL
MODEL 9
REMARK VINA RESULT:     0.128      6.891     14.156
REMARK INTER + INTRA:          -1.441
REMARK INTER:                  -0.266
REMARK INTRA:                  -1.175
REMARK UNBOUND:                -1.765
REMARK SMILES CCCCCCCCCCCCCCCCCCCCCCCCCCCC(=O)[O-]
REMARK SMILES IDX 15 1 16 2 17 3 18 4 19 5 20 6 21 7 22 8 23 9 24 10 25 11
REMARK SMILES IDX 26 12 27 13 28 14 29 15 30 16 14 17 13 18 12 19 11 20 10 21
REMARK SMILES IDX 9 22 8 23 7 24 6 25 5 26 4 27 3 28 2 29 1 30
REMARK H PARENT
REMARK Flexibility Score: inf
ROOT
ATOM      1  C   UNL     1     -21.403   2.242   8.304  1.00  0.00     0.000 C 
ENDROOT
BRANCH   1   2
ATOM      2  C   UNL     1     -20.077   1.796   7.670  1.00  0.00     0.000 C 
BRANCH   2   3
ATOM      3  C   UNL     1     -20.030   0.285   7.387  1.00  0.00     0.000 C 
BRANCH   3   4
ATOM      4  C   UNL     1     -20.787  -0.603   8.399  1.00  0.00     0.000 C 
BRANCH   4   5
ATOM      5  C   UNL     1     -20.022  -0.943   9.695  1.00  0.00     0.000 C 
BRANCH   5   6
ATOM      6  C   UNL     1     -19.687  -2.441   9.868  1.00  0.00     0.000 C 
BRANCH   6   7
ATOM      7  C   UNL     1     -19.541  -3.202   8.539  1.00  0.00     0.000 C 
BRANCH   7   8
ATOM      8  C   UNL     1     -18.607  -4.419   8.649  1.00  0.00     0.000 C 
BRANCH   8   9
ATOM      9  C   UNL     1     -19.380  -5.751   8.755  1.00  0.00     0.000 C 
BRANCH   9  10
ATOM     10  C   UNL     1     -20.857  -5.647   8.337  1.00  0.00     0.000 C 
BRANCH  10  11
ATOM     11  C   UNL     1     -21.771  -6.596   9.130  1.00  0.00     0.000 C 
BRANCH  11  12
ATOM     12  C   UNL     1     -23.034  -6.996   8.343  1.00  0.00     0.006 C 
BRANCH  12  13
ATOM     13  C   UNL     1     -23.421  -8.478   8.486  1.00  0.00     0.053 C 
BRANCH  13  14
ATOM     14  C   UNL     1     -24.867  -8.714   8.172  1.00  0.00     0.041 C 
ATOM     15  O   UNL     1     -25.708  -8.829   9.101  1.00  0.00    -0.550 OA
ATOM     16  O   UNL     1     -25.280  -8.833   6.852  1.00  0.00    -0.550 OA
ENDBRANCH  13  14
ENDBRANCH  12  13
ENDBRANCH  11  12
ENDBRANCH  10  11
ENDBRANCH   9  10
ENDBRANCH   8   9
ENDBRANCH   7   8
ENDBRANCH   6   7
ENDBRANCH   5   6
ENDBRANCH   4   5
ENDBRANCH   3   4
ENDBRANCH   2   3
ENDBRANCH   1   2
BRANCH   1  17
ATOM     17  C   UNL     1     -21.503   3.772   8.337  1.00  0.00     0.000 C 
BRANCH  17  18
ATOM     18  C   UNL     1     -21.134   4.321   9.723  1.00  0.00     0.000 C 
BRANCH  18  19
ATOM     19  C   UNL     1     -20.792   5.823   9.702  1.00  0.00     0.000 C 
BRANCH  19  20
ATOM     20  C   UNL     1     -19.448   6.190  10.356  1.00  0.00     0.000 C 
BRANCH  20  21
ATOM     21  C   UNL     1     -18.832   7.473   9.776  1.00  0.00     0.000 C 
BRANCH  21  22
ATOM     22  C   UNL     1     -17.295   7.425   9.722  1.00  0.00    -0.000 C 
BRANCH  22  23
ATOM     23  C   UNL     1     -16.616   8.561  10.516  1.00  0.00    -0.000 C 
BRANCH  23  24
ATOM     24  C   UNL     1     -15.525   9.271   9.701  1.00  0.00    -0.000 C 
BRANCH  24  25
ATOM     25  C   UNL     1     -14.867  10.388  10.519  1.00  0.00    -0.000 C 
BRANCH  25  26
ATOM     26  C   UNL     1     -15.127  10.197  12.022  1.00  0.00    -0.000 C 
BRANCH  26  27
ATOM     27  C   UNL     1     -14.099  10.930  12.899  1.00  0.00    -0.000 C 
BRANCH  27  28
ATOM     28  C   UNL     1     -12.646  10.576  12.533  1.00  0.00    -0.000 C 
BRANCH  28  29
ATOM     29  C   UNL     1     -11.634  11.124  13.552  1.00  0.00    -0.003 C 
ATOM     30  C   UNL     1     -10.270  10.441  13.455  1.00  0.00     0.004 C 
ENDBRANCH  28  29
ENDBRANCH  27  28
ENDBRANCH  26  27
ENDBRANCH  25  26
ENDBRANCH  24  25
ENDBRANCH  23  24
ENDBRANCH  22  23
ENDBRANCH  21  22
ENDBRANCH  20  21
ENDBRANCH  19  20
ENDBRANCH  18  19
ENDBRANCH  17  18
ENDBRANCH   1  17
TORSDOF 26
ENDMDL
