MODEL 1
REMARK VINA RESULT:    -6.617      0.000      0.000
REMARK INTER + INTRA:         -10.243
REMARK INTER:                  -9.712
REMARK INTRA:                  -0.531
REMARK UNBOUND:                -0.531
REMARK SMILES O=c1c(O[C@H]2O[C@H](CO)[C@H](O)[C@H](O)[C@H]2O)c(-c2ccc(O)c(O)c2)oc2cc(O)cc(O)c12
REMARK SMILES IDX 4 1 3 2 16 3 25 4 2 5 26 6 1 7 33 8 27 9 31 10 28 11 30 12
REMARK SMILES IDX 17 13 18 14 19 15 20 16 24 17 22 18 21 19 23 21 32 23 29 25
REMARK SMILES IDX 5 27 14 28 6 29 12 30 7 31 10 32 15 33 13 35 8 37 9 38 11 40
REMARK H PARENT 21 20 23 22 32 24 29 26 15 34 13 36 9 39 11 41
REMARK Flexibility Score: inf
ROOT
ATOM      1  O   UNL     1      18.165  42.950  75.691  1.00  0.00    -0.454 OA
ENDROOT
BRANCH   1   2
ATOM      2  C   UNL     1      18.414  41.685  76.254  1.00  0.00     0.214 A 
ATOM      3  C   UNL     1      18.737  41.620  77.621  1.00  0.00     0.180 A 
ATOM      4  O   UNL     1      19.094  40.463  78.166  1.00  0.00    -0.452 OA
ATOM      5  C   UNL     1      18.389  40.488  75.510  1.00  0.00     0.239 A 
ATOM      6  C   UNL     1      19.124  39.318  77.496  1.00  0.00     0.146 A 
ATOM      7  O   UNL     1      18.085  40.525  74.291  1.00  0.00    -0.285 OA
ATOM      8  C   UNL     1      18.727  39.263  76.136  1.00  0.00     0.111 A 
ATOM      9  C   UNL     1      19.563  38.169  78.155  1.00  0.00     0.094 A 
ATOM     10  C   UNL     1      18.739  37.998  75.476  1.00  0.00     0.134 A 
ATOM     11  C   UNL     1      19.644  36.953  77.479  1.00  0.00     0.123 A 
ATOM     12  C   UNL     1      19.238  36.874  76.145  1.00  0.00     0.093 A 
BRANCH   3  13
ATOM     13  C   UNL     1      18.754  42.831  78.471  1.00  0.00     0.025 A 
ATOM     14  C   UNL     1      19.623  43.898  78.197  1.00  0.00     0.016 A 
ATOM     15  C   UNL     1      19.640  45.022  79.023  1.00  0.00     0.051 A 
ATOM     16  C   UNL     1      18.788  45.103  80.126  1.00  0.00     0.157 A 
ATOM     17  C   UNL     1      17.878  42.924  79.564  1.00  0.00     0.062 A 
ATOM     18  C   UNL     1      17.898  44.050  80.398  1.00  0.00     0.158 A 
BRANCH  16  19
ATOM     19  O   UNL     1      18.840  46.230  80.942  1.00  0.00    -0.504 OA
ATOM     20  H   UNL     1      19.021  47.157  80.573  1.00  0.00     0.293 HD
ENDBRANCH  16  19
BRANCH  18  21
ATOM     21  O   UNL     1      17.048  44.127  81.500  1.00  0.00    -0.504 OA
ATOM     22  H   UNL     1      17.397  44.323  82.434  1.00  0.00     0.293 HD
ENDBRANCH  18  21
ENDBRANCH   3  13
BRANCH  10  23
ATOM     23  O   UNL     1      18.251  37.797  74.181  1.00  0.00    -0.507 OA
ATOM     24  H   UNL     1      18.842  37.715  73.367  1.00  0.00     0.293 HD
ENDBRANCH  10  23
BRANCH  11  25
ATOM     25  O   UNL     1      20.125  35.825  78.143  1.00  0.00    -0.508 OA
ATOM     26  H   UNL     1      19.569  34.980  78.227  1.00  0.00     0.293 HD
ENDBRANCH  11  25
ENDBRANCH   1   2
BRANCH   1  27
ATOM     27  C   UNL     1      17.684  43.207  74.365  1.00  0.00     0.339 C 
ATOM     28  C   UNL     1      18.282  44.520  73.835  1.00  0.00     0.214 C 
ATOM     29  O   UNL     1      16.263  43.223  74.323  1.00  0.00    -0.332 OA
ATOM     30  C   UNL     1      17.702  45.723  74.598  1.00  0.00     0.180 C 
ATOM     31  C   UNL     1      15.721  44.265  75.124  1.00  0.00     0.179 C 
ATOM     32  C   UNL     1      16.168  45.652  74.594  1.00  0.00     0.177 C 
BRANCH  28  33
ATOM     33  O   UNL     1      19.677  44.491  73.997  1.00  0.00    -0.384 OA
ATOM     34  H   UNL     1      19.996  43.605  73.684  1.00  0.00     0.211 HD
ENDBRANCH  28  33
BRANCH  30  35
ATOM     35  O   UNL     1      18.120  46.925  73.997  1.00  0.00    -0.387 OA
ATOM     36  H   UNL     1      19.098  46.848  73.848  1.00  0.00     0.211 HD
ENDBRANCH  30  35
BRANCH  31  37
ATOM     37  C   UNL     1      14.187  44.123  75.123  1.00  0.00     0.191 C 
BRANCH  37  38
ATOM     38  O   UNL     1      13.555  45.377  75.130  1.00  0.00    -0.394 OA
ATOM     39  H   UNL     1      12.857  45.350  74.422  1.00  0.00     0.210 HD
ENDBRANCH  37  38
ENDBRANCH  31  37
BRANCH  32  40
ATOM     40  O   UNL     1      15.691  45.857  73.284  1.00  0.00    -0.387 OA
ATOM     41  H   UNL     1      16.136  46.674  72.937  1.00  0.00     0.211 HD
ENDBRANCH  32  40
ENDBRANCH   1  27
TORSDOF 12
ENDMDL
MODEL 2
REMARK VINA RESULT:    -6.367      0.718      1.289
REMARK INTER + INTRA:          -9.876
REMARK INTER:                  -9.651
REMARK INTRA:                  -0.225
REMARK UNBOUND:                -0.531
REMARK SMILES O=c1c(O[C@H]2O[C@H](CO)[C@H](O)[C@H](O)[C@H]2O)c(-c2ccc(O)c(O)c2)oc2cc(O)cc(O)c12
REMARK SMILES IDX 4 1 3 2 16 3 25 4 2 5 26 6 1 7 33 8 27 9 31 10 28 11 30 12
REMARK SMILES IDX 17 13 18 14 19 15 20 16 24 17 22 18 21 19 23 21 32 23 29 25
REMARK SMILES IDX 5 27 14 28 6 29 12 30 7 31 10 32 15 33 13 35 8 37 9 38 11 40
REMARK H PARENT 21 20 23 22 32 24 29 26 15 34 13 36 9 39 11 41
REMARK Flexibility Score: inf
ROOT
ATOM      1  O   UNL     1      17.725  43.241  75.789  1.00  0.00    -0.454 OA
ENDROOT
BRANCH   1   2
ATOM      2  C   UNL     1      18.058  41.957  76.259  1.00  0.00     0.214 A 
ATOM      3  C   UNL     1      18.469  41.827  77.597  1.00  0.00     0.180 A 
ATOM      4  O   UNL     1      18.905  40.657  78.049  1.00  0.00    -0.452 OA
ATOM      5  C   UNL     1      18.034  40.805  75.447  1.00  0.00     0.239 A 
ATOM      6  C   UNL     1      18.939  39.556  77.311  1.00  0.00     0.146 A 
ATOM      7  O   UNL     1      17.652  40.900  74.253  1.00  0.00    -0.285 OA
ATOM      8  C   UNL     1      18.459  39.562  75.976  1.00  0.00     0.111 A 
ATOM      9  C   UNL     1      19.464  38.390  77.871  1.00  0.00     0.094 A 
ATOM     10  C   UNL     1      18.480  38.339  75.241  1.00  0.00     0.134 A 
ATOM     11  C   UNL     1      19.550  37.220  77.119  1.00  0.00     0.123 A 
ATOM     12  C   UNL     1      19.064  37.200  75.809  1.00  0.00     0.093 A 
BRANCH   3  13
ATOM     13  C   UNL     1      18.492  42.987  78.517  1.00  0.00     0.025 A 
ATOM     14  C   UNL     1      17.769  42.974  79.719  1.00  0.00     0.016 A 
ATOM     15  C   UNL     1      17.787  44.085  80.562  1.00  0.00     0.051 A 
ATOM     16  C   UNL     1      18.529  45.219  80.224  1.00  0.00     0.157 A 
ATOM     17  C   UNL     1      19.261  44.115  78.190  1.00  0.00     0.062 A 
ATOM     18  C   UNL     1      19.274  45.235  79.033  1.00  0.00     0.158 A 
BRANCH  16  19
ATOM     19  O   UNL     1      18.513  46.319  81.078  1.00  0.00    -0.504 OA
ATOM     20  H   UNL     1      18.859  47.229  80.793  1.00  0.00     0.293 HD
ENDBRANCH  16  19
BRANCH  18  21
ATOM     21  O   UNL     1      20.014  46.366  78.693  1.00  0.00    -0.504 OA
ATOM     22  H   UNL     1      19.972  46.775  77.764  1.00  0.00     0.293 HD
ENDBRANCH  18  21
ENDBRANCH   3  13
BRANCH  10  23
ATOM     23  O   UNL     1      17.920  38.191  73.969  1.00  0.00    -0.507 OA
ATOM     24  H   UNL     1      16.929  38.098  73.801  1.00  0.00     0.293 HD
ENDBRANCH  10  23
BRANCH  11  25
ATOM     25  O   UNL     1      20.116  36.078  77.683  1.00  0.00    -0.508 OA
ATOM     26  H   UNL     1      20.745  36.132  78.479  1.00  0.00     0.293 HD
ENDBRANCH  11  25
ENDBRANCH   1   2
BRANCH   1  27
ATOM     27  C   UNL     1      17.357  43.582  74.446  1.00  0.00     0.339 C 
ATOM     28  C   UNL     1      17.918  44.967  74.084  1.00  0.00     0.214 C 
ATOM     29  O   UNL     1      15.948  43.522  74.263  1.00  0.00    -0.332 OA
ATOM     30  C   UNL     1      17.191  46.066  74.878  1.00  0.00     0.180 C 
ATOM     31  C   UNL     1      15.267  44.460  75.085  1.00  0.00     0.179 C 
ATOM     32  C   UNL     1      15.672  45.909  74.714  1.00  0.00     0.177 C 
BRANCH  28  33
ATOM     33  O   UNL     1      19.290  45.002  74.383  1.00  0.00    -0.384 OA
ATOM     34  H   UNL     1      19.503  45.919  74.699  1.00  0.00     0.211 HD
ENDBRANCH  28  33
BRANCH  30  35
ATOM     35  O   UNL     1      17.587  47.336  74.418  1.00  0.00    -0.387 OA
ATOM     36  H   UNL     1      17.458  47.341  73.435  1.00  0.00     0.211 HD
ENDBRANCH  30  35
BRANCH  31  37
ATOM     37  C   UNL     1      13.752  44.233  74.918  1.00  0.00     0.191 C 
BRANCH  37  38
ATOM     38  O   UNL     1      13.093  44.240  76.158  1.00  0.00    -0.394 OA
ATOM     39  H   UNL     1      13.061  43.297  76.471  1.00  0.00     0.210 HD
ENDBRANCH  37  38
ENDBRANCH  31  37
BRANCH  32  40
ATOM     40  O   UNL     1      15.311  46.198  73.382  1.00  0.00    -0.387 OA
ATOM     41  H   UNL     1      16.154  46.301  72.868  1.00  0.00     0.211 HD
ENDBRANCH  32  40
ENDBRANCH   1  27
TORSDOF 12
ENDMDL
MODEL 3
REMARK VINA RESULT:    -6.161      3.168      5.675
REMARK INTER + INTRA:          -9.573
REMARK INTER:                  -8.457
REMARK INTRA:                  -1.116
REMARK UNBOUND:                -0.531
REMARK SMILES O=c1c(O[C@H]2O[C@H](CO)[C@H](O)[C@H](O)[C@H]2O)c(-c2ccc(O)c(O)c2)oc2cc(O)cc(O)c12
REMARK SMILES IDX 4 1 3 2 16 3 25 4 2 5 26 6 1 7 33 8 27 9 31 10 28 11 30 12
REMARK SMILES IDX 17 13 18 14 19 15 20 16 24 17 22 18 21 19 23 21 32 23 29 25
REMARK SMILES IDX 5 27 14 28 6 29 12 30 7 31 10 32 15 33 13 35 8 37 9 38 11 40
REMARK H PARENT 21 20 23 22 32 24 29 26 15 34 13 36 9 39 11 41
REMARK Flexibility Score: inf
ROOT
ATOM      1  O   UNL     1      16.765  45.861  75.508  1.00  0.00    -0.454 OA
ENDROOT
BRANCH   1   2
ATOM      2  C   UNL     1      16.589  44.539  75.061  1.00  0.00     0.214 A 
ATOM      3  C   UNL     1      15.302  44.143  74.655  1.00  0.00     0.180 A 
ATOM      4  O   UNL     1      15.065  42.874  74.339  1.00  0.00    -0.452 OA
ATOM      5  C   UNL     1      17.627  43.586  75.034  1.00  0.00     0.239 A 
ATOM      6  C   UNL     1      16.001  41.935  74.339  1.00  0.00     0.146 A 
ATOM      7  O   UNL     1      18.787  43.927  75.377  1.00  0.00    -0.285 OA
ATOM      8  C   UNL     1      17.349  42.253  74.644  1.00  0.00     0.111 A 
ATOM      9  C   UNL     1      15.631  40.622  74.038  1.00  0.00     0.094 A 
ATOM     10  C   UNL     1      18.322  41.211  74.587  1.00  0.00     0.134 A 
ATOM     11  C   UNL     1      16.576  39.598  74.061  1.00  0.00     0.123 A 
ATOM     12  C   UNL     1      17.913  39.895  74.339  1.00  0.00     0.093 A 
BRANCH   3  13
ATOM     13  C   UNL     1      14.170  45.095  74.630  1.00  0.00     0.025 A 
ATOM     14  C   UNL     1      14.233  46.278  73.878  1.00  0.00     0.016 A 
ATOM     15  C   UNL     1      13.164  47.174  73.884  1.00  0.00     0.051 A 
ATOM     16  C   UNL     1      12.016  46.901  74.630  1.00  0.00     0.157 A 
ATOM     17  C   UNL     1      13.005  44.807  75.359  1.00  0.00     0.062 A 
ATOM     18  C   UNL     1      11.933  45.710  75.370  1.00  0.00     0.158 A 
BRANCH  16  19
ATOM     19  O   UNL     1      10.972  47.823  74.630  1.00  0.00    -0.504 OA
ATOM     20  H   UNL     1      10.487  48.090  75.480  1.00  0.00     0.293 HD
ENDBRANCH  16  19
BRANCH  18  21
ATOM     21  O   UNL     1      10.789  45.437  76.118  1.00  0.00    -0.504 OA
ATOM     22  H   UNL     1      10.321  46.154  76.665  1.00  0.00     0.293 HD
ENDBRANCH  18  21
ENDBRANCH   3  13
BRANCH  10  23
ATOM     23  O   UNL     1      19.695  41.426  74.741  1.00  0.00    -0.507 OA
ATOM     24  H   UNL     1      20.098  42.321  74.970  1.00  0.00     0.293 HD
ENDBRANCH  10  23
BRANCH  11  25
ATOM     25  O   UNL     1      16.179  38.288  73.799  1.00  0.00    -0.508 OA
ATOM     26  H   UNL     1      15.409  37.855  74.300  1.00  0.00     0.293 HD
ENDBRANCH  11  25
ENDBRANCH   1   2
BRANCH   1  27
ATOM     27  C   UNL     1      17.817  46.753  75.117  1.00  0.00     0.339 C 
ATOM     28  C   UNL     1      18.599  47.217  76.357  1.00  0.00     0.214 C 
ATOM     29  O   UNL     1      17.313  47.855  74.372  1.00  0.00    -0.332 OA
ATOM     30  C   UNL     1      17.731  48.145  77.224  1.00  0.00     0.180 C 
ATOM     31  C   UNL     1      16.418  48.648  75.139  1.00  0.00     0.179 C 
ATOM     32  C   UNL     1      17.145  49.271  76.358  1.00  0.00     0.177 C 
BRANCH  28  33
ATOM     33  O   UNL     1      18.981  46.095  77.110  1.00  0.00    -0.384 OA
ATOM     34  H   UNL     1      19.656  45.596  76.580  1.00  0.00     0.211 HD
ENDBRANCH  28  33
BRANCH  30  35
ATOM     35  O   UNL     1      18.504  48.701  78.261  1.00  0.00    -0.387 OA
ATOM     36  H   UNL     1      18.244  48.236  79.096  1.00  0.00     0.211 HD
ENDBRANCH  30  35
BRANCH  31  37
ATOM     37  C   UNL     1      15.825  49.732  74.217  1.00  0.00     0.191 C 
BRANCH  37  38
ATOM     38  O   UNL     1      16.698  50.041  73.162  1.00  0.00    -0.394 OA
ATOM     39  H   UNL     1      16.211  49.840  72.318  1.00  0.00     0.210 HD
ENDBRANCH  37  38
ENDBRANCH  31  37
BRANCH  32  40
ATOM     40  O   UNL     1      18.182  50.125  75.932  1.00  0.00    -0.387 OA
ATOM     41  H   UNL     1      19.023  49.787  76.340  1.00  0.00     0.211 HD
ENDBRANCH  32  40
ENDBRANCH   1  27
TORSDOF 12
ENDMDL
MODEL 4
REMARK VINA RESULT:    -5.921      1.902      5.234
REMARK INTER + INTRA:          -9.221
REMARK INTER:                  -7.206
REMARK INTRA:                  -2.015
REMARK UNBOUND:                -0.531
REMARK SMILES O=c1c(O[C@H]2O[C@H](CO)[C@H](O)[C@H](O)[C@H]2O)c(-c2ccc(O)c(O)c2)oc2cc(O)cc(O)c12
REMARK SMILES IDX 4 1 3 2 16 3 25 4 2 5 26 6 1 7 33 8 27 9 31 10 28 11 30 12
REMARK SMILES IDX 17 13 18 14 19 15 20 16 24 17 22 18 21 19 23 21 32 23 29 25
REMARK SMILES IDX 5 27 14 28 6 29 12 30 7 31 10 32 15 33 13 35 8 37 9 38 11 40
REMARK H PARENT 21 20 23 22 32 24 29 26 15 34 13 36 9 39 11 41
REMARK Flexibility Score: inf
ROOT
ATOM      1  O   UNL     1      18.603  44.518  77.315  1.00  0.00    -0.454 OA
ENDROOT
BRANCH   1   2
ATOM      2  C   UNL     1      18.491  43.357  76.528  1.00  0.00     0.214 A 
ATOM      3  C   UNL     1      17.967  43.485  75.230  1.00  0.00     0.180 A 
ATOM      4  O   UNL     1      17.734  42.402  74.497  1.00  0.00    -0.452 OA
ATOM      5  C   UNL     1      18.844  42.072  76.989  1.00  0.00     0.239 A 
ATOM      6  C   UNL     1      18.012  41.170  74.904  1.00  0.00     0.146 A 
ATOM      7  O   UNL     1      19.331  41.942  78.141  1.00  0.00    -0.285 OA
ATOM      8  C   UNL     1      18.628  40.943  76.161  1.00  0.00     0.111 A 
ATOM      9  C   UNL     1      17.679  40.099  74.073  1.00  0.00     0.094 A 
ATOM     10  C   UNL     1      18.944  39.602  76.530  1.00  0.00     0.134 A 
ATOM     11  C   UNL     1      17.922  38.788  74.477  1.00  0.00     0.123 A 
ATOM     12  C   UNL     1      18.547  38.545  75.702  1.00  0.00     0.093 A 
BRANCH   3  13
ATOM     13  C   UNL     1      17.601  44.804  74.668  1.00  0.00     0.025 A 
ATOM     14  C   UNL     1      18.488  45.514  73.845  1.00  0.00     0.016 A 
ATOM     15  C   UNL     1      18.134  46.765  73.342  1.00  0.00     0.051 A 
ATOM     16  C   UNL     1      16.890  47.324  73.646  1.00  0.00     0.157 A 
ATOM     17  C   UNL     1      16.340  45.352  74.951  1.00  0.00     0.062 A 
ATOM     18  C   UNL     1      15.985  46.613  74.452  1.00  0.00     0.158 A 
BRANCH  16  19
ATOM     19  O   UNL     1      16.572  48.583  73.144  1.00  0.00    -0.504 OA
ATOM     20  H   UNL     1      16.845  49.438  73.616  1.00  0.00     0.293 HD
ENDBRANCH  16  19
BRANCH  18  21
ATOM     21  O   UNL     1      14.745  47.169  74.758  1.00  0.00    -0.504 OA
ATOM     22  H   UNL     1      13.882  46.811  74.357  1.00  0.00     0.293 HD
ENDBRANCH  18  21
ENDBRANCH   3  13
BRANCH  10  23
ATOM     23  O   UNL     1      19.662  39.265  77.681  1.00  0.00    -0.507 OA
ATOM     24  H   UNL     1      20.032  39.945  78.328  1.00  0.00     0.293 HD
ENDBRANCH  10  23
BRANCH  11  25
ATOM     25  O   UNL     1      17.544  37.731  73.650  1.00  0.00    -0.508 OA
ATOM     26  H   UNL     1      18.224  37.212  73.104  1.00  0.00     0.293 HD
ENDBRANCH  11  25
ENDBRANCH   1   2
BRANCH   1  27
ATOM     27  C   UNL     1      19.797  45.283  77.529  1.00  0.00     0.339 C 
ATOM     28  C   UNL     1      20.061  45.433  79.036  1.00  0.00     0.214 C 
ATOM     29  O   UNL     1      19.726  46.547  76.880  1.00  0.00    -0.332 OA
ATOM     30  C   UNL     1      19.005  46.347  79.679  1.00  0.00     0.180 C 
ATOM     31  C   UNL     1      18.672  47.349  77.397  1.00  0.00     0.179 C 
ATOM     32  C   UNL     1      18.908  47.664  78.896  1.00  0.00     0.177 C 
BRANCH  28  33
ATOM     33  O   UNL     1      20.016  44.166  79.641  1.00  0.00    -0.384 OA
ATOM     34  H   UNL     1      20.450  43.524  79.021  1.00  0.00     0.211 HD
ENDBRANCH  28  33
BRANCH  30  35
ATOM     35  O   UNL     1      19.349  46.617  81.017  1.00  0.00    -0.387 OA
ATOM     36  H   UNL     1      20.280  46.301  81.145  1.00  0.00     0.211 HD
ENDBRANCH  30  35
BRANCH  31  37
ATOM     37  C   UNL     1      18.588  48.634  76.551  1.00  0.00     0.191 C 
BRANCH  37  38
ATOM     38  O   UNL     1      19.858  49.049  76.120  1.00  0.00    -0.394 OA
ATOM     39  H   UNL     1      20.384  48.224  75.941  1.00  0.00     0.210 HD
ENDBRANCH  37  38
ENDBRANCH  31  37
BRANCH  32  40
ATOM     40  O   UNL     1      20.098  48.400  79.064  1.00  0.00    -0.387 OA
ATOM     41  H   UNL     1      20.852  47.778  78.888  1.00  0.00     0.211 HD
ENDBRANCH  32  40
ENDBRANCH   1  27
TORSDOF 12
ENDMDL
MODEL 5
REMARK VINA RESULT:    -5.566     13.357     17.248
REMARK INTER + INTRA:          -8.700
REMARK INTER:                  -8.495
REMARK INTRA:                  -0.205
REMARK UNBOUND:                -0.531
REMARK SMILES O=c1c(O[C@H]2O[C@H](CO)[C@H](O)[C@H](O)[C@H]2O)c(-c2ccc(O)c(O)c2)oc2cc(O)cc(O)c12
REMARK SMILES IDX 4 1 3 2 16 3 25 4 2 5 26 6 1 7 33 8 27 9 31 10 28 11 30 12
REMARK SMILES IDX 17 13 18 14 19 15 20 16 24 17 22 18 21 19 23 21 32 23 29 25
REMARK SMILES IDX 5 27 14 28 6 29 12 30 7 31 10 32 15 33 13 35 8 37 9 38 11 40
REMARK H PARENT 21 20 23 22 32 24 29 26 15 34 13 36 9 39 11 41
REMARK Flexibility Score: inf
ROOT
ATOM      1  O   UNL     1       4.229  46.701  66.998  1.00  0.00    -0.454 OA
ENDROOT
BRANCH   1   2
ATOM      2  C   UNL     1       5.392  47.110  67.677  1.00  0.00     0.214 A 
ATOM      3  C   UNL     1       5.650  46.554  68.942  1.00  0.00     0.180 A 
ATOM      4  O   UNL     1       6.671  46.997  69.668  1.00  0.00    -0.452 OA
ATOM      5  C   UNL     1       6.287  48.073  67.168  1.00  0.00     0.239 A 
ATOM      6  C   UNL     1       7.516  47.929  69.248  1.00  0.00     0.146 A 
ATOM      7  O   UNL     1       6.081  48.567  66.031  1.00  0.00    -0.285 OA
ATOM      8  C   UNL     1       7.394  48.486  67.949  1.00  0.00     0.111 A 
ATOM      9  C   UNL     1       8.524  48.357  70.112  1.00  0.00     0.094 A 
ATOM     10  C   UNL     1       8.356  49.455  67.533  1.00  0.00     0.134 A 
ATOM     11  C   UNL     1       9.411  49.359  69.724  1.00  0.00     0.123 A 
ATOM     12  C   UNL     1       9.321  49.906  68.442  1.00  0.00     0.093 A 
BRANCH   3  13
ATOM     13  C   UNL     1       4.771  45.518  69.528  1.00  0.00     0.025 A 
ATOM     14  C   UNL     1       4.012  44.665  68.713  1.00  0.00     0.016 A 
ATOM     15  C   UNL     1       3.172  43.708  69.284  1.00  0.00     0.051 A 
ATOM     16  C   UNL     1       3.083  43.584  70.672  1.00  0.00     0.157 A 
ATOM     17  C   UNL     1       4.702  45.374  70.923  1.00  0.00     0.062 A 
ATOM     18  C   UNL     1       3.854  44.418  71.498  1.00  0.00     0.158 A 
BRANCH  16  19
ATOM     19  O   UNL     1       2.222  42.632  71.213  1.00  0.00    -0.504 OA
ATOM     20  H   UNL     1       1.317  42.426  70.803  1.00  0.00     0.293 HD
ENDBRANCH  16  19
BRANCH  18  21
ATOM     21  O   UNL     1       3.764  44.297  72.883  1.00  0.00    -0.504 OA
ATOM     22  H   UNL     1       3.686  43.392  73.339  1.00  0.00     0.293 HD
ENDBRANCH  18  21
ENDBRANCH   3  13
BRANCH  10  23
ATOM     23  O   UNL     1       8.415  49.979  66.238  1.00  0.00    -0.507 OA
ATOM     24  H   UNL     1       8.767  50.899  66.023  1.00  0.00     0.293 HD
ENDBRANCH  10  23
BRANCH  11  25
ATOM     25  O   UNL     1      10.385  49.803  70.618  1.00  0.00    -0.508 OA
ATOM     26  H   UNL     1      11.362  49.869  70.351  1.00  0.00     0.293 HD
ENDBRANCH  11  25
ENDBRANCH   1   2
BRANCH   1  27
ATOM     27  C   UNL     1       4.111  46.463  65.590  1.00  0.00     0.339 C 
ATOM     28  C   UNL     1       2.960  47.301  65.010  1.00  0.00     0.214 C 
ATOM     29  O   UNL     1       3.944  45.078  65.310  1.00  0.00    -0.332 OA
ATOM     30  C   UNL     1       1.605  46.776  65.513  1.00  0.00     0.180 C 
ATOM     31  C   UNL     1       2.746  44.564  65.876  1.00  0.00     0.179 C 
ATOM     32  C   UNL     1       1.506  45.264  65.263  1.00  0.00     0.177 C 
BRANCH  28  33
ATOM     33  O   UNL     1       3.119  48.640  65.405  1.00  0.00    -0.384 OA
ATOM     34  H   UNL     1       2.263  48.935  65.811  1.00  0.00     0.211 HD
ENDBRANCH  28  33
BRANCH  30  35
ATOM     35  O   UNL     1       0.554  47.434  64.848  1.00  0.00    -0.387 OA
ATOM     36  H   UNL     1       0.081  47.981  65.527  1.00  0.00     0.211 HD
ENDBRANCH  30  35
BRANCH  31  37
ATOM     37  C   UNL     1       2.717  43.042  65.637  1.00  0.00     0.191 C 
BRANCH  37  38
ATOM     38  O   UNL     1       3.194  42.714  64.359  1.00  0.00    -0.394 OA
ATOM     39  H   UNL     1       3.374  43.573  63.890  1.00  0.00     0.210 HD
ENDBRANCH  37  38
ENDBRANCH  31  37
BRANCH  32  40
ATOM     40  O   UNL     1       1.437  45.020  63.876  1.00  0.00    -0.387 OA
ATOM     41  H   UNL     1       0.488  44.820  63.663  1.00  0.00     0.211 HD
ENDBRANCH  32  40
ENDBRANCH   1  27
TORSDOF 12
ENDMDL
MODEL 6
REMARK VINA RESULT:    -5.555     15.892     18.229
REMARK INTER + INTRA:          -8.683
REMARK INTER:                  -8.000
REMARK INTRA:                  -0.683
REMARK UNBOUND:                -0.531
REMARK SMILES O=c1c(O[C@H]2O[C@H](CO)[C@H](O)[C@H](O)[C@H]2O)c(-c2ccc(O)c(O)c2)oc2cc(O)cc(O)c12
REMARK SMILES IDX 4 1 3 2 16 3 25 4 2 5 26 6 1 7 33 8 27 9 31 10 28 11 30 12
REMARK SMILES IDX 17 13 18 14 19 15 20 16 24 17 22 18 21 19 23 21 32 23 29 25
REMARK SMILES IDX 5 27 14 28 6 29 12 30 7 31 10 32 15 33 13 35 8 37 9 38 11 40
REMARK H PARENT 21 20 23 22 32 24 29 26 15 34 13 36 9 39 11 41
REMARK Flexibility Score: inf
ROOT
ATOM      1  O   UNL     1       3.396  32.238  69.652  1.00  0.00    -0.454 OA
ENDROOT
BRANCH   1   2
ATOM      2  C   UNL     1       4.473  31.973  70.517  1.00  0.00     0.214 A 
ATOM      3  C   UNL     1       5.752  32.417  70.137  1.00  0.00     0.180 A 
ATOM      4  O   UNL     1       6.814  32.087  70.864  1.00  0.00    -0.452 OA
ATOM      5  C   UNL     1       4.339  31.256  71.724  1.00  0.00     0.239 A 
ATOM      6  C   UNL     1       6.742  31.381  71.984  1.00  0.00     0.146 A 
ATOM      7  O   UNL     1       3.201  30.867  72.087  1.00  0.00    -0.285 OA
ATOM      8  C   UNL     1       5.488  30.965  72.500  1.00  0.00     0.111 A 
ATOM      9  C   UNL     1       7.926  31.048  72.643  1.00  0.00     0.094 A 
ATOM     10  C   UNL     1       5.465  30.244  73.731  1.00  0.00     0.134 A 
ATOM     11  C   UNL     1       7.898  30.277  73.804  1.00  0.00     0.123 A 
ATOM     12  C   UNL     1       6.672  29.875  74.339  1.00  0.00     0.093 A 
BRANCH   3  13
ATOM     13  C   UNL     1       5.965  33.199  68.899  1.00  0.00     0.025 A 
ATOM     14  C   UNL     1       6.855  34.283  68.869  1.00  0.00     0.016 A 
ATOM     15  C   UNL     1       7.026  35.021  67.698  1.00  0.00     0.051 A 
ATOM     16  C   UNL     1       6.320  34.687  66.541  1.00  0.00     0.157 A 
ATOM     17  C   UNL     1       5.276  32.845  67.729  1.00  0.00     0.062 A 
ATOM     18  C   UNL     1       5.441  33.591  66.553  1.00  0.00     0.158 A 
BRANCH  16  19
ATOM     19  O   UNL     1       6.498  35.454  65.393  1.00  0.00    -0.504 OA
ATOM     20  H   UNL     1       6.259  36.439  65.357  1.00  0.00     0.293 HD
ENDBRANCH  16  19
BRANCH  18  21
ATOM     21  O   UNL     1       4.733  33.256  65.400  1.00  0.00    -0.504 OA
ATOM     22  H   UNL     1       5.128  32.651  64.685  1.00  0.00     0.293 HD
ENDBRANCH  18  21
ENDBRANCH   3  13
BRANCH  10  23
ATOM     23  O   UNL     1       4.289  29.893  74.401  1.00  0.00    -0.507 OA
ATOM     24  H   UNL     1       3.653  29.181  74.077  1.00  0.00     0.293 HD
ENDBRANCH  10  23
BRANCH  11  25
ATOM     25  O   UNL     1       9.094  29.919  74.423  1.00  0.00    -0.508 OA
ATOM     26  H   UNL     1       9.177  29.870  75.434  1.00  0.00     0.293 HD
ENDBRANCH  11  25
ENDBRANCH   1   2
BRANCH   1  27
ATOM     27  C   UNL     1       2.136  32.814  70.021  1.00  0.00     0.339 C 
ATOM     28  C   UNL     1       1.364  33.238  68.760  1.00  0.00     0.214 C 
ATOM     29  O   UNL     1       2.307  33.902  70.922  1.00  0.00    -0.332 OA
ATOM     30  C   UNL     1       2.051  34.437  68.086  1.00  0.00     0.180 C 
ATOM     31  C   UNL     1       3.046  34.964  70.334  1.00  0.00     0.179 C 
ATOM     32  C   UNL     1       2.288  35.551  69.116  1.00  0.00     0.177 C 
BRANCH  28  33
ATOM     33  O   UNL     1       1.316  32.158  67.863  1.00  0.00    -0.384 OA
ATOM     34  H   UNL     1       0.869  31.404  68.327  1.00  0.00     0.211 HD
ENDBRANCH  28  33
BRANCH  30  35
ATOM     35  O   UNL     1       1.251  34.926  67.037  1.00  0.00    -0.387 OA
ATOM     36  H   UNL     1       1.738  34.744  66.192  1.00  0.00     0.211 HD
ENDBRANCH  30  35
BRANCH  31  37
ATOM     37  C   UNL     1       3.294  36.032  71.418  1.00  0.00     0.191 C 
BRANCH  37  38
ATOM     38  O   UNL     1       2.232  36.091  72.333  1.00  0.00    -0.394 OA
ATOM     39  H   UNL     1       1.397  36.172  71.799  1.00  0.00     0.210 HD
ENDBRANCH  37  38
ENDBRANCH  31  37
BRANCH  32  40
ATOM     40  O   UNL     1       1.049  36.090  69.518  1.00  0.00    -0.387 OA
ATOM     41  H   UNL     1       1.172  36.449  70.436  1.00  0.00     0.211 HD
ENDBRANCH  32  40
ENDBRANCH   1  27
TORSDOF 12
ENDMDL
MODEL 7
REMARK VINA RESULT:    -5.014      2.809      4.571
REMARK INTER + INTRA:          -7.890
REMARK INTER:                  -7.270
REMARK INTRA:                  -0.619
REMARK UNBOUND:                -0.531
REMARK SMILES O=c1c(O[C@H]2O[C@H](CO)[C@H](O)[C@H](O)[C@H]2O)c(-c2ccc(O)c(O)c2)oc2cc(O)cc(O)c12
REMARK SMILES IDX 4 1 3 2 16 3 25 4 2 5 26 6 1 7 33 8 27 9 31 10 28 11 30 12
REMARK SMILES IDX 17 13 18 14 19 15 20 16 24 17 22 18 21 19 23 21 32 23 29 25
REMARK SMILES IDX 5 27 14 28 6 29 12 30 7 31 10 32 15 33 13 35 8 37 9 38 11 40
REMARK H PARENT 21 20 23 22 32 24 29 26 15 34 13 36 9 39 11 41
REMARK Flexibility Score: inf
ROOT
ATOM      1  O   UNL     1      16.134  46.263  74.439  1.00  0.00    -0.454 OA
ENDROOT
BRANCH   1   2
ATOM      2  C   UNL     1      16.721  45.035  74.797  1.00  0.00     0.214 A 
ATOM      3  C   UNL     1      17.903  45.064  75.558  1.00  0.00     0.180 A 
ATOM      4  O   UNL     1      18.555  43.936  75.818  1.00  0.00    -0.452 OA
ATOM      5  C   UNL     1      16.204  43.785  74.402  1.00  0.00     0.239 A 
ATOM      6  C   UNL     1      18.128  42.741  75.433  1.00  0.00     0.146 A 
ATOM      7  O   UNL     1      15.138  43.740  73.737  1.00  0.00    -0.285 OA
ATOM      8  C   UNL     1      16.898  42.597  74.740  1.00  0.00     0.111 A 
ATOM      9  C   UNL     1      18.917  41.625  75.716  1.00  0.00     0.094 A 
ATOM     10  C   UNL     1      16.467  41.284  74.386  1.00  0.00     0.134 A 
ATOM     11  C   UNL     1      18.523  40.355  75.299  1.00  0.00     0.123 A 
ATOM     12  C   UNL     1      17.306  40.190  74.633  1.00  0.00     0.093 A 
BRANCH   3  13
ATOM     13  C   UNL     1      18.489  46.337  76.032  1.00  0.00     0.025 A 
ATOM     14  C   UNL     1      18.680  46.583  77.400  1.00  0.00     0.016 A 
ATOM     15  C   UNL     1      19.214  47.799  77.829  1.00  0.00     0.051 A 
ATOM     16  C   UNL     1      19.571  48.781  76.903  1.00  0.00     0.157 A 
ATOM     17  C   UNL     1      18.874  47.313  75.100  1.00  0.00     0.062 A 
ATOM     18  C   UNL     1      19.404  48.538  75.530  1.00  0.00     0.158 A 
BRANCH  16  19
ATOM     19  O   UNL     1      20.085  49.991  77.362  1.00  0.00    -0.504 OA
ATOM     20  H   UNL     1      19.645  50.516  78.110  1.00  0.00     0.293 HD
ENDBRANCH  16  19
BRANCH  18  21
ATOM     21  O   UNL     1      19.757  49.517  74.603  1.00  0.00    -0.504 OA
ATOM     22  H   UNL     1      20.728  49.750  74.412  1.00  0.00     0.293 HD
ENDBRANCH  18  21
ENDBRANCH   3  13
BRANCH  10  23
ATOM     23  O   UNL     1      15.221  41.006  73.818  1.00  0.00    -0.507 OA
ATOM     24  H   UNL     1      15.093  40.734  72.855  1.00  0.00     0.293 HD
ENDBRANCH  10  23
BRANCH  11  25
ATOM     25  O   UNL     1      19.346  39.259  75.555  1.00  0.00    -0.508 OA
ATOM     26  H   UNL     1      19.009  38.448  76.064  1.00  0.00     0.293 HD
ENDBRANCH  11  25
ENDBRANCH   1   2
BRANCH   1  27
ATOM     27  C   UNL     1      15.363  46.519  73.257  1.00  0.00     0.339 C 
ATOM     28  C   UNL     1      15.956  47.715  72.493  1.00  0.00     0.214 C 
ATOM     29  O   UNL     1      13.990  46.723  73.567  1.00  0.00    -0.332 OA
ATOM     30  C   UNL     1      15.735  49.018  73.279  1.00  0.00     0.180 C 
ATOM     31  C   UNL     1      13.798  47.864  74.392  1.00  0.00     0.179 C 
ATOM     32  C   UNL     1      14.254  49.152  73.661  1.00  0.00     0.177 C 
BRANCH  28  33
ATOM     33  O   UNL     1      17.333  47.507  72.307  1.00  0.00    -0.384 OA
ATOM     34  H   UNL     1      17.512  47.550  71.332  1.00  0.00     0.211 HD
ENDBRANCH  28  33
BRANCH  30  35
ATOM     35  O   UNL     1      16.124  50.124  72.500  1.00  0.00    -0.387 OA
ATOM     36  H   UNL     1      15.575  50.104  71.675  1.00  0.00     0.211 HD
ENDBRANCH  30  35
BRANCH  31  37
ATOM     37  C   UNL     1      12.308  47.928  74.782  1.00  0.00     0.191 C 
BRANCH  37  38
ATOM     38  O   UNL     1      11.482  47.518  73.725  1.00  0.00    -0.394 OA
ATOM     39  H   UNL     1      11.798  47.996  72.912  1.00  0.00     0.210 HD
ENDBRANCH  37  38
ENDBRANCH  31  37
BRANCH  32  40
ATOM     40  O   UNL     1      13.485  49.358  72.497  1.00  0.00    -0.387 OA
ATOM     41  H   UNL     1      12.552  49.531  72.792  1.00  0.00     0.211 HD
ENDBRANCH  32  40
ENDBRANCH   1  27
TORSDOF 12
ENDMDL
MODEL 8
REMARK VINA RESULT:    -4.976      2.300      6.841
REMARK INTER + INTRA:          -7.834
REMARK INTER:                  -7.079
REMARK INTRA:                  -0.755
REMARK UNBOUND:                -0.531
REMARK SMILES O=c1c(O[C@H]2O[C@H](CO)[C@H](O)[C@H](O)[C@H]2O)c(-c2ccc(O)c(O)c2)oc2cc(O)cc(O)c12
REMARK SMILES IDX 4 1 3 2 16 3 25 4 2 5 26 6 1 7 33 8 27 9 31 10 28 11 30 12
REMARK SMILES IDX 17 13 18 14 19 15 20 16 24 17 22 18 21 19 23 21 32 23 29 25
REMARK SMILES IDX 5 27 14 28 6 29 12 30 7 31 10 32 15 33 13 35 8 37 9 38 11 40
REMARK H PARENT 21 20 23 22 32 24 29 26 15 34 13 36 9 39 11 41
REMARK Flexibility Score: inf
ROOT
ATOM      1  O   UNL     1      18.988  45.628  76.471  1.00  0.00    -0.454 OA
ENDROOT
BRANCH   1   2
ATOM      2  C   UNL     1      19.051  45.854  77.859  1.00  0.00     0.214 A 
ATOM      3  C   UNL     1      19.096  44.736  78.710  1.00  0.00     0.180 A 
ATOM      4  O   UNL     1      19.037  44.899  80.027  1.00  0.00    -0.452 OA
ATOM      5  C   UNL     1      19.035  47.140  78.436  1.00  0.00     0.239 A 
ATOM      6  C   UNL     1      18.980  46.088  80.614  1.00  0.00     0.146 A 
ATOM      7  O   UNL     1      19.012  48.151  77.689  1.00  0.00    -0.285 OA
ATOM      8  C   UNL     1      19.022  47.279  79.845  1.00  0.00     0.111 A 
ATOM      9  C   UNL     1      18.870  46.143  82.004  1.00  0.00     0.094 A 
ATOM     10  C   UNL     1      19.001  48.530  80.531  1.00  0.00     0.134 A 
ATOM     11  C   UNL     1      18.772  47.370  82.658  1.00  0.00     0.123 A 
ATOM     12  C   UNL     1      18.832  48.555  81.921  1.00  0.00     0.093 A 
BRANCH   3  13
ATOM     13  C   UNL     1      19.144  43.356  78.176  1.00  0.00     0.025 A 
ATOM     14  C   UNL     1      19.994  43.019  77.112  1.00  0.00     0.016 A 
ATOM     15  C   UNL     1      20.010  41.718  76.609  1.00  0.00     0.051 A 
ATOM     16  C   UNL     1      19.186  40.736  77.161  1.00  0.00     0.157 A 
ATOM     17  C   UNL     1      18.336  42.362  78.750  1.00  0.00     0.062 A 
ATOM     18  C   UNL     1      18.346  41.056  78.241  1.00  0.00     0.158 A 
BRANCH  16  19
ATOM     19  O   UNL     1      19.211  39.451  76.626  1.00  0.00    -0.504 OA
ATOM     20  H   UNL     1      19.358  38.628  77.200  1.00  0.00     0.293 HD
ENDBRANCH  16  19
BRANCH  18  21
ATOM     21  O   UNL     1      17.521  40.078  78.792  1.00  0.00    -0.504 OA
ATOM     22  H   UNL     1      17.258  39.244  78.275  1.00  0.00     0.293 HD
ENDBRANCH  18  21
ENDBRANCH   3  13
BRANCH  10  23
ATOM     23  O   UNL     1      19.165  49.764  79.894  1.00  0.00    -0.507 OA
ATOM     24  H   UNL     1      19.948  49.985  79.298  1.00  0.00     0.293 HD
ENDBRANCH  10  23
BRANCH  11  25
ATOM     25  O   UNL     1      18.620  47.402  84.043  1.00  0.00    -0.508 OA
ATOM     26  H   UNL     1      19.060  48.120  84.610  1.00  0.00     0.293 HD
ENDBRANCH  11  25
ENDBRANCH   1   2
BRANCH   1  27
ATOM     27  C   UNL     1      17.989  46.134  75.576  1.00  0.00     0.339 C 
ATOM     28  C   UNL     1      17.621  45.059  74.540  1.00  0.00     0.214 C 
ATOM     29  O   UNL     1      18.413  47.340  74.953  1.00  0.00    -0.332 OA
ATOM     30  C   UNL     1      18.792  44.821  73.572  1.00  0.00     0.180 C 
ATOM     31  C   UNL     1      19.568  47.143  74.149  1.00  0.00     0.179 C 
ATOM     32  C   UNL     1      19.267  46.160  72.989  1.00  0.00     0.177 C 
BRANCH  28  33
ATOM     33  O   UNL     1      17.312  43.862  75.206  1.00  0.00    -0.384 OA
ATOM     34  H   UNL     1      17.608  43.113  74.626  1.00  0.00     0.211 HD
ENDBRANCH  28  33
BRANCH  30  35
ATOM     35  O   UNL     1      18.391  43.967  72.528  1.00  0.00    -0.387 OA
ATOM     36  H   UNL     1      19.149  43.913  71.891  1.00  0.00     0.211 HD
ENDBRANCH  30  35
BRANCH  31  37
ATOM     37  C   UNL     1      20.029  48.517  73.625  1.00  0.00     0.191 C 
BRANCH  37  38
ATOM     38  O   UNL     1      18.939  49.368  73.387  1.00  0.00    -0.394 OA
ATOM     39  H   UNL     1      18.489  49.510  74.262  1.00  0.00     0.210 HD
ENDBRANCH  37  38
ENDBRANCH  31  37
BRANCH  32  40
ATOM     40  O   UNL     1      18.269  46.685  72.143  1.00  0.00    -0.387 OA
ATOM     41  H   UNL     1      17.797  47.394  72.656  1.00  0.00     0.211 HD
ENDBRANCH  32  40
ENDBRANCH   1  27
TORSDOF 12
ENDMDL
MODEL 9
REMARK VINA RESULT:    -4.875      2.585      7.576
REMARK INTER + INTRA:          -7.685
REMARK INTER:                  -6.722
REMARK INTRA:                  -0.963
REMARK UNBOUND:                -0.531
REMARK SMILES O=c1c(O[C@H]2O[C@H](CO)[C@H](O)[C@H](O)[C@H]2O)c(-c2ccc(O)c(O)c2)oc2cc(O)cc(O)c12
REMARK SMILES IDX 4 1 3 2 16 3 25 4 2 5 26 6 1 7 33 8 27 9 31 10 28 11 30 12
REMARK SMILES IDX 17 13 18 14 19 15 20 16 24 17 22 18 21 19 23 21 32 23 29 25
REMARK SMILES IDX 5 27 14 28 6 29 12 30 7 31 10 32 15 33 13 35 8 37 9 38 11 40
REMARK H PARENT 21 20 23 22 32 24 29 26 15 34 13 36 9 39 11 41
REMARK Flexibility Score: inf
ROOT
ATOM      1  O   UNL     1      18.975  44.425  76.212  1.00  0.00    -0.454 OA
ENDROOT
BRANCH   1   2
ATOM      2  C   UNL     1      19.031  45.528  77.084  1.00  0.00     0.214 A 
ATOM      3  C   UNL     1      19.063  46.817  76.521  1.00  0.00     0.180 A 
ATOM      4  O   UNL     1      19.235  47.879  77.301  1.00  0.00    -0.452 OA
ATOM      5  C   UNL     1      19.094  45.404  78.487  1.00  0.00     0.239 A 
ATOM      6  C   UNL     1      19.339  47.807  78.621  1.00  0.00     0.146 A 
ATOM      7  O   UNL     1      19.049  44.260  79.007  1.00  0.00    -0.285 OA
ATOM      8  C   UNL     1      19.227  46.562  79.291  1.00  0.00     0.111 A 
ATOM      9  C   UNL     1      19.569  48.982  79.339  1.00  0.00     0.094 A 
ATOM     10  C   UNL     1      19.305  46.549  80.716  1.00  0.00     0.134 A 
ATOM     11  C   UNL     1      19.720  48.947  80.724  1.00  0.00     0.123 A 
ATOM     12  C   UNL     1      19.593  47.733  81.404  1.00  0.00     0.093 A 
BRANCH   3  13
ATOM     13  C   UNL     1      18.972  47.026  75.059  1.00  0.00     0.025 A 
ATOM     14  C   UNL     1      20.125  47.191  74.277  1.00  0.00     0.016 A 
ATOM     15  C   UNL     1      20.018  47.408  72.903  1.00  0.00     0.051 A 
ATOM     16  C   UNL     1      18.765  47.457  72.290  1.00  0.00     0.157 A 
ATOM     17  C   UNL     1      17.713  47.048  74.439  1.00  0.00     0.062 A 
ATOM     18  C   UNL     1      17.604  47.273  73.060  1.00  0.00     0.158 A 
BRANCH  16  19
ATOM     19  O   UNL     1      18.689  47.694  70.920  1.00  0.00    -0.504 OA
ATOM     20  H   UNL     1      19.402  47.370  70.275  1.00  0.00     0.293 HD
ENDBRANCH  16  19
BRANCH  18  21
ATOM     21  O   UNL     1      16.352  47.324  72.450  1.00  0.00    -0.504 OA
ATOM     22  H   UNL     1      15.714  48.101  72.599  1.00  0.00     0.293 HD
ENDBRANCH  18  21
ENDBRANCH   3  13
BRANCH  10  23
ATOM     23  O   UNL     1      19.083  45.407  81.491  1.00  0.00    -0.507 OA
ATOM     24  H   UNL     1      19.818  44.786  81.795  1.00  0.00     0.293 HD
ENDBRANCH  10  23
BRANCH  11  25
ATOM     25  O   UNL     1      19.991  50.125  81.418  1.00  0.00    -0.508 OA
ATOM     26  H   UNL     1      19.481  50.983  81.230  1.00  0.00     0.293 HD
ENDBRANCH  11  25
ENDBRANCH   1   2
BRANCH   1  27
ATOM     27  C   UNL     1      19.938  43.368  76.121  1.00  0.00     0.339 C 
ATOM     28  C   UNL     1      19.931  42.773  74.703  1.00  0.00     0.214 C 
ATOM     29  O   UNL     1      19.711  42.371  77.109  1.00  0.00    -0.332 OA
ATOM     30  C   UNL     1      18.624  42.004  74.449  1.00  0.00     0.180 C 
ATOM     31  C   UNL     1      18.448  41.740  76.943  1.00  0.00     0.179 C 
ATOM     32  C   UNL     1      18.381  40.999  75.584  1.00  0.00     0.177 C 
BRANCH  28  33
ATOM     33  O   UNL     1      20.055  43.811  73.765  1.00  0.00    -0.384 OA
ATOM     34  H   UNL     1      20.596  44.529  74.184  1.00  0.00     0.211 HD
ENDBRANCH  28  33
BRANCH  30  35
ATOM     35  O   UNL     1      18.696  41.321  73.220  1.00  0.00    -0.387 OA
ATOM     36  H   UNL     1      19.265  40.522  73.367  1.00  0.00     0.211 HD
ENDBRANCH  30  35
BRANCH  31  37
ATOM     37  C   UNL     1      18.234  40.777  78.127  1.00  0.00     0.191 C 
BRANCH  37  38
ATOM     38  O   UNL     1      17.860  41.469  79.290  1.00  0.00    -0.394 OA
ATOM     39  H   UNL     1      17.132  42.094  79.031  1.00  0.00     0.210 HD
ENDBRANCH  37  38
ENDBRANCH  31  37
BRANCH  32  40
ATOM     40  O   UNL     1      19.355  39.981  75.527  1.00  0.00    -0.387 OA
ATOM     41  H   UNL     1      18.883  39.119  75.672  1.00  0.00     0.211 HD
ENDBRANCH  32  40
ENDBRANCH   1  27
TORSDOF 12
ENDMDL
