MODEL 1
REMARK VINA RESULT:    -3.613      0.000      0.000
REMARK INTER + INTRA:          -5.904
REMARK INTER:                  -4.880
REMARK INTRA:                  -1.024
REMARK UNBOUND:                -1.024
REMARK SMILES CC(=O)CCC=C(C)CCC=C(C)C
REMARK SMILES IDX 7 1 6 2 8 3 9 4 10 5 11 6 13 7 12 8 14 9 5 10 4 11 2 12 3 13
REMARK SMILES IDX 1 14
REMARK H PARENT
REMARK Flexibility Score: inf
ROOT
ATOM      1  C   UNL     1      61.696  15.845   0.965  1.00  0.00    -0.077 C 
ATOM      2  C   UNL     1      60.694  16.643   0.531  1.00  0.00    -0.028 C 
ATOM      3  C   UNL     1      61.338  14.498   1.540  1.00  0.00     0.039 C 
ENDROOT
BRANCH   1   4
ATOM      4  C   UNL     1      63.156  16.260   0.931  1.00  0.00     0.034 C 
BRANCH   4   5
ATOM      5  C   UNL     1      63.999  15.320   0.055  1.00  0.00     0.032 C 
BRANCH   5   6
ATOM      6  C   UNL     1      63.942  15.709  -1.403  1.00  0.00    -0.028 C 
ATOM      7  C   UNL     1      62.524  13.746  -2.045  1.00  0.00     0.039 C 
ATOM      8  C   UNL     1      63.310  14.997  -2.362  1.00  0.00    -0.080 C 
ATOM      9  C   UNL     1      63.386  15.486  -3.785  1.00  0.00     0.039 C 
ENDBRANCH   5   6
ENDBRANCH   4   5
ENDBRANCH   1   4
BRANCH   2  10
ATOM     10  C   UNL     1      60.884  17.989  -0.122  1.00  0.00     0.035 C 
BRANCH  10  11
ATOM     11  C   UNL     1      59.684  18.900   0.152  1.00  0.00     0.079 C 
BRANCH  11  12
ATOM     12  C   UNL     1      60.063  20.014   1.091  1.00  0.00     0.130 C 
ATOM     13  O   UNL     1      60.891  20.841   0.739  1.00  0.00    -0.300 OA
ATOM     14  C   UNL     1      59.438  20.139   2.450  1.00  0.00     0.087 C 
ENDBRANCH  11  12
ENDBRANCH  10  11
ENDBRANCH   2  10
TORSDOF 6
ENDMDL
MODEL 2
REMARK VINA RESULT:    -3.561      3.871      6.347
REMARK INTER + INTRA:          -5.833
REMARK INTER:                  -4.731
REMARK INTRA:                  -1.102
REMARK UNBOUND:                -1.024
REMARK SMILES CC(=O)CCC=C(C)CCC=C(C)C
REMARK SMILES IDX 7 1 6 2 8 3 9 4 10 5 11 6 13 7 12 8 14 9 5 10 4 11 2 12 3 13
REMARK SMILES IDX 1 14
REMARK H PARENT
REMARK Flexibility Score: inf
ROOT
ATOM      1  C   UNL     1      62.703  14.746  -2.136  1.00  0.00    -0.077 C 
ATOM      2  C   UNL     1      63.160  13.508  -1.838  1.00  0.00    -0.028 C 
ATOM      3  C   UNL     1      63.235  15.424  -3.373  1.00  0.00     0.039 C 
ENDROOT
BRANCH   1   4
ATOM      4  C   UNL     1      61.711  15.493  -1.263  1.00  0.00     0.034 C 
BRANCH   4   5
ATOM      5  C   UNL     1      62.372  16.661  -0.514  1.00  0.00     0.032 C 
BRANCH   5   6
ATOM      6  C   UNL     1      63.318  16.177   0.560  1.00  0.00    -0.028 C 
ATOM      7  C   UNL     1      65.370  16.873  -0.698  1.00  0.00     0.039 C 
ATOM      8  C   UNL     1      64.665  16.238   0.478  1.00  0.00    -0.080 C 
ATOM      9  C   UNL     1      65.478  15.665   1.610  1.00  0.00     0.039 C 
ENDBRANCH   5   6
ENDBRANCH   4   5
ENDBRANCH   1   4
BRANCH   2  10
ATOM     10  C   UNL     1      62.688  12.672  -0.675  1.00  0.00     0.035 C 
BRANCH  10  11
ATOM     11  C   UNL     1      61.333  12.027  -0.985  1.00  0.00     0.079 C 
BRANCH  11  12
ATOM     12  C   UNL     1      61.482  10.942  -2.018  1.00  0.00     0.130 C 
ATOM     13  O   UNL     1      62.384  10.125  -1.904  1.00  0.00    -0.300 OA
ATOM     14  C   UNL     1      60.540  10.835  -3.181  1.00  0.00     0.087 C 
ENDBRANCH  11  12
ENDBRANCH  10  11
ENDBRANCH   2  10
TORSDOF 6
ENDMDL
MODEL 3
REMARK VINA RESULT:    -3.478      1.460      2.944
REMARK INTER + INTRA:          -5.721
REMARK INTER:                  -4.563
REMARK INTRA:                  -1.159
REMARK UNBOUND:                -1.024
REMARK SMILES CC(=O)CCC=C(C)CCC=C(C)C
REMARK SMILES IDX 7 1 6 2 8 3 9 4 10 5 11 6 13 7 12 8 14 9 5 10 4 11 2 12 3 13
REMARK SMILES IDX 1 14
REMARK H PARENT
REMARK Flexibility Score: inf
ROOT
ATOM      1  C   UNL     1      63.617  15.866  -0.671  1.00  0.00    -0.077 C 
ATOM      2  C   UNL     1      62.643  16.608  -0.095  1.00  0.00    -0.028 C 
ATOM      3  C   UNL     1      64.947  15.766   0.033  1.00  0.00     0.039 C 
ENDROOT
BRANCH   1   4
ATOM      4  C   UNL     1      63.442  15.165  -2.006  1.00  0.00     0.034 C 
BRANCH   4   5
ATOM      5  C   UNL     1      63.252  13.650  -1.837  1.00  0.00     0.032 C 
BRANCH   5   6
ATOM      6  C   UNL     1      61.806  13.243  -1.995  1.00  0.00    -0.028 C 
ATOM      7  C   UNL     1      61.400  13.101   0.472  1.00  0.00     0.039 C 
ATOM      8  C   UNL     1      60.972  12.964  -0.970  1.00  0.00    -0.080 C 
ATOM      9  C   UNL     1      59.568  12.520  -1.289  1.00  0.00     0.039 C 
ENDBRANCH   5   6
ENDBRANCH   4   5
ENDBRANCH   1   4
BRANCH   2  10
ATOM     10  C   UNL     1      61.244  16.762  -0.636  1.00  0.00     0.035 C 
BRANCH  10  11
ATOM     11  C   UNL     1      60.274  17.174   0.476  1.00  0.00     0.079 C 
BRANCH  11  12
ATOM     12  C   UNL     1      59.800  18.588   0.273  1.00  0.00     0.130 C 
ATOM     13  O   UNL     1      60.579  19.427  -0.155  1.00  0.00    -0.300 OA
ATOM     14  C   UNL     1      58.387  18.991   0.576  1.00  0.00     0.087 C 
ENDBRANCH  11  12
ENDBRANCH  10  11
ENDBRANCH   2  10
TORSDOF 6
ENDMDL
MODEL 4
REMARK VINA RESULT:    -3.393      1.343      1.783
REMARK INTER + INTRA:          -5.607
REMARK INTER:                  -4.542
REMARK INTRA:                  -1.065
REMARK UNBOUND:                -1.024
REMARK SMILES CC(=O)CCC=C(C)CCC=C(C)C
REMARK SMILES IDX 7 1 6 2 8 3 9 4 10 5 11 6 13 7 12 8 14 9 5 10 4 11 2 12 3 13
REMARK SMILES IDX 1 14
REMARK H PARENT
REMARK Flexibility Score: inf
ROOT
ATOM      1  C   UNL     1      61.888  15.920   1.415  1.00  0.00    -0.077 C 
ATOM      2  C   UNL     1      61.595  17.192   1.059  1.00  0.00    -0.028 C 
ATOM      3  C   UNL     1      62.789  15.702   2.604  1.00  0.00     0.039 C 
ENDROOT
BRANCH   1   4
ATOM      4  C   UNL     1      61.380  14.710   0.651  1.00  0.00     0.034 C 
BRANCH   4   5
ATOM      5  C   UNL     1      62.523  13.943  -0.032  1.00  0.00     0.032 C 
BRANCH   5   6
ATOM      6  C   UNL     1      62.605  14.253  -1.508  1.00  0.00    -0.028 C 
ATOM      7  C   UNL     1      64.416  15.959  -1.220  1.00  0.00     0.039 C 
ATOM      8  C   UNL     1      63.428  15.177  -2.052  1.00  0.00    -0.080 C 
ATOM      9  C   UNL     1      63.358  15.411  -3.538  1.00  0.00     0.039 C 
ENDBRANCH   5   6
ENDBRANCH   4   5
ENDBRANCH   1   4
BRANCH   2  10
ATOM     10  C   UNL     1      60.666  17.580  -0.064  1.00  0.00     0.035 C 
BRANCH  10  11
ATOM     11  C   UNL     1      60.292  19.063   0.029  1.00  0.00     0.079 C 
BRANCH  11  12
ATOM     12  C   UNL     1      59.001  19.241   0.782  1.00  0.00     0.130 C 
ATOM     13  O   UNL     1      57.940  19.035   0.212  1.00  0.00    -0.300 OA
ATOM     14  C   UNL     1      58.988  19.657   2.224  1.00  0.00     0.087 C 
ENDBRANCH  11  12
ENDBRANCH  10  11
ENDBRANCH   2  10
TORSDOF 6
ENDMDL
MODEL 5
REMARK VINA RESULT:    -3.343      3.300      5.398
REMARK INTER + INTRA:          -5.539
REMARK INTER:                  -3.979
REMARK INTRA:                  -1.560
REMARK UNBOUND:                -1.024
REMARK SMILES CC(=O)CCC=C(C)CCC=C(C)C
REMARK SMILES IDX 7 1 6 2 8 3 9 4 10 5 11 6 13 7 12 8 14 9 5 10 4 11 2 12 3 13
REMARK SMILES IDX 1 14
REMARK H PARENT
REMARK Flexibility Score: inf
ROOT
ATOM      1  C   UNL     1      62.487  14.579  -1.993  1.00  0.00    -0.077 C 
ATOM      2  C   UNL     1      62.689  13.262  -1.757  1.00  0.00    -0.028 C 
ATOM      3  C   UNL     1      63.247  15.225  -3.124  1.00  0.00     0.039 C 
ENDROOT
BRANCH   1   4
ATOM      4  C   UNL     1      61.561  15.437  -1.150  1.00  0.00     0.034 C 
BRANCH   4   5
ATOM      5  C   UNL     1      62.317  16.571  -0.441  1.00  0.00     0.032 C 
BRANCH   5   6
ATOM      6  C   UNL     1      63.268  16.043   0.607  1.00  0.00    -0.028 C 
ATOM      7  C   UNL     1      65.314  16.792  -0.628  1.00  0.00     0.039 C 
ATOM      8  C   UNL     1      64.615  16.107   0.523  1.00  0.00    -0.080 C 
ATOM      9  C   UNL     1      65.431  15.488   1.628  1.00  0.00     0.039 C 
ENDBRANCH   5   6
ENDBRANCH   4   5
ENDBRANCH   1   4
BRANCH   2  10
ATOM     10  C   UNL     1      61.967  12.454  -0.708  1.00  0.00     0.035 C 
BRANCH  10  11
ATOM     11  C   UNL     1      62.904  12.115   0.456  1.00  0.00     0.079 C 
BRANCH  11  12
ATOM     12  C   UNL     1      62.428  12.760   1.729  1.00  0.00     0.130 C 
ATOM     13  O   UNL     1      63.201  12.878   2.669  1.00  0.00    -0.300 OA
ATOM     14  C   UNL     1      61.025  13.274   1.869  1.00  0.00     0.087 C 
ENDBRANCH  11  12
ENDBRANCH  10  11
ENDBRANCH   2  10
TORSDOF 6
ENDMDL
MODEL 6
REMARK VINA RESULT:    -3.272     13.147     15.335
REMARK INTER + INTRA:          -5.443
REMARK INTER:                  -4.372
REMARK INTRA:                  -1.071
REMARK UNBOUND:                -1.024
REMARK SMILES CC(=O)CCC=C(C)CCC=C(C)C
REMARK SMILES IDX 7 1 6 2 8 3 9 4 10 5 11 6 13 7 12 8 14 9 5 10 4 11 2 12 3 13
REMARK SMILES IDX 1 14
REMARK H PARENT
REMARK Flexibility Score: inf
ROOT
ATOM      1  C   UNL     1      56.924   5.333   6.444  1.00  0.00    -0.077 C 
ATOM      2  C   UNL     1      57.367   4.064   6.287  1.00  0.00    -0.028 C 
ATOM      3  C   UNL     1      57.150   6.008   7.773  1.00  0.00     0.039 C 
ENDROOT
BRANCH   1   4
ATOM      4  C   UNL     1      56.181   6.088   5.357  1.00  0.00     0.034 C 
BRANCH   4   5
ATOM      5  C   UNL     1      54.783   6.528   5.819  1.00  0.00     0.032 C 
BRANCH   5   6
ATOM      6  C   UNL     1      53.722   6.192   4.798  1.00  0.00    -0.028 C 
ATOM      7  C   UNL     1      53.776   8.464   3.744  1.00  0.00     0.039 C 
ATOM      8  C   UNL     1      53.238   7.059   3.881  1.00  0.00    -0.080 C 
ATOM      9  C   UNL     1      52.140   6.590   2.962  1.00  0.00     0.039 C 
ENDBRANCH   5   6
ENDBRANCH   4   5
ENDBRANCH   1   4
BRANCH   2  10
ATOM     10  C   UNL     1      57.274   3.270   5.009  1.00  0.00     0.035 C 
BRANCH  10  11
ATOM     11  C   UNL     1      56.131   2.252   5.084  1.00  0.00     0.079 C 
BRANCH  11  12
ATOM     12  C   UNL     1      54.936   2.733   4.305  1.00  0.00     0.130 C 
ATOM     13  O   UNL     1      53.824   2.663   4.807  1.00  0.00    -0.300 OA
ATOM     14  C   UNL     1      55.081   3.308   2.927  1.00  0.00     0.087 C 
ENDBRANCH  11  12
ENDBRANCH  10  11
ENDBRANCH   2  10
TORSDOF 6
ENDMDL
MODEL 7
REMARK VINA RESULT:    -3.231      2.861      4.987
REMARK INTER + INTRA:          -5.387
REMARK INTER:                  -3.656
REMARK INTRA:                  -1.732
REMARK UNBOUND:                -1.024
REMARK SMILES CC(=O)CCC=C(C)CCC=C(C)C
REMARK SMILES IDX 7 1 6 2 8 3 9 4 10 5 11 6 13 7 12 8 14 9 5 10 4 11 2 12 3 13
REMARK SMILES IDX 1 14
REMARK H PARENT
REMARK Flexibility Score: inf
ROOT
ATOM      1  C   UNL     1      63.657  14.998  -2.117  1.00  0.00    -0.077 C 
ATOM      2  C   UNL     1      64.244  15.914  -1.313  1.00  0.00    -0.028 C 
ATOM      3  C   UNL     1      63.251  15.423  -3.505  1.00  0.00     0.039 C 
ENDROOT
BRANCH   1   4
ATOM      4  C   UNL     1      63.358  13.578  -1.670  1.00  0.00     0.034 C 
BRANCH   4   5
ATOM      5  C   UNL     1      61.848  13.303  -1.610  1.00  0.00     0.032 C 
BRANCH   5   6
ATOM      6  C   UNL     1      61.328  13.326  -0.191  1.00  0.00    -0.028 C 
ATOM      7  C   UNL     1      60.462  15.670  -0.368  1.00  0.00     0.039 C 
ATOM      8  C   UNL     1      60.732  14.391   0.389  1.00  0.00    -0.080 C 
ATOM      9  C   UNL     1      60.314  14.279   1.832  1.00  0.00     0.039 C 
ENDBRANCH   5   6
ENDBRANCH   4   5
ENDBRANCH   1   4
BRANCH   2  10
ATOM     10  C   UNL     1      64.762  15.637   0.076  1.00  0.00     0.035 C 
BRANCH  10  11
ATOM     11  C   UNL     1      63.851  16.272   1.132  1.00  0.00     0.079 C 
BRANCH  11  12
ATOM     12  C   UNL     1      63.840  15.448   2.391  1.00  0.00     0.130 C 
ATOM     13  O   UNL     1      63.695  16.003   3.471  1.00  0.00    -0.300 OA
ATOM     14  C   UNL     1      63.992  13.956   2.351  1.00  0.00     0.087 C 
ENDBRANCH  11  12
ENDBRANCH  10  11
ENDBRANCH   2  10
TORSDOF 6
ENDMDL
MODEL 8
REMARK VINA RESULT:    -3.200      1.654      2.699
REMARK INTER + INTRA:          -5.346
REMARK INTER:                  -4.107
REMARK INTRA:                  -1.239
REMARK UNBOUND:                -1.024
REMARK SMILES CC(=O)CCC=C(C)CCC=C(C)C
REMARK SMILES IDX 7 1 6 2 8 3 9 4 10 5 11 6 13 7 12 8 14 9 5 10 4 11 2 12 3 13
REMARK SMILES IDX 1 14
REMARK H PARENT
REMARK Flexibility Score: inf
ROOT
ATOM      1  C   UNL     1      60.865  15.560  -0.564  1.00  0.00    -0.077 C 
ATOM      2  C   UNL     1      60.502  16.407   0.427  1.00  0.00    -0.028 C 
ATOM      3  C   UNL     1      60.119  14.257  -0.698  1.00  0.00     0.039 C 
ENDROOT
BRANCH   1   4
ATOM      4  C   UNL     1      62.010  15.848  -1.518  1.00  0.00     0.034 C 
BRANCH   4   5
ATOM      5  C   UNL     1      63.275  15.057  -1.152  1.00  0.00     0.032 C 
BRANCH   5   6
ATOM      6  C   UNL     1      64.232  15.878  -0.321  1.00  0.00    -0.028 C 
ATOM      7  C   UNL     1      63.610  14.744   1.824  1.00  0.00     0.039 C 
ATOM      8  C   UNL     1      64.371  15.771   1.019  1.00  0.00    -0.080 C 
ATOM      9  C   UNL     1      65.332  16.699   1.715  1.00  0.00     0.039 C 
ENDBRANCH   5   6
ENDBRANCH   4   5
ENDBRANCH   1   4
BRANCH   2  10
ATOM     10  C   UNL     1      61.103  17.770   0.660  1.00  0.00     0.035 C 
BRANCH  10  11
ATOM     11  C   UNL     1      60.285  18.853  -0.050  1.00  0.00     0.079 C 
BRANCH  11  12
ATOM     12  C   UNL     1      59.041  19.180   0.732  1.00  0.00     0.130 C 
ATOM     13  O   UNL     1      57.947  19.046   0.203  1.00  0.00    -0.300 OA
ATOM     14  C   UNL     1      59.112  19.658   2.152  1.00  0.00     0.087 C 
ENDBRANCH  11  12
ENDBRANCH  10  11
ENDBRANCH   2  10
TORSDOF 6
ENDMDL
MODEL 9
REMARK VINA RESULT:    -3.186      2.773      5.009
REMARK INTER + INTRA:          -5.327
REMARK INTER:                  -3.664
REMARK INTRA:                  -1.663
REMARK UNBOUND:                -1.024
REMARK SMILES CC(=O)CCC=C(C)CCC=C(C)C
REMARK SMILES IDX 7 1 6 2 8 3 9 4 10 5 11 6 13 7 12 8 14 9 5 10 4 11 2 12 3 13
REMARK SMILES IDX 1 14
REMARK H PARENT
REMARK Flexibility Score: inf
ROOT
ATOM      1  C   UNL     1      62.400  12.366  -1.443  1.00  0.00    -0.077 C 
ATOM      2  C   UNL     1      63.280  13.377  -1.627  1.00  0.00    -0.028 C 
ATOM      3  C   UNL     1      62.771  11.263  -0.484  1.00  0.00     0.039 C 
ENDROOT
BRANCH   1   4
ATOM      4  C   UNL     1      61.079  12.276  -2.185  1.00  0.00     0.034 C 
BRANCH   4   5
ATOM      5  C   UNL     1      59.878  12.365  -1.230  1.00  0.00     0.032 C 
BRANCH   5   6
ATOM      6  C   UNL     1      59.565  13.794  -0.852  1.00  0.00    -0.028 C 
ATOM      7  C   UNL     1      60.461  13.553   1.475  1.00  0.00     0.039 C 
ATOM      8  C   UNL     1      59.792  14.332   0.366  1.00  0.00    -0.080 C 
ATOM      9  C   UNL     1      59.377  15.760   0.607  1.00  0.00     0.039 C 
ENDBRANCH   5   6
ENDBRANCH   4   5
ENDBRANCH   1   4
BRANCH   2  10
ATOM     10  C   UNL     1      63.039  14.582  -2.501  1.00  0.00     0.035 C 
BRANCH  10  11
ATOM     11  C   UNL     1      62.525  15.762  -1.671  1.00  0.00     0.079 C 
BRANCH  11  12
ATOM     12  C   UNL     1      63.511  16.125  -0.593  1.00  0.00     0.130 C 
ATOM     13  O   UNL     1      64.644  16.461  -0.903  1.00  0.00    -0.300 OA
ATOM     14  C   UNL     1      63.130  16.093   0.858  1.00  0.00     0.087 C 
ENDBRANCH  11  12
ENDBRANCH  10  11
ENDBRANCH   2  10
TORSDOF 6
ENDMDL
