MODEL 1
REMARK VINA RESULT:    -6.790      0.000      0.000
REMARK INTER + INTRA:          -7.332
REMARK INTER:                  -7.187
REMARK INTRA:                  -0.145
REMARK UNBOUND:                -0.145
REMARK SMILES CC1=CC=C(C(C)C)CC1
REMARK SMILES IDX 1 1 2 2 3 3 4 4 5 5 9 6 10 7 6 8 7 9 8 10
REMARK H PARENT
REMARK Flexibility Score: inf
ROOT
ATOM      1  C   UNL     1      -1.395 -17.823  13.884  1.00  0.00     0.039 C 
ATOM      2  C   UNL     1      -0.043 -18.094  14.475  1.00  0.00    -0.073 C 
ATOM      3  C   UNL     1       0.958 -18.519  13.689  1.00  0.00    -0.001 C 
ATOM      4  C   UNL     1       2.297 -18.789  14.249  1.00  0.00    -0.001 C 
ATOM      5  C   UNL     1       2.616 -18.398  15.497  1.00  0.00    -0.067 C 
ATOM      6  C   UNL     1       1.619 -17.569  16.284  1.00  0.00     0.035 C 
ATOM      7  C   UNL     1       0.174 -17.984  15.967  1.00  0.00     0.035 C 
ENDROOT
BRANCH   5   8
ATOM      8  C   UNL     1       3.975 -18.743  16.081  1.00  0.00     0.009 C 
ATOM      9  C   UNL     1       3.878 -18.955  17.596  1.00  0.00     0.012 C 
ATOM     10  C   UNL     1       5.014 -17.669  15.740  1.00  0.00     0.012 C 
ENDBRANCH   5   8
TORSDOF 1
ENDMDL
MODEL 2
REMARK VINA RESULT:    -6.233      1.049      4.344
REMARK INTER + INTRA:          -6.743
REMARK INTER:                  -6.569
REMARK INTRA:                  -0.174
REMARK UNBOUND:                -0.145
REMARK SMILES CC1=CC=C(C(C)C)CC1
REMARK SMILES IDX 1 1 2 2 3 3 4 4 5 5 9 6 10 7 6 8 7 9 8 10
REMARK H PARENT
REMARK Flexibility Score: inf
ROOT
ATOM      1  C   UNL     1       4.763 -18.573  15.393  1.00  0.00     0.039 C 
ATOM      2  C   UNL     1       3.291 -18.368  15.188  1.00  0.00    -0.073 C 
ATOM      3  C   UNL     1       2.724 -18.713  14.022  1.00  0.00    -0.001 C 
ATOM      4  C   UNL     1       1.277 -18.523  13.800  1.00  0.00    -0.001 C 
ATOM      5  C   UNL     1       0.454 -18.226  14.822  1.00  0.00    -0.067 C 
ATOM      6  C   UNL     1       1.012 -18.204  16.232  1.00  0.00     0.035 C 
ATOM      7  C   UNL     1       2.459 -17.688  16.251  1.00  0.00     0.035 C 
ENDROOT
BRANCH   5   8
ATOM      8  C   UNL     1      -1.021 -17.969  14.564  1.00  0.00     0.009 C 
ATOM      9  C   UNL     1      -1.255 -17.564  13.105  1.00  0.00     0.012 C 
ATOM     10  C   UNL     1      -1.576 -16.912  15.525  1.00  0.00     0.012 C 
ENDBRANCH   5   8
TORSDOF 1
ENDMDL
MODEL 3
REMARK VINA RESULT:    -6.025      6.381      9.873
REMARK INTER + INTRA:          -6.522
REMARK INTER:                  -6.359
REMARK INTRA:                  -0.163
REMARK UNBOUND:                -0.145
REMARK SMILES CC1=CC=C(C(C)C)CC1
REMARK SMILES IDX 1 1 2 2 3 3 4 4 5 5 9 6 10 7 6 8 7 9 8 10
REMARK H PARENT
REMARK Flexibility Score: inf
ROOT
ATOM      1  C   UNL     1      -2.393 -15.827  12.396  1.00  0.00     0.039 C 
ATOM      2  C   UNL     1      -2.920 -15.519  11.026  1.00  0.00    -0.073 C 
ATOM      3  C   UNL     1      -2.336 -14.566  10.283  1.00  0.00    -0.001 C 
ATOM      4  C   UNL     1      -2.836 -14.248   8.932  1.00  0.00    -0.001 C 
ATOM      5  C   UNL     1      -3.727 -15.049   8.318  1.00  0.00    -0.067 C 
ATOM      6  C   UNL     1      -4.124 -16.352   8.985  1.00  0.00     0.035 C 
ATOM      7  C   UNL     1      -4.165 -16.207  10.514  1.00  0.00     0.035 C 
ENDROOT
BRANCH   5   8
ATOM      8  C   UNL     1      -4.281 -14.671   6.956  1.00  0.00     0.009 C 
ATOM      9  C   UNL     1      -5.128 -13.397   7.048  1.00  0.00     0.012 C 
ATOM     10  C   UNL     1      -5.085 -15.824   6.344  1.00  0.00     0.012 C 
ENDBRANCH   5   8
TORSDOF 1
ENDMDL
MODEL 4
REMARK VINA RESULT:    -6.013      7.388      9.584
REMARK INTER + INTRA:          -6.509
REMARK INTER:                  -6.344
REMARK INTRA:                  -0.164
REMARK UNBOUND:                -0.145
REMARK SMILES CC1=CC=C(C(C)C)CC1
REMARK SMILES IDX 1 1 2 2 3 3 4 4 5 5 9 6 10 7 6 8 7 9 8 10
REMARK H PARENT
REMARK Flexibility Score: inf
ROOT
ATOM      1  C   UNL     1      -5.383 -15.366   5.221  1.00  0.00     0.039 C 
ATOM      2  C   UNL     1      -4.673 -15.304   6.541  1.00  0.00    -0.073 C 
ATOM      3  C   UNL     1      -4.129 -16.415   7.061  1.00  0.00    -0.001 C 
ATOM      4  C   UNL     1      -3.422 -16.376   8.356  1.00  0.00    -0.001 C 
ATOM      5  C   UNL     1      -3.101 -15.204   8.933  1.00  0.00    -0.067 C 
ATOM      6  C   UNL     1      -3.368 -13.916   8.178  1.00  0.00     0.035 C 
ATOM      7  C   UNL     1      -4.648 -14.018   7.335  1.00  0.00     0.035 C 
ENDROOT
BRANCH   5   8
ATOM      8  C   UNL     1      -2.434 -15.182  10.297  1.00  0.00     0.009 C 
ATOM      9  C   UNL     1      -3.344 -15.812  11.357  1.00  0.00     0.012 C 
ATOM     10  C   UNL     1      -2.029 -13.758  10.695  1.00  0.00     0.012 C 
ENDBRANCH   5   8
TORSDOF 1
ENDMDL
MODEL 5
REMARK VINA RESULT:    -5.992      6.206      9.624
REMARK INTER + INTRA:          -6.487
REMARK INTER:                  -6.346
REMARK INTRA:                  -0.141
REMARK UNBOUND:                -0.145
REMARK SMILES CC1=CC=C(C(C)C)CC1
REMARK SMILES IDX 1 1 2 2 3 3 4 4 5 5 9 6 10 7 6 8 7 9 8 10
REMARK H PARENT
REMARK Flexibility Score: inf
ROOT
ATOM      1  C   UNL     1      -2.406 -15.621  12.675  1.00  0.00     0.039 C 
ATOM      2  C   UNL     1      -2.735 -15.419  11.225  1.00  0.00    -0.073 C 
ATOM      3  C   UNL     1      -3.707 -16.145  10.652  1.00  0.00    -0.001 C 
ATOM      4  C   UNL     1      -4.048 -15.960   9.227  1.00  0.00    -0.001 C 
ATOM      5  C   UNL     1      -3.569 -14.913   8.532  1.00  0.00    -0.067 C 
ATOM      6  C   UNL     1      -2.764 -13.853   9.261  1.00  0.00     0.035 C 
ATOM      7  C   UNL     1      -1.914 -14.471  10.381  1.00  0.00     0.035 C 
ENDROOT
BRANCH   5   8
ATOM      8  C   UNL     1      -3.876 -14.775   7.051  1.00  0.00     0.009 C 
ATOM      9  C   UNL     1      -5.037 -13.800   6.825  1.00  0.00     0.012 C 
ATOM     10  C   UNL     1      -4.171 -16.139   6.416  1.00  0.00     0.012 C 
ENDBRANCH   5   8
TORSDOF 1
ENDMDL
MODEL 6
REMARK VINA RESULT:    -5.954      6.986      9.502
REMARK INTER + INTRA:          -6.447
REMARK INTER:                  -6.307
REMARK INTRA:                  -0.140
REMARK UNBOUND:                -0.145
REMARK SMILES CC1=CC=C(C(C)C)CC1
REMARK SMILES IDX 1 1 2 2 3 3 4 4 5 5 9 6 10 7 6 8 7 9 8 10
REMARK H PARENT
REMARK Flexibility Score: inf
ROOT
ATOM      1  C   UNL     1      -5.392 -15.375   5.385  1.00  0.00     0.039 C 
ATOM      2  C   UNL     1      -4.546 -15.286   6.620  1.00  0.00    -0.073 C 
ATOM      3  C   UNL     1      -4.304 -14.092   7.182  1.00  0.00    -0.001 C 
ATOM      4  C   UNL     1      -3.477 -13.982   8.399  1.00  0.00    -0.001 C 
ATOM      5  C   UNL     1      -3.141 -15.075   9.108  1.00  0.00    -0.067 C 
ATOM      6  C   UNL     1      -3.724 -16.417   8.707  1.00  0.00     0.035 C 
ATOM      7  C   UNL     1      -3.884 -16.523   7.183  1.00  0.00     0.035 C 
ENDROOT
BRANCH   5   8
ATOM      8  C   UNL     1      -2.235 -14.951  10.320  1.00  0.00     0.009 C 
ATOM      9  C   UNL     1      -2.817 -15.713  11.515  1.00  0.00     0.012 C 
ATOM     10  C   UNL     1      -1.980 -13.481  10.674  1.00  0.00     0.012 C 
ENDBRANCH   5   8
TORSDOF 1
ENDMDL
MODEL 7
REMARK VINA RESULT:    -5.882      6.801      9.502
REMARK INTER + INTRA:          -6.371
REMARK INTER:                  -6.201
REMARK INTRA:                  -0.170
REMARK UNBOUND:                -0.145
REMARK SMILES CC1=CC=C(C(C)C)CC1
REMARK SMILES IDX 1 1 2 2 3 3 4 4 5 5 9 6 10 7 6 8 7 9 8 10
REMARK H PARENT
REMARK Flexibility Score: inf
ROOT
ATOM      1  C   UNL     1      -5.363 -15.367   5.350  1.00  0.00     0.039 C 
ATOM      2  C   UNL     1      -4.810 -15.506   6.737  1.00  0.00    -0.073 C 
ATOM      3  C   UNL     1      -3.965 -14.580   7.217  1.00  0.00    -0.001 C 
ATOM      4  C   UNL     1      -3.411 -14.696   8.581  1.00  0.00    -0.001 C 
ATOM      5  C   UNL     1      -3.910 -15.588   9.456  1.00  0.00    -0.067 C 
ATOM      6  C   UNL     1      -5.132 -16.397   9.064  1.00  0.00     0.035 C 
ATOM      7  C   UNL     1      -5.122 -16.732   7.565  1.00  0.00     0.035 C 
ENDROOT
BRANCH   5   8
ATOM      8  C   UNL     1      -3.285 -15.739  10.831  1.00  0.00     0.009 C 
ATOM      9  C   UNL     1      -2.259 -14.629  11.087  1.00  0.00     0.012 C 
ATOM     10  C   UNL     1      -2.652 -17.125  11.005  1.00  0.00     0.012 C 
ENDBRANCH   5   8
TORSDOF 1
ENDMDL
MODEL 8
REMARK VINA RESULT:    -5.820      6.825      8.898
REMARK INTER + INTRA:          -6.305
REMARK INTER:                  -6.161
REMARK INTRA:                  -0.144
REMARK UNBOUND:                -0.145
REMARK SMILES CC1=CC=C(C(C)C)CC1
REMARK SMILES IDX 1 1 2 2 3 3 4 4 5 5 9 6 10 7 6 8 7 9 8 10
REMARK H PARENT
REMARK Flexibility Score: inf
ROOT
ATOM      1  C   UNL     1      -2.369 -14.098  12.918  1.00  0.00     0.039 C 
ATOM      2  C   UNL     1      -2.650 -14.810  11.628  1.00  0.00    -0.073 C 
ATOM      3  C   UNL     1      -3.534 -15.819  11.600  1.00  0.00    -0.001 C 
ATOM      4  C   UNL     1      -3.829 -16.532  10.341  1.00  0.00    -0.001 C 
ATOM      5  C   UNL     1      -3.408 -16.048   9.158  1.00  0.00    -0.067 C 
ATOM      6  C   UNL     1      -2.724 -14.694   9.120  1.00  0.00     0.035 C 
ATOM      7  C   UNL     1      -1.874 -14.463  10.378  1.00  0.00     0.035 C 
ENDROOT
BRANCH   5   8
ATOM      8  C   UNL     1      -3.662 -16.829   7.881  1.00  0.00     0.009 C 
ATOM      9  C   UNL     1      -5.038 -16.485   7.299  1.00  0.00     0.012 C 
ATOM     10  C   UNL     1      -3.524 -18.337   8.115  1.00  0.00     0.012 C 
ENDBRANCH   5   8
TORSDOF 1
ENDMDL
MODEL 9
REMARK VINA RESULT:    -5.772      5.480      8.330
REMARK INTER + INTRA:          -6.255
REMARK INTER:                  -6.109
REMARK INTRA:                  -0.146
REMARK UNBOUND:                -0.145
REMARK SMILES CC1=CC=C(C(C)C)CC1
REMARK SMILES IDX 1 1 2 2 3 3 4 4 5 5 9 6 10 7 6 8 7 9 8 10
REMARK H PARENT
REMARK Flexibility Score: inf
ROOT
ATOM      1  C   UNL     1      -5.145 -16.082   6.795  1.00  0.00     0.039 C 
ATOM      2  C   UNL     1      -4.595 -15.904   8.179  1.00  0.00    -0.073 C 
ATOM      3  C   UNL     1      -5.138 -16.577   9.206  1.00  0.00    -0.001 C 
ATOM      4  C   UNL     1      -4.611 -16.419  10.576  1.00  0.00    -0.001 C 
ATOM      5  C   UNL     1      -3.442 -15.790  10.799  1.00  0.00    -0.067 C 
ATOM      6  C   UNL     1      -2.608 -15.347   9.611  1.00  0.00     0.035 C 
ATOM      7  C   UNL     1      -3.497 -14.899   8.442  1.00  0.00     0.035 C 
ENDROOT
BRANCH   5   8
ATOM      8  C   UNL     1      -2.949 -15.578  12.219  1.00  0.00     0.009 C 
ATOM      9  C   UNL     1      -2.381 -14.165  12.392  1.00  0.00     0.012 C 
ATOM     10  C   UNL     1      -1.915 -16.640  12.612  1.00  0.00     0.012 C 
ENDBRANCH   5   8
TORSDOF 1
ENDMDL
