MODEL 1
REMARK VINA RESULT:    -3.335      0.000      0.000
REMARK INTER + INTRA:          -4.037
REMARK INTER:                  -3.920
REMARK INTRA:                  -0.118
REMARK UNBOUND:                -0.118
REMARK SMILES CCCCC(=O)[O-]
REMARK SMILES IDX 4 1 5 2 6 3 7 4 3 5 2 6 1 7
REMARK H PARENT
REMARK Flexibility Score: inf
ROOT
ATOM      1  C   UNL     1      62.098  27.759  27.199  1.00  0.00     0.053 C 
ENDROOT
BRANCH   1   2
ATOM      2  C   UNL     1      61.727  29.009  27.935  1.00  0.00     0.041 C 
ATOM      3  O   UNL     1      62.325  30.091  27.690  1.00  0.00    -0.550 OA
ATOM      4  O   UNL     1      60.743  28.974  28.915  1.00  0.00    -0.550 OA
ENDBRANCH   1   2
BRANCH   1   5
ATOM      5  C   UNL     1      60.919  27.200  26.386  1.00  0.00     0.006 C 
BRANCH   5   6
ATOM      6  C   UNL     1      60.574  28.022  25.131  1.00  0.00    -0.003 C 
ATOM      7  C   UNL     1      61.802  28.356  24.284  1.00  0.00     0.004 C 
ENDBRANCH   5   6
ENDBRANCH   1   5
TORSDOF 3
ENDMDL
MODEL 2
REMARK VINA RESULT:    -3.332      0.792      1.717
REMARK INTER + INTRA:          -4.034
REMARK INTER:                  -3.930
REMARK INTRA:                  -0.104
REMARK UNBOUND:                -0.118
REMARK SMILES CCCCC(=O)[O-]
REMARK SMILES IDX 4 1 5 2 6 3 7 4 3 5 2 6 1 7
REMARK H PARENT
REMARK Flexibility Score: inf
ROOT
ATOM      1  C   UNL     1      61.969  27.418  27.410  1.00  0.00     0.053 C 
ENDROOT
BRANCH   1   2
ATOM      2  C   UNL     1      61.610  28.743  28.007  1.00  0.00     0.041 C 
ATOM      3  O   UNL     1      60.688  28.824  28.863  1.00  0.00    -0.550 OA
ATOM      4  O   UNL     1      62.271  29.894  27.597  1.00  0.00    -0.550 OA
ENDBRANCH   1   2
BRANCH   1   5
ATOM      5  C   UNL     1      62.024  27.476  25.875  1.00  0.00     0.006 C 
BRANCH   5   6
ATOM      6  C   UNL     1      60.695  27.881  25.212  1.00  0.00    -0.003 C 
ATOM      7  C   UNL     1      59.631  26.788  25.300  1.00  0.00     0.004 C 
ENDBRANCH   5   6
ENDBRANCH   1   5
TORSDOF 3
ENDMDL
MODEL 3
REMARK VINA RESULT:    -3.311     14.704     15.905
REMARK INTER + INTRA:          -4.009
REMARK INTER:                  -3.900
REMARK INTRA:                  -0.110
REMARK UNBOUND:                -0.118
REMARK SMILES CCCCC(=O)[O-]
REMARK SMILES IDX 4 1 5 2 6 3 7 4 3 5 2 6 1 7
REMARK H PARENT
REMARK Flexibility Score: inf
ROOT
ATOM      1  C   UNL     1      59.738  29.426  11.305  1.00  0.00     0.053 C 
ENDROOT
BRANCH   1   2
ATOM      2  C   UNL     1      60.294  29.093   9.955  1.00  0.00     0.041 C 
ATOM      3  O   UNL     1      59.946  29.760   8.944  1.00  0.00    -0.550 OA
ATOM      4  O   UNL     1      61.172  28.027   9.808  1.00  0.00    -0.550 OA
ENDBRANCH   1   2
BRANCH   1   5
ATOM      5  C   UNL     1      59.973  28.295  12.319  1.00  0.00     0.006 C 
BRANCH   5   6
ATOM      6  C   UNL     1      60.900  28.679  13.487  1.00  0.00    -0.003 C 
ATOM      7  C   UNL     1      62.381  28.613  13.116  1.00  0.00     0.004 C 
ENDBRANCH   5   6
ENDBRANCH   1   5
TORSDOF 3
ENDMDL
MODEL 4
REMARK VINA RESULT:    -3.287     14.367     15.910
REMARK INTER + INTRA:          -3.981
REMARK INTER:                  -3.850
REMARK INTRA:                  -0.131
REMARK UNBOUND:                -0.118
REMARK SMILES CCCCC(=O)[O-]
REMARK SMILES IDX 4 1 5 2 6 3 7 4 3 5 2 6 1 7
REMARK H PARENT
REMARK Flexibility Score: inf
ROOT
ATOM      1  C   UNL     1      60.470  29.582  10.815  1.00  0.00     0.053 C 
ENDROOT
BRANCH   1   2
ATOM      2  C   UNL     1      61.404  28.685  10.064  1.00  0.00     0.041 C 
ATOM      3  O   UNL     1      60.954  27.872   9.212  1.00  0.00    -0.550 OA
ATOM      4  O   UNL     1      62.767  28.724  10.325  1.00  0.00    -0.550 OA
ENDBRANCH   1   2
BRANCH   1   5
ATOM      5  C   UNL     1      59.561  28.794  11.773  1.00  0.00     0.006 C 
BRANCH   5   6
ATOM      6  C   UNL     1      60.320  28.026  12.871  1.00  0.00    -0.003 C 
ATOM      7  C   UNL     1      61.175  28.938  13.750  1.00  0.00     0.004 C 
ENDBRANCH   5   6
ENDBRANCH   1   5
TORSDOF 3
ENDMDL
MODEL 5
REMARK VINA RESULT:    -3.239     14.298     15.623
REMARK INTER + INTRA:          -3.924
REMARK INTER:                  -3.801
REMARK INTRA:                  -0.124
REMARK UNBOUND:                -0.118
REMARK SMILES CCCCC(=O)[O-]
REMARK SMILES IDX 4 1 5 2 6 3 7 4 3 5 2 6 1 7
REMARK H PARENT
REMARK Flexibility Score: inf
ROOT
ATOM      1  C   UNL     1      59.894  29.593  11.485  1.00  0.00     0.053 C 
ENDROOT
BRANCH   1   2
ATOM      2  C   UNL     1      59.644  28.494  12.470  1.00  0.00     0.041 C 
ATOM      3  O   UNL     1      60.557  28.127  13.258  1.00  0.00    -0.550 OA
ATOM      4  O   UNL     1      58.412  27.852  12.499  1.00  0.00    -0.550 OA
ENDBRANCH   1   2
BRANCH   1   5
ATOM      5  C   UNL     1      59.857  29.086  10.035  1.00  0.00     0.006 C 
BRANCH   5   6
ATOM      6  C   UNL     1      61.076  28.235   9.634  1.00  0.00    -0.003 C 
ATOM      7  C   UNL     1      62.406  28.912   9.964  1.00  0.00     0.004 C 
ENDBRANCH   5   6
ENDBRANCH   1   5
TORSDOF 3
ENDMDL
MODEL 6
REMARK VINA RESULT:    -3.223     14.116     14.932
REMARK INTER + INTRA:          -3.906
REMARK INTER:                  -3.798
REMARK INTRA:                  -0.109
REMARK UNBOUND:                -0.118
REMARK SMILES CCCCC(=O)[O-]
REMARK SMILES IDX 4 1 5 2 6 3 7 4 3 5 2 6 1 7
REMARK H PARENT
REMARK Flexibility Score: inf
ROOT
ATOM      1  C   UNL     1      60.771  28.353  13.048  1.00  0.00     0.053 C 
ENDROOT
BRANCH   1   2
ATOM      2  C   UNL     1      59.499  28.513  12.273  1.00  0.00     0.041 C 
ATOM      3  O   UNL     1      59.461  29.269  11.266  1.00  0.00    -0.550 OA
ATOM      4  O   UNL     1      58.348  27.851  12.680  1.00  0.00    -0.550 OA
ENDBRANCH   1   2
BRANCH   1   5
ATOM      5  C   UNL     1      61.765  29.489  12.761  1.00  0.00     0.006 C 
BRANCH   5   6
ATOM      6  C   UNL     1      63.076  29.026  12.099  1.00  0.00    -0.003 C 
ATOM      7  C   UNL     1      63.035  29.117  10.574  1.00  0.00     0.004 C 
ENDBRANCH   5   6
ENDBRANCH   1   5
TORSDOF 3
ENDMDL
MODEL 7
REMARK VINA RESULT:    -3.179      2.951      3.455
REMARK INTER + INTRA:          -3.854
REMARK INTER:                  -3.834
REMARK INTRA:                  -0.020
REMARK UNBOUND:                -0.118
REMARK SMILES CCCCC(=O)[O-]
REMARK SMILES IDX 4 1 5 2 6 3 7 4 3 5 2 6 1 7
REMARK H PARENT
REMARK Flexibility Score: inf
ROOT
ATOM      1  C   UNL     1      61.930  27.417  25.041  1.00  0.00     0.053 C 
ENDROOT
BRANCH   1   2
ATOM      2  C   UNL     1      60.733  27.111  25.887  1.00  0.00     0.041 C 
ATOM      3  O   UNL     1      60.810  27.180  27.143  1.00  0.00    -0.550 OA
ATOM      4  O   UNL     1      59.542  26.719  25.291  1.00  0.00    -0.550 OA
ENDBRANCH   1   2
BRANCH   1   5
ATOM      5  C   UNL     1      63.151  26.576  25.447  1.00  0.00     0.006 C 
BRANCH   5   6
ATOM      6  C   UNL     1      63.762  25.756  24.296  1.00  0.00    -0.003 C 
ATOM      7  C   UNL     1      65.233  26.085  24.047  1.00  0.00     0.004 C 
ENDBRANCH   5   6
ENDBRANCH   1   5
TORSDOF 3
ENDMDL
MODEL 8
REMARK VINA RESULT:    -3.144     13.914     14.741
REMARK INTER + INTRA:          -3.814
REMARK INTER:                  -3.790
REMARK INTRA:                  -0.024
REMARK UNBOUND:                -0.118
REMARK SMILES CCCCC(=O)[O-]
REMARK SMILES IDX 4 1 5 2 6 3 7 4 3 5 2 6 1 7
REMARK H PARENT
REMARK Flexibility Score: inf
ROOT
ATOM      1  C   UNL     1      60.424  30.200  12.917  1.00  0.00     0.053 C 
ENDROOT
BRANCH   1   2
ATOM      2  C   UNL     1      59.641  29.287  12.025  1.00  0.00     0.041 C 
ATOM      3  O   UNL     1      59.594  29.499  10.784  1.00  0.00    -0.550 OA
ATOM      4  O   UNL     1      58.936  28.221  12.568  1.00  0.00    -0.550 OA
ENDBRANCH   1   2
BRANCH   1   5
ATOM      5  C   UNL     1      59.747  31.571  13.074  1.00  0.00     0.006 C 
BRANCH   5   6
ATOM      6  C   UNL     1      60.730  32.754  13.146  1.00  0.00    -0.003 C 
ATOM      7  C   UNL     1      60.732  33.441  14.512  1.00  0.00     0.004 C 
ENDBRANCH   5   6
ENDBRANCH   1   5
TORSDOF 3
ENDMDL
MODEL 9
REMARK VINA RESULT:    -3.106     14.143     15.389
REMARK INTER + INTRA:          -3.769
REMARK INTER:                  -3.753
REMARK INTRA:                  -0.016
REMARK UNBOUND:                -0.118
REMARK SMILES CCCCC(=O)[O-]
REMARK SMILES IDX 4 1 5 2 6 3 7 4 3 5 2 6 1 7
REMARK H PARENT
REMARK Flexibility Score: inf
ROOT
ATOM      1  C   UNL     1      60.775  30.415  11.892  1.00  0.00     0.053 C 
ENDROOT
BRANCH   1   2
ATOM      2  C   UNL     1      59.825  29.513  11.168  1.00  0.00     0.041 C 
ATOM      3  O   UNL     1      59.203  28.613  11.794  1.00  0.00    -0.550 OA
ATOM      4  O   UNL     1      59.648  29.644   9.797  1.00  0.00    -0.550 OA
ENDBRANCH   1   2
BRANCH   1   5
ATOM      5  C   UNL     1      60.040  31.512  12.678  1.00  0.00     0.006 C 
BRANCH   5   6
ATOM      6  C   UNL     1      60.921  32.722  13.043  1.00  0.00    -0.003 C 
ATOM      7  C   UNL     1      60.635  33.263  14.443  1.00  0.00     0.004 C 
ENDBRANCH   5   6
ENDBRANCH   1   5
TORSDOF 3
ENDMDL
