MODEL 1
REMARK VINA RESULT:    -2.743      0.000      0.000
REMARK INTER + INTRA:          -2.743
REMARK INTER:                  -2.743
REMARK INTRA:                   0.000
REMARK UNBOUND:                 0.000
REMARK SMILES CC(=O)[O-]
REMARK SMILES IDX 1 1 2 2 3 3 4 4
REMARK H PARENT
REMARK Flexibility Score: inf
ROOT
ATOM      1  C   UNL     1      -0.986  12.741 -36.710  1.00  0.00     0.063 C 
ATOM      2  C   UNL     1      -0.276  11.853 -37.676  1.00  0.00     0.038 C 
ATOM      3  O   UNL     1      -0.897  10.922 -38.250  1.00  0.00    -0.550 OA
ATOM      4  O   UNL     1       1.084  12.018 -37.902  1.00  0.00    -0.550 OA
ENDROOT
TORSDOF 0
ENDMDL
MODEL 2
REMARK VINA RESULT:    -2.658      1.387      2.119
REMARK INTER + INTRA:          -2.658
REMARK INTER:                  -2.658
REMARK INTRA:                   0.000
REMARK UNBOUND:                 0.000
REMARK SMILES CC(=O)[O-]
REMARK SMILES IDX 1 1 2 2 3 3 4 4
REMARK H PARENT
REMARK Flexibility Score: inf
ROOT
ATOM      1  C   UNL     1      -0.839  10.258 -38.362  1.00  0.00     0.063 C 
ATOM      2  C   UNL     1      -0.119  11.461 -37.855  1.00  0.00     0.038 C 
ATOM      3  O   UNL     1       1.104  11.620 -38.111  1.00  0.00    -0.550 OA
ATOM      4  O   UNL     1      -0.781  12.382 -37.054  1.00  0.00    -0.550 OA
ENDROOT
TORSDOF 0
ENDMDL
MODEL 3
REMARK VINA RESULT:    -2.534      7.094      7.297
REMARK INTER + INTRA:          -2.534
REMARK INTER:                  -2.534
REMARK INTRA:                   0.000
REMARK UNBOUND:                 0.000
REMARK SMILES CC(=O)[O-]
REMARK SMILES IDX 1 1 2 2 3 3 4 4
REMARK H PARENT
REMARK Flexibility Score: inf
ROOT
ATOM      1  C   UNL     1       0.483   7.273 -42.022  1.00  0.00     0.063 C 
ATOM      2  C   UNL     1       0.928   5.914 -41.601  1.00  0.00     0.038 C 
ATOM      3  O   UNL     1       0.103   5.105 -41.103  1.00  0.00    -0.550 OA
ATOM      4  O   UNL     1       2.266   5.557 -41.707  1.00  0.00    -0.550 OA
ENDROOT
TORSDOF 0
ENDMDL
MODEL 4
REMARK VINA RESULT:    -2.482      6.640      7.281
REMARK INTER + INTRA:          -2.482
REMARK INTER:                  -2.482
REMARK INTRA:                   0.000
REMARK UNBOUND:                 0.000
REMARK SMILES CC(=O)[O-]
REMARK SMILES IDX 1 1 2 2 3 3 4 4
REMARK H PARENT
REMARK Flexibility Score: inf
ROOT
ATOM      1  C   UNL     1      -7.027   7.718 -39.759  1.00  0.00     0.063 C 
ATOM      2  C   UNL     1      -6.310   8.994 -39.472  1.00  0.00     0.038 C 
ATOM      3  O   UNL     1      -5.171   8.971 -38.935  1.00  0.00    -0.550 OA
ATOM      4  O   UNL     1      -6.920  10.211 -39.744  1.00  0.00    -0.550 OA
ENDROOT
TORSDOF 0
ENDMDL
MODEL 5
REMARK VINA RESULT:    -2.481      7.110      7.606
REMARK INTER + INTRA:          -2.481
REMARK INTER:                  -2.481
REMARK INTRA:                   0.000
REMARK UNBOUND:                 0.000
REMARK SMILES CC(=O)[O-]
REMARK SMILES IDX 1 1 2 2 3 3 4 4
REMARK H PARENT
REMARK Flexibility Score: inf
ROOT
ATOM      1  C   UNL     1      -5.847   8.620 -39.071  1.00  0.00     0.063 C 
ATOM      2  C   UNL     1      -7.028   9.529 -39.101  1.00  0.00     0.038 C 
ATOM      3  O   UNL     1      -7.039  10.526 -39.869  1.00  0.00    -0.550 OA
ATOM      4  O   UNL     1      -8.096   9.311 -38.240  1.00  0.00    -0.550 OA
ENDROOT
TORSDOF 0
ENDMDL
MODEL 6
REMARK VINA RESULT:    -2.410      7.025      7.541
REMARK INTER + INTRA:          -2.410
REMARK INTER:                  -2.410
REMARK INTRA:                   0.000
REMARK UNBOUND:                 0.000
REMARK SMILES CC(=O)[O-]
REMARK SMILES IDX 1 1 2 2 3 3 4 4
REMARK H PARENT
REMARK Flexibility Score: inf
ROOT
ATOM      1  C   UNL     1       2.260   5.647 -41.867  1.00  0.00     0.063 C 
ATOM      2  C   UNL     1       0.829   6.029 -41.695  1.00  0.00     0.038 C 
ATOM      3  O   UNL     1       0.419   7.143 -42.113  1.00  0.00    -0.550 OA
ATOM      4  O   UNL     1      -0.042   5.180 -41.026  1.00  0.00    -0.550 OA
ENDROOT
TORSDOF 0
ENDMDL
MODEL 7
REMARK VINA RESULT:    -2.345      6.971      7.365
REMARK INTER + INTRA:          -2.345
REMARK INTER:                  -2.345
REMARK INTRA:                   0.000
REMARK UNBOUND:                 0.000
REMARK SMILES CC(=O)[O-]
REMARK SMILES IDX 1 1 2 2 3 3 4 4
REMARK H PARENT
REMARK Flexibility Score: inf
ROOT
ATOM      1  C   UNL     1       0.046   5.203 -40.969  1.00  0.00     0.063 C 
ATOM      2  C   UNL     1       0.944   6.108 -41.743  1.00  0.00     0.038 C 
ATOM      3  O   UNL     1       2.133   5.769 -41.975  1.00  0.00    -0.550 OA
ATOM      4  O   UNL     1       0.486   7.350 -42.162  1.00  0.00    -0.550 OA
ENDROOT
TORSDOF 0
ENDMDL
MODEL 8
REMARK VINA RESULT:    -2.345      1.706      1.845
REMARK INTER + INTRA:          -2.345
REMARK INTER:                  -2.345
REMARK INTRA:                   0.000
REMARK UNBOUND:                 0.000
REMARK SMILES CC(=O)[O-]
REMARK SMILES IDX 1 1 2 2 3 3 4 4
REMARK H PARENT
REMARK Flexibility Score: inf
ROOT
ATOM      1  C   UNL     1      -1.745  12.714 -35.988  1.00  0.00     0.063 C 
ATOM      2  C   UNL     1      -0.921  13.016 -37.194  1.00  0.00     0.038 C 
ATOM      3  O   UNL     1      -1.239  13.967 -37.954  1.00  0.00    -0.550 OA
ATOM      4  O   UNL     1       0.166  12.213 -37.512  1.00  0.00    -0.550 OA
ENDROOT
TORSDOF 0
ENDMDL
MODEL 9
REMARK VINA RESULT:    -2.273     16.406     16.920
REMARK INTER + INTRA:          -2.273
REMARK INTER:                  -2.273
REMARK INTRA:                   0.000
REMARK UNBOUND:                 0.000
REMARK SMILES CC(=O)[O-]
REMARK SMILES IDX 1 1 2 2 3 3 4 4
REMARK H PARENT
REMARK Flexibility Score: inf
ROOT
ATOM      1  C   UNL     1     -10.795   6.722 -24.854  1.00  0.00     0.063 C 
ATOM      2  C   UNL     1     -10.715   8.203 -25.009  1.00  0.00     0.038 C 
ATOM      3  O   UNL     1     -10.660   8.715 -26.157  1.00  0.00    -0.550 OA
ATOM      4  O   UNL     1     -10.644   9.016 -23.886  1.00  0.00    -0.550 OA
ENDROOT
TORSDOF 0
ENDMDL
