MODEL 1
REMARK VINA RESULT:    -3.420      0.000      0.000
REMARK INTER + INTRA:          -5.403
REMARK INTER:                  -5.219
REMARK INTRA:                  -0.184
REMARK UNBOUND:                -0.184
REMARK SMILES CC(=O)CCC=C(C)CCC=C(C)CCC=C(C)C
REMARK SMILES IDX 10 1 11 2 12 3 13 4 14 5 15 6 16 7 18 8 17 9 19 10 9 11 7 12
REMARK SMILES IDX 6 13 8 14 5 15 4 16 2 17 3 18 1 19
REMARK H PARENT
REMARK Flexibility Score: inf
ROOT
ATOM      1  C   UNL     1      10.262 -35.814  13.338  1.00  0.00     0.032 C 
ENDROOT
BRANCH   1   2
ATOM      2  C   UNL     1       9.482 -34.751  14.067  1.00  0.00    -0.028 C 
ATOM      3  C   UNL     1       9.731 -33.424  13.975  1.00  0.00    -0.077 C 
ATOM      4  C   UNL     1      10.890 -32.884  13.171  1.00  0.00     0.039 C 
BRANCH   3   5
ATOM      5  C   UNL     1       8.837 -32.459  14.721  1.00  0.00     0.034 C 
BRANCH   5   6
ATOM      6  C   UNL     1       8.539 -32.974  16.134  1.00  0.00     0.032 C 
BRANCH   6   7
ATOM      7  C   UNL     1       9.179 -32.088  17.173  1.00  0.00    -0.028 C 
ATOM      8  C   UNL     1       7.725 -32.937  19.027  1.00  0.00     0.039 C 
ATOM      9  C   UNL     1       8.841 -32.077  18.482  1.00  0.00    -0.080 C 
ATOM     10  C   UNL     1       9.595 -31.162  19.411  1.00  0.00     0.039 C 
ENDBRANCH   6   7
ENDBRANCH   5   6
ENDBRANCH   3   5
ENDBRANCH   1   2
BRANCH   1  11
ATOM     11  C   UNL     1       9.389 -37.049  13.086  1.00  0.00     0.034 C 
BRANCH  11  12
ATOM     12  C   UNL     1       7.949 -36.774  13.461  1.00  0.00    -0.077 C 
ATOM     13  C   UNL     1       7.305 -37.645  14.271  1.00  0.00    -0.028 C 
ATOM     14  C   UNL     1       7.264 -35.549  12.902  1.00  0.00     0.039 C 
BRANCH  13  15
ATOM     15  C   UNL     1       5.890 -37.468  14.763  1.00  0.00     0.035 C 
BRANCH  15  16
ATOM     16  C   UNL     1       5.875 -37.216  16.278  1.00  0.00     0.079 C 
BRANCH  16  17
ATOM     17  C   UNL     1       6.464 -35.887  16.695  1.00  0.00     0.130 C 
ATOM     18  O   UNL     1       7.471 -35.891  17.387  1.00  0.00    -0.300 OA
ATOM     19  C   UNL     1       5.875 -34.564  16.286  1.00  0.00     0.087 C 
ENDBRANCH  16  17
ENDBRANCH  15  16
ENDBRANCH  13  15
ENDBRANCH  11  12
ENDBRANCH   1  11
TORSDOF 9
ENDMDL
MODEL 2
REMARK VINA RESULT:    -3.304      1.556      3.025
REMARK INTER + INTRA:          -5.226
REMARK INTER:                  -4.139
REMARK INTRA:                  -1.088
REMARK UNBOUND:                -0.184
REMARK SMILES CC(=O)CCC=C(C)CCC=C(C)CCC=C(C)C
REMARK SMILES IDX 10 1 11 2 12 3 13 4 14 5 15 6 16 7 18 8 17 9 19 10 9 11 7 12
REMARK SMILES IDX 6 13 8 14 5 15 4 16 2 17 3 18 1 19
REMARK H PARENT
REMARK Flexibility Score: inf
ROOT
ATOM      1  C   UNL     1       9.993 -33.053  14.176  1.00  0.00     0.032 C 
ENDROOT
BRANCH   1   2
ATOM      2  C   UNL     1       8.506 -32.926  14.390  1.00  0.00    -0.028 C 
ATOM      3  C   UNL     1       7.787 -33.705  15.230  1.00  0.00    -0.077 C 
ATOM      4  C   UNL     1       8.415 -34.847  15.993  1.00  0.00     0.039 C 
BRANCH   3   5
ATOM      5  C   UNL     1       6.307 -33.437  15.388  1.00  0.00     0.034 C 
BRANCH   5   6
ATOM      6  C   UNL     1       5.983 -32.990  16.819  1.00  0.00     0.032 C 
BRANCH   6   7
ATOM      7  C   UNL     1       7.118 -32.181  17.395  1.00  0.00    -0.028 C 
ATOM      8  C   UNL     1       7.387 -33.679  19.384  1.00  0.00     0.039 C 
ATOM      9  C   UNL     1       7.775 -32.491  18.535  1.00  0.00    -0.080 C 
ATOM     10  C   UNL     1       8.915 -31.608  18.970  1.00  0.00     0.039 C 
ENDBRANCH   6   7
ENDBRANCH   5   6
ENDBRANCH   3   5
ENDBRANCH   1   2
BRANCH   1  11
ATOM     11  C   UNL     1      10.290 -33.807  12.875  1.00  0.00     0.034 C 
BRANCH  11  12
ATOM     12  C   UNL     1      10.322 -35.301  13.116  1.00  0.00    -0.077 C 
ATOM     13  C   UNL     1       9.200 -36.023  12.898  1.00  0.00    -0.028 C 
ATOM     14  C   UNL     1      11.597 -35.939  13.616  1.00  0.00     0.039 C 
BRANCH  13  15
ATOM     15  C   UNL     1       9.105 -37.521  13.050  1.00  0.00     0.035 C 
BRANCH  15  16
ATOM     16  C   UNL     1       7.651 -37.987  12.883  1.00  0.00     0.079 C 
BRANCH  16  17
ATOM     17  C   UNL     1       6.662 -37.280  13.781  1.00  0.00     0.130 C 
ATOM     18  O   UNL     1       6.170 -36.232  13.389  1.00  0.00    -0.300 OA
ATOM     19  C   UNL     1       6.247 -37.814  15.125  1.00  0.00     0.087 C 
ENDBRANCH  16  17
ENDBRANCH  15  16
ENDBRANCH  13  15
ENDBRANCH  11  12
ENDBRANCH   1  11
TORSDOF 9
ENDMDL
MODEL 3
REMARK VINA RESULT:    -3.222      3.853      6.974
REMARK INTER + INTRA:          -5.102
REMARK INTER:                  -4.037
REMARK INTRA:                  -1.065
REMARK UNBOUND:                -0.184
REMARK SMILES CC(=O)CCC=C(C)CCC=C(C)CCC=C(C)C
REMARK SMILES IDX 10 1 11 2 12 3 13 4 14 5 15 6 16 7 18 8 17 9 19 10 9 11 7 12
REMARK SMILES IDX 6 13 8 14 5 15 4 16 2 17 3 18 1 19
REMARK H PARENT
REMARK Flexibility Score: inf
ROOT
ATOM      1  C   UNL     1      10.344 -33.346  13.762  1.00  0.00     0.032 C 
ENDROOT
BRANCH   1   2
ATOM      2  C   UNL     1       8.841 -33.277  13.681  1.00  0.00    -0.028 C 
ATOM      3  C   UNL     1       8.016 -34.328  13.895  1.00  0.00    -0.077 C 
ATOM      4  C   UNL     1       8.546 -35.715  14.169  1.00  0.00     0.039 C 
BRANCH   3   5
ATOM      5  C   UNL     1       6.521 -34.108  13.830  1.00  0.00     0.034 C 
BRANCH   5   6
ATOM      6  C   UNL     1       5.876 -34.340  15.202  1.00  0.00     0.032 C 
BRANCH   6   7
ATOM      7  C   UNL     1       6.437 -33.383  16.225  1.00  0.00    -0.028 C 
ATOM      8  C   UNL     1       7.409 -35.211  17.636  1.00  0.00     0.039 C 
ATOM      9  C   UNL     1       7.149 -33.758  17.311  1.00  0.00    -0.080 C 
ATOM     10  C   UNL     1       7.678 -32.686  18.228  1.00  0.00     0.039 C 
ENDBRANCH   6   7
ENDBRANCH   5   6
ENDBRANCH   3   5
ENDBRANCH   1   2
BRANCH   1  11
ATOM     11  C   UNL     1      10.975 -32.042  13.260  1.00  0.00     0.034 C 
BRANCH  11  12
ATOM     12  C   UNL     1      12.001 -31.527  14.246  1.00  0.00    -0.077 C 
ATOM     13  C   UNL     1      13.308 -31.543  13.898  1.00  0.00    -0.028 C 
ATOM     14  C   UNL     1      11.541 -31.033  15.596  1.00  0.00     0.039 C 
BRANCH  13  15
ATOM     15  C   UNL     1      14.428 -31.016  14.760  1.00  0.00     0.035 C 
BRANCH  15  16
ATOM     16  C   UNL     1      15.716 -30.867  13.937  1.00  0.00     0.079 C 
BRANCH  16  17
ATOM     17  C   UNL     1      16.867 -31.720  14.421  1.00  0.00     0.130 C 
ATOM     18  O   UNL     1      16.769 -32.260  15.513  1.00  0.00    -0.300 OA
ATOM     19  C   UNL     1      18.118 -31.943  13.615  1.00  0.00     0.087 C 
ENDBRANCH  16  17
ENDBRANCH  15  16
ENDBRANCH  13  15
ENDBRANCH  11  12
ENDBRANCH   1  11
TORSDOF 9
ENDMDL
MODEL 4
REMARK VINA RESULT:    -3.124      1.458      4.749
REMARK INTER + INTRA:          -4.952
REMARK INTER:                  -3.465
REMARK INTRA:                  -1.487
REMARK UNBOUND:                -0.184
REMARK SMILES CC(=O)CCC=C(C)CCC=C(C)CCC=C(C)C
REMARK SMILES IDX 10 1 11 2 12 3 13 4 14 5 15 6 16 7 18 8 17 9 19 10 9 11 7 12
REMARK SMILES IDX 6 13 8 14 5 15 4 16 2 17 3 18 1 19
REMARK H PARENT
REMARK Flexibility Score: inf
ROOT
ATOM      1  C   UNL     1      10.254 -35.409  13.403  1.00  0.00     0.032 C 
ENDROOT
BRANCH   1   2
ATOM      2  C   UNL     1       8.796 -35.738  13.594  1.00  0.00    -0.028 C 
ATOM      3  C   UNL     1       8.258 -36.964  13.398  1.00  0.00    -0.077 C 
ATOM      4  C   UNL     1       9.080 -38.123  12.887  1.00  0.00     0.039 C 
BRANCH   3   5
ATOM      5  C   UNL     1       6.785 -37.169  13.676  1.00  0.00     0.034 C 
BRANCH   5   6
ATOM      6  C   UNL     1       6.502 -37.117  15.182  1.00  0.00     0.032 C 
BRANCH   6   7
ATOM      7  C   UNL     1       5.940 -35.773  15.574  1.00  0.00    -0.028 C 
ATOM      8  C   UNL     1       7.881 -35.215  17.055  1.00  0.00     0.039 C 
ATOM      9  C   UNL     1       6.559 -34.897  16.396  1.00  0.00    -0.080 C 
ATOM     10  C   UNL     1       5.892 -33.574  16.669  1.00  0.00     0.039 C 
ENDBRANCH   6   7
ENDBRANCH   5   6
ENDBRANCH   3   5
ENDBRANCH   1   2
BRANCH   1  11
ATOM     11  C   UNL     1      10.450 -33.899  13.225  1.00  0.00     0.034 C 
BRANCH  11  12
ATOM     12  C   UNL     1       9.460 -33.127  14.070  1.00  0.00    -0.077 C 
ATOM     13  C   UNL     1       9.820 -32.751  15.319  1.00  0.00    -0.028 C 
ATOM     14  C   UNL     1       8.094 -32.817  13.507  1.00  0.00     0.039 C 
BRANCH  13  15
ATOM     15  C   UNL     1       8.954 -31.936  16.248  1.00  0.00     0.035 C 
BRANCH  15  16
ATOM     16  C   UNL     1       9.794 -31.358  17.396  1.00  0.00     0.079 C 
BRANCH  16  17
ATOM     17  C   UNL     1       9.177 -31.525  18.767  1.00  0.00     0.130 C 
ATOM     18  O   UNL     1       7.978 -31.746  18.839  1.00  0.00    -0.300 OA
ATOM     19  C   UNL     1       9.974 -31.446  20.040  1.00  0.00     0.087 C 
ENDBRANCH  16  17
ENDBRANCH  15  16
ENDBRANCH  13  15
ENDBRANCH  11  12
ENDBRANCH   1  11
TORSDOF 9
ENDMDL
MODEL 5
REMARK VINA RESULT:    -3.119      2.081      4.738
REMARK INTER + INTRA:          -4.943
REMARK INTER:                  -4.081
REMARK INTRA:                  -0.862
REMARK UNBOUND:                -0.184
REMARK SMILES CC(=O)CCC=C(C)CCC=C(C)CCC=C(C)C
REMARK SMILES IDX 10 1 11 2 12 3 13 4 14 5 15 6 16 7 18 8 17 9 19 10 9 11 7 12
REMARK SMILES IDX 6 13 8 14 5 15 4 16 2 17 3 18 1 19
REMARK H PARENT
REMARK Flexibility Score: inf
ROOT
ATOM      1  C   UNL     1       8.589 -36.683  14.145  1.00  0.00     0.032 C 
ENDROOT
BRANCH   1   2
ATOM      2  C   UNL     1       7.833 -35.384  14.247  1.00  0.00    -0.028 C 
ATOM      3  C   UNL     1       6.645 -35.239  14.880  1.00  0.00    -0.077 C 
ATOM      4  C   UNL     1       5.920 -36.414  15.490  1.00  0.00     0.039 C 
BRANCH   3   5
ATOM      5  C   UNL     1       6.018 -33.865  14.952  1.00  0.00     0.034 C 
BRANCH   5   6
ATOM      6  C   UNL     1       5.929 -33.382  16.404  1.00  0.00     0.032 C 
BRANCH   6   7
ATOM      7  C   UNL     1       7.174 -32.623  16.792  1.00  0.00    -0.028 C 
ATOM      8  C   UNL     1       7.307 -33.684  19.057  1.00  0.00     0.039 C 
ATOM      9  C   UNL     1       7.818 -32.765  17.971  1.00  0.00    -0.080 C 
ATOM     10  C   UNL     1       9.073 -31.965  18.205  1.00  0.00     0.039 C 
ENDBRANCH   6   7
ENDBRANCH   5   6
ENDBRANCH   3   5
ENDBRANCH   1   2
BRANCH   1  11
ATOM     11  C   UNL     1       9.450 -36.710  12.876  1.00  0.00     0.034 C 
BRANCH  11  12
ATOM     12  C   UNL     1      10.653 -35.804  13.025  1.00  0.00    -0.077 C 
ATOM     13  C   UNL     1      10.488 -34.469  12.878  1.00  0.00    -0.028 C 
ATOM     14  C   UNL     1      12.004 -36.414  13.308  1.00  0.00     0.039 C 
BRANCH  13  15
ATOM     15  C   UNL     1      11.587 -33.449  13.049  1.00  0.00     0.035 C 
BRANCH  15  16
ATOM     16  C   UNL     1      11.027 -32.152  13.650  1.00  0.00     0.079 C 
BRANCH  16  17
ATOM     17  C   UNL     1      11.992 -31.415  14.552  1.00  0.00     0.130 C 
ATOM     18  O   UNL     1      11.592 -31.040  15.644  1.00  0.00    -0.300 OA
ATOM     19  C   UNL     1      13.421 -31.138  14.173  1.00  0.00     0.087 C 
ENDBRANCH  16  17
ENDBRANCH  15  16
ENDBRANCH  13  15
ENDBRANCH  11  12
ENDBRANCH   1  11
TORSDOF 9
ENDMDL
MODEL 6
REMARK VINA RESULT:    -3.013      2.487      4.651
REMARK INTER + INTRA:          -4.783
REMARK INTER:                  -3.439
REMARK INTRA:                  -1.343
REMARK UNBOUND:                -0.184
REMARK SMILES CC(=O)CCC=C(C)CCC=C(C)CCC=C(C)C
REMARK SMILES IDX 10 1 11 2 12 3 13 4 14 5 15 6 16 7 18 8 17 9 19 10 9 11 7 12
REMARK SMILES IDX 6 13 8 14 5 15 4 16 2 17 3 18 1 19
REMARK H PARENT
REMARK Flexibility Score: inf
ROOT
ATOM      1  C   UNL     1       8.427 -32.473  16.103  1.00  0.00     0.032 C 
ENDROOT
BRANCH   1   2
ATOM      2  C   UNL     1       9.755 -32.500  15.392  1.00  0.00    -0.028 C 
ATOM      3  C   UNL     1       9.901 -32.599  14.050  1.00  0.00    -0.077 C 
ATOM      4  C   UNL     1       8.716 -32.769  13.130  1.00  0.00     0.039 C 
BRANCH   3   5
ATOM      5  C   UNL     1      11.294 -32.564  13.461  1.00  0.00     0.034 C 
BRANCH   5   6
ATOM      6  C   UNL     1      12.084 -31.366  14.002  1.00  0.00     0.032 C 
BRANCH   6   7
ATOM      7  C   UNL     1      13.501 -31.765  14.332  1.00  0.00    -0.028 C 
ATOM      8  C   UNL     1      14.467 -29.596  13.534  1.00  0.00     0.039 C 
ATOM      9  C   UNL     1      14.580 -30.972  14.149  1.00  0.00    -0.080 C 
ATOM     10  C   UNL     1      15.933 -31.493  14.560  1.00  0.00     0.039 C 
ENDBRANCH   6   7
ENDBRANCH   5   6
ENDBRANCH   3   5
ENDBRANCH   1   2
BRANCH   1  11
ATOM     11  C   UNL     1       8.230 -33.748  16.930  1.00  0.00     0.034 C 
BRANCH  11  12
ATOM     12  C   UNL     1       7.050 -34.544  16.416  1.00  0.00    -0.077 C 
ATOM     13  C   UNL     1       7.087 -35.894  16.496  1.00  0.00    -0.028 C 
ATOM     14  C   UNL     1       5.877 -33.813  15.808  1.00  0.00     0.039 C 
BRANCH  13  15
ATOM     15  C   UNL     1       5.963 -36.805  16.069  1.00  0.00     0.035 C 
BRANCH  15  16
ATOM     16  C   UNL     1       6.368 -37.613  14.828  1.00  0.00     0.079 C 
BRANCH  16  17
ATOM     17  C   UNL     1       6.757 -36.770  13.634  1.00  0.00     0.130 C 
ATOM     18  O   UNL     1       5.875 -36.177  13.031  1.00  0.00    -0.300 OA
ATOM     19  C   UNL     1       8.179 -36.616  13.167  1.00  0.00     0.087 C 
ENDBRANCH  16  17
ENDBRANCH  15  16
ENDBRANCH  13  15
ENDBRANCH  11  12
ENDBRANCH   1  11
TORSDOF 9
ENDMDL
MODEL 7
REMARK VINA RESULT:    -3.009      1.813      4.306
REMARK INTER + INTRA:          -4.777
REMARK INTER:                  -4.440
REMARK INTRA:                  -0.337
REMARK UNBOUND:                -0.184
REMARK SMILES CC(=O)CCC=C(C)CCC=C(C)CCC=C(C)C
REMARK SMILES IDX 10 1 11 2 12 3 13 4 14 5 15 6 16 7 18 8 17 9 19 10 9 11 7 12
REMARK SMILES IDX 6 13 8 14 5 15 4 16 2 17 3 18 1 19
REMARK H PARENT
REMARK Flexibility Score: inf
ROOT
ATOM      1  C   UNL     1       6.019 -36.387  14.543  1.00  0.00     0.032 C 
ENDROOT
BRANCH   1   2
ATOM      2  C   UNL     1       6.136 -35.199  15.463  1.00  0.00    -0.028 C 
ATOM      3  C   UNL     1       6.569 -35.265  16.744  1.00  0.00    -0.077 C 
ATOM      4  C   UNL     1       6.910 -36.580  17.403  1.00  0.00     0.039 C 
BRANCH   3   5
ATOM      5  C   UNL     1       6.687 -33.986  17.543  1.00  0.00     0.034 C 
BRANCH   5   6
ATOM      6  C   UNL     1       8.024 -33.290  17.262  1.00  0.00     0.032 C 
BRANCH   6   7
ATOM      7  C   UNL     1       8.577 -32.666  18.519  1.00  0.00    -0.028 C 
ATOM      8  C   UNL     1      10.110 -31.127  17.272  1.00  0.00     0.039 C 
ATOM      9  C   UNL     1       9.497 -31.677  18.539  1.00  0.00    -0.080 C 
ATOM     10  C   UNL     1       9.929 -31.125  19.873  1.00  0.00     0.039 C 
ENDBRANCH   6   7
ENDBRANCH   5   6
ENDBRANCH   3   5
ENDBRANCH   1   2
BRANCH   1  11
ATOM     11  C   UNL     1       7.398 -36.998  14.269  1.00  0.00     0.034 C 
BRANCH  11  12
ATOM     12  C   UNL     1       8.312 -35.986  13.614  1.00  0.00    -0.077 C 
ATOM     13  C   UNL     1       7.903 -34.700  13.518  1.00  0.00    -0.028 C 
ATOM     14  C   UNL     1       9.643 -36.443  13.065  1.00  0.00     0.039 C 
BRANCH  13  15
ATOM     15  C   UNL     1       8.732 -33.581  12.936  1.00  0.00     0.035 C 
BRANCH  15  16
ATOM     16  C   UNL     1       9.626 -32.957  14.017  1.00  0.00     0.079 C 
BRANCH  16  17
ATOM     17  C   UNL     1      11.075 -32.800  13.614  1.00  0.00     0.130 C 
ATOM     18  O   UNL     1      11.570 -33.650  12.889  1.00  0.00    -0.300 OA
ATOM     19  C   UNL     1      11.928 -31.640  14.052  1.00  0.00     0.087 C 
ENDBRANCH  16  17
ENDBRANCH  15  16
ENDBRANCH  13  15
ENDBRANCH  11  12
ENDBRANCH   1  11
TORSDOF 9
ENDMDL
