MODEL 1
REMARK VINA RESULT:     6.697      0.000      0.000
REMARK INTER + INTRA:           9.756
REMARK INTER:                  10.221
REMARK INTRA:                  -0.464
REMARK UNBOUND:                -0.464
REMARK SMILES CCCCCCCCCCC(=O)[O-]
REMARK SMILES IDX 7 1 8 2 9 3 10 4 11 5 12 6 13 7 6 8 5 9 4 10 3 11 2 12 1 13
REMARK H PARENT
REMARK Flexibility Score: inf
ROOT
ATOM      1  C   UNL     1      16.160  17.778  18.393  1.00  0.00     0.000 C 
ENDROOT
BRANCH   1   2
ATOM      2  C   UNL     1      16.277  16.702  19.483  1.00  0.00     0.000 C 
BRANCH   2   3
ATOM      3  C   UNL     1      17.633  16.725  20.211  1.00  0.00     0.006 C 
BRANCH   3   4
ATOM      4  C   UNL     1      18.059  18.123  20.692  1.00  0.00     0.053 C 
BRANCH   4   5
ATOM      5  C   UNL     1      19.548  18.276  20.780  1.00  0.00     0.041 C 
ATOM      6  O   UNL     1      20.285  17.883  19.837  1.00  0.00    -0.550 OA
ATOM      7  O   UNL     1      20.121  18.883  21.891  1.00  0.00    -0.550 OA
ENDBRANCH   4   5
ENDBRANCH   3   4
ENDBRANCH   2   3
ENDBRANCH   1   2
BRANCH   1   8
ATOM      8  C   UNL     1      17.132  17.497  17.238  1.00  0.00     0.000 C 
BRANCH   8   9
ATOM      9  C   UNL     1      16.445  17.521  15.860  1.00  0.00    -0.000 C 
BRANCH   9  10
ATOM     10  C   UNL     1      17.286  16.942  14.704  1.00  0.00    -0.000 C 
BRANCH  10  11
ATOM     11  C   UNL     1      18.063  17.983  13.875  1.00  0.00    -0.000 C 
BRANCH  11  12
ATOM     12  C   UNL     1      17.727  19.450  14.198  1.00  0.00    -0.003 C 
ATOM     13  C   UNL     1      18.959  20.354  14.201  1.00  0.00     0.004 C 
ENDBRANCH  11  12
ENDBRANCH  10  11
ENDBRANCH   9  10
ENDBRANCH   8   9
ENDBRANCH   1   8
TORSDOF 9
ENDMDL
MODEL 2
REMARK VINA RESULT:     8.335      2.834      5.784
REMARK INTER + INTRA:          12.256
REMARK INTER:                  11.438
REMARK INTRA:                   0.818
REMARK UNBOUND:                -0.464
REMARK SMILES CCCCCCCCCCC(=O)[O-]
REMARK SMILES IDX 7 1 8 2 9 3 10 4 11 5 12 6 13 7 6 8 5 9 4 10 3 11 2 12 1 13
REMARK H PARENT
REMARK Flexibility Score: inf
ROOT
ATOM      1  C   UNL     1      17.186  17.472  17.183  1.00  0.00     0.000 C 
ENDROOT
BRANCH   1   2
ATOM      2  C   UNL     1      16.471  17.637  15.834  1.00  0.00     0.000 C 
BRANCH   2   3
ATOM      3  C   UNL     1      17.201  16.936  14.674  1.00  0.00     0.006 C 
BRANCH   3   4
ATOM      4  C   UNL     1      18.137  17.860  13.875  1.00  0.00     0.053 C 
BRANCH   4   5
ATOM      5  C   UNL     1      17.997  19.301  14.262  1.00  0.00     0.041 C 
ATOM      6  O   UNL     1      16.914  19.729  14.743  1.00  0.00    -0.550 OA
ATOM      7  O   UNL     1      19.074  20.167  14.122  1.00  0.00    -0.550 OA
ENDBRANCH   4   5
ENDBRANCH   3   4
ENDBRANCH   2   3
ENDBRANCH   1   2
BRANCH   1   8
ATOM      8  C   UNL     1      16.214  17.697  18.350  1.00  0.00     0.000 C 
BRANCH   8   9
ATOM      9  C   UNL     1      16.572  16.865  19.595  1.00  0.00    -0.000 C 
BRANCH   9  10
ATOM     10  C   UNL     1      18.040  16.979  20.054  1.00  0.00    -0.000 C 
BRANCH  10  11
ATOM     11  C   UNL     1      18.347  18.175  20.976  1.00  0.00    -0.000 C 
BRANCH  11  12
ATOM     12  C   UNL     1      19.838  18.537  21.091  1.00  0.00    -0.003 C 
ATOM     13  C   UNL     1      20.679  17.961  19.952  1.00  0.00     0.004 C 
ENDBRANCH  11  12
ENDBRANCH  10  11
ENDBRANCH   9  10
ENDBRANCH   8   9
ENDBRANCH   1   8
TORSDOF 9
ENDMDL
MODEL 3
REMARK VINA RESULT:     8.488      3.167      5.901
REMARK INTER + INTRA:          12.489
REMARK INTER:                  12.969
REMARK INTRA:                  -0.480
REMARK UNBOUND:                -0.464
REMARK SMILES CCCCCCCCCCC(=O)[O-]
REMARK SMILES IDX 7 1 8 2 9 3 10 4 11 5 12 6 13 7 6 8 5 9 4 10 3 11 2 12 1 13
REMARK H PARENT
REMARK Flexibility Score: inf
ROOT
ATOM      1  C   UNL     1      16.040  17.157  18.612  1.00  0.00     0.000 C 
ENDROOT
BRANCH   1   2
ATOM      2  C   UNL     1      17.013  17.510  17.478  1.00  0.00     0.000 C 
BRANCH   2   3
ATOM      3  C   UNL     1      16.329  18.214  16.292  1.00  0.00     0.006 C 
BRANCH   3   4
ATOM      4  C   UNL     1      16.201  17.336  15.035  1.00  0.00     0.053 C 
BRANCH   4   5
ATOM      5  C   UNL     1      17.482  17.239  14.263  1.00  0.00     0.041 C 
ATOM      6  O   UNL     1      18.087  18.283  13.900  1.00  0.00    -0.550 OA
ATOM      7  O   UNL     1      18.026  15.994  13.972  1.00  0.00    -0.550 OA
ENDBRANCH   4   5
ENDBRANCH   3   4
ENDBRANCH   2   3
ENDBRANCH   1   2
BRANCH   1   8
ATOM      8  C   UNL     1      16.801  16.801  19.898  1.00  0.00     0.000 C 
BRANCH   8   9
ATOM      9  C   UNL     1      18.276  17.240  19.860  1.00  0.00    -0.000 C 
BRANCH   9  10
ATOM     10  C   UNL     1      18.709  18.165  21.015  1.00  0.00    -0.000 C 
BRANCH  10  11
ATOM     11  C   UNL     1      20.211  18.510  21.050  1.00  0.00    -0.000 C 
BRANCH  11  12
ATOM     12  C   UNL     1      21.044  17.889  19.916  1.00  0.00    -0.003 C 
ATOM     13  C   UNL     1      22.542  17.867  20.223  1.00  0.00     0.004 C 
ENDBRANCH  11  12
ENDBRANCH  10  11
ENDBRANCH   9  10
ENDBRANCH   8   9
ENDBRANCH   1   8
TORSDOF 9
ENDMDL
MODEL 4
REMARK VINA RESULT:     8.528      0.952      2.208
REMARK INTER + INTRA:          12.551
REMARK INTER:                  12.972
REMARK INTRA:                  -0.420
REMARK UNBOUND:                -0.464
REMARK SMILES CCCCCCCCCCC(=O)[O-]
REMARK SMILES IDX 7 1 8 2 9 3 10 4 11 5 12 6 13 7 6 8 5 9 4 10 3 11 2 12 1 13
REMARK H PARENT
REMARK Flexibility Score: inf
ROOT
ATOM      1  C   UNL     1      16.058  17.877  18.157  1.00  0.00     0.000 C 
ENDROOT
BRANCH   1   2
ATOM      2  C   UNL     1      16.429  17.112  19.437  1.00  0.00     0.000 C 
BRANCH   2   3
ATOM      3  C   UNL     1      17.940  17.117  19.725  1.00  0.00     0.006 C 
BRANCH   3   4
ATOM      4  C   UNL     1      18.341  17.962  20.947  1.00  0.00     0.053 C 
BRANCH   4   5
ATOM      5  C   UNL     1      19.794  18.329  20.947  1.00  0.00     0.041 C 
ATOM      6  O   UNL     1      20.287  18.979  21.907  1.00  0.00    -0.550 OA
ATOM      7  O   UNL     1      20.613  17.924  19.900  1.00  0.00    -0.550 OA
ENDBRANCH   4   5
ENDBRANCH   3   4
ENDBRANCH   2   3
ENDBRANCH   1   2
BRANCH   1   8
ATOM      8  C   UNL     1      17.014  17.521  17.009  1.00  0.00     0.000 C 
BRANCH   8   9
ATOM      9  C   UNL     1      16.498  17.990  15.636  1.00  0.00    -0.000 C 
BRANCH   9  10
ATOM     10  C   UNL     1      17.597  18.281  14.594  1.00  0.00    -0.000 C 
BRANCH  10  11
ATOM     11  C   UNL     1      18.178  17.040  13.890  1.00  0.00    -0.000 C 
BRANCH  11  12
ATOM     12  C   UNL     1      17.251  15.811  13.875  1.00  0.00    -0.003 C 
ATOM     13  C   UNL     1      17.978  14.515  14.235  1.00  0.00     0.004 C 
ENDBRANCH  11  12
ENDBRANCH  10  11
ENDBRANCH   9  10
ENDBRANCH   8   9
ENDBRANCH   1   8
TORSDOF 9
ENDMDL
