MODEL 1
REMARK VINA RESULT:    -2.704      0.000      0.000
REMARK INTER + INTRA:          -3.504
REMARK INTER:                  -3.969
REMARK INTRA:                   0.465
REMARK UNBOUND:                 0.465
REMARK SMILES CC(C)(O)CC[C@H](O)[C@](C)(O)[C@@H]1CC[C@@]2(O)C3=CC(=O)[C@@H]4C[C@H](O)[C@@H](O)C[C@]4(C)[C@@H]3CC[C@@]12C
REMARK SMILES IDX 6 1 7 2 9 3 10 4 12 5 34 6 33 7 32 8 15 9 31 10 17 11 14 12
REMARK SMILES IDX 13 13 30 14 18 15 28 16 19 17 21 18 27 19 29 20 20 21 22 22
REMARK SMILES IDX 25 23 23 24 16 25 26 27 24 29 11 31 8 33 5 35 2 36 1 37 3 38
REMARK SMILES IDX 4 39
REMARK H PARENT 16 26 26 28 24 30 11 32 8 34 4 40
REMARK Flexibility Score: inf
ROOT
ATOM      1  C   UNL     1      18.858  36.124  24.429  1.00  0.00     0.038 C 
ENDROOT
BRANCH   1   2
ATOM      2  C   UNL     1      19.699  35.644  25.664  1.00  0.00     0.146 C 
BRANCH   2   3
ATOM      3  C   UNL     1      18.896  35.321  26.987  1.00  0.00     0.091 C 
ATOM      4  C   UNL     1      18.759  33.769  27.054  1.00  0.00     0.045 C 
BRANCH   3   5
ATOM      5  C   UNL     1      19.553  35.855  28.340  1.00  0.00     0.032 C 
ATOM      6  C   UNL     1      18.706  33.726  29.739  1.00  0.00     0.015 C 
ATOM      7  C   UNL     1      19.349  35.149  29.764  1.00  0.00     0.006 C 
ATOM      8  C   UNL     1      18.476  36.091  30.642  1.00  0.00     0.011 C 
ATOM      9  C   UNL     1      20.800  35.039  30.381  1.00  0.00     0.092 C 
ATOM     10  C   UNL     1      18.361  35.610  32.079  1.00  0.00     0.009 C 
ATOM     11  C   UNL     1      20.907  35.260  31.903  1.00  0.00    -0.031 C 
ATOM     12  C   UNL     1      21.593  36.108  29.627  1.00  0.00     0.041 C 
ATOM     13  C   UNL     1      21.077  36.025  28.216  1.00  0.00     0.010 C 
ATOM     14  C   UNL     1      19.726  35.643  32.795  1.00  0.00     0.025 C 
ATOM     15  C   UNL     1      22.116  35.171  32.487  1.00  0.00     0.050 C 
ATOM     16  C   UNL     1      19.754  34.844  34.152  1.00  0.00    -0.013 C 
ATOM     17  C   UNL     1      22.286  35.243  33.945  1.00  0.00     0.159 C 
ATOM     18  C   UNL     1      21.102  35.177  34.888  1.00  0.00     0.070 C 
ATOM     19  C   UNL     1      19.630  33.303  33.877  1.00  0.00     0.042 C 
ATOM     20  C   UNL     1      18.570  35.324  35.037  1.00  0.00     0.013 C 
ATOM     21  O   UNL     1      23.449  35.382  34.411  1.00  0.00    -0.295 OA
ATOM     22  C   UNL     1      21.392  34.226  36.078  1.00  0.00     0.047 C 
ATOM     23  C   UNL     1      19.949  32.399  35.079  1.00  0.00     0.143 C 
ATOM     24  C   UNL     1      21.317  32.741  35.694  1.00  0.00     0.143 C 
BRANCH   9  25
ATOM     25  O   UNL     1      21.328  33.760  30.071  1.00  0.00    -0.385 OA
ATOM     26  H   UNL     1      21.610  33.728  29.121  1.00  0.00     0.211 HD
ENDBRANCH   9  25
BRANCH  23  27
ATOM     27  O   UNL     1      18.937  32.506  36.049  1.00  0.00    -0.390 OA
ATOM     28  H   UNL     1      18.200  31.904  35.773  1.00  0.00     0.211 HD
ENDBRANCH  23  27
BRANCH  24  29
ATOM     29  O   UNL     1      22.352  32.428  34.796  1.00  0.00    -0.390 OA
ATOM     30  H   UNL     1      22.994  33.181  34.821  1.00  0.00     0.211 HD
ENDBRANCH  24  29
ENDBRANCH   3   5
BRANCH   3  31
ATOM     31  O   UNL     1      17.593  35.845  26.884  1.00  0.00    -0.387 OA
ATOM     32  H   UNL     1      17.074  35.290  26.242  1.00  0.00     0.211 HD
ENDBRANCH   3  31
ENDBRANCH   2   3
BRANCH   2  33
ATOM     33  O   UNL     1      20.589  34.613  25.326  1.00  0.00    -0.390 OA
ATOM     34  H   UNL     1      20.298  33.779  25.770  1.00  0.00     0.211 HD
ENDBRANCH   2  33
ENDBRANCH   1   2
BRANCH   1  35
ATOM     35  C   UNL     1      19.579  36.029  23.060  1.00  0.00     0.037 C 
BRANCH  35  36
ATOM     36  C   UNL     1      18.757  35.474  21.856  1.00  0.00     0.059 C 
ATOM     37  C   UNL     1      17.267  35.881  21.937  1.00  0.00     0.042 C 
ATOM     38  C   UNL     1      19.366  36.042  20.556  1.00  0.00     0.042 C 
BRANCH  36  39
ATOM     39  O   UNL     1      18.865  34.067  21.826  1.00  0.00    -0.390 OA
ATOM     40  H   UNL     1      18.991  33.745  22.759  1.00  0.00     0.211 HD
ENDBRANCH  36  39
ENDBRANCH  35  36
ENDBRANCH   1  35
TORSDOF 11
ENDMDL
MODEL 2
REMARK VINA RESULT:    -2.356      1.587      2.798
REMARK INTER + INTRA:          -2.992
REMARK INTER:                  -3.232
REMARK INTRA:                   0.239
REMARK UNBOUND:                 0.465
REMARK SMILES CC(C)(O)CC[C@H](O)[C@](C)(O)[C@@H]1CC[C@@]2(O)C3=CC(=O)[C@@H]4C[C@H](O)[C@@H](O)C[C@]4(C)[C@@H]3CC[C@@]12C
REMARK SMILES IDX 6 1 7 2 9 3 10 4 12 5 34 6 33 7 32 8 15 9 31 10 17 11 14 12
REMARK SMILES IDX 13 13 30 14 18 15 28 16 19 17 21 18 27 19 29 20 20 21 22 22
REMARK SMILES IDX 25 23 23 24 16 25 26 27 24 29 11 31 8 33 5 35 2 36 1 37 3 38
REMARK SMILES IDX 4 39
REMARK H PARENT 16 26 26 28 24 30 11 32 8 34 4 40
REMARK Flexibility Score: inf
ROOT
ATOM      1  C   UNL     1      20.162  35.737  23.921  1.00  0.00     0.038 C 
ENDROOT
BRANCH   1   2
ATOM      2  C   UNL     1      19.315  35.274  25.158  1.00  0.00     0.146 C 
BRANCH   2   3
ATOM      3  C   UNL     1      20.113  34.953  26.485  1.00  0.00     0.091 C 
ATOM      4  C   UNL     1      21.122  36.125  26.687  1.00  0.00     0.045 C 
BRANCH   3   5
ATOM      5  C   UNL     1      19.225  34.785  27.800  1.00  0.00     0.032 C 
ATOM      6  C   UNL     1      21.324  33.974  29.265  1.00  0.00     0.015 C 
ATOM      7  C   UNL     1      19.776  34.156  29.168  1.00  0.00     0.006 C 
ATOM      8  C   UNL     1      19.082  32.779  29.372  1.00  0.00     0.011 C 
ATOM      9  C   UNL     1      19.312  35.159  30.298  1.00  0.00     0.092 C 
ATOM     10  C   UNL     1      19.392  32.165  30.728  1.00  0.00     0.009 C 
ATOM     11  C   UNL     1      18.880  34.522  31.633  1.00  0.00    -0.031 C 
ATOM     12  C   UNL     1      18.140  35.906  29.658  1.00  0.00     0.041 C 
ATOM     13  C   UNL     1      18.567  36.107  28.228  1.00  0.00     0.010 C 
ATOM     14  C   UNL     1      18.811  33.014  31.876  1.00  0.00     0.025 C 
ATOM     15  C   UNL     1      18.481  35.325  32.636  1.00  0.00     0.050 C 
ATOM     16  C   UNL     1      19.378  32.638  33.296  1.00  0.00    -0.013 C 
ATOM     17  C   UNL     1      18.176  34.807  33.978  1.00  0.00     0.159 C 
ATOM     18  C   UNL     1      18.520  33.388  34.380  1.00  0.00     0.070 C 
ATOM     19  C   UNL     1      20.891  33.042  33.400  1.00  0.00     0.042 C 
ATOM     20  C   UNL     1      19.220  31.107  33.507  1.00  0.00     0.013 C 
ATOM     21  O   UNL     1      17.596  35.567  34.800  1.00  0.00    -0.295 OA
ATOM     22  C   UNL     1      19.162  33.350  35.791  1.00  0.00     0.047 C 
ATOM     23  C   UNL     1      21.478  33.013  34.822  1.00  0.00     0.143 C 
ATOM     24  C   UNL     1      20.620  33.830  35.802  1.00  0.00     0.143 C 
BRANCH   9  25
ATOM     25  O   UNL     1      20.365  36.074  30.553  1.00  0.00    -0.385 OA
ATOM     26  H   UNL     1      20.155  36.956  30.152  1.00  0.00     0.211 HD
ENDBRANCH   9  25
BRANCH  23  27
ATOM     27  O   UNL     1      21.600  31.685  35.269  1.00  0.00    -0.390 OA
ATOM     28  H   UNL     1      22.382  31.290  34.807  1.00  0.00     0.211 HD
ENDBRANCH  23  27
BRANCH  24  29
ATOM     29  O   UNL     1      20.674  35.198  35.480  1.00  0.00    -0.390 OA
ATOM     30  H   UNL     1      21.000  35.262  34.548  1.00  0.00     0.211 HD
ENDBRANCH  24  29
ENDBRANCH   3   5
BRANCH   3  31
ATOM     31  O   UNL     1      20.873  33.782  26.303  1.00  0.00    -0.387 OA
ATOM     32  H   UNL     1      20.831  33.240  27.136  1.00  0.00     0.211 HD
ENDBRANCH   3  31
ENDBRANCH   2   3
BRANCH   2  33
ATOM     33  O   UNL     1      18.221  36.121  25.395  1.00  0.00    -0.390 OA
ATOM     34  H   UNL     1      17.862  36.430  24.528  1.00  0.00     0.211 HD
ENDBRANCH   2  33
ENDBRANCH   1   2
BRANCH   1  35
ATOM     35  C   UNL     1      19.341  36.124  22.665  1.00  0.00     0.037 C 
BRANCH  35  36
ATOM     36  C   UNL     1      19.351  35.123  21.468  1.00  0.00     0.059 C 
ATOM     37  C   UNL     1      19.514  35.848  20.111  1.00  0.00     0.042 C 
ATOM     38  C   UNL     1      20.534  34.150  21.665  1.00  0.00     0.042 C 
BRANCH  36  39
ATOM     39  O   UNL     1      18.152  34.380  21.470  1.00  0.00    -0.390 OA
ATOM     40  H   UNL     1      17.591  34.696  22.229  1.00  0.00     0.211 HD
ENDBRANCH  36  39
ENDBRANCH  35  36
ENDBRANCH   1  35
TORSDOF 11
ENDMDL
MODEL 3
REMARK VINA RESULT:    -0.488      1.273      1.424
REMARK INTER + INTRA:          -0.251
REMARK INTER:                  -1.134
REMARK INTRA:                   0.883
REMARK UNBOUND:                 0.465
REMARK SMILES CC(C)(O)CC[C@H](O)[C@](C)(O)[C@@H]1CC[C@@]2(O)C3=CC(=O)[C@@H]4C[C@H](O)[C@@H](O)C[C@]4(C)[C@@H]3CC[C@@]12C
REMARK SMILES IDX 6 1 7 2 9 3 10 4 12 5 34 6 33 7 32 8 15 9 31 10 17 11 14 12
REMARK SMILES IDX 13 13 30 14 18 15 28 16 19 17 21 18 27 19 29 20 20 21 22 22
REMARK SMILES IDX 25 23 23 24 16 25 26 27 24 29 11 31 8 33 5 35 2 36 1 37 3 38
REMARK SMILES IDX 4 39
REMARK H PARENT 16 26 26 28 24 30 11 32 8 34 4 40
REMARK Flexibility Score: inf
ROOT
ATOM      1  C   UNL     1      21.118  33.817  24.501  1.00  0.00     0.038 C 
ENDROOT
BRANCH   1   2
ATOM      2  C   UNL     1      21.449  34.463  25.893  1.00  0.00     0.146 C 
BRANCH   2   3
ATOM      3  C   UNL     1      20.239  35.107  26.681  1.00  0.00     0.091 C 
ATOM      4  C   UNL     1      19.166  33.987  26.838  1.00  0.00     0.045 C 
BRANCH   3   5
ATOM      5  C   UNL     1      20.592  35.708  28.116  1.00  0.00     0.032 C 
ATOM      6  C   UNL     1      19.639  33.548  29.394  1.00  0.00     0.015 C 
ATOM      7  C   UNL     1      20.171  35.013  29.497  1.00  0.00     0.006 C 
ATOM      8  C   UNL     1      19.088  35.906  30.168  1.00  0.00     0.011 C 
ATOM      9  C   UNL     1      21.483  35.015  30.377  1.00  0.00     0.092 C 
ATOM     10  C   UNL     1      18.736  35.441  31.573  1.00  0.00     0.009 C 
ATOM     11  C   UNL     1      21.288  35.268  31.885  1.00  0.00    -0.031 C 
ATOM     12  C   UNL     1      22.333  36.125  29.754  1.00  0.00     0.041 C 
ATOM     13  C   UNL     1      22.098  35.983  28.275  1.00  0.00     0.010 C 
ATOM     14  C   UNL     1      19.937  35.581  32.529  1.00  0.00     0.025 C 
ATOM     15  C   UNL     1      22.368  35.274  32.687  1.00  0.00     0.050 C 
ATOM     16  C   UNL     1      19.761  34.809  33.891  1.00  0.00    -0.013 C 
ATOM     17  C   UNL     1      22.255  35.382  34.149  1.00  0.00     0.159 C 
ATOM     18  C   UNL     1      20.922  35.248  34.856  1.00  0.00     0.070 C 
ATOM     19  C   UNL     1      19.793  33.259  33.642  1.00  0.00     0.042 C 
ATOM     20  C   UNL     1      18.403  35.219  34.524  1.00  0.00     0.013 C 
ATOM     21  O   UNL     1      23.298  35.609  34.820  1.00  0.00    -0.295 OA
ATOM     22  C   UNL     1      21.044  34.339  36.106  1.00  0.00     0.047 C 
ATOM     23  C   UNL     1      19.939  32.399  34.909  1.00  0.00     0.143 C 
ATOM     24  C   UNL     1      21.140  32.846  35.759  1.00  0.00     0.143 C 
BRANCH   9  25
ATOM     25  O   UNL     1      22.144  33.771  30.209  1.00  0.00    -0.385 OA
ATOM     26  H   UNL     1      22.096  33.485  29.261  1.00  0.00     0.211 HD
ENDBRANCH   9  25
BRANCH  23  27
ATOM     27  O   UNL     1      18.757  32.450  35.669  1.00  0.00    -0.390 OA
ATOM     28  H   UNL     1      18.083  31.896  35.202  1.00  0.00     0.211 HD
ENDBRANCH  23  27
BRANCH  24  29
ATOM     29  O   UNL     1      22.345  32.593  35.079  1.00  0.00    -0.390 OA
ATOM     30  H   UNL     1      22.125  32.009  34.310  1.00  0.00     0.211 HD
ENDBRANCH  24  29
ENDBRANCH   3   5
BRANCH   3  31
ATOM     31  O   UNL     1      19.659  36.125  25.899  1.00  0.00    -0.387 OA
ATOM     32  H   UNL     1      20.278  36.904  25.876  1.00  0.00     0.211 HD
ENDBRANCH   3  31
ENDBRANCH   2   3
BRANCH   2  33
ATOM     33  O   UNL     1      22.207  33.605  26.705  1.00  0.00    -0.390 OA
ATOM     34  H   UNL     1      23.093  34.013  26.862  1.00  0.00     0.211 HD
ENDBRANCH   2  33
ENDBRANCH   1   2
BRANCH   1  35
ATOM     35  C   UNL     1      21.124  34.797  23.300  1.00  0.00     0.037 C 
BRANCH  35  36
ATOM     36  C   UNL     1      20.738  34.217  21.903  1.00  0.00     0.059 C 
ATOM     37  C   UNL     1      19.945  35.238  21.054  1.00  0.00     0.042 C 
ATOM     38  C   UNL     1      22.041  33.848  21.160  1.00  0.00     0.042 C 
BRANCH  36  39
ATOM     39  O   UNL     1      19.972  33.046  22.079  1.00  0.00    -0.390 OA
ATOM     40  H   UNL     1      20.050  32.763  23.029  1.00  0.00     0.211 HD
ENDBRANCH  36  39
ENDBRANCH  35  36
ENDBRANCH   1  35
TORSDOF 11
ENDMDL
MODEL 4
REMARK VINA RESULT:    -0.295      1.744      2.320
REMARK INTER + INTRA:           0.032
REMARK INTER:                  -0.157
REMARK INTRA:                   0.189
REMARK UNBOUND:                 0.465
REMARK SMILES CC(C)(O)CC[C@H](O)[C@](C)(O)[C@@H]1CC[C@@]2(O)C3=CC(=O)[C@@H]4C[C@H](O)[C@@H](O)C[C@]4(C)[C@@H]3CC[C@@]12C
REMARK SMILES IDX 6 1 7 2 9 3 10 4 12 5 34 6 33 7 32 8 15 9 31 10 17 11 14 12
REMARK SMILES IDX 13 13 30 14 18 15 28 16 19 17 21 18 27 19 29 20 20 21 22 22
REMARK SMILES IDX 25 23 23 24 16 25 26 27 24 29 11 31 8 33 5 35 2 36 1 37 3 38
REMARK SMILES IDX 4 39
REMARK H PARENT 16 26 26 28 24 30 11 32 8 34 4 40
REMARK Flexibility Score: inf
ROOT
ATOM      1  C   UNL     1      20.804  34.465  24.447  1.00  0.00     0.038 C 
ENDROOT
BRANCH   1   2
ATOM      2  C   UNL     1      20.090  34.722  25.821  1.00  0.00     0.146 C 
BRANCH   2   3
ATOM      3  C   UNL     1      20.772  34.095  27.103  1.00  0.00     0.091 C 
ATOM      4  C   UNL     1      22.276  33.889  26.747  1.00  0.00     0.045 C 
BRANCH   3   5
ATOM      5  C   UNL     1      20.657  34.962  28.438  1.00  0.00     0.032 C 
ATOM      6  C   UNL     1      19.065  33.154  29.623  1.00  0.00     0.015 C 
ATOM      7  C   UNL     1      19.691  34.584  29.660  1.00  0.00     0.006 C 
ATOM      8  C   UNL     1      18.552  35.642  29.711  1.00  0.00     0.011 C 
ATOM      9  C   UNL     1      20.593  34.709  30.951  1.00  0.00     0.092 C 
ATOM     10  C   UNL     1      17.669  35.491  30.940  1.00  0.00     0.009 C 
ATOM     11  C   UNL     1      19.902  35.275  32.208  1.00  0.00    -0.031 C 
ATOM     12  C   UNL     1      21.732  35.630  30.507  1.00  0.00     0.041 C 
ATOM     13  C   UNL     1      22.027  35.198  29.096  1.00  0.00     0.010 C 
ATOM     14  C   UNL     1      18.456  35.773  32.235  1.00  0.00     0.025 C 
ATOM     15  C   UNL     1      20.616  35.399  33.341  1.00  0.00     0.050 C 
ATOM     16  C   UNL     1      17.716  35.304  33.545  1.00  0.00    -0.013 C 
ATOM     17  C   UNL     1      20.001  35.809  34.612  1.00  0.00     0.159 C 
ATOM     18  C   UNL     1      18.498  35.882  34.781  1.00  0.00     0.070 C 
ATOM     19  C   UNL     1      17.654  33.737  33.601  1.00  0.00     0.042 C 
ATOM     20  C   UNL     1      16.279  35.895  33.543  1.00  0.00     0.013 C 
ATOM     21  O   UNL     1      20.754  36.123  35.573  1.00  0.00    -0.295 OA
ATOM     22  C   UNL     1      18.058  35.244  36.124  1.00  0.00     0.047 C 
ATOM     23  C   UNL     1      17.236  33.150  34.960  1.00  0.00     0.143 C 
ATOM     24  C   UNL     1      18.098  33.709  36.105  1.00  0.00     0.143 C 
BRANCH   9  25
ATOM     25  O   UNL     1      21.120  33.430  31.262  1.00  0.00    -0.385 OA
ATOM     26  H   UNL     1      20.461  32.909  31.787  1.00  0.00     0.211 HD
ENDBRANCH   9  25
BRANCH  23  27
ATOM     27  O   UNL     1      15.876  33.408  35.202  1.00  0.00    -0.390 OA
ATOM     28  H   UNL     1      15.516  32.636  35.708  1.00  0.00     0.211 HD
ENDBRANCH  23  27
BRANCH  24  29
ATOM     29  O   UNL     1      19.427  33.269  35.979  1.00  0.00    -0.390 OA
ATOM     30  H   UNL     1      19.633  33.243  35.012  1.00  0.00     0.211 HD
ENDBRANCH  24  29
ENDBRANCH   3   5
BRANCH   3  31
ATOM     31  O   UNL     1      20.228  32.820  27.347  1.00  0.00    -0.387 OA
ATOM     32  H   UNL     1      19.238  32.871  27.258  1.00  0.00     0.211 HD
ENDBRANCH   3  31
ENDBRANCH   2   3
BRANCH   2  33
ATOM     33  O   UNL     1      19.771  36.076  26.005  1.00  0.00    -0.390 OA
ATOM     34  H   UNL     1      18.794  36.161  26.127  1.00  0.00     0.211 HD
ENDBRANCH   2  33
ENDBRANCH   1   2
BRANCH   1  35
ATOM     35  C   UNL     1      20.479  35.491  23.331  1.00  0.00     0.037 C 
BRANCH  35  36
ATOM     36  C   UNL     1      19.974  34.927  21.967  1.00  0.00     0.059 C 
ATOM     37  C   UNL     1      20.404  33.456  21.756  1.00  0.00     0.042 C 
ATOM     38  C   UNL     1      18.432  35.008  21.954  1.00  0.00     0.042 C 
BRANCH  36  39
ATOM     39  O   UNL     1      20.475  35.725  20.917  1.00  0.00    -0.390 OA
ATOM     40  H   UNL     1      19.702  36.105  20.419  1.00  0.00     0.211 HD
ENDBRANCH  36  39
ENDBRANCH  35  36
ENDBRANCH   1  35
TORSDOF 11
ENDMDL
