MODEL 1
REMARK VINA RESULT:    -6.628      0.000      0.000
REMARK INTER + INTRA:         -10.740
REMARK INTER:                 -10.116
REMARK INTRA:                  -0.625
REMARK UNBOUND:                -0.625
REMARK SMILES CCCCCCCCCCC(=O)[O-]
REMARK SMILES IDX 7 1 8 2 9 3 10 4 11 5 12 6 13 7 6 8 5 9 4 10 3 11 2 12 1 13
REMARK H PARENT
REMARK Flexibility Score: inf
ROOT
ATOM      1  C   UNL     1      -7.055  -2.674 -21.105  1.00  0.00     0.000 C 
ENDROOT
BRANCH   1   2
ATOM      2  C   UNL     1      -7.486  -1.550 -20.141  1.00  0.00     0.000 C 
BRANCH   2   3
ATOM      3  C   UNL     1      -6.407  -1.097 -19.138  1.00  0.00     0.006 C 
BRANCH   3   4
ATOM      4  C   UNL     1      -4.963  -1.337 -19.606  1.00  0.00     0.053 C 
BRANCH   4   5
ATOM      5  C   UNL     1      -4.242  -2.310 -18.724  1.00  0.00     0.041 C 
ATOM      6  O   UNL     1      -4.844  -3.319 -18.271  1.00  0.00    -0.550 OA
ATOM      7  O   UNL     1      -2.916  -2.086 -18.376  1.00  0.00    -0.550 OA
ENDBRANCH   4   5
ENDBRANCH   3   4
ENDBRANCH   2   3
ENDBRANCH   1   2
BRANCH   1   8
ATOM      8  C   UNL     1      -7.376  -4.101 -20.626  1.00  0.00     0.000 C 
BRANCH   8   9
ATOM      9  C   UNL     1      -8.150  -4.126 -19.300  1.00  0.00    -0.000 C 
BRANCH   9  10
ATOM     10  C   UNL     1      -8.221  -5.549 -18.732  1.00  0.00    -0.000 C 
BRANCH  10  11
ATOM     11  C   UNL     1      -8.922  -6.499 -19.714  1.00  0.00    -0.000 C 
BRANCH  11  12
ATOM     12  C   UNL     1      -8.071  -7.733 -20.051  1.00  0.00    -0.003 C 
ATOM     13  C   UNL     1      -8.554  -8.996 -19.340  1.00  0.00     0.004 C 
ENDBRANCH  11  12
ENDBRANCH  10  11
ENDBRANCH   9  10
ENDBRANCH   8   9
ENDBRANCH   1   8
TORSDOF 9
ENDMDL
MODEL 2
REMARK VINA RESULT:    -6.535      1.502      2.192
REMARK INTER + INTRA:         -10.597
REMARK INTER:                  -9.943
REMARK INTRA:                  -0.654
REMARK UNBOUND:                -0.625
REMARK SMILES CCCCCCCCCCC(=O)[O-]
REMARK SMILES IDX 7 1 8 2 9 3 10 4 11 5 12 6 13 7 6 8 5 9 4 10 3 11 2 12 1 13
REMARK H PARENT
REMARK Flexibility Score: inf
ROOT
ATOM      1  C   UNL     1      -7.475  -1.737 -19.781  1.00  0.00     0.000 C 
ENDROOT
BRANCH   1   2
ATOM      2  C   UNL     1      -6.290  -1.034 -19.088  1.00  0.00     0.000 C 
BRANCH   2   3
ATOM      3  C   UNL     1      -4.894  -1.475 -19.569  1.00  0.00     0.006 C 
BRANCH   3   4
ATOM      4  C   UNL     1      -3.800  -1.408 -18.492  1.00  0.00     0.053 C 
BRANCH   4   5
ATOM      5  C   UNL     1      -3.648  -0.026 -17.934  1.00  0.00     0.041 C 
ATOM      6  O   UNL     1      -3.060   0.864 -18.601  1.00  0.00    -0.550 OA
ATOM      7  O   UNL     1      -4.127   0.269 -16.663  1.00  0.00    -0.550 OA
ENDBRANCH   4   5
ENDBRANCH   3   4
ENDBRANCH   2   3
ENDBRANCH   1   2
BRANCH   1   8
ATOM      8  C   UNL     1      -7.092  -2.648 -20.961  1.00  0.00     0.000 C 
BRANCH   8   9
ATOM      9  C   UNL     1      -7.413  -4.127 -20.704  1.00  0.00    -0.000 C 
BRANCH   9  10
ATOM     10  C   UNL     1      -7.112  -4.510 -19.250  1.00  0.00    -0.000 C 
BRANCH  10  11
ATOM     11  C   UNL     1      -8.225  -5.397 -18.673  1.00  0.00    -0.000 C 
BRANCH  11  12
ATOM     12  C   UNL     1      -8.863  -6.309 -19.732  1.00  0.00    -0.003 C 
ATOM     13  C   UNL     1      -8.303  -7.731 -19.702  1.00  0.00     0.004 C 
ENDBRANCH  11  12
ENDBRANCH  10  11
ENDBRANCH   9  10
ENDBRANCH   8   9
ENDBRANCH   1   8
TORSDOF 9
ENDMDL
MODEL 3
REMARK VINA RESULT:    -6.305      1.295      2.346
REMARK INTER + INTRA:         -10.246
REMARK INTER:                  -9.777
REMARK INTRA:                  -0.469
REMARK UNBOUND:                -0.625
REMARK SMILES CCCCCCCCCCC(=O)[O-]
REMARK SMILES IDX 7 1 8 2 9 3 10 4 11 5 12 6 13 7 6 8 5 9 4 10 3 11 2 12 1 13
REMARK H PARENT
REMARK Flexibility Score: inf
ROOT
ATOM      1  C   UNL     1      -7.281  -4.524 -19.264  1.00  0.00     0.000 C 
ENDROOT
BRANCH   1   2
ATOM      2  C   UNL     1      -7.566  -3.908 -20.649  1.00  0.00     0.000 C 
BRANCH   2   3
ATOM      3  C   UNL     1      -6.998  -2.492 -20.866  1.00  0.00     0.006 C 
BRANCH   3   4
ATOM      4  C   UNL     1      -6.776  -1.692 -19.573  1.00  0.00     0.053 C 
BRANCH   4   5
ATOM      5  C   UNL     1      -5.327  -1.390 -19.343  1.00  0.00     0.041 C 
ATOM      6  O   UNL     1      -4.439  -2.125 -19.850  1.00  0.00    -0.550 OA
ATOM      7  O   UNL     1      -4.956  -0.316 -18.543  1.00  0.00    -0.550 OA
ENDBRANCH   4   5
ENDBRANCH   3   4
ENDBRANCH   2   3
ENDBRANCH   1   2
BRANCH   1   8
ATOM      8  C   UNL     1      -8.375  -5.469 -18.734  1.00  0.00     0.000 C 
BRANCH   8   9
ATOM      9  C   UNL     1      -8.944  -6.393 -19.820  1.00  0.00    -0.000 C 
BRANCH   9  10
ATOM     10  C   UNL     1      -8.019  -7.591 -20.063  1.00  0.00    -0.000 C 
BRANCH  10  11
ATOM     11  C   UNL     1      -8.555  -8.849 -19.363  1.00  0.00    -0.000 C 
BRANCH  11  12
ATOM     12  C   UNL     1      -8.121 -10.145 -20.065  1.00  0.00    -0.003 C 
ATOM     13  C   UNL     1      -7.907  -9.961 -21.567  1.00  0.00     0.004 C 
ENDBRANCH  11  12
ENDBRANCH  10  11
ENDBRANCH   9  10
ENDBRANCH   8   9
ENDBRANCH   1   8
TORSDOF 9
ENDMDL
MODEL 4
REMARK VINA RESULT:    -6.285      3.704      6.718
REMARK INTER + INTRA:         -10.216
REMARK INTER:                  -9.895
REMARK INTRA:                  -0.321
REMARK UNBOUND:                -0.625
REMARK SMILES CCCCCCCCCCC(=O)[O-]
REMARK SMILES IDX 7 1 8 2 9 3 10 4 11 5 12 6 13 7 6 8 5 9 4 10 3 11 2 12 1 13
REMARK H PARENT
REMARK Flexibility Score: inf
ROOT
ATOM      1  C   UNL     1      -7.042  -5.554 -20.062  1.00  0.00     0.000 C 
ENDROOT
BRANCH   1   2
ATOM      2  C   UNL     1      -8.157  -6.341 -19.341  1.00  0.00     0.000 C 
BRANCH   2   3
ATOM      3  C   UNL     1      -8.727  -7.538 -20.127  1.00  0.00     0.006 C 
BRANCH   3   4
ATOM      4  C   UNL     1      -8.349  -8.912 -19.553  1.00  0.00     0.053 C 
BRANCH   4   5
ATOM      5  C   UNL     1      -8.095  -9.919 -20.633  1.00  0.00     0.041 C 
ATOM      6  O   UNL     1      -7.582 -11.033 -20.351  1.00  0.00    -0.550 OA
ATOM      7  O   UNL     1      -8.394  -9.614 -21.955  1.00  0.00    -0.550 OA
ENDBRANCH   4   5
ENDBRANCH   3   4
ENDBRANCH   2   3
ENDBRANCH   1   2
BRANCH   1   8
ATOM      8  C   UNL     1      -7.455  -4.161 -20.571  1.00  0.00     0.000 C 
BRANCH   8   9
ATOM      9  C   UNL     1      -7.447  -3.095 -19.467  1.00  0.00    -0.000 C 
BRANCH   9  10
ATOM     10  C   UNL     1      -6.158  -2.265 -19.513  1.00  0.00    -0.000 C 
BRANCH  10  11
ATOM     11  C   UNL     1      -5.056  -2.913 -18.662  1.00  0.00    -0.000 C 
BRANCH  11  12
ATOM     12  C   UNL     1      -3.732  -2.137 -18.720  1.00  0.00    -0.003 C 
ATOM     13  C   UNL     1      -3.933  -0.642 -18.965  1.00  0.00     0.004 C 
ENDBRANCH  11  12
ENDBRANCH  10  11
ENDBRANCH   9  10
ENDBRANCH   8   9
ENDBRANCH   1   8
TORSDOF 9
ENDMDL
MODEL 5
REMARK VINA RESULT:    -6.177      2.711      6.509
REMARK INTER + INTRA:         -10.051
REMARK INTER:                  -9.464
REMARK INTRA:                  -0.587
REMARK UNBOUND:                -0.625
REMARK SMILES CCCCCCCCCCC(=O)[O-]
REMARK SMILES IDX 7 1 8 2 9 3 10 4 11 5 12 6 13 7 6 8 5 9 4 10 3 11 2 12 1 13
REMARK H PARENT
REMARK Flexibility Score: inf
ROOT
ATOM      1  C   UNL     1      -7.210  -1.870 -19.452  1.00  0.00     0.000 C 
ENDROOT
BRANCH   1   2
ATOM      2  C   UNL     1      -7.238  -2.222 -20.954  1.00  0.00     0.000 C 
BRANCH   2   3
ATOM      3  C   UNL     1      -7.203  -3.730 -21.274  1.00  0.00     0.006 C 
BRANCH   3   4
ATOM      4  C   UNL     1      -6.834  -4.624 -20.080  1.00  0.00     0.053 C 
BRANCH   4   5
ATOM      5  C   UNL     1      -7.944  -5.563 -19.719  1.00  0.00     0.041 C 
ATOM      6  O   UNL     1      -7.848  -6.789 -19.989  1.00  0.00    -0.550 OA
ATOM      7  O   UNL     1      -9.098  -5.080 -19.116  1.00  0.00    -0.550 OA
ENDBRANCH   4   5
ENDBRANCH   3   4
ENDBRANCH   2   3
ENDBRANCH   1   2
BRANCH   1   8
ATOM      8  C   UNL     1      -5.976  -1.072 -18.994  1.00  0.00     0.000 C 
BRANCH   8   9
ATOM      9  C   UNL     1      -4.802  -1.972 -18.581  1.00  0.00    -0.000 C 
BRANCH   9  10
ATOM     10  C   UNL     1      -3.478  -1.199 -18.615  1.00  0.00    -0.000 C 
BRANCH  10  11
ATOM     11  C   UNL     1      -3.726   0.317 -18.619  1.00  0.00    -0.000 C 
BRANCH  11  12
ATOM     12  C   UNL     1      -3.135   1.015 -17.385  1.00  0.00    -0.003 C 
ATOM     13  C   UNL     1      -2.589   2.407 -17.698  1.00  0.00     0.004 C 
ENDBRANCH  11  12
ENDBRANCH  10  11
ENDBRANCH   9  10
ENDBRANCH   8   9
ENDBRANCH   1   8
TORSDOF 9
ENDMDL
MODEL 6
REMARK VINA RESULT:    -6.075      2.809      6.272
REMARK INTER + INTRA:          -9.896
REMARK INTER:                  -9.359
REMARK INTRA:                  -0.537
REMARK UNBOUND:                -0.625
REMARK SMILES CCCCCCCCCCC(=O)[O-]
REMARK SMILES IDX 7 1 8 2 9 3 10 4 11 5 12 6 13 7 6 8 5 9 4 10 3 11 2 12 1 13
REMARK H PARENT
REMARK Flexibility Score: inf
ROOT
ATOM      1  C   UNL     1      -7.215  -1.736 -20.903  1.00  0.00     0.000 C 
ENDROOT
BRANCH   1   2
ATOM      2  C   UNL     1      -7.240  -3.260 -21.145  1.00  0.00     0.000 C 
BRANCH   2   3
ATOM      3  C   UNL     1      -7.296  -4.124 -19.870  1.00  0.00     0.006 C 
BRANCH   3   4
ATOM      4  C   UNL     1      -7.035  -5.620 -20.106  1.00  0.00     0.053 C 
BRANCH   4   5
ATOM      5  C   UNL     1      -8.226  -6.459 -19.755  1.00  0.00     0.041 C 
ATOM      6  O   UNL     1      -8.132  -7.714 -19.733  1.00  0.00    -0.550 OA
ATOM      7  O   UNL     1      -9.448  -5.856 -19.485  1.00  0.00    -0.550 OA
ENDBRANCH   4   5
ENDBRANCH   3   4
ENDBRANCH   2   3
ENDBRANCH   1   2
BRANCH   1   8
ATOM      8  C   UNL     1      -7.299  -1.310 -19.427  1.00  0.00     0.000 C 
BRANCH   8   9
ATOM      9  C   UNL     1      -6.009  -0.649 -18.921  1.00  0.00    -0.000 C 
BRANCH   9  10
ATOM     10  C   UNL     1      -4.775  -1.449 -19.353  1.00  0.00    -0.000 C 
BRANCH  10  11
ATOM     11  C   UNL     1      -3.512  -0.940 -18.642  1.00  0.00    -0.000 C 
BRANCH  11  12
ATOM     12  C   UNL     1      -3.775   0.319 -17.801  1.00  0.00    -0.003 C 
ATOM     13  C   UNL     1      -2.835   1.471 -18.151  1.00  0.00     0.004 C 
ENDBRANCH  11  12
ENDBRANCH  10  11
ENDBRANCH   9  10
ENDBRANCH   8   9
ENDBRANCH   1   8
TORSDOF 9
ENDMDL
MODEL 7
REMARK VINA RESULT:    -6.003      3.268      6.155
REMARK INTER + INTRA:          -9.786
REMARK INTER:                  -9.077
REMARK INTRA:                  -0.708
REMARK UNBOUND:                -0.625
REMARK SMILES CCCCCCCCCCC(=O)[O-]
REMARK SMILES IDX 7 1 8 2 9 3 10 4 11 5 12 6 13 7 6 8 5 9 4 10 3 11 2 12 1 13
REMARK H PARENT
REMARK Flexibility Score: inf
ROOT
ATOM      1  C   UNL     1      -7.810  -3.483 -19.829  1.00  0.00     0.000 C 
ENDROOT
BRANCH   1   2
ATOM      2  C   UNL     1      -7.031  -4.721 -19.338  1.00  0.00     0.000 C 
BRANCH   2   3
ATOM      3  C   UNL     1      -7.385  -6.042 -20.049  1.00  0.00     0.006 C 
BRANCH   3   4
ATOM      4  C   UNL     1      -8.520  -6.836 -19.383  1.00  0.00     0.053 C 
BRANCH   4   5
ATOM      5  C   UNL     1      -8.475  -8.289 -19.748  1.00  0.00     0.041 C 
ATOM      6  O   UNL     1      -8.322  -8.635 -20.948  1.00  0.00    -0.550 OA
ATOM      7  O   UNL     1      -8.635  -9.259 -18.767  1.00  0.00    -0.550 OA
ENDBRANCH   4   5
ENDBRANCH   3   4
ENDBRANCH   2   3
ENDBRANCH   1   2
BRANCH   1   8
ATOM      8  C   UNL     1      -7.239  -2.814 -21.092  1.00  0.00     0.000 C 
BRANCH   8   9
ATOM      9  C   UNL     1      -5.801  -3.252 -21.403  1.00  0.00    -0.000 C 
BRANCH   9  10
ATOM     10  C   UNL     1      -4.797  -2.159 -21.015  1.00  0.00    -0.000 C 
BRANCH  10  11
ATOM     11  C   UNL     1      -4.113  -2.491 -19.680  1.00  0.00    -0.000 C 
BRANCH  11  12
ATOM     12  C   UNL     1      -4.083  -1.293 -18.718  1.00  0.00    -0.003 C 
ATOM     13  C   UNL     1      -5.356  -0.449 -18.786  1.00  0.00     0.004 C 
ENDBRANCH  11  12
ENDBRANCH  10  11
ENDBRANCH   9  10
ENDBRANCH   8   9
ENDBRANCH   1   8
TORSDOF 9
ENDMDL
MODEL 8
REMARK VINA RESULT:    -5.476      4.360      5.953
REMARK INTER + INTRA:          -8.982
REMARK INTER:                  -8.725
REMARK INTRA:                  -0.257
REMARK UNBOUND:                -0.625
REMARK SMILES CCCCCCCCCCC(=O)[O-]
REMARK SMILES IDX 7 1 8 2 9 3 10 4 11 5 12 6 13 7 6 8 5 9 4 10 3 11 2 12 1 13
REMARK H PARENT
REMARK Flexibility Score: inf
ROOT
ATOM      1  C   UNL     1      -3.670   0.050 -18.664  1.00  0.00     0.000 C 
ENDROOT
BRANCH   1   2
ATOM      2  C   UNL     1      -2.501   0.991 -18.305  1.00  0.00     0.000 C 
BRANCH   2   3
ATOM      3  C   UNL     1      -2.896   2.258 -17.522  1.00  0.00     0.006 C 
BRANCH   3   4
ATOM      4  C   UNL     1      -1.902   3.422 -17.653  1.00  0.00     0.053 C 
BRANCH   4   5
ATOM      5  C   UNL     1      -2.558   4.749 -17.421  1.00  0.00     0.041 C 
ATOM      6  O   UNL     1      -3.718   4.966 -17.859  1.00  0.00    -0.550 OA
ATOM      7  O   UNL     1      -1.876   5.756 -16.751  1.00  0.00    -0.550 OA
ENDBRANCH   4   5
ENDBRANCH   3   4
ENDBRANCH   2   3
ENDBRANCH   1   2
BRANCH   1   8
ATOM      8  C   UNL     1      -3.428  -1.437 -18.351  1.00  0.00     0.000 C 
BRANCH   8   9
ATOM      9  C   UNL     1      -4.167  -2.378 -19.312  1.00  0.00    -0.000 C 
BRANCH   9  10
ATOM     10  C   UNL     1      -5.203  -3.226 -18.564  1.00  0.00    -0.000 C 
BRANCH  10  11
ATOM     11  C   UNL     1      -6.186  -3.883 -19.544  1.00  0.00    -0.000 C 
BRANCH  11  12
ATOM     12  C   UNL     1      -7.464  -3.054 -19.744  1.00  0.00    -0.003 C 
ATOM     13  C   UNL     1      -7.373  -2.105 -20.938  1.00  0.00     0.004 C 
ENDBRANCH  11  12
ENDBRANCH  10  11
ENDBRANCH   9  10
ENDBRANCH   8   9
ENDBRANCH   1   8
TORSDOF 9
ENDMDL
MODEL 9
REMARK VINA RESULT:    -5.286      3.726      7.858
REMARK INTER + INTRA:          -8.691
REMARK INTER:                  -8.338
REMARK INTRA:                  -0.353
REMARK UNBOUND:                -0.625
REMARK SMILES CCCCCCCCCCC(=O)[O-]
REMARK SMILES IDX 7 1 8 2 9 3 10 4 11 5 12 6 13 7 6 8 5 9 4 10 3 11 2 12 1 13
REMARK H PARENT
REMARK Flexibility Score: inf
ROOT
ATOM      1  C   UNL     1      -3.954  -0.733 -19.103  1.00  0.00     0.000 C 
ENDROOT
BRANCH   1   2
ATOM      2  C   UNL     1      -5.015  -1.852 -19.113  1.00  0.00     0.000 C 
BRANCH   2   3
ATOM      3  C   UNL     1      -6.462  -1.381 -19.360  1.00  0.00     0.006 C 
BRANCH   3   4
ATOM      4  C   UNL     1      -7.486  -2.519 -19.492  1.00  0.00     0.053 C 
BRANCH   4   5
ATOM      5  C   UNL     1      -7.137  -3.461 -20.603  1.00  0.00     0.041 C 
ATOM      6  O   UNL     1      -7.224  -3.086 -21.802  1.00  0.00    -0.550 OA
ATOM      7  O   UNL     1      -6.747  -4.763 -20.316  1.00  0.00    -0.550 OA
ENDBRANCH   4   5
ENDBRANCH   3   4
ENDBRANCH   2   3
ENDBRANCH   1   2
BRANCH   1   8
ATOM      8  C   UNL     1      -2.765  -0.972 -18.154  1.00  0.00     0.000 C 
BRANCH   8   9
ATOM      9  C   UNL     1      -2.448   0.245 -17.274  1.00  0.00    -0.000 C 
BRANCH   9  10
ATOM     10  C   UNL     1      -2.692   1.553 -18.036  1.00  0.00    -0.000 C 
BRANCH  10  11
ATOM     11  C   UNL     1      -2.009   2.735 -17.332  1.00  0.00    -0.000 C 
BRANCH  11  12
ATOM     12  C   UNL     1      -2.352   4.086 -17.980  1.00  0.00    -0.003 C 
ATOM     13  C   UNL     1      -3.403   4.868 -17.193  1.00  0.00     0.004 C 
ENDBRANCH  11  12
ENDBRANCH  10  11
ENDBRANCH   9  10
ENDBRANCH   8   9
ENDBRANCH   1   8
TORSDOF 9
ENDMDL
