MODEL 1
REMARK VINA RESULT:    -4.389      0.000      0.000
REMARK INTER + INTRA:          -7.121
REMARK INTER:                  -6.699
REMARK INTRA:                  -0.422
REMARK UNBOUND:                -0.422
REMARK SMILES O=C([O-])CCCCCCCCC(=O)[O-]
REMARK SMILES IDX 7 1 6 2 5 3 4 4 2 5 1 6 3 7 8 8 9 9 10 10 11 11 12 12 13 13
REMARK SMILES IDX 14 14
REMARK H PARENT
REMARK Flexibility Score: inf
ROOT
ATOM      1  C   UNL     1       0.862   3.406  -4.581  1.00  0.00     0.000 C 
ENDROOT
BRANCH   1   2
ATOM      2  C   UNL     1       1.770   3.263  -3.344  1.00  0.00     0.000 C 
BRANCH   2   3
ATOM      3  C   UNL     1       2.431   1.884  -3.184  1.00  0.00     0.006 C 
BRANCH   3   4
ATOM      4  C   UNL     1       3.738   1.757  -3.977  1.00  0.00     0.053 C 
BRANCH   4   5
ATOM      5  C   UNL     1       4.852   2.453  -3.261  1.00  0.00     0.041 C 
ATOM      6  O   UNL     1       5.397   3.466  -3.772  1.00  0.00    -0.550 OA
ATOM      7  O   UNL     1       5.322   1.954  -2.053  1.00  0.00    -0.550 OA
ENDBRANCH   4   5
ENDBRANCH   3   4
ENDBRANCH   2   3
ENDBRANCH   1   2
BRANCH   1   8
ATOM      8  C   UNL     1      -0.601   2.981  -4.330  1.00  0.00     0.000 C 
BRANCH   8   9
ATOM      9  C   UNL     1      -0.947   2.946  -2.831  1.00  0.00     0.000 C 
BRANCH   9  10
ATOM     10  C   UNL     1      -2.216   2.131  -2.536  1.00  0.00     0.006 C 
BRANCH  10  11
ATOM     11  C   UNL     1      -2.817   1.503  -3.800  1.00  0.00     0.053 C 
BRANCH  11  12
ATOM     12  C   UNL     1      -3.874   0.509  -3.437  1.00  0.00     0.041 C 
ATOM     13  O   UNL     1      -5.059   0.886  -3.237  1.00  0.00    -0.550 OA
ATOM     14  O   UNL     1      -3.561  -0.843  -3.367  1.00  0.00    -0.550 OA
ENDBRANCH  11  12
ENDBRANCH  10  11
ENDBRANCH   9  10
ENDBRANCH   8   9
ENDBRANCH   1   8
TORSDOF 9
ENDMDL
MODEL 2
REMARK VINA RESULT:    -4.321      1.649      2.070
REMARK INTER + INTRA:          -7.016
REMARK INTER:                  -6.336
REMARK INTRA:                  -0.680
REMARK UNBOUND:                -0.422
REMARK SMILES O=C([O-])CCCCCCCCC(=O)[O-]
REMARK SMILES IDX 7 1 6 2 5 3 4 4 2 5 1 6 3 7 8 8 9 9 10 10 11 11 12 12 13 13
REMARK SMILES IDX 14 14
REMARK H PARENT
REMARK Flexibility Score: inf
ROOT
ATOM      1  C   UNL     1       0.107   4.410  -3.687  1.00  0.00     0.000 C 
ENDROOT
BRANCH   1   2
ATOM      2  C   UNL     1       0.724   3.024  -3.415  1.00  0.00     0.000 C 
BRANCH   2   3
ATOM      3  C   UNL     1       2.148   2.832  -3.962  1.00  0.00     0.006 C 
BRANCH   3   4
ATOM      4  C   UNL     1       2.976   1.844  -3.131  1.00  0.00     0.053 C 
BRANCH   4   5
ATOM      5  C   UNL     1       4.182   2.522  -2.564  1.00  0.00     0.041 C 
ATOM      6  O   UNL     1       4.115   3.722  -2.188  1.00  0.00    -0.550 OA
ATOM      7  O   UNL     1       5.393   1.846  -2.496  1.00  0.00    -0.550 OA
ENDBRANCH   4   5
ENDBRANCH   3   4
ENDBRANCH   2   3
ENDBRANCH   1   2
BRANCH   1   8
ATOM      8  C   UNL     1      -1.005   4.395  -4.757  1.00  0.00     0.000 C 
BRANCH   8   9
ATOM      9  C   UNL     1      -1.217   2.993  -5.357  1.00  0.00     0.000 C 
BRANCH   9  10
ATOM     10  C   UNL     1      -2.622   2.437  -5.078  1.00  0.00     0.006 C 
BRANCH  10  11
ATOM     11  C   UNL     1      -2.667   1.559  -3.821  1.00  0.00     0.053 C 
BRANCH  11  12
ATOM     12  C   UNL     1      -3.128   2.358  -2.643  1.00  0.00     0.041 C 
ATOM     13  O   UNL     1      -2.364   2.533  -1.657  1.00  0.00    -0.550 OA
ATOM     14  O   UNL     1      -4.384   2.952  -2.655  1.00  0.00    -0.550 OA
ENDBRANCH  11  12
ENDBRANCH  10  11
ENDBRANCH   9  10
ENDBRANCH   8   9
ENDBRANCH   1   8
TORSDOF 9
ENDMDL
MODEL 3
REMARK VINA RESULT:    -4.317      0.244      7.294
REMARK INTER + INTRA:          -7.011
REMARK INTER:                  -6.602
REMARK INTRA:                  -0.409
REMARK UNBOUND:                -0.422
REMARK SMILES O=C([O-])CCCCCCCCC(=O)[O-]
REMARK SMILES IDX 7 1 6 2 5 3 4 4 2 5 1 6 3 7 8 8 9 9 10 10 11 11 12 12 13 13
REMARK SMILES IDX 14 14
REMARK H PARENT
REMARK Flexibility Score: inf
ROOT
ATOM      1  C   UNL     1      -0.551   2.936  -4.295  1.00  0.00     0.000 C 
ENDROOT
BRANCH   1   2
ATOM      2  C   UNL     1      -0.994   2.800  -2.825  1.00  0.00     0.000 C 
BRANCH   2   3
ATOM      3  C   UNL     1      -2.411   2.239  -2.627  1.00  0.00     0.006 C 
BRANCH   3   4
ATOM      4  C   UNL     1      -2.810   1.233  -3.714  1.00  0.00     0.053 C 
BRANCH   4   5
ATOM      5  C   UNL     1      -4.055   0.506  -3.320  1.00  0.00     0.041 C 
ATOM      6  O   UNL     1      -5.121   1.142  -3.112  1.00  0.00    -0.550 OA
ATOM      7  O   UNL     1      -4.027  -0.871  -3.133  1.00  0.00    -0.550 OA
ENDBRANCH   4   5
ENDBRANCH   3   4
ENDBRANCH   2   3
ENDBRANCH   1   2
BRANCH   1   8
ATOM      8  C   UNL     1       0.889   3.466  -4.463  1.00  0.00     0.000 C 
BRANCH   8   9
ATOM      9  C   UNL     1       1.745   3.233  -3.205  1.00  0.00     0.000 C 
BRANCH   9  10
ATOM     10  C   UNL     1       2.505   1.898  -3.247  1.00  0.00     0.006 C 
BRANCH  10  11
ATOM     11  C   UNL     1       3.766   1.968  -4.118  1.00  0.00     0.053 C 
BRANCH  11  12
ATOM     12  C   UNL     1       4.914   2.516  -3.332  1.00  0.00     0.041 C 
ATOM     13  O   UNL     1       5.333   1.908  -2.311  1.00  0.00    -0.550 OA
ATOM     14  O   UNL     1       5.555   3.675  -3.754  1.00  0.00    -0.550 OA
ENDBRANCH  11  12
ENDBRANCH  10  11
ENDBRANCH   9  10
ENDBRANCH   8   9
ENDBRANCH   1   8
TORSDOF 9
ENDMDL
MODEL 4
REMARK VINA RESULT:    -4.229      1.299      1.826
REMARK INTER + INTRA:          -6.877
REMARK INTER:                  -6.366
REMARK INTRA:                  -0.510
REMARK UNBOUND:                -0.422
REMARK SMILES O=C([O-])CCCCCCCCC(=O)[O-]
REMARK SMILES IDX 7 1 6 2 5 3 4 4 2 5 1 6 3 7 8 8 9 9 10 10 11 11 12 12 13 13
REMARK SMILES IDX 14 14
REMARK H PARENT
REMARK Flexibility Score: inf
ROOT
ATOM      1  C   UNL     1      -0.443   3.107  -4.501  1.00  0.00     0.000 C 
ENDROOT
BRANCH   1   2
ATOM      2  C   UNL     1       0.339   3.679  -3.302  1.00  0.00     0.000 C 
BRANCH   2   3
ATOM      3  C   UNL     1       1.863   3.494  -3.377  1.00  0.00     0.006 C 
BRANCH   3   4
ATOM      4  C   UNL     1       2.304   2.059  -3.058  1.00  0.00     0.053 C 
BRANCH   4   5
ATOM      5  C   UNL     1       3.706   1.829  -3.522  1.00  0.00     0.041 C 
ATOM      6  O   UNL     1       3.941   1.602  -4.738  1.00  0.00    -0.550 OA
ATOM      7  O   UNL     1       4.750   1.816  -2.605  1.00  0.00    -0.550 OA
ENDBRANCH   4   5
ENDBRANCH   3   4
ENDBRANCH   2   3
ENDBRANCH   1   2
BRANCH   1   8
ATOM      8  C   UNL     1      -1.811   2.503  -4.118  1.00  0.00     0.000 C 
BRANCH   8   9
ATOM      9  C   UNL     1      -1.962   2.322  -2.597  1.00  0.00     0.000 C 
BRANCH   9  10
ATOM     10  C   UNL     1      -3.397   2.579  -2.111  1.00  0.00     0.006 C 
BRANCH  10  11
ATOM     11  C   UNL     1      -4.400   2.676  -3.268  1.00  0.00     0.053 C 
BRANCH  11  12
ATOM     12  C   UNL     1      -5.260   1.453  -3.317  1.00  0.00     0.041 C 
ATOM     13  O   UNL     1      -4.734   0.311  -3.399  1.00  0.00    -0.550 OA
ATOM     14  O   UNL     1      -6.641   1.570  -3.221  1.00  0.00    -0.550 OA
ENDBRANCH  11  12
ENDBRANCH  10  11
ENDBRANCH   9  10
ENDBRANCH   8   9
ENDBRANCH   1   8
TORSDOF 9
ENDMDL
MODEL 5
REMARK VINA RESULT:    -4.186      1.457      2.332
REMARK INTER + INTRA:          -6.811
REMARK INTER:                  -6.592
REMARK INTRA:                  -0.219
REMARK UNBOUND:                -0.422
REMARK SMILES O=C([O-])CCCCCCCCC(=O)[O-]
REMARK SMILES IDX 7 1 6 2 5 3 4 4 2 5 1 6 3 7 8 8 9 9 10 10 11 11 12 12 13 13
REMARK SMILES IDX 14 14
REMARK H PARENT
REMARK Flexibility Score: inf
ROOT
ATOM      1  C   UNL     1      -0.962   2.928  -3.766  1.00  0.00     0.000 C 
ENDROOT
BRANCH   1   2
ATOM      2  C   UNL     1       0.336   3.100  -2.953  1.00  0.00     0.000 C 
BRANCH   2   3
ATOM      3  C   UNL     1       1.631   2.855  -3.743  1.00  0.00     0.006 C 
BRANCH   3   4
ATOM      4  C   UNL     1       2.564   1.849  -3.057  1.00  0.00     0.053 C 
BRANCH   4   5
ATOM      5  C   UNL     1       3.970   2.037  -3.530  1.00  0.00     0.041 C 
ATOM      6  O   UNL     1       4.200   2.329  -4.733  1.00  0.00    -0.550 OA
ATOM      7  O   UNL     1       5.031   1.839  -2.655  1.00  0.00    -0.550 OA
ENDBRANCH   4   5
ENDBRANCH   3   4
ENDBRANCH   2   3
ENDBRANCH   1   2
BRANCH   1   8
ATOM      8  C   UNL     1      -2.085   2.201  -2.997  1.00  0.00     0.000 C 
BRANCH   8   9
ATOM      9  C   UNL     1      -2.972   1.353  -3.925  1.00  0.00     0.000 C 
BRANCH   9  10
ATOM     10  C   UNL     1      -3.601   0.149  -3.206  1.00  0.00     0.006 C 
BRANCH  10  11
ATOM     11  C   UNL     1      -4.044  -0.951  -4.180  1.00  0.00     0.053 C 
BRANCH  11  12
ATOM     12  C   UNL     1      -3.720  -2.301  -3.623  1.00  0.00     0.041 C 
ATOM     13  O   UNL     1      -2.549  -2.758  -3.706  1.00  0.00    -0.550 OA
ATOM     14  O   UNL     1      -4.700  -3.035  -2.967  1.00  0.00    -0.550 OA
ENDBRANCH  11  12
ENDBRANCH  10  11
ENDBRANCH   9  10
ENDBRANCH   8   9
ENDBRANCH   1   8
TORSDOF 9
ENDMDL
MODEL 6
REMARK VINA RESULT:    -4.150      0.889      7.179
REMARK INTER + INTRA:          -6.756
REMARK INTER:                  -6.241
REMARK INTRA:                  -0.515
REMARK UNBOUND:                -0.422
REMARK SMILES O=C([O-])CCCCCCCCC(=O)[O-]
REMARK SMILES IDX 7 1 6 2 5 3 4 4 2 5 1 6 3 7 8 8 9 9 10 10 11 11 12 12 13 13
REMARK SMILES IDX 14 14
REMARK H PARENT
REMARK Flexibility Score: inf
ROOT
ATOM      1  C   UNL     1      -0.577   3.980  -4.052  1.00  0.00     0.000 C 
ENDROOT
BRANCH   1   2
ATOM      2  C   UNL     1      -1.349   2.648  -3.995  1.00  0.00     0.000 C 
BRANCH   2   3
ATOM      3  C   UNL     1      -1.935   2.298  -2.617  1.00  0.00     0.006 C 
BRANCH   3   4
ATOM      4  C   UNL     1      -3.469   2.325  -2.600  1.00  0.00     0.053 C 
BRANCH   4   5
ATOM      5  C   UNL     1      -4.019   1.225  -3.450  1.00  0.00     0.041 C 
ATOM      6  O   UNL     1      -3.811   0.022  -3.141  1.00  0.00    -0.550 OA
ATOM      7  O   UNL     1      -4.718   1.526  -4.612  1.00  0.00    -0.550 OA
ENDBRANCH   4   5
ENDBRANCH   3   4
ENDBRANCH   2   3
ENDBRANCH   1   2
BRANCH   1   8
ATOM      8  C   UNL     1       0.538   4.097  -2.990  1.00  0.00     0.000 C 
BRANCH   8   9
ATOM      9  C   UNL     1       1.910   3.667  -3.539  1.00  0.00     0.000 C 
BRANCH   9  10
ATOM     10  C   UNL     1       2.211   2.182  -3.282  1.00  0.00     0.006 C 
BRANCH  10  11
ATOM     11  C   UNL     1       3.589   1.762  -3.810  1.00  0.00     0.053 C 
BRANCH  11  12
ATOM     12  C   UNL     1       4.673   2.427  -3.023  1.00  0.00     0.041 C 
ATOM     13  O   UNL     1       5.467   3.227  -3.586  1.00  0.00    -0.550 OA
ATOM     14  O   UNL     1       4.777   2.203  -1.655  1.00  0.00    -0.550 OA
ENDBRANCH  11  12
ENDBRANCH  10  11
ENDBRANCH   9  10
ENDBRANCH   8   9
ENDBRANCH   1   8
TORSDOF 9
ENDMDL
MODEL 7
REMARK VINA RESULT:    -4.125      1.950      7.167
REMARK INTER + INTRA:          -6.717
REMARK INTER:                  -6.406
REMARK INTRA:                  -0.311
REMARK UNBOUND:                -0.422
REMARK SMILES O=C([O-])CCCCCCCCC(=O)[O-]
REMARK SMILES IDX 7 1 6 2 5 3 4 4 2 5 1 6 3 7 8 8 9 9 10 10 11 11 12 12 13 13
REMARK SMILES IDX 14 14
REMARK H PARENT
REMARK Flexibility Score: inf
ROOT
ATOM      1  C   UNL     1      -3.839   2.260  -3.058  1.00  0.00     0.000 C 
ENDROOT
BRANCH   1   2
ATOM      2  C   UNL     1      -3.988   1.046  -3.995  1.00  0.00     0.000 C 
BRANCH   2   3
ATOM      3  C   UNL     1      -3.653  -0.310  -3.354  1.00  0.00     0.006 C 
BRANCH   3   4
ATOM      4  C   UNL     1      -4.550  -1.446  -3.862  1.00  0.00     0.053 C 
BRANCH   4   5
ATOM      5  C   UNL     1      -3.729  -2.652  -4.187  1.00  0.00     0.041 C 
ATOM      6  O   UNL     1      -2.577  -2.784  -3.698  1.00  0.00    -0.550 OA
ATOM      7  O   UNL     1      -4.216  -3.608  -5.070  1.00  0.00    -0.550 OA
ENDBRANCH   4   5
ENDBRANCH   3   4
ENDBRANCH   2   3
ENDBRANCH   1   2
BRANCH   1   8
ATOM      8  C   UNL     1      -2.424   2.412  -2.459  1.00  0.00     0.000 C 
BRANCH   8   9
ATOM      9  C   UNL     1      -1.395   2.869  -3.507  1.00  0.00     0.000 C 
BRANCH   9  10
ATOM     10  C   UNL     1      -0.006   3.123  -2.900  1.00  0.00     0.006 C 
BRANCH  10  11
ATOM     11  C   UNL     1       1.118   3.007  -3.938  1.00  0.00     0.053 C 
BRANCH  11  12
ATOM     12  C   UNL     1       2.436   2.811  -3.258  1.00  0.00     0.041 C 
ATOM     13  O   UNL     1       3.163   3.803  -2.985  1.00  0.00    -0.550 OA
ATOM     14  O   UNL     1       2.841   1.536  -2.881  1.00  0.00    -0.550 OA
ENDBRANCH  11  12
ENDBRANCH  10  11
ENDBRANCH   9  10
ENDBRANCH   8   9
ENDBRANCH   1   8
TORSDOF 9
ENDMDL
MODEL 8
REMARK VINA RESULT:    -4.120      1.803      7.407
REMARK INTER + INTRA:          -6.709
REMARK INTER:                  -6.407
REMARK INTRA:                  -0.302
REMARK UNBOUND:                -0.422
REMARK SMILES O=C([O-])CCCCCCCCC(=O)[O-]
REMARK SMILES IDX 7 1 6 2 5 3 4 4 2 5 1 6 3 7 8 8 9 9 10 10 11 11 12 12 13 13
REMARK SMILES IDX 14 14
REMARK H PARENT
REMARK Flexibility Score: inf
ROOT
ATOM      1  C   UNL     1       0.258   3.316  -2.934  1.00  0.00     0.000 C 
ENDROOT
BRANCH   1   2
ATOM      2  C   UNL     1      -1.126   2.893  -3.464  1.00  0.00     0.000 C 
BRANCH   2   3
ATOM      3  C   UNL     1      -2.109   2.407  -2.387  1.00  0.00     0.006 C 
BRANCH   3   4
ATOM      4  C   UNL     1      -3.576   2.610  -2.787  1.00  0.00     0.053 C 
BRANCH   4   5
ATOM      5  C   UNL     1      -4.201   1.304  -3.161  1.00  0.00     0.041 C 
ATOM      6  O   UNL     1      -5.452   1.204  -3.251  1.00  0.00    -0.550 OA
ATOM      7  O   UNL     1      -3.404   0.184  -3.360  1.00  0.00    -0.550 OA
ENDBRANCH   4   5
ENDBRANCH   3   4
ENDBRANCH   2   3
ENDBRANCH   1   2
BRANCH   1   8
ATOM      8  C   UNL     1       1.422   2.964  -3.885  1.00  0.00     0.000 C 
BRANCH   8   9
ATOM      9  C   UNL     1       2.457   2.039  -3.221  1.00  0.00     0.000 C 
BRANCH   9  10
ATOM     10  C   UNL     1       3.660   1.747  -4.131  1.00  0.00     0.006 C 
BRANCH  10  11
ATOM     11  C   UNL     1       4.207   3.013  -4.804  1.00  0.00     0.053 C 
BRANCH  11  12
ATOM     12  C   UNL     1       4.401   2.783  -6.269  1.00  0.00     0.041 C 
ATOM     13  O   UNL     1       4.154   1.654  -6.772  1.00  0.00    -0.550 OA
ATOM     14  O   UNL     1       4.807   3.828  -7.089  1.00  0.00    -0.550 OA
ENDBRANCH  11  12
ENDBRANCH  10  11
ENDBRANCH   9  10
ENDBRANCH   8   9
ENDBRANCH   1   8
TORSDOF 9
ENDMDL
MODEL 9
REMARK VINA RESULT:    -4.025      1.311      6.880
REMARK INTER + INTRA:          -6.565
REMARK INTER:                  -6.023
REMARK INTRA:                  -0.542
REMARK UNBOUND:                -0.422
REMARK SMILES O=C([O-])CCCCCCCCC(=O)[O-]
REMARK SMILES IDX 7 1 6 2 5 3 4 4 2 5 1 6 3 7 8 8 9 9 10 10 11 11 12 12 13 13
REMARK SMILES IDX 14 14
REMARK H PARENT
REMARK Flexibility Score: inf
ROOT
ATOM      1  C   UNL     1       0.358   4.415  -3.279  1.00  0.00     0.000 C 
ENDROOT
BRANCH   1   2
ATOM      2  C   UNL     1      -0.058   2.935  -3.165  1.00  0.00     0.000 C 
BRANCH   2   3
ATOM      3  C   UNL     1      -1.441   2.606  -3.751  1.00  0.00     0.006 C 
BRANCH   3   4
ATOM      4  C   UNL     1      -2.528   2.485  -2.676  1.00  0.00     0.053 C 
BRANCH   4   5
ATOM      5  C   UNL     1      -3.522   1.434  -3.056  1.00  0.00     0.041 C 
ATOM      6  O   UNL     1      -3.130   0.322  -3.495  1.00  0.00    -0.550 OA
ATOM      7  O   UNL     1      -4.883   1.701  -2.973  1.00  0.00    -0.550 OA
ENDBRANCH   4   5
ENDBRANCH   3   4
ENDBRANCH   2   3
ENDBRANCH   1   2
BRANCH   1   8
ATOM      8  C   UNL     1       1.660   4.634  -4.079  1.00  0.00     0.000 C 
BRANCH   8   9
ATOM      9  C   UNL     1       1.899   3.524  -5.118  1.00  0.00     0.000 C 
BRANCH   9  10
ATOM     10  C   UNL     1       3.367   3.075  -5.177  1.00  0.00     0.006 C 
BRANCH  10  11
ATOM     11  C   UNL     1       4.132   3.400  -3.887  1.00  0.00     0.053 C 
BRANCH  11  12
ATOM     12  C   UNL     1       4.220   2.189  -3.014  1.00  0.00     0.041 C 
ATOM     13  O   UNL     1       5.325   1.845  -2.515  1.00  0.00    -0.550 OA
ATOM     14  O   UNL     1       3.073   1.466  -2.709  1.00  0.00    -0.550 OA
ENDBRANCH  11  12
ENDBRANCH  10  11
ENDBRANCH   9  10
ENDBRANCH   8   9
ENDBRANCH   1   8
TORSDOF 9
ENDMDL
