MODEL 1
REMARK VINA RESULT:    -3.000      0.000      0.000
REMARK INTER + INTRA:          -3.433
REMARK INTER:                  -3.614
REMARK INTRA:                   0.181
REMARK UNBOUND:                 0.181
REMARK SMILES O=c1c(O)c(-c2ccc(O)c(O)c2)oc2cc(O)cc(O)c12
REMARK SMILES IDX 5 1 3 2 2 3 1 4 22 5 20 6 19 7 17 8 16 9 15 10 14 11 6 12
REMARK SMILES IDX 7 13 8 14 9 15 13 16 11 17 10 18 12 20 4 22 21 24 18 26
REMARK H PARENT 10 19 12 21 4 23 21 25 18 27
REMARK Flexibility Score: inf
ROOT
ATOM      1  C   UNL     1      20.488 -15.481   2.668  1.00  0.00     0.180 A 
ATOM      2  C   UNL     1      20.398 -14.774   1.454  1.00  0.00     0.208 A 
ATOM      3  C   UNL     1      20.227 -15.492   0.261  1.00  0.00     0.238 A 
ATOM      4  O   UNL     1      20.133 -14.869  -0.831  1.00  0.00    -0.285 OA
ATOM      5  C   UNL     1      20.169 -16.901   0.298  1.00  0.00     0.111 A 
ATOM      6  C   UNL     1      20.003 -17.700  -0.860  1.00  0.00     0.134 A 
ATOM      7  C   UNL     1      19.965 -19.097  -0.741  1.00  0.00     0.093 A 
ATOM      8  C   UNL     1      20.091 -19.710   0.507  1.00  0.00     0.123 A 
ATOM      9  C   UNL     1      20.254 -18.926   1.655  1.00  0.00     0.094 A 
ATOM     10  C   UNL     1      20.294 -17.531   1.558  1.00  0.00     0.146 A 
ATOM     11  O   UNL     1      20.445 -16.811   2.663  1.00  0.00    -0.452 OA
ENDROOT
BRANCH   1  12
ATOM     12  C   UNL     1      20.649 -14.795   3.970  1.00  0.00     0.025 A 
ATOM     13  C   UNL     1      20.045 -13.552   4.221  1.00  0.00     0.016 A 
ATOM     14  C   UNL     1      20.192 -12.935   5.465  1.00  0.00     0.051 A 
ATOM     15  C   UNL     1      20.932 -13.548   6.483  1.00  0.00     0.157 A 
ATOM     16  C   UNL     1      21.373 -15.421   4.996  1.00  0.00     0.062 A 
ATOM     17  C   UNL     1      21.527 -14.809   6.248  1.00  0.00     0.158 A 
BRANCH  15  18
ATOM     18  O   UNL     1      21.045 -12.875   7.702  1.00  0.00    -0.504 OA
ATOM     19  H   UNL     1      21.693 -12.121   7.872  1.00  0.00     0.293 HD
ENDBRANCH  15  18
BRANCH  17  20
ATOM     20  O   UNL     1      22.270 -15.486   7.217  1.00  0.00    -0.504 OA
ATOM     21  H   UNL     1      21.882 -15.843   8.077  1.00  0.00     0.293 HD
ENDBRANCH  17  20
ENDBRANCH   1  12
BRANCH   2  22
ATOM     22  O   UNL     1      20.506 -13.381   1.440  1.00  0.00    -0.502 OA
ATOM     23  H   UNL     1      20.999 -12.868   2.161  1.00  0.00     0.293 HD
ENDBRANCH   2  22
BRANCH   6  24
ATOM     24  O   UNL     1      19.875 -17.118  -2.121  1.00  0.00    -0.507 OA
ATOM     25  H   UNL     1      19.008 -16.690  -2.426  1.00  0.00     0.293 HD
ENDBRANCH   6  24
BRANCH   8  26
ATOM     26  O   UNL     1      20.051 -21.099   0.598  1.00  0.00    -0.508 OA
ATOM     27  H   UNL     1      20.773 -21.620   1.081  1.00  0.00     0.293 HD
ENDBRANCH   8  26
TORSDOF 6
ENDMDL
MODEL 2
REMARK VINA RESULT:    -2.614      1.472      6.661
REMARK INTER + INTRA:          -2.969
REMARK INTER:                  -3.376
REMARK INTRA:                   0.408
REMARK UNBOUND:                 0.181
REMARK SMILES O=c1c(O)c(-c2ccc(O)c(O)c2)oc2cc(O)cc(O)c12
REMARK SMILES IDX 5 1 3 2 2 3 1 4 22 5 20 6 19 7 17 8 16 9 15 10 14 11 6 12
REMARK SMILES IDX 7 13 8 14 9 15 13 16 11 17 10 18 12 20 4 22 21 24 18 26
REMARK H PARENT 10 19 12 21 4 23 21 25 18 27
REMARK Flexibility Score: inf
ROOT
ATOM      1  C   UNL     1      20.099 -17.465   1.444  1.00  0.00     0.180 A 
ATOM      2  C   UNL     1      20.047 -16.173   0.887  1.00  0.00     0.208 A 
ATOM      3  C   UNL     1      19.992 -15.065   1.746  1.00  0.00     0.238 A 
ATOM      4  O   UNL     1      19.957 -13.903   1.259  1.00  0.00    -0.285 OA
ATOM      5  C   UNL     1      19.969 -15.266   3.142  1.00  0.00     0.111 A 
ATOM      6  C   UNL     1      19.909 -14.204   4.076  1.00  0.00     0.134 A 
ATOM      7  C   UNL     1      19.880 -14.487   5.450  1.00  0.00     0.093 A 
ATOM      8  C   UNL     1      19.907 -15.806   5.906  1.00  0.00     0.123 A 
ATOM      9  C   UNL     1      19.967 -16.860   4.988  1.00  0.00     0.094 A 
ATOM     10  C   UNL     1      19.998 -16.599   3.615  1.00  0.00     0.146 A 
ATOM     11  O   UNL     1      20.059 -17.617   2.765  1.00  0.00    -0.452 OA
ENDROOT
BRANCH   1  12
ATOM     12  C   UNL     1      20.178 -18.682   0.604  1.00  0.00     0.025 A 
ATOM     13  C   UNL     1      19.875 -18.647  -0.766  1.00  0.00     0.016 A 
ATOM     14  C   UNL     1      19.980 -19.802  -1.542  1.00  0.00     0.051 A 
ATOM     15  C   UNL     1      20.399 -21.010  -0.972  1.00  0.00     0.157 A 
ATOM     16  C   UNL     1      20.620 -19.887   1.174  1.00  0.00     0.062 A 
ATOM     17  C   UNL     1      20.728 -21.052   0.403  1.00  0.00     0.158 A 
BRANCH  15  18
ATOM     18  O   UNL     1      20.478 -22.130  -1.802  1.00  0.00    -0.504 OA
ATOM     19  H   UNL     1      19.679 -22.673  -2.095  1.00  0.00     0.293 HD
ENDBRANCH  15  18
BRANCH  17  20
ATOM     20  O   UNL     1      21.163 -22.216   1.040  1.00  0.00    -0.504 OA
ATOM     21  H   UNL     1      21.445 -23.054   0.553  1.00  0.00     0.293 HD
ENDBRANCH  17  20
ENDBRANCH   1  12
BRANCH   2  22
ATOM     22  O   UNL     1      20.023 -16.003  -0.500  1.00  0.00    -0.502 OA
ATOM     23  H   UNL     1      20.804 -16.261  -1.092  1.00  0.00     0.293 HD
ENDBRANCH   2  22
BRANCH   6  24
ATOM     24  O   UNL     1      19.879 -12.875   3.652  1.00  0.00    -0.507 OA
ATOM     25  H   UNL     1      20.717 -12.305   3.623  1.00  0.00     0.293 HD
ENDBRANCH   6  24
BRANCH   8  26
ATOM     26  O   UNL     1      19.875 -16.060   7.276  1.00  0.00    -0.508 OA
ATOM     27  H   UNL     1      19.263 -15.545   7.897  1.00  0.00     0.293 HD
ENDBRANCH   8  26
TORSDOF 6
ENDMDL
MODEL 3
REMARK VINA RESULT:    -2.385      1.747      3.404
REMARK INTER + INTRA:          -2.693
REMARK INTER:                  -2.637
REMARK INTRA:                  -0.056
REMARK UNBOUND:                 0.181
REMARK SMILES O=c1c(O)c(-c2ccc(O)c(O)c2)oc2cc(O)cc(O)c12
REMARK SMILES IDX 5 1 3 2 2 3 1 4 22 5 20 6 19 7 17 8 16 9 15 10 14 11 6 12
REMARK SMILES IDX 7 13 8 14 9 15 13 16 11 17 10 18 12 20 4 22 21 24 18 26
REMARK H PARENT 10 19 12 21 4 23 21 25 18 27
REMARK Flexibility Score: inf
ROOT
ATOM      1  C   UNL     1      20.953 -14.948   3.774  1.00  0.00     0.180 A 
ATOM      2  C   UNL     1      20.729 -16.323   3.567  1.00  0.00     0.208 A 
ATOM      3  C   UNL     1      20.448 -16.776   2.269  1.00  0.00     0.238 A 
ATOM      4  O   UNL     1      20.256 -18.006   2.069  1.00  0.00    -0.285 OA
ATOM      5  C   UNL     1      20.374 -15.850   1.208  1.00  0.00     0.111 A 
ATOM      6  C   UNL     1      20.091 -16.225  -0.128  1.00  0.00     0.134 A 
ATOM      7  C   UNL     1      20.026 -15.242  -1.127  1.00  0.00     0.093 A 
ATOM      8  C   UNL     1      20.236 -13.896  -0.817  1.00  0.00     0.123 A 
ATOM      9  C   UNL     1      20.517 -13.521   0.501  1.00  0.00     0.094 A 
ATOM     10  C   UNL     1      20.587 -14.485   1.510  1.00  0.00     0.146 A 
ATOM     11  O   UNL     1      20.860 -14.102   2.752  1.00  0.00    -0.452 OA
ENDROOT
BRANCH   1  12
ATOM     12  C   UNL     1      21.275 -14.395   5.110  1.00  0.00     0.025 A 
ATOM     13  C   UNL     1      20.474 -13.407   5.705  1.00  0.00     0.016 A 
ATOM     14  C   UNL     1      20.784 -12.918   6.974  1.00  0.00     0.051 A 
ATOM     15  C   UNL     1      21.888 -13.410   7.680  1.00  0.00     0.157 A 
ATOM     16  C   UNL     1      22.369 -14.906   5.824  1.00  0.00     0.062 A 
ATOM     17  C   UNL     1      22.690 -14.421   7.099  1.00  0.00     0.158 A 
BRANCH  15  18
ATOM     18  O   UNL     1      22.146 -12.875   8.944  1.00  0.00    -0.504 OA
ATOM     19  H   UNL     1      21.516 -12.257   9.434  1.00  0.00     0.293 HD
ENDBRANCH  15  18
BRANCH  17  20
ATOM     20  O   UNL     1      23.800 -14.968   7.744  1.00  0.00    -0.504 OA
ATOM     21  H   UNL     1      24.754 -14.706   7.544  1.00  0.00     0.293 HD
ENDBRANCH  17  20
ENDBRANCH   1  12
BRANCH   2  22
ATOM     22  O   UNL     1      20.760 -17.213   4.644  1.00  0.00    -0.502 OA
ATOM     23  H   UNL     1      21.600 -17.714   4.908  1.00  0.00     0.293 HD
ENDBRANCH   2  22
BRANCH   6  24
ATOM     24  O   UNL     1      19.875 -17.560  -0.469  1.00  0.00    -0.507 OA
ATOM     25  H   UNL     1      20.032 -18.312   0.193  1.00  0.00     0.293 HD
ENDBRANCH   6  24
BRANCH   8  26
ATOM     26  O   UNL     1      20.164 -12.939  -1.827  1.00  0.00    -0.508 OA
ATOM     27  H   UNL     1      20.786 -12.140  -1.846  1.00  0.00     0.293 HD
ENDBRANCH   8  26
TORSDOF 6
ENDMDL
MODEL 4
REMARK VINA RESULT:    -1.408      1.834      6.951
REMARK INTER + INTRA:          -1.516
REMARK INTER:                  -1.582
REMARK INTRA:                   0.067
REMARK UNBOUND:                 0.181
REMARK SMILES O=c1c(O)c(-c2ccc(O)c(O)c2)oc2cc(O)cc(O)c12
REMARK SMILES IDX 5 1 3 2 2 3 1 4 22 5 20 6 19 7 17 8 16 9 15 10 14 11 6 12
REMARK SMILES IDX 7 13 8 14 9 15 13 16 11 17 10 18 12 20 4 22 21 24 18 26
REMARK H PARENT 10 19 12 21 4 23 21 25 18 27
REMARK Flexibility Score: inf
ROOT
ATOM      1  C   UNL     1      21.210 -15.979   4.021  1.00  0.00     0.180 A 
ATOM      2  C   UNL     1      20.749 -14.676   4.291  1.00  0.00     0.208 A 
ATOM      3  C   UNL     1      21.152 -14.047   5.478  1.00  0.00     0.238 A 
ATOM      4  O   UNL     1      20.755 -12.876   5.726  1.00  0.00    -0.285 OA
ATOM      5  C   UNL     1      21.989 -14.733   6.382  1.00  0.00     0.111 A 
ATOM      6  C   UNL     1      22.438 -14.172   7.602  1.00  0.00     0.134 A 
ATOM      7  C   UNL     1      23.262 -14.923   8.453  1.00  0.00     0.093 A 
ATOM      8  C   UNL     1      23.645 -16.222   8.110  1.00  0.00     0.123 A 
ATOM      9  C   UNL     1      23.206 -16.782   6.905  1.00  0.00     0.094 A 
ATOM     10  C   UNL     1      22.385 -16.048   6.043  1.00  0.00     0.146 A 
ATOM     11  O   UNL     1      21.986 -16.602   4.904  1.00  0.00    -0.452 OA
ENDROOT
BRANCH   1  12
ATOM     12  C   UNL     1      20.845 -16.702   2.781  1.00  0.00     0.025 A 
ATOM     13  C   UNL     1      20.856 -16.063   1.531  1.00  0.00     0.016 A 
ATOM     14  C   UNL     1      20.531 -16.772   0.374  1.00  0.00     0.051 A 
ATOM     15  C   UNL     1      20.201 -18.131   0.437  1.00  0.00     0.157 A 
ATOM     16  C   UNL     1      20.536 -18.070   2.845  1.00  0.00     0.062 A 
ATOM     17  C   UNL     1      20.207 -18.790   1.689  1.00  0.00     0.158 A 
BRANCH  15  18
ATOM     18  O   UNL     1      19.881 -18.781  -0.757  1.00  0.00    -0.504 OA
ATOM     19  H   UNL     1      20.276 -18.539  -1.654  1.00  0.00     0.293 HD
ENDBRANCH  15  18
BRANCH  17  20
ATOM     20  O   UNL     1      19.899 -20.144   1.830  1.00  0.00    -0.504 OA
ATOM     21  H   UNL     1      20.271 -20.733   2.561  1.00  0.00     0.293 HD
ENDBRANCH  17  20
ENDBRANCH   1  12
BRANCH   2  22
ATOM     22  O   UNL     1      19.881 -14.037   3.402  1.00  0.00    -0.502 OA
ATOM     23  H   UNL     1      19.637 -14.434   2.503  1.00  0.00     0.293 HD
ENDBRANCH   2  22
BRANCH   6  24
ATOM     24  O   UNL     1      22.072 -12.878   7.974  1.00  0.00    -0.507 OA
ATOM     25  H   UNL     1      22.004 -12.601   8.947  1.00  0.00     0.293 HD
ENDBRANCH   6  24
BRANCH   8  26
ATOM     26  O   UNL     1      24.462 -16.948   8.972  1.00  0.00    -0.508 OA
ATOM     27  H   UNL     1      24.571 -16.688   9.945  1.00  0.00     0.293 HD
ENDBRANCH   8  26
TORSDOF 6
ENDMDL
MODEL 5
REMARK VINA RESULT:    -1.327      1.810      3.033
REMARK INTER + INTRA:          -1.418
REMARK INTER:                  -1.951
REMARK INTRA:                   0.533
REMARK UNBOUND:                 0.181
REMARK SMILES O=c1c(O)c(-c2ccc(O)c(O)c2)oc2cc(O)cc(O)c12
REMARK SMILES IDX 5 1 3 2 2 3 1 4 22 5 20 6 19 7 17 8 16 9 15 10 14 11 6 12
REMARK SMILES IDX 7 13 8 14 9 15 13 16 11 17 10 18 12 20 4 22 21 24 18 26
REMARK H PARENT 10 19 12 21 4 23 21 25 18 27
REMARK Flexibility Score: inf
ROOT
ATOM      1  C   UNL     1      21.760 -15.304   4.459  1.00  0.00     0.180 A 
ATOM      2  C   UNL     1      21.552 -14.060   3.832  1.00  0.00     0.208 A 
ATOM      3  C   UNL     1      21.007 -14.035   2.539  1.00  0.00     0.238 A 
ATOM      4  O   UNL     1      20.806 -12.927   1.972  1.00  0.00    -0.285 OA
ATOM      5  C   UNL     1      20.700 -15.248   1.889  1.00  0.00     0.111 A 
ATOM      6  C   UNL     1      20.152 -15.310   0.584  1.00  0.00     0.134 A 
ATOM      7  C   UNL     1      19.883 -16.557   0.001  1.00  0.00     0.093 A 
ATOM      8  C   UNL     1      20.150 -17.740   0.694  1.00  0.00     0.123 A 
ATOM      9  C   UNL     1      20.690 -17.685   1.983  1.00  0.00     0.094 A 
ATOM     10  C   UNL     1      20.965 -16.452   2.582  1.00  0.00     0.146 A 
ATOM     11  O   UNL     1      21.473 -16.428   3.809  1.00  0.00    -0.452 OA
ENDROOT
BRANCH   1  12
ATOM     12  C   UNL     1      22.312 -15.413   5.829  1.00  0.00     0.025 A 
ATOM     13  C   UNL     1      22.673 -16.654   6.375  1.00  0.00     0.016 A 
ATOM     14  C   UNL     1      23.213 -16.730   7.660  1.00  0.00     0.051 A 
ATOM     15  C   UNL     1      23.415 -15.571   8.419  1.00  0.00     0.157 A 
ATOM     16  C   UNL     1      22.535 -14.247   6.579  1.00  0.00     0.062 A 
ATOM     17  C   UNL     1      23.076 -14.313   7.870  1.00  0.00     0.158 A 
BRANCH  15  18
ATOM     18  O   UNL     1      23.956 -15.716   9.699  1.00  0.00    -0.504 OA
ATOM     19  H   UNL     1      24.485 -14.999  10.172  1.00  0.00     0.293 HD
ENDBRANCH  15  18
BRANCH  17  20
ATOM     20  O   UNL     1      23.258 -13.113   8.561  1.00  0.00    -0.504 OA
ATOM     21  H   UNL     1      23.056 -12.992   9.543  1.00  0.00     0.293 HD
ENDBRANCH  17  20
ENDBRANCH   1  12
BRANCH   2  22
ATOM     22  O   UNL     1      21.910 -12.875   4.480  1.00  0.00    -0.502 OA
ATOM     23  H   UNL     1      22.821 -12.447   4.361  1.00  0.00     0.293 HD
ENDBRANCH   2  22
BRANCH   6  24
ATOM     24  O   UNL     1      19.875 -14.146  -0.134  1.00  0.00    -0.507 OA
ATOM     25  H   UNL     1      20.507 -13.353  -0.130  1.00  0.00     0.293 HD
ENDBRANCH   6  24
BRANCH   8  26
ATOM     26  O   UNL     1      19.875 -18.966   0.092  1.00  0.00    -0.508 OA
ATOM     27  H   UNL     1      19.862 -19.827   0.625  1.00  0.00     0.293 HD
ENDBRANCH   8  26
TORSDOF 6
ENDMDL
