MODEL 1
REMARK VINA RESULT:    15.236      0.000      0.000
REMARK INTER + INTRA:          39.051
REMARK INTER:                  40.176
REMARK INTRA:                  -1.125
REMARK UNBOUND:                -1.125
REMARK SMILES CCCCCCCCCCCCCCCCCCCCCCCCCCCCCC(=O)[O-]
REMARK SMILES IDX 16 1 17 2 18 3 19 4 20 5 21 6 22 7 23 8 24 9 25 10 26 11
REMARK SMILES IDX 27 12 28 13 29 14 30 15 31 16 32 17 15 18 14 19 13 20 12 21
REMARK SMILES IDX 11 22 10 23 9 24 8 25 7 26 6 27 5 28 4 29 3 30 2 31 1 32
REMARK H PARENT
REMARK Flexibility Score: inf
ROOT
ATOM      1  C   UNL     1     -34.992   8.636   3.787  1.00  0.00     0.000 C 
ENDROOT
BRANCH   1   2
ATOM      2  C   UNL     1     -34.489   9.180   2.441  1.00  0.00     0.000 C 
BRANCH   2   3
ATOM      3  C   UNL     1     -33.035   8.760   2.186  1.00  0.00     0.000 C 
BRANCH   3   4
ATOM      4  C   UNL     1     -32.744   8.465   0.702  1.00  0.00     0.000 C 
BRANCH   4   5
ATOM      5  C   UNL     1     -31.757   7.310   0.448  1.00  0.00     0.000 C 
BRANCH   5   6
ATOM      6  C   UNL     1     -30.850   7.481  -0.785  1.00  0.00     0.000 C 
BRANCH   6   7
ATOM      7  C   UNL     1     -29.518   6.707  -0.694  1.00  0.00     0.000 C 
BRANCH   7   8
ATOM      8  C   UNL     1     -28.395   7.542  -0.055  1.00  0.00     0.000 C 
BRANCH   8   9
ATOM      9  C   UNL     1     -27.732   8.517  -1.044  1.00  0.00     0.000 C 
BRANCH   9  10
ATOM     10  C   UNL     1     -27.437   7.936  -2.439  1.00  0.00     0.000 C 
BRANCH  10  11
ATOM     11  C   UNL     1     -28.650   8.001  -3.383  1.00  0.00     0.000 C 
BRANCH  11  12
ATOM     12  C   UNL     1     -28.265   7.853  -4.867  1.00  0.00     0.000 C 
BRANCH  12  13
ATOM     13  C   UNL     1     -28.147   9.174  -5.649  1.00  0.00     0.006 C 
BRANCH  13  14
ATOM     14  C   UNL     1     -27.075   9.127  -6.747  1.00  0.00     0.053 C 
BRANCH  14  15
ATOM     15  C   UNL     1     -25.818   8.507  -6.225  1.00  0.00     0.041 C 
ATOM     16  O   UNL     1     -25.326   8.892  -5.133  1.00  0.00    -0.550 OA
ATOM     17  O   UNL     1     -25.214   7.468  -6.925  1.00  0.00    -0.550 OA
ENDBRANCH  14  15
ENDBRANCH  13  14
ENDBRANCH  12  13
ENDBRANCH  11  12
ENDBRANCH  10  11
ENDBRANCH   9  10
ENDBRANCH   8   9
ENDBRANCH   7   8
ENDBRANCH   6   7
ENDBRANCH   5   6
ENDBRANCH   4   5
ENDBRANCH   3   4
ENDBRANCH   2   3
ENDBRANCH   1   2
BRANCH   1  18
ATOM     18  C   UNL     1     -36.493   8.300   3.774  1.00  0.00     0.000 C 
BRANCH  18  19
ATOM     19  C   UNL     1     -36.855   6.925   4.364  1.00  0.00     0.000 C 
BRANCH  19  20
ATOM     20  C   UNL     1     -38.340   6.807   4.736  1.00  0.00     0.000 C 
BRANCH  20  21
ATOM     21  C   UNL     1     -38.520   6.796   6.261  1.00  0.00     0.000 C 
BRANCH  21  22
ATOM     22  C   UNL     1     -39.907   6.290   6.697  1.00  0.00     0.000 C 
BRANCH  22  23
ATOM     23  C   UNL     1     -40.671   7.228   7.654  1.00  0.00     0.000 C 
BRANCH  23  24
ATOM     24  C   UNL     1     -40.184   8.692   7.660  1.00  0.00    -0.000 C 
BRANCH  24  25
ATOM     25  C   UNL     1     -41.300   9.754   7.595  1.00  0.00    -0.000 C 
BRANCH  25  26
ATOM     26  C   UNL     1     -41.331  10.593   6.305  1.00  0.00    -0.000 C 
BRANCH  26  27
ATOM     27  C   UNL     1     -40.842   9.813   5.074  1.00  0.00    -0.000 C 
BRANCH  27  28
ATOM     28  C   UNL     1     -41.087  10.565   3.753  1.00  0.00    -0.000 C 
BRANCH  28  29
ATOM     29  C   UNL     1     -42.528  10.490   3.207  1.00  0.00    -0.000 C 
BRANCH  29  30
ATOM     30  C   UNL     1     -42.772   9.392   2.155  1.00  0.00    -0.000 C 
BRANCH  30  31
ATOM     31  C   UNL     1     -43.026   9.958   0.750  1.00  0.00    -0.003 C 
ATOM     32  C   UNL     1     -42.530   8.995  -0.327  1.00  0.00     0.004 C 
ENDBRANCH  30  31
ENDBRANCH  29  30
ENDBRANCH  28  29
ENDBRANCH  27  28
ENDBRANCH  26  27
ENDBRANCH  25  26
ENDBRANCH  24  25
ENDBRANCH  23  24
ENDBRANCH  22  23
ENDBRANCH  21  22
ENDBRANCH  20  21
ENDBRANCH  19  20
ENDBRANCH  18  19
ENDBRANCH   1  18
TORSDOF 28
ENDMDL
MODEL 2
REMARK VINA RESULT:    16.142      4.753     14.088
REMARK INTER + INTRA:          41.440
REMARK INTER:                  42.421
REMARK INTRA:                  -0.981
REMARK UNBOUND:                -1.125
REMARK SMILES CCCCCCCCCCCCCCCCCCCCCCCCCCCCCC(=O)[O-]
REMARK SMILES IDX 16 1 17 2 18 3 19 4 20 5 21 6 22 7 23 8 24 9 25 10 26 11
REMARK SMILES IDX 27 12 28 13 29 14 30 15 31 16 32 17 15 18 14 19 13 20 12 21
REMARK SMILES IDX 11 22 10 23 9 24 8 25 7 26 6 27 5 28 4 29 3 30 2 31 1 32
REMARK H PARENT
REMARK Flexibility Score: inf
ROOT
ATOM      1  C   UNL     1     -34.858   9.307   3.223  1.00  0.00     0.000 C 
ENDROOT
BRANCH   1   2
ATOM      2  C   UNL     1     -35.483   8.433   4.322  1.00  0.00     0.000 C 
BRANCH   2   3
ATOM      3  C   UNL     1     -36.814   7.829   3.853  1.00  0.00     0.000 C 
BRANCH   3   4
ATOM      4  C   UNL     1     -37.353   6.746   4.807  1.00  0.00     0.000 C 
BRANCH   4   5
ATOM      5  C   UNL     1     -38.813   6.944   5.258  1.00  0.00     0.000 C 
BRANCH   5   6
ATOM      6  C   UNL     1     -39.013   7.113   6.776  1.00  0.00     0.000 C 
BRANCH   6   7
ATOM      7  C   UNL     1     -40.491   7.248   7.201  1.00  0.00     0.000 C 
BRANCH   7   8
ATOM      8  C   UNL     1     -40.771   8.562   7.951  1.00  0.00     0.000 C 
BRANCH   8   9
ATOM      9  C   UNL     1     -40.318   9.809   7.171  1.00  0.00     0.000 C 
BRANCH   9  10
ATOM     10  C   UNL     1     -41.220  10.204   5.987  1.00  0.00     0.000 C 
BRANCH  10  11
ATOM     11  C   UNL     1     -40.512  10.074   4.627  1.00  0.00     0.000 C 
BRANCH  11  12
ATOM     12  C   UNL     1     -41.396  10.516   3.446  1.00  0.00     0.000 C 
BRANCH  12  13
ATOM     13  C   UNL     1     -42.832   9.960   3.456  1.00  0.00     0.006 C 
BRANCH  13  14
ATOM     14  C   UNL     1     -43.118   9.014   2.281  1.00  0.00     0.053 C 
BRANCH  14  15
ATOM     15  C   UNL     1     -43.178   9.778   0.996  1.00  0.00     0.041 C 
ATOM     16  O   UNL     1     -43.943  10.771   0.884  1.00  0.00    -0.550 OA
ATOM     17  O   UNL     1     -42.353   9.419  -0.064  1.00  0.00    -0.550 OA
ENDBRANCH  14  15
ENDBRANCH  13  14
ENDBRANCH  12  13
ENDBRANCH  11  12
ENDBRANCH  10  11
ENDBRANCH   9  10
ENDBRANCH   8   9
ENDBRANCH   7   8
ENDBRANCH   6   7
ENDBRANCH   5   6
ENDBRANCH   4   5
ENDBRANCH   3   4
ENDBRANCH   2   3
ENDBRANCH   1   2
BRANCH   1  18
ATOM     18  C   UNL     1     -33.606   8.673   2.593  1.00  0.00     0.000 C 
BRANCH  18  19
ATOM     19  C   UNL     1     -33.159   9.304   1.262  1.00  0.00     0.000 C 
BRANCH  19  20
ATOM     20  C   UNL     1     -32.724   8.260   0.223  1.00  0.00     0.000 C 
BRANCH  20  21
ATOM     21  C   UNL     1     -31.546   7.428   0.748  1.00  0.00     0.000 C 
BRANCH  21  22
ATOM     22  C   UNL     1     -31.056   6.377  -0.264  1.00  0.00     0.000 C 
BRANCH  22  23
ATOM     23  C   UNL     1     -30.796   6.913  -1.687  1.00  0.00     0.000 C 
BRANCH  23  24
ATOM     24  C   UNL     1     -29.323   6.868  -2.142  1.00  0.00    -0.000 C 
BRANCH  24  25
ATOM     25  C   UNL     1     -28.311   7.476  -1.149  1.00  0.00    -0.000 C 
BRANCH  25  26
ATOM     26  C   UNL     1     -27.297   8.455  -1.767  1.00  0.00    -0.000 C 
BRANCH  26  27
ATOM     27  C   UNL     1     -27.633   8.825  -3.220  1.00  0.00    -0.000 C 
BRANCH  27  28
ATOM     28  C   UNL     1     -27.684   7.600  -4.152  1.00  0.00    -0.000 C 
BRANCH  28  29
ATOM     29  C   UNL     1     -28.025   7.904  -5.625  1.00  0.00    -0.000 C 
BRANCH  29  30
ATOM     30  C   UNL     1     -27.323   9.139  -6.218  1.00  0.00    -0.000 C 
BRANCH  30  31
ATOM     31  C   UNL     1     -26.069   8.781  -7.030  1.00  0.00    -0.003 C 
ATOM     32  C   UNL     1     -24.876   8.525  -6.112  1.00  0.00     0.004 C 
ENDBRANCH  30  31
ENDBRANCH  29  30
ENDBRANCH  28  29
ENDBRANCH  27  28
ENDBRANCH  26  27
ENDBRANCH  25  26
ENDBRANCH  24  25
ENDBRANCH  23  24
ENDBRANCH  22  23
ENDBRANCH  21  22
ENDBRANCH  20  21
ENDBRANCH  19  20
ENDBRANCH  18  19
ENDBRANCH   1  18
TORSDOF 28
ENDMDL
MODEL 3
REMARK VINA RESULT:    16.914      8.281     14.119
REMARK INTER + INTRA:          43.474
REMARK INTER:                  43.726
REMARK INTRA:                  -0.251
REMARK UNBOUND:                -1.125
REMARK SMILES CCCCCCCCCCCCCCCCCCCCCCCCCCCCCC(=O)[O-]
REMARK SMILES IDX 16 1 17 2 18 3 19 4 20 5 21 6 22 7 23 8 24 9 25 10 26 11
REMARK SMILES IDX 27 12 28 13 29 14 30 15 31 16 32 17 15 18 14 19 13 20 12 21
REMARK SMILES IDX 11 22 10 23 9 24 8 25 7 26 6 27 5 28 4 29 3 30 2 31 1 32
REMARK H PARENT
REMARK Flexibility Score: inf
ROOT
ATOM      1  C   UNL     1     -28.327   7.622   5.996  1.00  0.00     0.000 C 
ENDROOT
BRANCH   1   2
ATOM      2  C   UNL     1     -28.480   6.130   6.332  1.00  0.00     0.000 C 
BRANCH   2   3
ATOM      3  C   UNL     1     -27.160   5.379   6.109  1.00  0.00     0.000 C 
BRANCH   3   4
ATOM      4  C   UNL     1     -26.092   5.710   7.170  1.00  0.00     0.000 C 
BRANCH   4   5
ATOM      5  C   UNL     1     -26.433   5.255   8.602  1.00  0.00     0.000 C 
BRANCH   5   6
ATOM      6  C   UNL     1     -25.220   5.044   9.529  1.00  0.00     0.000 C 
BRANCH   6   7
ATOM      7  C   UNL     1     -25.484   5.431  11.000  1.00  0.00     0.000 C 
BRANCH   7   8
ATOM      8  C   UNL     1     -26.936   5.161  11.429  1.00  0.00     0.000 C 
BRANCH   8   9
ATOM      9  C   UNL     1     -27.505   3.856  10.842  1.00  0.00     0.000 C 
BRANCH   9  10
ATOM     10  C   UNL     1     -28.717   3.274  11.593  1.00  0.00     0.000 C 
BRANCH  10  11
ATOM     11  C   UNL     1     -29.598   4.357  12.237  1.00  0.00     0.000 C 
BRANCH  11  12
ATOM     12  C   UNL     1     -29.457   5.731  11.555  1.00  0.00     0.000 C 
BRANCH  12  13
ATOM     13  C   UNL     1     -29.867   6.938  12.418  1.00  0.00     0.006 C 
BRANCH  13  14
ATOM     14  C   UNL     1     -29.994   8.237  11.611  1.00  0.00     0.053 C 
BRANCH  14  15
ATOM     15  C   UNL     1     -30.214   9.402  12.524  1.00  0.00     0.041 C 
ATOM     16  O   UNL     1     -29.294  10.239  12.717  1.00  0.00    -0.550 OA
ATOM     17  O   UNL     1     -31.454   9.589  13.125  1.00  0.00    -0.550 OA
ENDBRANCH  14  15
ENDBRANCH  13  14
ENDBRANCH  12  13
ENDBRANCH  11  12
ENDBRANCH  10  11
ENDBRANCH   9  10
ENDBRANCH   8   9
ENDBRANCH   7   8
ENDBRANCH   6   7
ENDBRANCH   5   6
ENDBRANCH   4   5
ENDBRANCH   3   4
ENDBRANCH   2   3
ENDBRANCH   1   2
BRANCH   1  18
ATOM     18  C   UNL     1     -28.761   7.960   4.559  1.00  0.00     0.000 C 
BRANCH  18  19
ATOM     19  C   UNL     1     -29.736   6.953   3.923  1.00  0.00     0.000 C 
BRANCH  19  20
ATOM     20  C   UNL     1     -30.192   7.371   2.517  1.00  0.00     0.000 C 
BRANCH  20  21
ATOM     21  C   UNL     1     -31.663   6.993   2.288  1.00  0.00     0.000 C 
BRANCH  21  22
ATOM     22  C   UNL     1     -32.132   7.257   0.846  1.00  0.00     0.000 C 
BRANCH  22  23
ATOM     23  C   UNL     1     -31.053   7.830  -0.096  1.00  0.00     0.000 C 
BRANCH  23  24
ATOM     24  C   UNL     1     -30.728   6.956  -1.324  1.00  0.00    -0.000 C 
BRANCH  24  25
ATOM     25  C   UNL     1     -29.241   6.578  -1.485  1.00  0.00    -0.000 C 
BRANCH  25  26
ATOM     26  C   UNL     1     -28.240   7.673  -1.076  1.00  0.00    -0.000 C 
BRANCH  26  27
ATOM     27  C   UNL     1     -27.423   8.209  -2.262  1.00  0.00    -0.000 C 
BRANCH  27  28
ATOM     28  C   UNL     1     -28.301   8.859  -3.347  1.00  0.00    -0.000 C 
BRANCH  28  29
ATOM     29  C   UNL     1     -28.035   8.379  -4.789  1.00  0.00    -0.000 C 
BRANCH  29  30
ATOM     30  C   UNL     1     -26.675   7.690  -5.008  1.00  0.00    -0.000 C 
BRANCH  30  31
ATOM     31  C   UNL     1     -25.850   8.340  -6.128  1.00  0.00    -0.003 C 
ATOM     32  C   UNL     1     -26.751   9.065  -7.124  1.00  0.00     0.004 C 
ENDBRANCH  30  31
ENDBRANCH  29  30
ENDBRANCH  28  29
ENDBRANCH  27  28
ENDBRANCH  26  27
ENDBRANCH  25  26
ENDBRANCH  24  25
ENDBRANCH  23  24
ENDBRANCH  22  23
ENDBRANCH  21  22
ENDBRANCH  20  21
ENDBRANCH  19  20
ENDBRANCH  18  19
ENDBRANCH   1  18
TORSDOF 28
ENDMDL
MODEL 4
REMARK VINA RESULT:    17.072      4.487     13.575
REMARK INTER + INTRA:          43.892
REMARK INTER:                  45.225
REMARK INTRA:                  -1.333
REMARK UNBOUND:                -1.125
REMARK SMILES CCCCCCCCCCCCCCCCCCCCCCCCCCCCCC(=O)[O-]
REMARK SMILES IDX 16 1 17 2 18 3 19 4 20 5 21 6 22 7 23 8 24 9 25 10 26 11
REMARK SMILES IDX 27 12 28 13 29 14 30 15 31 16 32 17 15 18 14 19 13 20 12 21
REMARK SMILES IDX 11 22 10 23 9 24 8 25 7 26 6 27 5 28 4 29 3 30 2 31 1 32
REMARK H PARENT
REMARK Flexibility Score: inf
ROOT
ATOM      1  C   UNL     1     -36.911   7.526   3.741  1.00  0.00     0.000 C 
ENDROOT
BRANCH   1   2
ATOM      2  C   UNL     1     -37.873   7.413   4.934  1.00  0.00     0.000 C 
BRANCH   2   3
ATOM      3  C   UNL     1     -38.449   5.994   5.042  1.00  0.00     0.000 C 
BRANCH   3   4
ATOM      4  C   UNL     1     -39.763   5.937   5.845  1.00  0.00     0.000 C 
BRANCH   4   5
ATOM      5  C   UNL     1     -39.629   6.288   7.339  1.00  0.00     0.000 C 
BRANCH   5   6
ATOM      6  C   UNL     1     -39.610   7.794   7.661  1.00  0.00     0.000 C 
BRANCH   6   7
ATOM      7  C   UNL     1     -40.980   8.487   7.490  1.00  0.00     0.000 C 
BRANCH   7   8
ATOM      8  C   UNL     1     -40.873  10.021   7.534  1.00  0.00     0.000 C 
BRANCH   8   9
ATOM      9  C   UNL     1     -41.282  10.692   6.211  1.00  0.00     0.000 C 
BRANCH   9  10
ATOM     10  C   UNL     1     -40.631  10.101   4.948  1.00  0.00     0.000 C 
BRANCH  10  11
ATOM     11  C   UNL     1     -41.247  10.643   3.648  1.00  0.00     0.000 C 
BRANCH  11  12
ATOM     12  C   UNL     1     -42.661  10.096   3.379  1.00  0.00     0.000 C 
BRANCH  12  13
ATOM     13  C   UNL     1     -43.128  10.175   1.914  1.00  0.00     0.006 C 
BRANCH  13  14
ATOM     14  C   UNL     1     -43.054   8.825   1.187  1.00  0.00     0.053 C 
BRANCH  14  15
ATOM     15  C   UNL     1     -42.643   9.019  -0.238  1.00  0.00     0.041 C 
ATOM     16  O   UNL     1     -41.873   8.194  -0.794  1.00  0.00    -0.550 OA
ATOM     17  O   UNL     1     -43.151  10.089  -0.968  1.00  0.00    -0.550 OA
ENDBRANCH  14  15
ENDBRANCH  13  14
ENDBRANCH  12  13
ENDBRANCH  11  12
ENDBRANCH  10  11
ENDBRANCH   9  10
ENDBRANCH   8   9
ENDBRANCH   7   8
ENDBRANCH   6   7
ENDBRANCH   5   6
ENDBRANCH   4   5
ENDBRANCH   3   4
ENDBRANCH   2   3
ENDBRANCH   1   2
BRANCH   1  18
ATOM     18  C   UNL     1     -35.560   8.159   4.119  1.00  0.00     0.000 C 
BRANCH  18  19
ATOM     19  C   UNL     1     -34.989   9.139   3.080  1.00  0.00     0.000 C 
BRANCH  19  20
ATOM     20  C   UNL     1     -33.482   8.954   2.847  1.00  0.00     0.000 C 
BRANCH  20  21
ATOM     21  C   UNL     1     -33.184   8.742   1.356  1.00  0.00     0.000 C 
BRANCH  21  22
ATOM     22  C   UNL     1     -31.998   7.792   1.111  1.00  0.00     0.000 C 
BRANCH  22  23
ATOM     23  C   UNL     1     -31.958   7.146  -0.289  1.00  0.00     0.000 C 
BRANCH  23  24
ATOM     24  C   UNL     1     -30.681   7.434  -1.104  1.00  0.00    -0.000 C 
BRANCH  24  25
ATOM     25  C   UNL     1     -29.386   6.821  -0.531  1.00  0.00    -0.000 C 
BRANCH  25  26
ATOM     26  C   UNL     1     -28.323   7.839  -0.082  1.00  0.00    -0.000 C 
BRANCH  26  27
ATOM     27  C   UNL     1     -27.657   8.566  -1.261  1.00  0.00    -0.000 C 
BRANCH  27  28
ATOM     28  C   UNL     1     -27.490   7.668  -2.500  1.00  0.00    -0.000 C 
BRANCH  28  29
ATOM     29  C   UNL     1     -28.380   8.032  -3.706  1.00  0.00    -0.000 C 
BRANCH  29  30
ATOM     30  C   UNL     1     -27.746   7.777  -5.087  1.00  0.00    -0.000 C 
BRANCH  30  31
ATOM     31  C   UNL     1     -26.720   8.850  -5.480  1.00  0.00    -0.003 C 
ATOM     32  C   UNL     1     -26.788   9.152  -6.975  1.00  0.00     0.004 C 
ENDBRANCH  30  31
ENDBRANCH  29  30
ENDBRANCH  28  29
ENDBRANCH  27  28
ENDBRANCH  26  27
ENDBRANCH  25  26
ENDBRANCH  24  25
ENDBRANCH  23  24
ENDBRANCH  22  23
ENDBRANCH  21  22
ENDBRANCH  20  21
ENDBRANCH  19  20
ENDBRANCH  18  19
ENDBRANCH   1  18
TORSDOF 28
ENDMDL
MODEL 5
REMARK VINA RESULT:    17.836      4.948     13.370
REMARK INTER + INTRA:          45.905
REMARK INTER:                  47.477
REMARK INTRA:                  -1.572
REMARK UNBOUND:                -1.125
REMARK SMILES CCCCCCCCCCCCCCCCCCCCCCCCCCCCCC(=O)[O-]
REMARK SMILES IDX 16 1 17 2 18 3 19 4 20 5 21 6 22 7 23 8 24 9 25 10 26 11
REMARK SMILES IDX 27 12 28 13 29 14 30 15 31 16 32 17 15 18 14 19 13 20 12 21
REMARK SMILES IDX 11 22 10 23 9 24 8 25 7 26 6 27 5 28 4 29 3 30 2 31 1 32
REMARK H PARENT
REMARK Flexibility Score: inf
ROOT
ATOM      1  C   UNL     1     -33.381   8.804   2.281  1.00  0.00     0.000 C 
ENDROOT
BRANCH   1   2
ATOM      2  C   UNL     1     -34.759   9.272   2.773  1.00  0.00     0.000 C 
BRANCH   2   3
ATOM      3  C   UNL     1     -35.255   8.394   3.931  1.00  0.00     0.000 C 
BRANCH   3   4
ATOM      4  C   UNL     1     -36.736   7.993   3.790  1.00  0.00     0.000 C 
BRANCH   4   5
ATOM      5  C   UNL     1     -37.228   6.948   4.809  1.00  0.00     0.000 C 
BRANCH   5   6
ATOM      6  C   UNL     1     -38.725   7.029   5.162  1.00  0.00     0.000 C 
BRANCH   6   7
ATOM      7  C   UNL     1     -39.041   6.687   6.634  1.00  0.00     0.000 C 
BRANCH   7   8
ATOM      8  C   UNL     1     -40.359   7.317   7.115  1.00  0.00     0.000 C 
BRANCH   8   9
ATOM      9  C   UNL     1     -40.189   8.758   7.627  1.00  0.00     0.000 C 
BRANCH   9  10
ATOM     10  C   UNL     1     -40.958   9.830   6.834  1.00  0.00     0.000 C 
BRANCH  10  11
ATOM     11  C   UNL     1     -40.733   9.727   5.316  1.00  0.00     0.000 C 
BRANCH  11  12
ATOM     12  C   UNL     1     -41.984  10.095   4.497  1.00  0.00     0.000 C 
BRANCH  12  13
ATOM     13  C   UNL     1     -41.715  10.515   3.041  1.00  0.00     0.006 C 
BRANCH  13  14
ATOM     14  C   UNL     1     -42.961  10.422   2.149  1.00  0.00     0.053 C 
BRANCH  14  15
ATOM     15  C   UNL     1     -42.828   9.291   1.178  1.00  0.00     0.041 C 
ATOM     16  O   UNL     1     -42.946   8.101   1.572  1.00  0.00    -0.550 OA
ATOM     17  O   UNL     1     -42.622   9.555  -0.171  1.00  0.00    -0.550 OA
ENDBRANCH  14  15
ENDBRANCH  13  14
ENDBRANCH  12  13
ENDBRANCH  11  12
ENDBRANCH  10  11
ENDBRANCH   9  10
ENDBRANCH   8   9
ENDBRANCH   7   8
ENDBRANCH   6   7
ENDBRANCH   5   6
ENDBRANCH   4   5
ENDBRANCH   3   4
ENDBRANCH   2   3
ENDBRANCH   1   2
BRANCH   1  18
ATOM     18  C   UNL     1     -33.114   9.171   0.810  1.00  0.00     0.000 C 
BRANCH  18  19
ATOM     19  C   UNL     1     -32.406   8.080  -0.012  1.00  0.00     0.000 C 
BRANCH  19  20
ATOM     20  C   UNL     1     -31.557   7.137   0.852  1.00  0.00     0.000 C 
BRANCH  20  21
ATOM     21  C   UNL     1     -30.268   6.739   0.118  1.00  0.00     0.000 C 
BRANCH  21  22
ATOM     22  C   UNL     1     -29.041   7.542   0.586  1.00  0.00     0.000 C 
BRANCH  22  23
ATOM     23  C   UNL     1     -27.858   7.561  -0.405  1.00  0.00     0.000 C 
BRANCH  23  24
ATOM     24  C   UNL     1     -28.040   8.494  -1.620  1.00  0.00    -0.000 C 
BRANCH  24  25
ATOM     25  C   UNL     1     -27.552   7.921  -2.966  1.00  0.00    -0.000 C 
BRANCH  25  26
ATOM     26  C   UNL     1     -28.049   8.671  -4.215  1.00  0.00    -0.000 C 
BRANCH  26  27
ATOM     27  C   UNL     1     -29.171   7.924  -4.953  1.00  0.00    -0.000 C 
BRANCH  27  28
ATOM     28  C   UNL     1     -30.265   7.401  -4.004  1.00  0.00    -0.000 C 
BRANCH  28  29
ATOM     29  C   UNL     1     -31.565   6.929  -4.689  1.00  0.00    -0.000 C 
BRANCH  29  30
ATOM     30  C   UNL     1     -32.163   7.918  -5.707  1.00  0.00    -0.000 C 
BRANCH  30  31
ATOM     31  C   UNL     1     -33.259   7.287  -6.578  1.00  0.00    -0.003 C 
ATOM     32  C   UNL     1     -33.075   5.775  -6.683  1.00  0.00     0.004 C 
ENDBRANCH  30  31
ENDBRANCH  29  30
ENDBRANCH  28  29
ENDBRANCH  27  28
ENDBRANCH  26  27
ENDBRANCH  25  26
ENDBRANCH  24  25
ENDBRANCH  23  24
ENDBRANCH  22  23
ENDBRANCH  21  22
ENDBRANCH  20  21
ENDBRANCH  19  20
ENDBRANCH  18  19
ENDBRANCH   1  18
TORSDOF 28
ENDMDL
