MODEL 1
REMARK VINA RESULT:    -5.952      0.000      0.000
REMARK INTER + INTRA:          -6.396
REMARK INTER:                  -6.300
REMARK INTRA:                  -0.096
REMARK UNBOUND:                -0.096
REMARK SMILES C=C(C)[C@@H]1CC=C(C)C(=O)C1
REMARK SMILES IDX 8 1 7 2 6 3 5 4 4 5 11 6 9 7 10 8 2 9 1 10 3 11
REMARK H PARENT
REMARK Flexibility Score: inf
ROOT
ATOM      1  C   UNL     1      30.096   6.890  25.736  1.00  0.00     0.048 C 
ATOM      2  C   UNL     1      29.180   8.076  25.860  1.00  0.00    -0.012 C 
ATOM      3  C   UNL     1      29.678   9.320  25.757  1.00  0.00    -0.019 C 
ATOM      4  C   UNL     1      28.804  10.542  25.855  1.00  0.00     0.036 C 
ATOM      5  C   UNL     1      27.622  10.301  26.814  1.00  0.00     0.025 C 
ATOM      6  C   UNL     1      26.832   9.052  26.387  1.00  0.00     0.089 C 
ATOM      7  C   UNL     1      27.753   7.875  26.220  1.00  0.00     0.158 C 
ATOM      8  O   UNL     1      27.292   6.709  26.353  1.00  0.00    -0.295 OA
ENDROOT
BRANCH   5   9
ATOM      9  C   UNL     1      26.721  11.525  26.905  1.00  0.00    -0.077 C 
ATOM     10  C   UNL     1      25.600  11.482  27.642  1.00  0.00     0.008 C 
ATOM     11  C   UNL     1      27.056  12.804  26.178  1.00  0.00     0.039 C 
ENDBRANCH   5   9
TORSDOF 1
ENDMDL
MODEL 2
REMARK VINA RESULT:    -5.904      2.332      4.860
REMARK INTER + INTRA:          -6.345
REMARK INTER:                  -6.246
REMARK INTRA:                  -0.098
REMARK UNBOUND:                -0.096
REMARK SMILES C=C(C)[C@@H]1CC=C(C)C(=O)C1
REMARK SMILES IDX 8 1 7 2 6 3 5 4 4 5 11 6 9 7 10 8 2 9 1 10 3 11
REMARK H PARENT
REMARK Flexibility Score: inf
ROOT
ATOM      1  C   UNL     1      24.774  12.860  27.635  1.00  0.00     0.048 C 
ATOM      2  C   UNL     1      25.852  11.980  27.065  1.00  0.00    -0.012 C 
ATOM      3  C   UNL     1      25.947  10.698  27.458  1.00  0.00    -0.019 C 
ATOM      4  C   UNL     1      26.996   9.768  26.906  1.00  0.00     0.036 C 
ATOM      5  C   UNL     1      28.290  10.532  26.571  1.00  0.00     0.025 C 
ATOM      6  C   UNL     1      27.991  11.703  25.619  1.00  0.00     0.089 C 
ATOM      7  C   UNL     1      26.882  12.559  26.167  1.00  0.00     0.158 C 
ATOM      8  O   UNL     1      26.816  13.771  25.825  1.00  0.00    -0.295 OA
ENDROOT
BRANCH   5   9
ATOM      9  C   UNL     1      29.351   9.603  25.994  1.00  0.00    -0.077 C 
ATOM     10  C   UNL     1      29.055   8.319  25.740  1.00  0.00     0.008 C 
ATOM     11  C   UNL     1      30.746  10.093  25.696  1.00  0.00     0.039 C 
ENDBRANCH   5   9
TORSDOF 1
ENDMDL
MODEL 3
REMARK VINA RESULT:    -5.569      1.434      2.173
REMARK INTER + INTRA:          -5.991
REMARK INTER:                  -5.891
REMARK INTRA:                  -0.099
REMARK UNBOUND:                -0.096
REMARK SMILES C=C(C)[C@@H]1CC=C(C)C(=O)C1
REMARK SMILES IDX 8 1 7 2 6 3 5 4 4 5 11 6 9 7 10 8 2 9 1 10 3 11
REMARK H PARENT
REMARK Flexibility Score: inf
ROOT
ATOM      1  C   UNL     1      32.125   9.139  25.622  1.00  0.00     0.048 C 
ATOM      2  C   UNL     1      30.630   9.245  25.752  1.00  0.00    -0.012 C 
ATOM      3  C   UNL     1      30.044  10.454  25.788  1.00  0.00    -0.019 C 
ATOM      4  C   UNL     1      28.551  10.616  25.898  1.00  0.00     0.036 C 
ATOM      5  C   UNL     1      27.931   9.474  26.725  1.00  0.00     0.025 C 
ATOM      6  C   UNL     1      28.326   8.109  26.136  1.00  0.00     0.089 C 
ATOM      7  C   UNL     1      29.818   8.020  25.965  1.00  0.00     0.158 C 
ATOM      8  O   UNL     1      30.370   6.886  25.967  1.00  0.00    -0.295 OA
ENDROOT
BRANCH   5   9
ATOM      9  C   UNL     1      26.418   9.619  26.826  1.00  0.00    -0.077 C 
ATOM     10  C   UNL     1      25.620   8.585  26.515  1.00  0.00     0.008 C 
ATOM     11  C   UNL     1      25.780  10.912  27.272  1.00  0.00     0.039 C 
ENDBRANCH   5   9
TORSDOF 1
ENDMDL
MODEL 4
REMARK VINA RESULT:    -5.471      8.372      9.204
REMARK INTER + INTRA:          -5.887
REMARK INTER:                  -5.789
REMARK INTRA:                  -0.098
REMARK UNBOUND:                -0.096
REMARK SMILES C=C(C)[C@@H]1CC=C(C)C(=O)C1
REMARK SMILES IDX 8 1 7 2 6 3 5 4 4 5 11 6 9 7 10 8 2 9 1 10 3 11
REMARK H PARENT
REMARK Flexibility Score: inf
ROOT
ATOM      1  C   UNL     1      36.641   9.558  28.076  1.00  0.00     0.048 C 
ATOM      2  C   UNL     1      36.217  10.932  28.516  1.00  0.00    -0.012 C 
ATOM      3  C   UNL     1      34.919  11.190  28.749  1.00  0.00    -0.019 C 
ATOM      4  C   UNL     1      34.443  12.543  29.209  1.00  0.00     0.036 C 
ATOM      5  C   UNL     1      35.322  13.666  28.628  1.00  0.00     0.025 C 
ATOM      6  C   UNL     1      36.801  13.421  28.972  1.00  0.00     0.089 C 
ATOM      7  C   UNL     1      37.214  12.031  28.572  1.00  0.00     0.158 C 
ATOM      8  O   UNL     1      38.427  11.800  28.319  1.00  0.00    -0.295 OA
ENDROOT
BRANCH   5   9
ATOM      9  C   UNL     1      34.860  15.037  29.102  1.00  0.00    -0.077 C 
ATOM     10  C   UNL     1      33.993  15.140  30.122  1.00  0.00     0.008 C 
ATOM     11  C   UNL     1      35.355  16.303  28.448  1.00  0.00     0.039 C 
ENDBRANCH   5   9
TORSDOF 1
ENDMDL
MODEL 5
REMARK VINA RESULT:    -5.439      1.347      2.036
REMARK INTER + INTRA:          -5.853
REMARK INTER:                  -5.754
REMARK INTRA:                  -0.099
REMARK UNBOUND:                -0.096
REMARK SMILES C=C(C)[C@@H]1CC=C(C)C(=O)C1
REMARK SMILES IDX 8 1 7 2 6 3 5 4 4 5 11 6 9 7 10 8 2 9 1 10 3 11
REMARK H PARENT
REMARK Flexibility Score: inf
ROOT
ATOM      1  C   UNL     1      28.252   6.112  25.828  1.00  0.00     0.048 C 
ATOM      2  C   UNL     1      27.809   7.491  26.233  1.00  0.00    -0.012 C 
ATOM      3  C   UNL     1      26.500   7.791  26.265  1.00  0.00    -0.019 C 
ATOM      4  C   UNL     1      26.002   9.150  26.680  1.00  0.00     0.036 C 
ATOM      5  C   UNL     1      26.998  10.252  26.276  1.00  0.00     0.025 C 
ATOM      6  C   UNL     1      28.395   9.946  26.843  1.00  0.00     0.089 C 
ATOM      7  C   UNL     1      28.821   8.551  26.475  1.00  0.00     0.158 C 
ATOM      8  O   UNL     1      30.050   8.280  26.410  1.00  0.00    -0.295 OA
ENDROOT
BRANCH   5   9
ATOM      9  C   UNL     1      26.512  11.629  26.709  1.00  0.00    -0.077 C 
ATOM     10  C   UNL     1      25.599  11.744  27.686  1.00  0.00     0.008 C 
ATOM     11  C   UNL     1      27.034  12.887  26.059  1.00  0.00     0.039 C 
ENDBRANCH   5   9
TORSDOF 1
ENDMDL
MODEL 6
REMARK VINA RESULT:    -5.338      8.625     10.099
REMARK INTER + INTRA:          -5.746
REMARK INTER:                  -5.648
REMARK INTRA:                  -0.098
REMARK UNBOUND:                -0.096
REMARK SMILES C=C(C)[C@@H]1CC=C(C)C(=O)C1
REMARK SMILES IDX 8 1 7 2 6 3 5 4 4 5 11 6 9 7 10 8 2 9 1 10 3 11
REMARK H PARENT
REMARK Flexibility Score: inf
ROOT
ATOM      1  C   UNL     1      34.630  18.115  29.105  1.00  0.00     0.048 C 
ATOM      2  C   UNL     1      34.887  16.635  29.184  1.00  0.00    -0.012 C 
ATOM      3  C   UNL     1      35.931  16.100  28.527  1.00  0.00    -0.019 C 
ATOM      4  C   UNL     1      36.244  14.629  28.588  1.00  0.00     0.036 C 
ATOM      5  C   UNL     1      34.956  13.794  28.726  1.00  0.00     0.025 C 
ATOM      6  C   UNL     1      34.140  14.267  29.941  1.00  0.00     0.089 C 
ATOM      7  C   UNL     1      33.919  15.753  29.885  1.00  0.00     0.158 C 
ATOM      8  O   UNL     1      32.920  16.249  30.472  1.00  0.00    -0.295 OA
ENDROOT
BRANCH   5   9
ATOM      9  C   UNL     1      35.265  12.305  28.807  1.00  0.00    -0.077 C 
ATOM     10  C   UNL     1      36.531  11.872  28.701  1.00  0.00     0.008 C 
ATOM     11  C   UNL     1      34.170  11.286  29.006  1.00  0.00     0.039 C 
ENDBRANCH   5   9
TORSDOF 1
ENDMDL
MODEL 7
REMARK VINA RESULT:    -5.290      1.192      4.050
REMARK INTER + INTRA:          -5.695
REMARK INTER:                  -5.597
REMARK INTRA:                  -0.098
REMARK UNBOUND:                -0.096
REMARK SMILES C=C(C)[C@@H]1CC=C(C)C(=O)C1
REMARK SMILES IDX 8 1 7 2 6 3 5 4 4 5 11 6 9 7 10 8 2 9 1 10 3 11
REMARK H PARENT
REMARK Flexibility Score: inf
ROOT
ATOM      1  C   UNL     1      25.024  11.202  26.996  1.00  0.00     0.048 C 
ATOM      2  C   UNL     1      26.343  10.494  26.849  1.00  0.00    -0.012 C 
ATOM      3  C   UNL     1      27.487  11.198  26.864  1.00  0.00    -0.019 C 
ATOM      4  C   UNL     1      28.834  10.537  26.740  1.00  0.00     0.036 C 
ATOM      5  C   UNL     1      28.755   9.284  25.848  1.00  0.00     0.025 C 
ATOM      6  C   UNL     1      27.680   8.319  26.375  1.00  0.00     0.089 C 
ATOM      7  C   UNL     1      26.372   9.036  26.564  1.00  0.00     0.158 C 
ATOM      8  O   UNL     1      25.297   8.379  26.514  1.00  0.00    -0.295 OA
ENDROOT
BRANCH   5   9
ATOM      9  C   UNL     1      30.110   8.597  25.732  1.00  0.00    -0.077 C 
ATOM     10  C   UNL     1      30.190   7.258  25.755  1.00  0.00     0.008 C 
ATOM     11  C   UNL     1      31.384   9.393  25.590  1.00  0.00     0.039 C 
ENDBRANCH   5   9
TORSDOF 1
ENDMDL
MODEL 8
REMARK VINA RESULT:    -5.214      1.565      4.384
REMARK INTER + INTRA:          -5.615
REMARK INTER:                  -5.520
REMARK INTRA:                  -0.095
REMARK UNBOUND:                -0.096
REMARK SMILES C=C(C)[C@@H]1CC=C(C)C(=O)C1
REMARK SMILES IDX 8 1 7 2 6 3 5 4 4 5 11 6 9 7 10 8 2 9 1 10 3 11
REMARK H PARENT
REMARK Flexibility Score: inf
ROOT
ATOM      1  C   UNL     1      27.093  12.381  26.428  1.00  0.00     0.048 C 
ATOM      2  C   UNL     1      27.505  10.938  26.510  1.00  0.00    -0.012 C 
ATOM      3  C   UNL     1      28.809  10.612  26.516  1.00  0.00    -0.019 C 
ATOM      4  C   UNL     1      29.276   9.184  26.615  1.00  0.00     0.036 C 
ATOM      5  C   UNL     1      28.284   8.228  25.927  1.00  0.00     0.025 C 
ATOM      6  C   UNL     1      26.869   8.420  26.502  1.00  0.00     0.089 C 
ATOM      7  C   UNL     1      26.474   9.870  26.460  1.00  0.00     0.158 C 
ATOM      8  O   UNL     1      25.250  10.173  26.418  1.00  0.00    -0.295 OA
ENDROOT
BRANCH   5   9
ATOM      9  C   UNL     1      28.738   6.779  26.039  1.00  0.00    -0.077 C 
ATOM     10  C   UNL     1      30.006   6.447  25.751  1.00  0.00     0.008 C 
ATOM     11  C   UNL     1      27.788   5.689  26.469  1.00  0.00     0.039 C 
ENDBRANCH   5   9
TORSDOF 1
ENDMDL
MODEL 9
REMARK VINA RESULT:    -5.028      7.379      8.660
REMARK INTER + INTRA:          -5.418
REMARK INTER:                  -5.319
REMARK INTRA:                  -0.098
REMARK UNBOUND:                -0.096
REMARK SMILES C=C(C)[C@@H]1CC=C(C)C(=O)C1
REMARK SMILES IDX 8 1 7 2 6 3 5 4 4 5 11 6 9 7 10 8 2 9 1 10 3 11
REMARK H PARENT
REMARK Flexibility Score: inf
ROOT
ATOM      1  C   UNL     1      39.222   9.939  25.753  1.00  0.00     0.048 C 
ATOM      2  C   UNL     1      37.836   9.888  26.335  1.00  0.00    -0.012 C 
ATOM      3  C   UNL     1      36.820   9.398  25.605  1.00  0.00    -0.019 C 
ATOM      4  C   UNL     1      35.417   9.308  26.147  1.00  0.00     0.036 C 
ATOM      5  C   UNL     1      35.129  10.458  27.130  1.00  0.00     0.025 C 
ATOM      6  C   UNL     1      36.185  10.484  28.248  1.00  0.00     0.089 C 
ATOM      7  C   UNL     1      37.571  10.491  27.666  1.00  0.00     0.158 C 
ATOM      8  O   UNL     1      38.518  10.984  28.339  1.00  0.00    -0.295 OA
ENDROOT
BRANCH   5   9
ATOM      9  C   UNL     1      33.718  10.364  27.698  1.00  0.00    -0.077 C 
ATOM     10  C   UNL     1      33.492  10.654  28.988  1.00  0.00     0.008 C 
ATOM     11  C   UNL     1      32.552   9.946  26.838  1.00  0.00     0.039 C 
ENDBRANCH   5   9
TORSDOF 1
ENDMDL
