MODEL 1
REMARK VINA RESULT:    -3.100      0.000      0.000
REMARK INTER + INTRA:          -3.993
REMARK INTER:                  -3.825
REMARK INTRA:                  -0.167
REMARK UNBOUND:                -0.167
REMARK SMILES CCCCCC(=O)[O-]
REMARK SMILES IDX 4 1 5 2 6 3 7 4 8 5 3 6 2 7 1 8
REMARK H PARENT
REMARK Flexibility Score: inf
ROOT
ATOM      1  C   UNL     1       7.791  33.266  -8.102  1.00  0.00     0.006 C 
ENDROOT
BRANCH   1   2
ATOM      2  C   UNL     1       8.488  31.969  -7.670  1.00  0.00     0.053 C 
BRANCH   2   3
ATOM      3  C   UNL     1       9.686  32.242  -6.814  1.00  0.00     0.041 C 
ATOM      4  O   UNL     1       9.550  32.474  -5.585  1.00  0.00    -0.550 OA
ATOM      5  O   UNL     1      10.959  32.208  -7.371  1.00  0.00    -0.550 OA
ENDBRANCH   2   3
ENDBRANCH   1   2
BRANCH   1   6
ATOM      6  C   UNL     1       7.692  33.391  -9.630  1.00  0.00     0.000 C 
BRANCH   6   7
ATOM      7  C   UNL     1       8.418  34.647 -10.125  1.00  0.00    -0.003 C 
ATOM      8  C   UNL     1       9.919  34.556  -9.862  1.00  0.00     0.004 C 
ENDBRANCH   6   7
ENDBRANCH   1   6
TORSDOF 4
ENDMDL
MODEL 2
REMARK VINA RESULT:    -3.051     22.548     23.403
REMARK INTER + INTRA:          -3.931
REMARK INTER:                  -3.843
REMARK INTRA:                  -0.089
REMARK UNBOUND:                -0.167
REMARK SMILES CCCCCC(=O)[O-]
REMARK SMILES IDX 4 1 5 2 6 3 7 4 8 5 3 6 2 7 1 8
REMARK H PARENT
REMARK Flexibility Score: inf
ROOT
ATOM      1  C   UNL     1      -5.158  50.608  -9.387  1.00  0.00     0.006 C 
ENDROOT
BRANCH   1   2
ATOM      2  C   UNL     1      -6.565  51.096  -9.757  1.00  0.00     0.053 C 
BRANCH   2   3
ATOM      3  C   UNL     1      -7.603  50.557  -8.821  1.00  0.00     0.041 C 
ATOM      4  O   UNL     1      -8.354  49.613  -9.182  1.00  0.00    -0.550 OA
ATOM      5  O   UNL     1      -7.718  51.075  -7.538  1.00  0.00    -0.550 OA
ENDBRANCH   2   3
ENDBRANCH   1   2
BRANCH   1   6
ATOM      6  C   UNL     1      -4.365  51.662  -8.600  1.00  0.00     0.000 C 
BRANCH   6   7
ATOM      7  C   UNL     1      -3.520  51.005  -7.503  1.00  0.00    -0.003 C 
ATOM      8  C   UNL     1      -2.177  51.714  -7.342  1.00  0.00     0.004 C 
ENDBRANCH   6   7
ENDBRANCH   1   6
TORSDOF 4
ENDMDL
MODEL 3
REMARK VINA RESULT:    -2.667      0.983      2.236
REMARK INTER + INTRA:          -3.458
REMARK INTER:                  -3.349
REMARK INTRA:                  -0.109
REMARK UNBOUND:                -0.167
REMARK SMILES CCCCCC(=O)[O-]
REMARK SMILES IDX 4 1 5 2 6 3 7 4 8 5 3 6 2 7 1 8
REMARK H PARENT
REMARK Flexibility Score: inf
ROOT
ATOM      1  C   UNL     1       9.512  33.738  -9.133  1.00  0.00     0.006 C 
ENDROOT
BRANCH   1   2
ATOM      2  C   UNL     1       9.032  33.564  -7.686  1.00  0.00     0.053 C 
BRANCH   2   3
ATOM      3  C   UNL     1       9.932  32.654  -6.909  1.00  0.00     0.041 C 
ATOM      4  O   UNL     1      11.026  32.271  -7.400  1.00  0.00    -0.550 OA
ATOM      5  O   UNL     1       9.577  32.255  -5.626  1.00  0.00    -0.550 OA
ENDBRANCH   2   3
ENDBRANCH   1   2
BRANCH   1   6
ATOM      6  C   UNL     1       8.343  33.835 -10.125  1.00  0.00     0.000 C 
BRANCH   6   7
ATOM      7  C   UNL     1       7.020  33.451  -9.452  1.00  0.00    -0.003 C 
ATOM      8  C   UNL     1       6.563  32.062  -9.888  1.00  0.00     0.004 C 
ENDBRANCH   6   7
ENDBRANCH   1   6
TORSDOF 4
ENDMDL
MODEL 4
REMARK VINA RESULT:    -2.652     24.926     25.540
REMARK INTER + INTRA:          -3.440
REMARK INTER:                  -3.371
REMARK INTRA:                  -0.069
REMARK UNBOUND:                -0.167
REMARK SMILES CCCCCC(=O)[O-]
REMARK SMILES IDX 4 1 5 2 6 3 7 4 8 5 3 6 2 7 1 8
REMARK H PARENT
REMARK Flexibility Score: inf
ROOT
ATOM      1  C   UNL     1      -8.492  50.127  -3.752  1.00  0.00     0.006 C 
ENDROOT
BRANCH   1   2
ATOM      2  C   UNL     1      -8.677  51.444  -4.517  1.00  0.00     0.053 C 
BRANCH   2   3
ATOM      3  C   UNL     1      -7.576  51.670  -5.508  1.00  0.00     0.041 C 
ATOM      4  O   UNL     1      -6.465  52.125  -5.130  1.00  0.00    -0.550 OA
ATOM      5  O   UNL     1      -7.768  51.346  -6.845  1.00  0.00    -0.550 OA
ENDBRANCH   2   3
ENDBRANCH   1   2
BRANCH   1   6
ATOM      6  C   UNL     1      -9.109  50.180  -2.347  1.00  0.00     0.000 C 
BRANCH   6   7
ATOM      7  C   UNL     1      -8.059  50.572  -1.302  1.00  0.00    -0.003 C 
ATOM      8  C   UNL     1      -8.076  52.076  -1.040  1.00  0.00     0.004 C 
ENDBRANCH   6   7
ENDBRANCH   1   6
TORSDOF 4
ENDMDL
MODEL 5
REMARK VINA RESULT:    -2.477     22.146     23.156
REMARK INTER + INTRA:          -3.223
REMARK INTER:                  -3.003
REMARK INTRA:                  -0.220
REMARK UNBOUND:                -0.167
REMARK SMILES CCCCCC(=O)[O-]
REMARK SMILES IDX 4 1 5 2 6 3 7 4 8 5 3 6 2 7 1 8
REMARK H PARENT
REMARK Flexibility Score: inf
ROOT
ATOM      1  C   UNL     1      -5.028  50.937  -9.826  1.00  0.00     0.006 C 
ENDROOT
BRANCH   1   2
ATOM      2  C   UNL     1      -4.051  51.945  -9.207  1.00  0.00     0.053 C 
BRANCH   2   3
ATOM      3  C   UNL     1      -3.343  51.373  -8.017  1.00  0.00     0.041 C 
ATOM      4  O   UNL     1      -3.915  50.523  -7.286  1.00  0.00    -0.550 OA
ATOM      5  O   UNL     1      -2.037  51.755  -7.736  1.00  0.00    -0.550 OA
ENDBRANCH   2   3
ENDBRANCH   1   2
BRANCH   1   6
ATOM      6  C   UNL     1      -6.458  51.491  -9.911  1.00  0.00     0.000 C 
BRANCH   6   7
ATOM      7  C   UNL     1      -7.314  50.980  -8.747  1.00  0.00    -0.003 C 
ATOM      8  C   UNL     1      -7.381  52.007  -7.620  1.00  0.00     0.004 C 
ENDBRANCH   6   7
ENDBRANCH   1   6
TORSDOF 4
ENDMDL
MODEL 6
REMARK VINA RESULT:    -2.464      2.688      3.608
REMARK INTER + INTRA:          -3.207
REMARK INTER:                  -3.031
REMARK INTRA:                  -0.176
REMARK UNBOUND:                -0.167
REMARK SMILES CCCCCC(=O)[O-]
REMARK SMILES IDX 4 1 5 2 6 3 7 4 8 5 3 6 2 7 1 8
REMARK H PARENT
REMARK Flexibility Score: inf
ROOT
ATOM      1  C   UNL     1       8.592  33.408  -7.294  1.00  0.00     0.006 C 
ENDROOT
BRANCH   1   2
ATOM      2  C   UNL     1       7.559  32.573  -8.063  1.00  0.00     0.053 C 
BRANCH   2   3
ATOM      3  C   UNL     1       7.261  33.162  -9.408  1.00  0.00     0.041 C 
ATOM      4  O   UNL     1       6.347  32.676 -10.125  1.00  0.00    -0.550 OA
ATOM      5  O   UNL     1       7.972  34.268  -9.855  1.00  0.00    -0.550 OA
ENDBRANCH   2   3
ENDBRANCH   1   2
BRANCH   1   6
ATOM      6  C   UNL     1       9.642  32.533  -6.596  1.00  0.00     0.000 C 
BRANCH   6   7
ATOM      7  C   UNL     1      10.622  31.935  -7.613  1.00  0.00    -0.003 C 
ATOM      8  C   UNL     1      11.122  32.999  -8.587  1.00  0.00     0.004 C 
ENDBRANCH   6   7
ENDBRANCH   1   6
TORSDOF 4
ENDMDL
MODEL 7
REMARK VINA RESULT:    -2.349      2.044      3.502
REMARK INTER + INTRA:          -3.066
REMARK INTER:                  -2.914
REMARK INTRA:                  -0.151
REMARK UNBOUND:                -0.167
REMARK SMILES CCCCCC(=O)[O-]
REMARK SMILES IDX 4 1 5 2 6 3 7 4 8 5 3 6 2 7 1 8
REMARK H PARENT
REMARK Flexibility Score: inf
ROOT
ATOM      1  C   UNL     1       7.533  33.864  -8.618  1.00  0.00     0.006 C 
ENDROOT
BRANCH   1   2
ATOM      2  C   UNL     1       8.077  33.959 -10.049  1.00  0.00     0.053 C 
BRANCH   2   3
ATOM      3  C   UNL     1       9.545  34.257 -10.066  1.00  0.00     0.041 C 
ATOM      4  O   UNL     1      10.383  33.318 -10.057  1.00  0.00    -0.550 OA
ATOM      5  O   UNL     1       9.986  35.574 -10.125  1.00  0.00    -0.550 OA
ENDBRANCH   2   3
ENDBRANCH   1   2
BRANCH   1   6
ATOM      6  C   UNL     1       7.220  32.416  -8.211  1.00  0.00     0.000 C 
BRANCH   6   7
ATOM      7  C   UNL     1       8.285  31.875  -7.250  1.00  0.00    -0.003 C 
ATOM      8  C   UNL     1       9.207  32.990  -6.763  1.00  0.00     0.004 C 
ENDBRANCH   6   7
ENDBRANCH   1   6
TORSDOF 4
ENDMDL
