MODEL 1
REMARK VINA RESULT:    -4.866      0.000      0.000
REMARK INTER + INTRA:          -5.388
REMARK INTER:                  -5.293
REMARK INTRA:                  -0.095
REMARK UNBOUND:                -0.095
REMARK SMILES C=C(C)[C@H]1CC[C@@H](C)[C@@H](O)C1
REMARK SMILES IDX 8 1 7 2 6 3 5 4 4 5 11 6 9 7 10 8 2 10 1 11 3 12
REMARK H PARENT 10 9
REMARK Flexibility Score: inf
ROOT
ATOM      1  C   UNL     1     180.684 181.949 184.464  1.00  0.00     0.010 C 
ATOM      2  C   UNL     1     179.718 180.835 184.909  1.00  0.00     0.015 C 
ATOM      3  C   UNL     1     180.366 179.909 185.962  1.00  0.00     0.006 C 
ATOM      4  C   UNL     1     181.425 178.980 185.351  1.00  0.00     0.008 C 
ATOM      5  C   UNL     1     180.838 178.161 184.185  1.00  0.00     0.017 C 
ATOM      6  C   UNL     1     180.225 179.083 183.112  1.00  0.00     0.040 C 
ATOM      7  C   UNL     1     179.157 180.009 183.724  1.00  0.00     0.117 C 
ENDROOT
BRANCH   7   8
ATOM      8  O   UNL     1     178.641 180.870 182.740  1.00  0.00    -0.393 OA
ATOM      9  H   UNL     1     177.920 181.400 183.171  1.00  0.00     0.210 HD
ENDBRANCH   7   8
BRANCH   5  10
ATOM     10  C   UNL     1     181.881 177.227 183.584  1.00  0.00    -0.077 C 
ATOM     11  C   UNL     1     181.635 175.916 183.421  1.00  0.00     0.008 C 
ATOM     12  C   UNL     1     183.222 177.767 183.157  1.00  0.00     0.039 C 
ENDBRANCH   5  10
TORSDOF 2
ENDMDL
MODEL 2
REMARK VINA RESULT:    -4.719      2.283      3.952
REMARK INTER + INTRA:          -5.228
REMARK INTER:                  -5.137
REMARK INTRA:                  -0.091
REMARK UNBOUND:                -0.095
REMARK SMILES C=C(C)[C@H]1CC[C@@H](C)[C@@H](O)C1
REMARK SMILES IDX 8 1 7 2 6 3 5 4 4 5 11 6 9 7 10 8 2 10 1 11 3 12
REMARK H PARENT 10 9
REMARK Flexibility Score: inf
ROOT
ATOM      1  C   UNL     1     182.730 179.671 185.817  1.00  0.00     0.010 C 
ATOM      2  C   UNL     1     181.235 179.434 186.105  1.00  0.00     0.015 C 
ATOM      3  C   UNL     1     180.588 178.522 185.039  1.00  0.00     0.006 C 
ATOM      4  C   UNL     1     180.388 179.242 183.698  1.00  0.00     0.008 C 
ATOM      5  C   UNL     1     179.576 180.538 183.879  1.00  0.00     0.017 C 
ATOM      6  C   UNL     1     180.239 181.470 184.914  1.00  0.00     0.040 C 
ATOM      7  C   UNL     1     180.432 180.750 186.262  1.00  0.00     0.117 C 
ENDROOT
BRANCH   7   8
ATOM      8  O   UNL     1     181.075 181.600 187.177  1.00  0.00    -0.393 OA
ATOM      9  H   UNL     1     181.211 182.469 186.716  1.00  0.00     0.210 HD
ENDBRANCH   7   8
BRANCH   5  10
ATOM     10  C   UNL     1     179.363 181.249 182.548  1.00  0.00    -0.077 C 
ATOM     11  C   UNL     1     178.520 182.290 182.439  1.00  0.00     0.008 C 
ATOM     12  C   UNL     1     180.104 180.790 181.319  1.00  0.00     0.039 C 
ENDBRANCH   5  10
TORSDOF 2
ENDMDL
MODEL 3
REMARK VINA RESULT:    -4.601      2.649      4.947
REMARK INTER + INTRA:          -5.100
REMARK INTER:                  -5.005
REMARK INTRA:                  -0.095
REMARK UNBOUND:                -0.095
REMARK SMILES C=C(C)[C@H]1CC[C@@H](C)[C@@H](O)C1
REMARK SMILES IDX 8 1 7 2 6 3 5 4 4 5 11 6 9 7 10 8 2 10 1 11 3 12
REMARK H PARENT 10 9
REMARK Flexibility Score: inf
ROOT
ATOM      1  C   UNL     1     183.988 176.113 182.245  1.00  0.00     0.010 C 
ATOM      2  C   UNL     1     182.549 175.917 181.733  1.00  0.00     0.015 C 
ATOM      3  C   UNL     1     181.993 177.208 181.093  1.00  0.00     0.006 C 
ATOM      4  C   UNL     1     181.654 178.280 182.139  1.00  0.00     0.008 C 
ATOM      5  C   UNL     1     180.683 177.730 183.202  1.00  0.00     0.017 C 
ATOM      6  C   UNL     1     181.252 176.463 183.872  1.00  0.00     0.040 C 
ATOM      7  C   UNL     1     181.584 175.385 182.823  1.00  0.00     0.117 C 
ENDROOT
BRANCH   7   8
ATOM      8  O   UNL     1     182.140 174.256 183.448  1.00  0.00    -0.393 OA
ATOM      9  H   UNL     1     181.383 173.665 183.698  1.00  0.00     0.210 HD
ENDBRANCH   7   8
BRANCH   5  10
ATOM     10  C   UNL     1     180.334 178.794 184.235  1.00  0.00    -0.077 C 
ATOM     11  C   UNL     1     180.891 178.791 185.458  1.00  0.00     0.008 C 
ATOM     12  C   UNL     1     179.343 179.879 183.897  1.00  0.00     0.039 C 
ENDBRANCH   5  10
TORSDOF 2
ENDMDL
MODEL 4
REMARK VINA RESULT:    -4.575      1.517      1.839
REMARK INTER + INTRA:          -5.071
REMARK INTER:                  -4.978
REMARK INTRA:                  -0.092
REMARK UNBOUND:                -0.095
REMARK SMILES C=C(C)[C@H]1CC[C@@H](C)[C@@H](O)C1
REMARK SMILES IDX 8 1 7 2 6 3 5 4 4 5 11 6 9 7 10 8 2 10 1 11 3 12
REMARK H PARENT 10 9
REMARK Flexibility Score: inf
ROOT
ATOM      1  C   UNL     1     181.856 182.164 185.718  1.00  0.00     0.010 C 
ATOM      2  C   UNL     1     181.155 181.054 186.522  1.00  0.00     0.015 C 
ATOM      3  C   UNL     1     182.077 179.833 186.729  1.00  0.00     0.006 C 
ATOM      4  C   UNL     1     182.262 179.015 185.443  1.00  0.00     0.008 C 
ATOM      5  C   UNL     1     180.903 178.586 184.857  1.00  0.00     0.017 C 
ATOM      6  C   UNL     1     179.993 179.806 184.612  1.00  0.00     0.040 C 
ATOM      7  C   UNL     1     179.801 180.621 185.905  1.00  0.00     0.117 C 
ENDROOT
BRANCH   7   8
ATOM      8  O   UNL     1     179.004 181.750 185.652  1.00  0.00    -0.393 OA
ATOM      9  H   UNL     1     178.226 181.697 186.267  1.00  0.00     0.210 HD
ENDBRANCH   7   8
BRANCH   5  10
ATOM     10  C   UNL     1     181.082 177.763 183.588  1.00  0.00    -0.077 C 
ATOM     11  C   UNL     1     181.150 176.421 183.628  1.00  0.00     0.008 C 
ATOM     12  C   UNL     1     181.188 178.450 182.250  1.00  0.00     0.039 C 
ENDBRANCH   5  10
TORSDOF 2
ENDMDL
MODEL 5
REMARK VINA RESULT:    -4.542      2.083      4.432
REMARK INTER + INTRA:          -5.035
REMARK INTER:                  -4.947
REMARK INTRA:                  -0.088
REMARK UNBOUND:                -0.095
REMARK SMILES C=C(C)[C@H]1CC[C@@H](C)[C@@H](O)C1
REMARK SMILES IDX 8 1 7 2 6 3 5 4 4 5 11 6 9 7 10 8 2 10 1 11 3 12
REMARK H PARENT 10 9
REMARK Flexibility Score: inf
ROOT
ATOM      1  C   UNL     1     182.928 178.696 184.186  1.00  0.00     0.010 C 
ATOM      2  C   UNL     1     181.524 178.254 184.641  1.00  0.00     0.015 C 
ATOM      3  C   UNL     1     180.536 178.193 183.456  1.00  0.00     0.006 C 
ATOM      4  C   UNL     1     180.122 179.589 182.968  1.00  0.00     0.008 C 
ATOM      5  C   UNL     1     179.547 180.433 184.121  1.00  0.00     0.017 C 
ATOM      6  C   UNL     1     180.547 180.529 185.292  1.00  0.00     0.040 C 
ATOM      7  C   UNL     1     180.955 179.128 185.786  1.00  0.00     0.117 C 
ENDROOT
BRANCH   7   8
ATOM      8  O   UNL     1     181.897 179.236 186.823  1.00  0.00    -0.393 OA
ATOM      9  H   UNL     1     182.245 180.166 186.799  1.00  0.00     0.210 HD
ENDBRANCH   7   8
BRANCH   5  10
ATOM     10  C   UNL     1     179.123 181.814 183.640  1.00  0.00    -0.077 C 
ATOM     11  C   UNL     1     178.717 182.019 182.374  1.00  0.00     0.008 C 
ATOM     12  C   UNL     1     179.154 182.987 184.586  1.00  0.00     0.039 C 
ENDBRANCH   5  10
TORSDOF 2
ENDMDL
MODEL 6
REMARK VINA RESULT:    -4.360      1.995      3.260
REMARK INTER + INTRA:          -4.837
REMARK INTER:                  -4.740
REMARK INTRA:                  -0.097
REMARK UNBOUND:                -0.095
REMARK SMILES C=C(C)[C@H]1CC[C@@H](C)[C@@H](O)C1
REMARK SMILES IDX 8 1 7 2 6 3 5 4 4 5 11 6 9 7 10 8 2 10 1 11 3 12
REMARK H PARENT 10 9
REMARK Flexibility Score: inf
ROOT
ATOM      1  C   UNL     1     178.657 183.520 184.638  1.00  0.00     0.010 C 
ATOM      2  C   UNL     1     179.541 183.188 183.421  1.00  0.00     0.015 C 
ATOM      3  C   UNL     1     178.925 182.064 182.561  1.00  0.00     0.006 C 
ATOM      4  C   UNL     1     179.038 180.686 183.231  1.00  0.00     0.008 C 
ATOM      5  C   UNL     1     180.501 180.364 183.593  1.00  0.00     0.017 C 
ATOM      6  C   UNL     1     181.108 181.466 184.485  1.00  0.00     0.040 C 
ATOM      7  C   UNL     1     181.001 182.846 183.809  1.00  0.00     0.117 C 
ENDROOT
BRANCH   7   8
ATOM      8  O   UNL     1     181.522 183.840 184.654  1.00  0.00    -0.393 OA
ATOM      9  H   UNL     1     181.119 184.701 184.366  1.00  0.00     0.210 HD
ENDBRANCH   7   8
BRANCH   5  10
ATOM     10  C   UNL     1     180.621 178.993 184.246  1.00  0.00    -0.077 C 
ATOM     11  C   UNL     1     180.513 178.841 185.578  1.00  0.00     0.008 C 
ATOM     12  C   UNL     1     180.866 177.771 183.399  1.00  0.00     0.039 C 
ENDBRANCH   5  10
TORSDOF 2
ENDMDL
MODEL 7
REMARK VINA RESULT:    -4.335      2.054      2.998
REMARK INTER + INTRA:          -4.810
REMARK INTER:                  -4.716
REMARK INTRA:                  -0.094
REMARK UNBOUND:                -0.095
REMARK SMILES C=C(C)[C@H]1CC[C@@H](C)[C@@H](O)C1
REMARK SMILES IDX 8 1 7 2 6 3 5 4 4 5 11 6 9 7 10 8 2 10 1 11 3 12
REMARK H PARENT 10 9
REMARK Flexibility Score: inf
ROOT
ATOM      1  C   UNL     1     180.833 183.189 182.558  1.00  0.00     0.010 C 
ATOM      2  C   UNL     1     179.931 182.214 181.779  1.00  0.00     0.015 C 
ATOM      3  C   UNL     1     178.784 181.673 182.660  1.00  0.00     0.006 C 
ATOM      4  C   UNL     1     179.275 180.653 183.698  1.00  0.00     0.008 C 
ATOM      5  C   UNL     1     180.041 179.500 183.023  1.00  0.00     0.017 C 
ATOM      6  C   UNL     1     181.213 180.033 182.172  1.00  0.00     0.040 C 
ATOM      7  C   UNL     1     180.718 181.050 181.126  1.00  0.00     0.117 C 
ENDROOT
BRANCH   7   8
ATOM      8  O   UNL     1     181.803 181.554 180.391  1.00  0.00    -0.393 OA
ATOM      9  H   UNL     1     182.519 181.768 181.045  1.00  0.00     0.210 HD
ENDBRANCH   7   8
BRANCH   5  10
ATOM     10  C   UNL     1     180.520 178.478 184.047  1.00  0.00    -0.077 C 
ATOM     11  C   UNL     1     180.568 178.773 185.358  1.00  0.00     0.008 C 
ATOM     12  C   UNL     1     180.952 177.105 183.600  1.00  0.00     0.039 C 
ENDBRANCH   5  10
TORSDOF 2
ENDMDL
MODEL 8
REMARK VINA RESULT:    -4.331      3.042      4.164
REMARK INTER + INTRA:          -4.806
REMARK INTER:                  -4.712
REMARK INTRA:                  -0.094
REMARK UNBOUND:                -0.095
REMARK SMILES C=C(C)[C@H]1CC[C@@H](C)[C@@H](O)C1
REMARK SMILES IDX 8 1 7 2 6 3 5 4 4 5 11 6 9 7 10 8 2 10 1 11 3 12
REMARK H PARENT 10 9
REMARK Flexibility Score: inf
ROOT
ATOM      1  C   UNL     1     183.139 179.645 188.646  1.00  0.00     0.010 C 
ATOM      2  C   UNL     1     183.172 180.775 187.599  1.00  0.00     0.015 C 
ATOM      3  C   UNL     1     181.771 181.387 187.381  1.00  0.00     0.006 C 
ATOM      4  C   UNL     1     180.842 180.454 186.591  1.00  0.00     0.008 C 
ATOM      5  C   UNL     1     181.478 180.043 185.249  1.00  0.00     0.017 C 
ATOM      6  C   UNL     1     182.861 179.395 185.466  1.00  0.00     0.040 C 
ATOM      7  C   UNL     1     183.795 180.335 186.251  1.00  0.00     0.117 C 
ENDROOT
BRANCH   7   8
ATOM      8  O   UNL     1     185.034 179.711 186.474  1.00  0.00    -0.393 OA
ATOM      9  H   UNL     1     184.965 179.239 187.345  1.00  0.00     0.210 HD
ENDBRANCH   7   8
BRANCH   5  10
ATOM     10  C   UNL     1     180.555 179.127 184.455  1.00  0.00    -0.077 C 
ATOM     11  C   UNL     1     180.837 177.823 184.290  1.00  0.00     0.008 C 
ATOM     12  C   UNL     1     179.297 179.677 183.834  1.00  0.00     0.039 C 
ENDBRANCH   5  10
TORSDOF 2
ENDMDL
MODEL 9
REMARK VINA RESULT:    -4.327      2.048      3.998
REMARK INTER + INTRA:          -4.801
REMARK INTER:                  -4.711
REMARK INTRA:                  -0.091
REMARK UNBOUND:                -0.095
REMARK SMILES C=C(C)[C@H]1CC[C@@H](C)[C@@H](O)C1
REMARK SMILES IDX 8 1 7 2 6 3 5 4 4 5 11 6 9 7 10 8 2 10 1 11 3 12
REMARK H PARENT 10 9
REMARK Flexibility Score: inf
ROOT
ATOM      1  C   UNL     1     180.847 177.570 183.980  1.00  0.00     0.010 C 
ATOM      2  C   UNL     1     181.134 179.057 183.699  1.00  0.00     0.015 C 
ATOM      3  C   UNL     1     182.614 179.410 183.963  1.00  0.00     0.006 C 
ATOM      4  C   UNL     1     182.947 179.455 185.462  1.00  0.00     0.008 C 
ATOM      5  C   UNL     1     182.009 180.422 186.209  1.00  0.00     0.017 C 
ATOM      6  C   UNL     1     180.530 180.050 185.981  1.00  0.00     0.040 C 
ATOM      7  C   UNL     1     180.195 180.014 184.478  1.00  0.00     0.117 C 
ENDROOT
BRANCH   7   8
ATOM      8  O   UNL     1     178.856 179.632 184.289  1.00  0.00    -0.393 OA
ATOM      9  H   UNL     1     178.444 180.314 183.697  1.00  0.00     0.210 HD
ENDBRANCH   7   8
BRANCH   5  10
ATOM     10  C   UNL     1     182.343 180.481 187.694  1.00  0.00    -0.077 C 
ATOM     11  C   UNL     1     181.706 181.328 188.521  1.00  0.00     0.008 C 
ATOM     12  C   UNL     1     183.407 179.579 188.266  1.00  0.00     0.039 C 
ENDBRANCH   5  10
TORSDOF 2
ENDMDL
