MODEL 1
REMARK VINA RESULT:    -3.421      0.000      0.000
REMARK INTER + INTRA:          -5.614
REMARK INTER:                  -4.922
REMARK INTRA:                  -0.692
REMARK UNBOUND:                -0.692
REMARK SMILES CCCCCCCCCO
REMARK SMILES IDX 6 1 5 2 4 3 3 4 2 5 1 6 7 7 8 8 9 9 10 10
REMARK H PARENT 10 11
REMARK Flexibility Score: inf
ROOT
ATOM      1  C   UNL     1     168.055 170.729 163.604  1.00  0.00     0.000 C 
ENDROOT
BRANCH   1   2
ATOM      2  C   UNL     1     168.950 169.598 163.055  1.00  0.00     0.000 C 
BRANCH   2   3
ATOM      3  C   UNL     1     170.207 169.331 163.907  1.00  0.00    -0.000 C 
BRANCH   3   4
ATOM      4  C   UNL     1     170.724 170.544 164.703  1.00  0.00    -0.000 C 
BRANCH   4   5
ATOM      5  C   UNL     1     172.080 171.096 164.230  1.00  0.00    -0.003 C 
ATOM      6  C   UNL     1     172.008 171.762 162.857  1.00  0.00     0.004 C 
ENDBRANCH   4   5
ENDBRANCH   3   4
ENDBRANCH   2   3
ENDBRANCH   1   2
BRANCH   1   7
ATOM      7  C   UNL     1     167.876 171.876 162.599  1.00  0.00     0.002 C 
BRANCH   7   8
ATOM      8  C   UNL     1     167.719 173.221 163.321  1.00  0.00     0.028 C 
BRANCH   8   9
ATOM      9  C   UNL     1     169.072 173.871 163.609  1.00  0.00     0.156 C 
BRANCH   9  10
ATOM     10  O   UNL     1     169.372 173.776 164.975  1.00  0.00    -0.396 OA
ATOM     11  H   UNL     1     169.082 174.633 165.381  1.00  0.00     0.210 HD
ENDBRANCH   9  10
ENDBRANCH   8   9
ENDBRANCH   7   8
ENDBRANCH   1   7
TORSDOF 8
ENDMDL
MODEL 2
REMARK VINA RESULT:    -3.318      0.920      3.078
REMARK INTER + INTRA:          -5.465
REMARK INTER:                  -4.748
REMARK INTRA:                  -0.717
REMARK UNBOUND:                -0.692
REMARK SMILES CCCCCCCCCO
REMARK SMILES IDX 6 1 5 2 4 3 3 4 2 5 1 6 7 7 8 8 9 9 10 10
REMARK H PARENT 10 11
REMARK Flexibility Score: inf
ROOT
ATOM      1  C   UNL     1     172.147 171.591 163.342  1.00  0.00     0.000 C 
ENDROOT
BRANCH   1   2
ATOM      2  C   UNL     1     171.752 170.780 164.596  1.00  0.00     0.000 C 
BRANCH   2   3
ATOM      3  C   UNL     1     170.270 170.358 164.620  1.00  0.00    -0.000 C 
BRANCH   3   4
ATOM      4  C   UNL     1     169.863 169.345 163.534  1.00  0.00    -0.000 C 
BRANCH   4   5
ATOM      5  C   UNL     1     169.010 169.928 162.393  1.00  0.00    -0.003 C 
ATOM      6  C   UNL     1     167.796 170.708 162.895  1.00  0.00     0.004 C 
ENDBRANCH   4   5
ENDBRANCH   3   4
ENDBRANCH   2   3
ENDBRANCH   1   2
BRANCH   1   7
ATOM      7  C   UNL     1     171.828 173.086 163.486  1.00  0.00     0.002 C 
BRANCH   7   8
ATOM      8  C   UNL     1     170.651 173.486 162.586  1.00  0.00     0.028 C 
BRANCH   8   9
ATOM      9  C   UNL     1     169.472 174.023 163.399  1.00  0.00     0.156 C 
BRANCH   9  10
ATOM     10  O   UNL     1     169.621 173.680 164.750  1.00  0.00    -0.396 OA
ATOM     11  H   UNL     1     168.806 173.172 164.996  1.00  0.00     0.210 HD
ENDBRANCH   9  10
ENDBRANCH   8   9
ENDBRANCH   7   8
ENDBRANCH   1   7
TORSDOF 8
ENDMDL
MODEL 3
REMARK VINA RESULT:    -3.311      2.277      4.334
REMARK INTER + INTRA:          -5.455
REMARK INTER:                  -4.789
REMARK INTRA:                  -0.666
REMARK UNBOUND:                -0.692
REMARK SMILES CCCCCCCCCO
REMARK SMILES IDX 6 1 5 2 4 3 3 4 2 5 1 6 7 7 8 8 9 9 10 10
REMARK H PARENT 10 11
REMARK Flexibility Score: inf
ROOT
ATOM      1  C   UNL     1     171.802 171.128 164.633  1.00  0.00     0.000 C 
ENDROOT
BRANCH   1   2
ATOM      2  C   UNL     1     172.115 171.492 163.166  1.00  0.00     0.000 C 
BRANCH   2   3
ATOM      3  C   UNL     1     172.043 173.004 162.873  1.00  0.00    -0.000 C 
BRANCH   3   4
ATOM      4  C   UNL     1     170.737 173.477 162.209  1.00  0.00    -0.000 C 
BRANCH   4   5
ATOM      5  C   UNL     1     169.930 174.501 163.027  1.00  0.00    -0.003 C 
ATOM      6  C   UNL     1     168.952 173.849 164.002  1.00  0.00     0.004 C 
ENDBRANCH   4   5
ENDBRANCH   3   4
ENDBRANCH   2   3
ENDBRANCH   1   2
BRANCH   1   7
ATOM      7  C   UNL     1     170.391 170.548 164.805  1.00  0.00     0.002 C 
BRANCH   7   8
ATOM      8  C   UNL     1     169.851 170.011 163.473  1.00  0.00     0.028 C 
BRANCH   8   9
ATOM      9  C   UNL     1     169.808 168.482 163.454  1.00  0.00     0.156 C 
BRANCH   9  10
ATOM     10  O   UNL     1     170.740 167.962 164.362  1.00  0.00    -0.396 OA
ATOM     11  H   UNL     1     170.238 167.783 165.199  1.00  0.00     0.210 HD
ENDBRANCH   9  10
ENDBRANCH   8   9
ENDBRANCH   7   8
ENDBRANCH   1   7
TORSDOF 8
ENDMDL
MODEL 4
REMARK VINA RESULT:    -3.285      0.796      1.151
REMARK INTER + INTRA:          -5.418
REMARK INTER:                  -4.713
REMARK INTRA:                  -0.704
REMARK UNBOUND:                -0.692
REMARK SMILES CCCCCCCCCO
REMARK SMILES IDX 6 1 5 2 4 3 3 4 2 5 1 6 7 7 8 8 9 9 10 10
REMARK H PARENT 10 11
REMARK Flexibility Score: inf
ROOT
ATOM      1  C   UNL     1     168.656 170.283 162.880  1.00  0.00     0.000 C 
ENDROOT
BRANCH   1   2
ATOM      2  C   UNL     1     170.158 169.960 163.026  1.00  0.00     0.000 C 
BRANCH   2   3
ATOM      3  C   UNL     1     170.732 170.294 164.417  1.00  0.00    -0.000 C 
BRANCH   3   4
ATOM      4  C   UNL     1     172.013 171.149 164.406  1.00  0.00    -0.000 C 
BRANCH   4   5
ATOM      5  C   UNL     1     172.153 172.086 163.193  1.00  0.00    -0.003 C 
ATOM      6  C   UNL     1     173.519 171.986 162.516  1.00  0.00     0.004 C 
ENDBRANCH   4   5
ENDBRANCH   3   4
ENDBRANCH   2   3
ENDBRANCH   1   2
BRANCH   1   7
ATOM      7  C   UNL     1     168.240 171.521 163.689  1.00  0.00     0.002 C 
BRANCH   7   8
ATOM      8  C   UNL     1     168.425 172.802 162.866  1.00  0.00     0.028 C 
BRANCH   8   9
ATOM      9  C   UNL     1     168.816 173.990 163.747  1.00  0.00     0.156 C 
BRANCH   9  10
ATOM     10  O   UNL     1     169.433 173.538 164.921  1.00  0.00    -0.396 OA
ATOM     11  H   UNL     1     170.291 174.030 164.988  1.00  0.00     0.210 HD
ENDBRANCH   9  10
ENDBRANCH   8   9
ENDBRANCH   7   8
ENDBRANCH   1   7
TORSDOF 8
ENDMDL
MODEL 5
REMARK VINA RESULT:    -3.285      1.149      3.733
REMARK INTER + INTRA:          -5.418
REMARK INTER:                  -4.883
REMARK INTRA:                  -0.535
REMARK UNBOUND:                -0.692
REMARK SMILES CCCCCCCCCO
REMARK SMILES IDX 6 1 5 2 4 3 3 4 2 5 1 6 7 7 8 8 9 9 10 10
REMARK H PARENT 10 11
REMARK Flexibility Score: inf
ROOT
ATOM      1  C   UNL     1     169.414 169.862 163.632  1.00  0.00     0.000 C 
ENDROOT
BRANCH   1   2
ATOM      2  C   UNL     1     167.968 170.321 163.347  1.00  0.00     0.000 C 
BRANCH   2   3
ATOM      3  C   UNL     1     167.880 171.597 162.487  1.00  0.00    -0.000 C 
BRANCH   3   4
ATOM      4  C   UNL     1     166.852 172.638 162.969  1.00  0.00    -0.000 C 
BRANCH   4   5
ATOM      5  C   UNL     1     167.430 174.039 163.239  1.00  0.00    -0.003 C 
ATOM      6  C   UNL     1     168.653 174.013 164.155  1.00  0.00     0.004 C 
ENDBRANCH   4   5
ENDBRANCH   3   4
ENDBRANCH   2   3
ENDBRANCH   1   2
BRANCH   1   7
ATOM      7  C   UNL     1     170.030 170.582 164.841  1.00  0.00     0.002 C 
BRANCH   7   8
ATOM      8  C   UNL     1     171.512 170.894 164.599  1.00  0.00     0.028 C 
BRANCH   8   9
ATOM      9  C   UNL     1     171.695 172.054 163.619  1.00  0.00     0.156 C 
BRANCH   9  10
ATOM     10  O   UNL     1     172.067 173.215 164.310  1.00  0.00    -0.396 OA
ATOM     11  H   UNL     1     173.050 173.163 164.426  1.00  0.00     0.210 HD
ENDBRANCH   9  10
ENDBRANCH   8   9
ENDBRANCH   7   8
ENDBRANCH   1   7
TORSDOF 8
ENDMDL
MODEL 6
REMARK VINA RESULT:    -3.242      1.008      3.841
REMARK INTER + INTRA:          -5.356
REMARK INTER:                  -4.869
REMARK INTRA:                  -0.486
REMARK UNBOUND:                -0.692
REMARK SMILES CCCCCCCCCO
REMARK SMILES IDX 6 1 5 2 4 3 3 4 2 5 1 6 7 7 8 8 9 9 10 10
REMARK H PARENT 10 11
REMARK Flexibility Score: inf
ROOT
ATOM      1  C   UNL     1     170.201 169.392 163.981  1.00  0.00     0.000 C 
ENDROOT
BRANCH   1   2
ATOM      2  C   UNL     1     169.059 169.668 162.981  1.00  0.00     0.000 C 
BRANCH   2   3
ATOM      3  C   UNL     1     168.027 170.696 163.485  1.00  0.00    -0.000 C 
BRANCH   3   4
ATOM      4  C   UNL     1     167.827 171.920 162.572  1.00  0.00    -0.000 C 
BRANCH   4   5
ATOM      5  C   UNL     1     166.907 173.012 163.148  1.00  0.00    -0.003 C 
ATOM      6  C   UNL     1     165.625 173.200 162.339  1.00  0.00     0.004 C 
ENDBRANCH   4   5
ENDBRANCH   3   4
ENDBRANCH   2   3
ENDBRANCH   1   2
BRANCH   1   7
ATOM      7  C   UNL     1     170.575 170.635 164.802  1.00  0.00     0.002 C 
BRANCH   7   8
ATOM      8  C   UNL     1     171.841 171.300 164.246  1.00  0.00     0.028 C 
BRANCH   8   9
ATOM      9  C   UNL     1     171.545 172.682 163.661  1.00  0.00     0.156 C 
BRANCH   9  10
ATOM     10  O   UNL     1     170.533 173.312 164.399  1.00  0.00    -0.396 OA
ATOM     11  H   UNL     1     170.012 173.848 163.748  1.00  0.00     0.210 HD
ENDBRANCH   9  10
ENDBRANCH   8   9
ENDBRANCH   7   8
ENDBRANCH   1   7
TORSDOF 8
ENDMDL
MODEL 7
REMARK VINA RESULT:    -3.102      2.134      3.872
REMARK INTER + INTRA:          -5.155
REMARK INTER:                  -4.611
REMARK INTRA:                  -0.544
REMARK UNBOUND:                -0.692
REMARK SMILES CCCCCCCCCO
REMARK SMILES IDX 6 1 5 2 4 3 3 4 2 5 1 6 7 7 8 8 9 9 10 10
REMARK H PARENT 10 11
REMARK Flexibility Score: inf
ROOT
ATOM      1  C   UNL     1     167.578 171.587 162.398  1.00  0.00     0.000 C 
ENDROOT
BRANCH   1   2
ATOM      2  C   UNL     1     166.874 172.756 163.120  1.00  0.00     0.000 C 
BRANCH   2   3
ATOM      3  C   UNL     1     167.749 174.018 163.255  1.00  0.00    -0.000 C 
BRANCH   3   4
ATOM      4  C   UNL     1     169.109 173.798 163.944  1.00  0.00    -0.000 C 
BRANCH   4   5
ATOM      5  C   UNL     1     170.333 173.981 163.029  1.00  0.00    -0.003 C 
ATOM      6  C   UNL     1     171.495 173.059 163.395  1.00  0.00     0.004 C 
ENDBRANCH   4   5
ENDBRANCH   3   4
ENDBRANCH   2   3
ENDBRANCH   1   2
BRANCH   1   7
ATOM      7  C   UNL     1     167.928 170.435 163.351  1.00  0.00     0.002 C 
BRANCH   7   8
ATOM      8  C   UNL     1     169.390 170.004 163.181  1.00  0.00     0.028 C 
BRANCH   8   9
ATOM      9  C   UNL     1     169.595 168.534 163.547  1.00  0.00     0.156 C 
BRANCH   9  10
ATOM     10  O   UNL     1     170.752 168.387 164.324  1.00  0.00    -0.396 OA
ATOM     11  H   UNL     1     170.862 167.413 164.472  1.00  0.00     0.210 HD
ENDBRANCH   9  10
ENDBRANCH   8   9
ENDBRANCH   7   8
ENDBRANCH   1   7
TORSDOF 8
ENDMDL
MODEL 8
REMARK VINA RESULT:    -3.064      1.503      3.649
REMARK INTER + INTRA:          -5.100
REMARK INTER:                  -4.382
REMARK INTRA:                  -0.718
REMARK UNBOUND:                -0.692
REMARK SMILES CCCCCCCCCO
REMARK SMILES IDX 6 1 5 2 4 3 3 4 2 5 1 6 7 7 8 8 9 9 10 10
REMARK H PARENT 10 11
REMARK Flexibility Score: inf
ROOT
ATOM      1  C   UNL     1     167.961 170.772 162.131  1.00  0.00     0.000 C 
ENDROOT
BRANCH   1   2
ATOM      2  C   UNL     1     166.890 171.883 162.096  1.00  0.00     0.000 C 
BRANCH   2   3
ATOM      3  C   UNL     1     167.474 173.309 162.117  1.00  0.00    -0.000 C 
BRANCH   3   4
ATOM      4  C   UNL     1     167.516 173.976 163.505  1.00  0.00    -0.000 C 
BRANCH   4   5
ATOM      5  C   UNL     1     168.893 173.953 164.191  1.00  0.00    -0.003 C 
ATOM      6  C   UNL     1     170.052 173.844 163.201  1.00  0.00     0.004 C 
ENDBRANCH   4   5
ENDBRANCH   3   4
ENDBRANCH   2   3
ENDBRANCH   1   2
BRANCH   1   7
ATOM      7  C   UNL     1     168.329 170.356 163.562  1.00  0.00     0.002 C 
BRANCH   7   8
ATOM      8  C   UNL     1     169.738 169.750 163.614  1.00  0.00     0.028 C 
BRANCH   8   9
ATOM      9  C   UNL     1     170.632 170.478 164.618  1.00  0.00     0.156 C 
BRANCH   9  10
ATOM     10  O   UNL     1     169.886 170.856 165.743  1.00  0.00    -0.396 OA
ATOM     11  H   UNL     1     170.369 171.623 166.147  1.00  0.00     0.210 HD
ENDBRANCH   9  10
ENDBRANCH   8   9
ENDBRANCH   7   8
ENDBRANCH   1   7
TORSDOF 8
ENDMDL
MODEL 9
REMARK VINA RESULT:    -2.998      1.507      3.185
REMARK INTER + INTRA:          -5.004
REMARK INTER:                  -4.272
REMARK INTRA:                  -0.733
REMARK UNBOUND:                -0.692
REMARK SMILES CCCCCCCCCO
REMARK SMILES IDX 6 1 5 2 4 3 3 4 2 5 1 6 7 7 8 8 9 9 10 10
REMARK H PARENT 10 11
REMARK Flexibility Score: inf
ROOT
ATOM      1  C   UNL     1     168.375 172.926 163.293  1.00  0.00     0.000 C 
ENDROOT
BRANCH   1   2
ATOM      2  C   UNL     1     167.780 171.552 162.914  1.00  0.00     0.000 C 
BRANCH   2   3
ATOM      3  C   UNL     1     168.442 170.909 161.679  1.00  0.00    -0.000 C 
BRANCH   3   4
ATOM      4  C   UNL     1     169.206 169.601 161.957  1.00  0.00    -0.000 C 
BRANCH   4   5
ATOM      5  C   UNL     1     169.122 169.100 163.410  1.00  0.00    -0.003 C 
ATOM      6  C   UNL     1     170.296 168.204 163.801  1.00  0.00     0.004 C 
ENDBRANCH   4   5
ENDBRANCH   3   4
ENDBRANCH   2   3
ENDBRANCH   1   2
BRANCH   1   7
ATOM      7  C   UNL     1     169.586 172.803 164.229  1.00  0.00     0.002 C 
BRANCH   7   8
ATOM      8  C   UNL     1     170.899 172.965 163.453  1.00  0.00     0.028 C 
BRANCH   8   9
ATOM      9  C   UNL     1     171.873 171.822 163.740  1.00  0.00     0.156 C 
BRANCH   9  10
ATOM     10  O   UNL     1     171.587 171.246 164.985  1.00  0.00    -0.396 OA
ATOM     11  H   UNL     1     172.423 170.803 165.282  1.00  0.00     0.210 HD
ENDBRANCH   9  10
ENDBRANCH   8   9
ENDBRANCH   7   8
ENDBRANCH   1   7
TORSDOF 8
ENDMDL
