MODEL 1
REMARK VINA RESULT:    -3.997      0.000      0.000
REMARK INTER + INTRA:         -13.296
REMARK INTER:                  -9.137
REMARK INTRA:                  -4.158
REMARK UNBOUND:                -4.158
REMARK SMILES CCCCCCCCCCCCCCCCCCCCCCCC(=O)[O-]
REMARK SMILES IDX 13 1 14 2 15 3 16 4 17 5 18 6 19 7 20 8 21 9 22 10 23 11
REMARK SMILES IDX 24 12 25 13 26 14 12 15 11 16 10 17 9 18 8 19 7 20 6 21 5 22
REMARK SMILES IDX 4 23 3 24 2 25 1 26
REMARK H PARENT
REMARK Flexibility Score: inf
ROOT
ATOM      1  C   UNL     1      -4.933  42.217  20.370  1.00  0.00     0.000 C 
ENDROOT
BRANCH   1   2
ATOM      2  C   UNL     1      -5.396  43.681  20.345  1.00  0.00     0.000 C 
BRANCH   2   3
ATOM      3  C   UNL     1      -4.346  44.623  19.734  1.00  0.00     0.000 C 
BRANCH   3   4
ATOM      4  C   UNL     1      -3.990  44.258  18.286  1.00  0.00     0.000 C 
BRANCH   4   5
ATOM      5  C   UNL     1      -2.517  43.837  18.170  1.00  0.00     0.000 C 
BRANCH   5   6
ATOM      6  C   UNL     1      -1.750  43.979  19.498  1.00  0.00     0.000 C 
BRANCH   6   7
ATOM      7  C   UNL     1      -0.278  43.531  19.439  1.00  0.00     0.000 C 
BRANCH   7   8
ATOM      8  C   UNL     1       0.190  42.853  20.734  1.00  0.00     0.000 C 
BRANCH   8   9
ATOM      9  C   UNL     1       1.505  42.096  20.511  1.00  0.00     0.000 C 
BRANCH   9  10
ATOM     10  C   UNL     1       2.693  42.857  21.120  1.00  0.00     0.006 C 
BRANCH  10  11
ATOM     11  C   UNL     1       2.295  43.657  22.368  1.00  0.00     0.053 C 
BRANCH  11  12
ATOM     12  C   UNL     1       3.309  43.525  23.463  1.00  0.00     0.041 C 
ATOM     13  O   UNL     1       3.561  44.501  24.216  1.00  0.00    -0.550 OA
ATOM     14  O   UNL     1       4.008  42.335  23.621  1.00  0.00    -0.550 OA
ENDBRANCH  11  12
ENDBRANCH  10  11
ENDBRANCH   9  10
ENDBRANCH   8   9
ENDBRANCH   7   8
ENDBRANCH   6   7
ENDBRANCH   5   6
ENDBRANCH   4   5
ENDBRANCH   3   4
ENDBRANCH   2   3
ENDBRANCH   1   2
BRANCH   1  15
ATOM     15  C   UNL     1      -4.158  41.898  21.657  1.00  0.00     0.000 C 
BRANCH  15  16
ATOM     16  C   UNL     1      -5.090  41.556  22.838  1.00  0.00     0.000 C 
BRANCH  16  17
ATOM     17  C   UNL     1      -4.378  40.878  24.025  1.00  0.00     0.000 C 
BRANCH  17  18
ATOM     18  C   UNL     1      -2.892  41.238  24.192  1.00  0.00    -0.000 C 
BRANCH  18  19
ATOM     19  C   UNL     1      -2.471  41.624  25.624  1.00  0.00    -0.000 C 
BRANCH  19  20
ATOM     20  C   UNL     1      -1.501  42.822  25.687  1.00  0.00    -0.000 C 
BRANCH  20  21
ATOM     21  C   UNL     1      -0.799  43.081  24.346  1.00  0.00    -0.000 C 
BRANCH  21  22
ATOM     22  C   UNL     1      -0.987  44.536  23.898  1.00  0.00    -0.000 C 
BRANCH  22  23
ATOM     23  C   UNL     1      -2.189  44.668  22.952  1.00  0.00    -0.000 C 
BRANCH  23  24
ATOM     24  C   UNL     1      -3.182  45.750  23.407  1.00  0.00    -0.000 C 
BRANCH  24  25
ATOM     25  C   UNL     1      -4.606  45.203  23.589  1.00  0.00    -0.003 C 
ATOM     26  C   UNL     1      -4.782  44.575  24.967  1.00  0.00     0.004 C 
ENDBRANCH  24  25
ENDBRANCH  23  24
ENDBRANCH  22  23
ENDBRANCH  21  22
ENDBRANCH  20  21
ENDBRANCH  19  20
ENDBRANCH  18  19
ENDBRANCH  17  18
ENDBRANCH  16  17
ENDBRANCH  15  16
ENDBRANCH   1  15
TORSDOF 22
ENDMDL
MODEL 2
REMARK VINA RESULT:    -3.991      3.587      6.388
REMARK INTER + INTRA:         -13.282
REMARK INTER:                  -9.721
REMARK INTRA:                  -3.560
REMARK UNBOUND:                -4.158
REMARK SMILES CCCCCCCCCCCCCCCCCCCCCCCC(=O)[O-]
REMARK SMILES IDX 13 1 14 2 15 3 16 4 17 5 18 6 19 7 20 8 21 9 22 10 23 11
REMARK SMILES IDX 24 12 25 13 26 14 12 15 11 16 10 17 9 18 8 19 7 20 6 21 5 22
REMARK SMILES IDX 4 23 3 24 2 25 1 26
REMARK H PARENT
REMARK Flexibility Score: inf
ROOT
ATOM      1  C   UNL     1      -1.569  43.888  20.077  1.00  0.00     0.000 C 
ENDROOT
BRANCH   1   2
ATOM      2  C   UNL     1      -0.714  43.161  21.126  1.00  0.00     0.000 C 
BRANCH   2   3
ATOM      3  C   UNL     1      -0.638  43.924  22.458  1.00  0.00     0.000 C 
BRANCH   3   4
ATOM      4  C   UNL     1       0.142  43.161  23.538  1.00  0.00     0.000 C 
BRANCH   4   5
ATOM      5  C   UNL     1      -0.759  42.826  24.736  1.00  0.00     0.000 C 
BRANCH   5   6
ATOM      6  C   UNL     1      -1.063  41.322  24.851  1.00  0.00     0.000 C 
BRANCH   6   7
ATOM      7  C   UNL     1      -2.040  40.949  25.982  1.00  0.00     0.000 C 
BRANCH   7   8
ATOM      8  C   UNL     1      -1.494  41.289  27.376  1.00  0.00     0.000 C 
BRANCH   8   9
ATOM      9  C   UNL     1      -0.684  40.119  27.947  1.00  0.00     0.000 C 
BRANCH   9  10
ATOM     10  C   UNL     1      -1.590  39.129  28.694  1.00  0.00     0.006 C 
BRANCH  10  11
ATOM     11  C   UNL     1      -0.793  38.002  29.366  1.00  0.00     0.053 C 
BRANCH  11  12
ATOM     12  C   UNL     1      -1.479  36.676  29.231  1.00  0.00     0.041 C 
ATOM     13  O   UNL     1      -2.449  36.540  28.440  1.00  0.00    -0.550 OA
ATOM     14  O   UNL     1      -1.074  35.603  30.014  1.00  0.00    -0.550 OA
ENDBRANCH  11  12
ENDBRANCH  10  11
ENDBRANCH   9  10
ENDBRANCH   8   9
ENDBRANCH   7   8
ENDBRANCH   6   7
ENDBRANCH   5   6
ENDBRANCH   4   5
ENDBRANCH   3   4
ENDBRANCH   2   3
ENDBRANCH   1   2
BRANCH   1  15
ATOM     15  C   UNL     1      -2.710  44.678  20.736  1.00  0.00     0.000 C 
BRANCH  15  16
ATOM     16  C   UNL     1      -3.968  44.751  19.846  1.00  0.00     0.000 C 
BRANCH  16  17
ATOM     17  C   UNL     1      -5.113  43.822  20.298  1.00  0.00     0.000 C 
BRANCH  17  18
ATOM     18  C   UNL     1      -5.031  42.377  19.775  1.00  0.00    -0.000 C 
BRANCH  18  19
ATOM     19  C   UNL     1      -5.142  41.285  20.857  1.00  0.00    -0.000 C 
BRANCH  19  20
ATOM     20  C   UNL     1      -4.152  41.463  22.027  1.00  0.00    -0.000 C 
BRANCH  20  21
ATOM     21  C   UNL     1      -4.763  41.066  23.379  1.00  0.00    -0.000 C 
BRANCH  21  22
ATOM     22  C   UNL     1      -4.972  42.296  24.271  1.00  0.00    -0.000 C 
BRANCH  22  23
ATOM     23  C   UNL     1      -4.014  43.429  23.877  1.00  0.00    -0.000 C 
BRANCH  23  24
ATOM     24  C   UNL     1      -4.675  44.815  23.958  1.00  0.00    -0.000 C 
BRANCH  24  25
ATOM     25  C   UNL     1      -3.647  45.957  23.996  1.00  0.00    -0.003 C 
ATOM     26  C   UNL     1      -4.132  47.161  23.197  1.00  0.00     0.004 C 
ENDBRANCH  24  25
ENDBRANCH  23  24
ENDBRANCH  22  23
ENDBRANCH  21  22
ENDBRANCH  20  21
ENDBRANCH  19  20
ENDBRANCH  18  19
ENDBRANCH  17  18
ENDBRANCH  16  17
ENDBRANCH  15  16
ENDBRANCH   1  15
TORSDOF 22
ENDMDL
MODEL 3
REMARK VINA RESULT:    -3.986      4.154      5.816
REMARK INTER + INTRA:         -13.271
REMARK INTER:                 -10.510
REMARK INTRA:                  -2.761
REMARK UNBOUND:                -4.158
REMARK SMILES CCCCCCCCCCCCCCCCCCCCCCCC(=O)[O-]
REMARK SMILES IDX 13 1 14 2 15 3 16 4 17 5 18 6 19 7 20 8 21 9 22 10 23 11
REMARK SMILES IDX 24 12 25 13 26 14 12 15 11 16 10 17 9 18 8 19 7 20 6 21 5 22
REMARK SMILES IDX 4 23 3 24 2 25 1 26
REMARK H PARENT
REMARK Flexibility Score: inf
ROOT
ATOM      1  C   UNL     1      -4.227  41.510  21.185  1.00  0.00     0.000 C 
ENDROOT
BRANCH   1   2
ATOM      2  C   UNL     1      -5.628  42.102  20.966  1.00  0.00     0.000 C 
BRANCH   2   3
ATOM      3  C   UNL     1      -5.585  43.508  20.347  1.00  0.00     0.000 C 
BRANCH   3   4
ATOM      4  C   UNL     1      -4.419  43.691  19.365  1.00  0.00     0.000 C 
BRANCH   4   5
ATOM      5  C   UNL     1      -3.561  44.906  19.748  1.00  0.00     0.000 C 
BRANCH   5   6
ATOM      6  C   UNL     1      -3.805  45.375  21.194  1.00  0.00     0.000 C 
BRANCH   6   7
ATOM      7  C   UNL     1      -2.696  44.985  22.190  1.00  0.00     0.000 C 
BRANCH   7   8
ATOM      8  C   UNL     1      -1.529  44.245  21.522  1.00  0.00     0.000 C 
BRANCH   8   9
ATOM      9  C   UNL     1      -0.529  43.742  22.569  1.00  0.00     0.000 C 
BRANCH   9  10
ATOM     10  C   UNL     1      -0.951  44.160  23.986  1.00  0.00     0.006 C 
BRANCH  10  11
ATOM     11  C   UNL     1      -0.734  43.040  25.013  1.00  0.00     0.053 C 
BRANCH  11  12
ATOM     12  C   UNL     1      -1.947  42.821  25.865  1.00  0.00     0.041 C 
ATOM     13  O   UNL     1      -2.862  43.685  25.901  1.00  0.00    -0.550 OA
ATOM     14  O   UNL     1      -2.044  41.683  26.654  1.00  0.00    -0.550 OA
ENDBRANCH  11  12
ENDBRANCH  10  11
ENDBRANCH   9  10
ENDBRANCH   8   9
ENDBRANCH   7   8
ENDBRANCH   6   7
ENDBRANCH   5   6
ENDBRANCH   4   5
ENDBRANCH   3   4
ENDBRANCH   2   3
ENDBRANCH   1   2
BRANCH   1  15
ATOM     15  C   UNL     1      -3.841  41.526  22.672  1.00  0.00     0.000 C 
BRANCH  15  16
ATOM     16  C   UNL     1      -5.069  41.648  23.598  1.00  0.00     0.000 C 
BRANCH  16  17
ATOM     17  C   UNL     1      -5.053  40.675  24.794  1.00  0.00     0.000 C 
BRANCH  17  18
ATOM     18  C   UNL     1      -6.014  39.479  24.679  1.00  0.00    -0.000 C 
BRANCH  18  19
ATOM     19  C   UNL     1      -6.842  39.183  25.945  1.00  0.00    -0.000 C 
BRANCH  19  20
ATOM     20  C   UNL     1      -8.251  39.813  25.929  1.00  0.00    -0.000 C 
BRANCH  20  21
ATOM     21  C   UNL     1      -8.388  40.972  26.928  1.00  0.00    -0.000 C 
BRANCH  21  22
ATOM     22  C   UNL     1      -9.558  40.734  27.890  1.00  0.00    -0.000 C 
BRANCH  22  23
ATOM     23  C   UNL     1      -9.111  39.911  29.107  1.00  0.00    -0.000 C 
BRANCH  23  24
ATOM     24  C   UNL     1      -8.631  40.792  30.272  1.00  0.00    -0.000 C 
BRANCH  24  25
ATOM     25  C   UNL     1      -8.203  39.968  31.496  1.00  0.00    -0.003 C 
ATOM     26  C   UNL     1      -7.419  38.728  31.078  1.00  0.00     0.004 C 
ENDBRANCH  24  25
ENDBRANCH  23  24
ENDBRANCH  22  23
ENDBRANCH  21  22
ENDBRANCH  20  21
ENDBRANCH  19  20
ENDBRANCH  18  19
ENDBRANCH  17  18
ENDBRANCH  16  17
ENDBRANCH  15  16
ENDBRANCH   1  15
TORSDOF 22
ENDMDL
MODEL 4
REMARK VINA RESULT:    -3.974      1.644      4.628
REMARK INTER + INTRA:         -13.244
REMARK INTER:                  -8.782
REMARK INTRA:                  -4.461
REMARK UNBOUND:                -4.158
REMARK SMILES CCCCCCCCCCCCCCCCCCCCCCCC(=O)[O-]
REMARK SMILES IDX 13 1 14 2 15 3 16 4 17 5 18 6 19 7 20 8 21 9 22 10 23 11
REMARK SMILES IDX 24 12 25 13 26 14 12 15 11 16 10 17 9 18 8 19 7 20 6 21 5 22
REMARK SMILES IDX 4 23 3 24 2 25 1 26
REMARK H PARENT
REMARK Flexibility Score: inf
ROOT
ATOM      1  C   UNL     1      -5.140  43.812  20.001  1.00  0.00     0.000 C 
ENDROOT
BRANCH   1   2
ATOM      2  C   UNL     1      -4.804  44.265  21.430  1.00  0.00     0.000 C 
BRANCH   2   3
ATOM      3  C   UNL     1      -3.736  45.370  21.464  1.00  0.00     0.000 C 
BRANCH   3   4
ATOM      4  C   UNL     1      -3.967  46.387  22.590  1.00  0.00     0.000 C 
BRANCH   4   5
ATOM      5  C   UNL     1      -3.264  45.947  23.883  1.00  0.00     0.000 C 
BRANCH   5   6
ATOM      6  C   UNL     1      -2.130  44.937  23.631  1.00  0.00     0.000 C 
BRANCH   6   7
ATOM      7  C   UNL     1      -2.136  43.717  24.571  1.00  0.00     0.000 C 
BRANCH   7   8
ATOM      8  C   UNL     1      -0.728  43.173  24.849  1.00  0.00     0.000 C 
BRANCH   8   9
ATOM      9  C   UNL     1       0.308  43.840  23.936  1.00  0.00     0.000 C 
BRANCH   9  10
ATOM     10  C   UNL     1       1.159  42.791  23.204  1.00  0.00     0.006 C 
BRANCH  10  11
ATOM     11  C   UNL     1       2.116  43.425  22.184  1.00  0.00     0.053 C 
BRANCH  11  12
ATOM     12  C   UNL     1       2.473  42.471  21.085  1.00  0.00     0.041 C 
ATOM     13  O   UNL     1       1.924  41.340  21.023  1.00  0.00    -0.550 OA
ATOM     14  O   UNL     1       3.445  42.816  20.156  1.00  0.00    -0.550 OA
ENDBRANCH  11  12
ENDBRANCH  10  11
ENDBRANCH   9  10
ENDBRANCH   8   9
ENDBRANCH   7   8
ENDBRANCH   6   7
ENDBRANCH   5   6
ENDBRANCH   4   5
ENDBRANCH   3   4
ENDBRANCH   2   3
ENDBRANCH   1   2
BRANCH   1  15
ATOM     15  C   UNL     1      -4.381  44.646  18.959  1.00  0.00     0.000 C 
BRANCH  15  16
ATOM     16  C   UNL     1      -4.084  43.851  17.670  1.00  0.00     0.000 C 
BRANCH  16  17
ATOM     17  C   UNL     1      -2.590  43.536  17.456  1.00  0.00     0.000 C 
BRANCH  17  18
ATOM     18  C   UNL     1      -1.622  44.265  18.404  1.00  0.00    -0.000 C 
BRANCH  18  19
ATOM     19  C   UNL     1      -0.707  43.346  19.236  1.00  0.00    -0.000 C 
BRANCH  19  20
ATOM     20  C   UNL     1      -1.265  43.010  20.635  1.00  0.00    -0.000 C 
BRANCH  20  21
ATOM     21  C   UNL     1      -2.136  41.745  20.632  1.00  0.00    -0.000 C 
BRANCH  21  22
ATOM     22  C   UNL     1      -1.569  40.684  21.584  1.00  0.00    -0.000 C 
BRANCH  22  23
ATOM     23  C   UNL     1      -2.476  40.507  22.811  1.00  0.00    -0.000 C 
BRANCH  23  24
ATOM     24  C   UNL     1      -3.824  41.229  22.657  1.00  0.00    -0.000 C 
BRANCH  24  25
ATOM     25  C   UNL     1      -5.001  40.253  22.506  1.00  0.00    -0.003 C 
ATOM     26  C   UNL     1      -5.452  40.157  21.052  1.00  0.00     0.004 C 
ENDBRANCH  24  25
ENDBRANCH  23  24
ENDBRANCH  22  23
ENDBRANCH  21  22
ENDBRANCH  20  21
ENDBRANCH  19  20
ENDBRANCH  18  19
ENDBRANCH  17  18
ENDBRANCH  16  17
ENDBRANCH  15  16
ENDBRANCH   1  15
TORSDOF 22
ENDMDL
MODEL 5
REMARK VINA RESULT:    -3.923      1.250      2.903
REMARK INTER + INTRA:         -13.126
REMARK INTER:                  -8.719
REMARK INTRA:                  -4.407
REMARK UNBOUND:                -4.158
REMARK SMILES CCCCCCCCCCCCCCCCCCCCCCCC(=O)[O-]
REMARK SMILES IDX 13 1 14 2 15 3 16 4 17 5 18 6 19 7 20 8 21 9 22 10 23 11
REMARK SMILES IDX 24 12 25 13 26 14 12 15 11 16 10 17 9 18 8 19 7 20 6 21 5 22
REMARK SMILES IDX 4 23 3 24 2 25 1 26
REMARK H PARENT
REMARK Flexibility Score: inf
ROOT
ATOM      1  C   UNL     1      -4.379  44.808  18.737  1.00  0.00     0.000 C 
ENDROOT
BRANCH   1   2
ATOM      2  C   UNL     1      -4.742  43.375  19.155  1.00  0.00     0.000 C 
BRANCH   2   3
ATOM      3  C   UNL     1      -4.031  42.312  18.301  1.00  0.00     0.000 C 
BRANCH   3   4
ATOM      4  C   UNL     1      -3.363  42.903  17.051  1.00  0.00     0.000 C 
BRANCH   4   5
ATOM      5  C   UNL     1      -1.872  42.538  17.000  1.00  0.00     0.000 C 
BRANCH   5   6
ATOM      6  C   UNL     1      -0.956  43.716  17.378  1.00  0.00     0.000 C 
BRANCH   6   7
ATOM      7  C   UNL     1      -0.141  43.507  18.667  1.00  0.00     0.000 C 
BRANCH   7   8
ATOM      8  C   UNL     1      -0.692  42.373  19.542  1.00  0.00     0.000 C 
BRANCH   8   9
ATOM      9  C   UNL     1       0.189  42.157  20.778  1.00  0.00     0.000 C 
BRANCH   9  10
ATOM     10  C   UNL     1       1.212  43.293  20.936  1.00  0.00     0.006 C 
BRANCH  10  11
ATOM     11  C   UNL     1       2.480  42.838  21.672  1.00  0.00     0.053 C 
BRANCH  11  12
ATOM     12  C   UNL     1       3.018  43.908  22.572  1.00  0.00     0.041 C 
ATOM     13  O   UNL     1       3.790  44.793  22.116  1.00  0.00    -0.550 OA
ATOM     14  O   UNL     1       2.703  43.901  23.924  1.00  0.00    -0.550 OA
ENDBRANCH  11  12
ENDBRANCH  10  11
ENDBRANCH   9  10
ENDBRANCH   8   9
ENDBRANCH   7   8
ENDBRANCH   6   7
ENDBRANCH   5   6
ENDBRANCH   4   5
ENDBRANCH   3   4
ENDBRANCH   2   3
ENDBRANCH   1   2
BRANCH   1  15
ATOM     15  C   UNL     1      -3.271  45.386  19.630  1.00  0.00     0.000 C 
BRANCH  15  16
ATOM     16  C   UNL     1      -3.111  44.605  20.951  1.00  0.00     0.000 C 
BRANCH  16  17
ATOM     17  C   UNL     1      -3.533  45.396  22.205  1.00  0.00     0.000 C 
BRANCH  17  18
ATOM     18  C   UNL     1      -2.616  45.226  23.428  1.00  0.00    -0.000 C 
BRANCH  18  19
ATOM     19  C   UNL     1      -1.381  44.333  23.199  1.00  0.00    -0.000 C 
BRANCH  19  20
ATOM     20  C   UNL     1      -0.711  43.849  24.502  1.00  0.00    -0.000 C 
BRANCH  20  21
ATOM     21  C   UNL     1      -0.968  42.359  24.776  1.00  0.00    -0.000 C 
BRANCH  21  22
ATOM     22  C   UNL     1      -2.325  42.151  25.460  1.00  0.00    -0.000 C 
BRANCH  22  23
ATOM     23  C   UNL     1      -3.240  41.262  24.605  1.00  0.00    -0.000 C 
BRANCH  23  24
ATOM     24  C   UNL     1      -4.506  41.998  24.136  1.00  0.00    -0.000 C 
BRANCH  24  25
ATOM     25  C   UNL     1      -4.721  41.890  22.618  1.00  0.00    -0.003 C 
ATOM     26  C   UNL     1      -3.599  41.095  21.959  1.00  0.00     0.004 C 
ENDBRANCH  24  25
ENDBRANCH  23  24
ENDBRANCH  22  23
ENDBRANCH  21  22
ENDBRANCH  20  21
ENDBRANCH  19  20
ENDBRANCH  18  19
ENDBRANCH  17  18
ENDBRANCH  16  17
ENDBRANCH  15  16
ENDBRANCH   1  15
TORSDOF 22
ENDMDL
MODEL 6
REMARK VINA RESULT:    -3.889      1.560      3.679
REMARK INTER + INTRA:         -13.049
REMARK INTER:                  -9.009
REMARK INTRA:                  -4.040
REMARK UNBOUND:                -4.158
REMARK SMILES CCCCCCCCCCCCCCCCCCCCCCCC(=O)[O-]
REMARK SMILES IDX 13 1 14 2 15 3 16 4 17 5 18 6 19 7 20 8 21 9 22 10 23 11
REMARK SMILES IDX 24 12 25 13 26 14 12 15 11 16 10 17 9 18 8 19 7 20 6 21 5 22
REMARK SMILES IDX 4 23 3 24 2 25 1 26
REMARK H PARENT
REMARK Flexibility Score: inf
ROOT
ATOM      1  C   UNL     1      -4.351  42.990  16.702  1.00  0.00     0.000 C 
ENDROOT
BRANCH   1   2
ATOM      2  C   UNL     1      -3.065  43.498  16.034  1.00  0.00     0.000 C 
BRANCH   2   3
ATOM      3  C   UNL     1      -1.800  42.844  16.614  1.00  0.00     0.000 C 
BRANCH   3   4
ATOM      4  C   UNL     1      -0.759  43.872  17.081  1.00  0.00     0.000 C 
BRANCH   4   5
ATOM      5  C   UNL     1      -0.215  43.511  18.472  1.00  0.00     0.000 C 
BRANCH   5   6
ATOM      6  C   UNL     1      -0.920  42.290  19.090  1.00  0.00     0.000 C 
BRANCH   6   7
ATOM      7  C   UNL     1      -0.502  41.973  20.538  1.00  0.00     0.000 C 
BRANCH   7   8
ATOM      8  C   UNL     1       0.540  42.957  21.086  1.00  0.00     0.000 C 
BRANCH   8   9
ATOM      9  C   UNL     1      -0.052  43.810  22.214  1.00  0.00     0.000 C 
BRANCH   9  10
ATOM     10  C   UNL     1       0.612  43.486  23.561  1.00  0.00     0.006 C 
BRANCH  10  11
ATOM     11  C   UNL     1       2.025  42.909  23.391  1.00  0.00     0.053 C 
BRANCH  11  12
ATOM     12  C   UNL     1       3.077  43.971  23.485  1.00  0.00     0.041 C 
ATOM     13  O   UNL     1       3.587  44.264  24.598  1.00  0.00    -0.550 OA
ATOM     14  O   UNL     1       3.461  44.669  22.348  1.00  0.00    -0.550 OA
ENDBRANCH  11  12
ENDBRANCH  10  11
ENDBRANCH   9  10
ENDBRANCH   8   9
ENDBRANCH   7   8
ENDBRANCH   6   7
ENDBRANCH   5   6
ENDBRANCH   4   5
ENDBRANCH   3   4
ENDBRANCH   2   3
ENDBRANCH   1   2
BRANCH   1  15
ATOM     15  C   UNL     1      -4.255  43.073  18.233  1.00  0.00     0.000 C 
BRANCH  15  16
ATOM     16  C   UNL     1      -4.525  44.496  18.764  1.00  0.00     0.000 C 
BRANCH  16  17
ATOM     17  C   UNL     1      -3.312  45.150  19.455  1.00  0.00     0.000 C 
BRANCH  17  18
ATOM     18  C   UNL     1      -3.207  44.902  20.970  1.00  0.00    -0.000 C 
BRANCH  18  19
ATOM     19  C   UNL     1      -4.551  44.663  21.687  1.00  0.00    -0.000 C 
BRANCH  19  20
ATOM     20  C   UNL     1      -4.748  45.529  22.949  1.00  0.00    -0.000 C 
BRANCH  20  21
ATOM     21  C   UNL     1      -3.483  45.597  23.818  1.00  0.00    -0.000 C 
BRANCH  21  22
ATOM     22  C   UNL     1      -3.656  44.782  25.106  1.00  0.00    -0.000 C 
BRANCH  22  23
ATOM     23  C   UNL     1      -2.790  43.514  25.074  1.00  0.00    -0.000 C 
BRANCH  23  24
ATOM     24  C   UNL     1      -3.563  42.285  24.568  1.00  0.00    -0.000 C 
BRANCH  24  25
ATOM     25  C   UNL     1      -2.924  41.662  23.317  1.00  0.00    -0.003 C 
ATOM     26  C   UNL     1      -1.812  40.689  23.694  1.00  0.00     0.004 C 
ENDBRANCH  24  25
ENDBRANCH  23  24
ENDBRANCH  22  23
ENDBRANCH  21  22
ENDBRANCH  20  21
ENDBRANCH  19  20
ENDBRANCH  18  19
ENDBRANCH  17  18
ENDBRANCH  16  17
ENDBRANCH  15  16
ENDBRANCH   1  15
TORSDOF 22
ENDMDL
MODEL 7
REMARK VINA RESULT:    -3.871      3.313      5.702
REMARK INTER + INTRA:         -13.008
REMARK INTER:                  -9.026
REMARK INTRA:                  -3.981
REMARK UNBOUND:                -4.158
REMARK SMILES CCCCCCCCCCCCCCCCCCCCCCCC(=O)[O-]
REMARK SMILES IDX 13 1 14 2 15 3 16 4 17 5 18 6 19 7 20 8 21 9 22 10 23 11
REMARK SMILES IDX 24 12 25 13 26 14 12 15 11 16 10 17 9 18 8 19 7 20 6 21 5 22
REMARK SMILES IDX 4 23 3 24 2 25 1 26
REMARK H PARENT
REMARK Flexibility Score: inf
ROOT
ATOM      1  C   UNL     1      -4.715  43.373  19.046  1.00  0.00     0.000 C 
ENDROOT
BRANCH   1   2
ATOM      2  C   UNL     1      -5.486  43.527  20.365  1.00  0.00     0.000 C 
BRANCH   2   3
ATOM      3  C   UNL     1      -5.547  42.218  21.170  1.00  0.00     0.000 C 
BRANCH   3   4
ATOM      4  C   UNL     1      -4.226  41.897  21.885  1.00  0.00     0.000 C 
BRANCH   4   5
ATOM      5  C   UNL     1      -4.461  40.964  23.082  1.00  0.00     0.000 C 
BRANCH   5   6
ATOM      6  C   UNL     1      -3.149  40.465  23.715  1.00  0.00     0.000 C 
BRANCH   6   7
ATOM      7  C   UNL     1      -3.182  40.348  25.250  1.00  0.00     0.000 C 
BRANCH   7   8
ATOM      8  C   UNL     1      -1.799  40.072  25.856  1.00  0.00     0.000 C 
BRANCH   8   9
ATOM      9  C   UNL     1      -1.627  40.813  27.187  1.00  0.00     0.000 C 
BRANCH   9  10
ATOM     10  C   UNL     1      -0.906  39.935  28.222  1.00  0.00     0.006 C 
BRANCH  10  11
ATOM     11  C   UNL     1      -1.284  38.453  28.093  1.00  0.00     0.053 C 
BRANCH  11  12
ATOM     12  C   UNL     1      -2.519  38.121  28.874  1.00  0.00     0.041 C 
ATOM     13  O   UNL     1      -3.375  37.328  28.401  1.00  0.00    -0.550 OA
ATOM     14  O   UNL     1      -2.745  38.724  30.104  1.00  0.00    -0.550 OA
ENDBRANCH  11  12
ENDBRANCH  10  11
ENDBRANCH   9  10
ENDBRANCH   8   9
ENDBRANCH   7   8
ENDBRANCH   6   7
ENDBRANCH   5   6
ENDBRANCH   4   5
ENDBRANCH   3   4
ENDBRANCH   2   3
ENDBRANCH   1   2
BRANCH   1  15
ATOM     15  C   UNL     1      -3.589  44.413  18.933  1.00  0.00     0.000 C 
BRANCH  15  16
ATOM     16  C   UNL     1      -3.340  45.157  20.262  1.00  0.00     0.000 C 
BRANCH  16  17
ATOM     17  C   UNL     1      -2.125  44.635  21.056  1.00  0.00     0.000 C 
BRANCH  17  18
ATOM     18  C   UNL     1      -1.305  43.539  20.356  1.00  0.00    -0.000 C 
BRANCH  18  19
ATOM     19  C   UNL     1      -0.091  43.021  21.153  1.00  0.00    -0.000 C 
BRANCH  19  20
ATOM     20  C   UNL     1       0.097  43.711  22.521  1.00  0.00    -0.000 C 
BRANCH  20  21
ATOM     21  C   UNL     1      -0.196  42.771  23.698  1.00  0.00    -0.000 C 
BRANCH  21  22
ATOM     22  C   UNL     1      -0.954  43.503  24.813  1.00  0.00    -0.000 C 
BRANCH  22  23
ATOM     23  C   UNL     1      -2.312  44.013  24.310  1.00  0.00    -0.000 C 
BRANCH  23  24
ATOM     24  C   UNL     1      -3.382  44.030  25.414  1.00  0.00    -0.000 C 
BRANCH  24  25
ATOM     25  C   UNL     1      -4.786  44.334  24.870  1.00  0.00    -0.003 C 
ATOM     26  C   UNL     1      -4.717  45.246  23.650  1.00  0.00     0.004 C 
ENDBRANCH  24  25
ENDBRANCH  23  24
ENDBRANCH  22  23
ENDBRANCH  21  22
ENDBRANCH  20  21
ENDBRANCH  19  20
ENDBRANCH  18  19
ENDBRANCH  17  18
ENDBRANCH  16  17
ENDBRANCH  15  16
ENDBRANCH   1  15
TORSDOF 22
ENDMDL
MODEL 8
REMARK VINA RESULT:    -3.854      2.685      5.271
REMARK INTER + INTRA:         -12.970
REMARK INTER:                  -8.170
REMARK INTRA:                  -4.800
REMARK UNBOUND:                -4.158
REMARK SMILES CCCCCCCCCCCCCCCCCCCCCCCC(=O)[O-]
REMARK SMILES IDX 13 1 14 2 15 3 16 4 17 5 18 6 19 7 20 8 21 9 22 10 23 11
REMARK SMILES IDX 24 12 25 13 26 14 12 15 11 16 10 17 9 18 8 19 7 20 6 21 5 22
REMARK SMILES IDX 4 23 3 24 2 25 1 26
REMARK H PARENT
REMARK Flexibility Score: inf
ROOT
ATOM      1  C   UNL     1      -3.577  45.086  23.061  1.00  0.00     0.000 C 
ENDROOT
BRANCH   1   2
ATOM      2  C   UNL     1      -2.090  44.912  23.403  1.00  0.00     0.000 C 
BRANCH   2   3
ATOM      3  C   UNL     1      -1.859  43.905  24.542  1.00  0.00     0.000 C 
BRANCH   3   4
ATOM      4  C   UNL     1      -0.449  43.298  24.524  1.00  0.00     0.000 C 
BRANCH   4   5
ATOM      5  C   UNL     1       0.361  43.823  23.329  1.00  0.00     0.000 C 
BRANCH   5   6
ATOM      6  C   UNL     1       1.389  42.801  22.811  1.00  0.00     0.000 C 
BRANCH   6   7
ATOM      7  C   UNL     1       2.232  43.288  21.618  1.00  0.00     0.000 C 
BRANCH   7   8
ATOM      8  C   UNL     1       2.718  42.140  20.724  1.00  0.00     0.000 C 
BRANCH   8   9
ATOM      9  C   UNL     1       2.611  42.516  19.241  1.00  0.00     0.000 C 
BRANCH   9  10
ATOM     10  C   UNL     1       2.774  44.030  19.040  1.00  0.00     0.006 C 
BRANCH  10  11
ATOM     11  C   UNL     1       2.405  44.473  17.617  1.00  0.00     0.053 C 
BRANCH  11  12
ATOM     12  C   UNL     1       3.203  45.662  17.177  1.00  0.00     0.041 C 
ATOM     13  O   UNL     1       2.621  46.697  16.757  1.00  0.00    -0.550 OA
ATOM     14  O   UNL     1       4.590  45.609  17.189  1.00  0.00    -0.550 OA
ENDBRANCH  11  12
ENDBRANCH  10  11
ENDBRANCH   9  10
ENDBRANCH   8   9
ENDBRANCH   7   8
ENDBRANCH   6   7
ENDBRANCH   5   6
ENDBRANCH   4   5
ENDBRANCH   3   4
ENDBRANCH   2   3
ENDBRANCH   1   2
BRANCH   1  15
ATOM     15  C   UNL     1      -3.789  45.218  21.545  1.00  0.00     0.000 C 
BRANCH  15  16
ATOM     16  C   UNL     1      -4.888  44.271  21.018  1.00  0.00     0.000 C 
BRANCH  16  17
ATOM     17  C   UNL     1      -4.789  43.972  19.509  1.00  0.00     0.000 C 
BRANCH  17  18
ATOM     18  C   UNL     1      -3.679  44.730  18.760  1.00  0.00    -0.000 C 
BRANCH  18  19
ATOM     19  C   UNL     1      -2.740  43.846  17.917  1.00  0.00    -0.000 C 
BRANCH  19  20
ATOM     20  C   UNL     1      -1.253  43.957  18.315  1.00  0.00    -0.000 C 
BRANCH  20  21
ATOM     21  C   UNL     1      -1.021  43.670  19.805  1.00  0.00    -0.000 C 
BRANCH  21  22
ATOM     22  C   UNL     1      -1.093  42.165  20.094  1.00  0.00    -0.000 C 
BRANCH  22  23
ATOM     23  C   UNL     1      -2.138  41.863  21.178  1.00  0.00    -0.000 C 
BRANCH  23  24
ATOM     24  C   UNL     1      -1.659  40.798  22.178  1.00  0.00    -0.000 C 
BRANCH  24  25
ATOM     25  C   UNL     1      -2.711  40.486  23.254  1.00  0.00    -0.003 C 
ATOM     26  C   UNL     1      -3.982  41.299  23.033  1.00  0.00     0.004 C 
ENDBRANCH  24  25
ENDBRANCH  23  24
ENDBRANCH  22  23
ENDBRANCH  21  22
ENDBRANCH  20  21
ENDBRANCH  19  20
ENDBRANCH  18  19
ENDBRANCH  17  18
ENDBRANCH  16  17
ENDBRANCH  15  16
ENDBRANCH   1  15
TORSDOF 22
ENDMDL
MODEL 9
REMARK VINA RESULT:    -3.846      2.860      6.158
REMARK INTER + INTRA:         -12.950
REMARK INTER:                  -8.625
REMARK INTRA:                  -4.325
REMARK UNBOUND:                -4.158
REMARK SMILES CCCCCCCCCCCCCCCCCCCCCCCC(=O)[O-]
REMARK SMILES IDX 13 1 14 2 15 3 16 4 17 5 18 6 19 7 20 8 21 9 22 10 23 11
REMARK SMILES IDX 24 12 25 13 26 14 12 15 11 16 10 17 9 18 8 19 7 20 6 21 5 22
REMARK SMILES IDX 4 23 3 24 2 25 1 26
REMARK H PARENT
REMARK Flexibility Score: inf
ROOT
ATOM      1  C   UNL     1      -4.307  44.621  18.769  1.00  0.00     0.000 C 
ENDROOT
BRANCH   1   2
ATOM      2  C   UNL     1      -5.125  43.874  19.834  1.00  0.00     0.000 C 
BRANCH   2   3
ATOM      3  C   UNL     1      -4.618  44.139  21.261  1.00  0.00     0.000 C 
BRANCH   3   4
ATOM      4  C   UNL     1      -3.779  45.420  21.367  1.00  0.00     0.000 C 
BRANCH   4   5
ATOM      5  C   UNL     1      -3.442  45.740  22.831  1.00  0.00     0.000 C 
BRANCH   5   6
ATOM      6  C   UNL     1      -4.689  45.784  23.733  1.00  0.00     0.000 C 
BRANCH   6   7
ATOM      7  C   UNL     1      -4.797  44.620  24.736  1.00  0.00     0.000 C 
BRANCH   7   8
ATOM      8  C   UNL     1      -3.438  43.982  25.055  1.00  0.00     0.000 C 
BRANCH   8   9
ATOM      9  C   UNL     1      -3.375  42.539  24.540  1.00  0.00     0.000 C 
BRANCH   9  10
ATOM     10  C   UNL     1      -4.778  42.006  24.212  1.00  0.00     0.006 C 
BRANCH  10  11
ATOM     11  C   UNL     1      -4.755  40.953  23.095  1.00  0.00     0.053 C 
BRANCH  11  12
ATOM     12  C   UNL     1      -4.789  39.558  23.641  1.00  0.00     0.041 C 
ATOM     13  O   UNL     1      -5.891  38.990  23.862  1.00  0.00    -0.550 OA
ATOM     14  O   UNL     1      -3.604  38.904  23.948  1.00  0.00    -0.550 OA
ENDBRANCH  11  12
ENDBRANCH  10  11
ENDBRANCH   9  10
ENDBRANCH   8   9
ENDBRANCH   7   8
ENDBRANCH   6   7
ENDBRANCH   5   6
ENDBRANCH   4   5
ENDBRANCH   3   4
ENDBRANCH   2   3
ENDBRANCH   1   2
BRANCH   1  15
ATOM     15  C   UNL     1      -3.641  43.642  17.790  1.00  0.00     0.000 C 
BRANCH  15  16
ATOM     16  C   UNL     1      -2.114  43.843  17.703  1.00  0.00     0.000 C 
BRANCH  16  17
ATOM     17  C   UNL     1      -1.395  43.795  19.066  1.00  0.00     0.000 C 
BRANCH  17  18
ATOM     18  C   UNL     1      -1.484  42.451  19.809  1.00  0.00    -0.000 C 
BRANCH  18  19
ATOM     19  C   UNL     1      -1.265  42.531  21.333  1.00  0.00    -0.000 C 
BRANCH  19  20
ATOM     20  C   UNL     1      -0.676  43.875  21.809  1.00  0.00    -0.000 C 
BRANCH  20  21
ATOM     21  C   UNL     1      -0.218  43.830  23.274  1.00  0.00    -0.000 C 
BRANCH  21  22
ATOM     22  C   UNL     1       1.096  43.053  23.417  1.00  0.00    -0.000 C 
BRANCH  22  23
ATOM     23  C   UNL     1       2.173  43.618  22.478  1.00  0.00    -0.000 C 
BRANCH  23  24
ATOM     24  C   UNL     1       2.940  42.516  21.730  1.00  0.00    -0.000 C 
BRANCH  24  25
ATOM     25  C   UNL     1       2.360  42.237  20.335  1.00  0.00    -0.003 C 
ATOM     26  C   UNL     1       2.283  43.515  19.506  1.00  0.00     0.004 C 
ENDBRANCH  24  25
ENDBRANCH  23  24
ENDBRANCH  22  23
ENDBRANCH  21  22
ENDBRANCH  20  21
ENDBRANCH  19  20
ENDBRANCH  18  19
ENDBRANCH  17  18
ENDBRANCH  16  17
ENDBRANCH  15  16
ENDBRANCH   1  15
TORSDOF 22
ENDMDL
