MODEL 1
REMARK VINA RESULT:    -4.863      0.000      0.000
REMARK INTER + INTRA:          -5.982
REMARK INTER:                  -5.858
REMARK INTRA:                  -0.124
REMARK UNBOUND:                -0.124
REMARK SMILES NC(=O)C[C@@H]([NH3+])C(=O)[O-]
REMARK SMILES IDX 4 1 5 2 6 3 7 7 8 8 9 9 2 10 3 11 1 12
REMARK H PARENT 6 4 6 5 6 6 1 13 1 14
REMARK Flexibility Score: inf
ROOT
ATOM      1  C   UNL     1      79.784  -2.120  25.226  1.00  0.00     0.171 C 
ENDROOT
BRANCH   1   2
ATOM      2  C   UNL     1      78.834  -0.909  25.331  1.00  0.00     0.237 C 
BRANCH   2   3
ATOM      3  N   UNL     1      79.600   0.343  25.362  1.00  0.00    -0.350 N 
ATOM      4  H   UNL     1      79.502   0.795  26.301  1.00  0.00     0.345 HD
ATOM      5  H   UNL     1      79.262   1.002  24.624  1.00  0.00     0.345 HD
ATOM      6  H   UNL     1      80.614   0.141  25.202  1.00  0.00     0.345 HD
ENDBRANCH   2   3
BRANCH   2   7
ATOM      7  C   UNL     1      77.850  -0.890  24.189  1.00  0.00     0.100 C 
ATOM      8  O   UNL     1      77.569   0.191  23.606  1.00  0.00    -0.544 OA
ATOM      9  O   UNL     1      77.263  -2.074  23.760  1.00  0.00    -0.544 OA
ENDBRANCH   2   7
ENDBRANCH   1   2
BRANCH   1  10
ATOM     10  C   UNL     1      79.552  -3.103  26.338  1.00  0.00     0.223 C 
ATOM     11  O   UNL     1      78.863  -2.765  27.337  1.00  0.00    -0.275 OA
ATOM     12  N   UNL     1      80.074  -4.429  26.254  1.00  0.00    -0.369 N 
ATOM     13  H   UNL     1      79.899  -5.114  27.022  1.00  0.00     0.159 HD
ATOM     14  H   UNL     1      80.631  -4.731  25.424  1.00  0.00     0.159 HD
ENDBRANCH   1  10
TORSDOF 4
ENDMDL
MODEL 2
REMARK VINA RESULT:    -4.838      2.196      3.956
REMARK INTER + INTRA:          -5.952
REMARK INTER:                  -5.828
REMARK INTRA:                  -0.123
REMARK UNBOUND:                -0.124
REMARK SMILES NC(=O)C[C@@H]([NH3+])C(=O)[O-]
REMARK SMILES IDX 4 1 5 2 6 3 7 7 8 8 9 9 2 10 3 11 1 12
REMARK H PARENT 6 4 6 5 6 6 1 13 1 14
REMARK Flexibility Score: inf
ROOT
ATOM      1  C   UNL     1      77.173  -1.782  24.737  1.00  0.00     0.171 C 
ENDROOT
BRANCH   1   2
ATOM      2  C   UNL     1      77.944  -1.478  26.038  1.00  0.00     0.237 C 
BRANCH   2   3
ATOM      3  N   UNL     1      77.031  -1.479  27.188  1.00  0.00    -0.350 N 
ATOM      4  H   UNL     1      77.199  -2.329  27.773  1.00  0.00     0.345 HD
ATOM      5  H   UNL     1      76.035  -1.470  26.870  1.00  0.00     0.345 HD
ATOM      6  H   UNL     1      77.208  -0.635  27.780  1.00  0.00     0.345 HD
ENDBRANCH   2   3
BRANCH   2   7
ATOM      7  C   UNL     1      79.057  -2.471  26.255  1.00  0.00     0.100 C 
ATOM      8  O   UNL     1      79.262  -2.961  27.397  1.00  0.00    -0.544 OA
ATOM      9  O   UNL     1      79.852  -2.866  25.186  1.00  0.00    -0.544 OA
ENDBRANCH   2   7
ENDBRANCH   1   2
BRANCH   1  10
ATOM     10  C   UNL     1      77.470  -0.770  23.668  1.00  0.00     0.223 C 
ATOM     11  O   UNL     1      78.045   0.309  23.972  1.00  0.00    -0.275 OA
ATOM     12  N   UNL     1      77.141  -1.037  22.305  1.00  0.00    -0.369 N 
ATOM     13  H   UNL     1      77.362  -0.337  21.563  1.00  0.00     0.159 HD
ATOM     14  H   UNL     1      76.682  -1.934  22.033  1.00  0.00     0.159 HD
ENDBRANCH   1  10
TORSDOF 4
ENDMDL
MODEL 3
REMARK VINA RESULT:    -4.680      2.081      3.582
REMARK INTER + INTRA:          -5.761
REMARK INTER:                  -5.609
REMARK INTRA:                  -0.152
REMARK UNBOUND:                -0.124
REMARK SMILES NC(=O)C[C@@H]([NH3+])C(=O)[O-]
REMARK SMILES IDX 4 1 5 2 6 3 7 7 8 8 9 9 2 10 3 11 1 12
REMARK H PARENT 6 4 6 5 6 6 1 13 1 14
REMARK Flexibility Score: inf
ROOT
ATOM      1  C   UNL     1      77.467  -1.743  25.635  1.00  0.00     0.171 C 
ENDROOT
BRANCH   1   2
ATOM      2  C   UNL     1      78.898  -1.648  26.204  1.00  0.00     0.237 C 
BRANCH   2   3
ATOM      3  N   UNL     1      79.761  -2.669  25.598  1.00  0.00    -0.350 N 
ATOM      4  H   UNL     1      80.117  -3.317  26.338  1.00  0.00     0.345 HD
ATOM      5  H   UNL     1      80.572  -2.226  25.108  1.00  0.00     0.345 HD
ATOM      6  H   UNL     1      79.211  -3.232  24.908  1.00  0.00     0.345 HD
ENDBRANCH   2   3
BRANCH   2   7
ATOM      7  C   UNL     1      79.480  -0.275  25.982  1.00  0.00     0.100 C 
ATOM      8  O   UNL     1      80.133  -0.019  24.935  1.00  0.00    -0.544 OA
ATOM      9  O   UNL     1      79.281   0.723  26.927  1.00  0.00    -0.544 OA
ENDBRANCH   2   7
ENDBRANCH   1   2
BRANCH   1  10
ATOM     10  C   UNL     1      77.438  -1.458  24.161  1.00  0.00     0.223 C 
ATOM     11  O   UNL     1      77.513  -2.408  23.338  1.00  0.00    -0.275 OA
ATOM     12  N   UNL     1      77.286  -0.120  23.685  1.00  0.00    -0.369 N 
ATOM     13  H   UNL     1      77.252   0.073  22.659  1.00  0.00     0.159 HD
ATOM     14  H   UNL     1      77.203   0.678  24.353  1.00  0.00     0.159 HD
ENDBRANCH   1  10
TORSDOF 4
ENDMDL
MODEL 4
REMARK VINA RESULT:    -4.678      2.234      2.616
REMARK INTER + INTRA:          -5.759
REMARK INTER:                  -5.603
REMARK INTRA:                  -0.156
REMARK UNBOUND:                -0.124
REMARK SMILES NC(=O)C[C@@H]([NH3+])C(=O)[O-]
REMARK SMILES IDX 4 1 5 2 6 3 7 7 8 8 9 9 2 10 3 11 1 12
REMARK H PARENT 6 4 6 5 6 6 1 13 1 14
REMARK Flexibility Score: inf
ROOT
ATOM      1  C   UNL     1      79.444  -1.184  25.166  1.00  0.00     0.171 C 
ENDROOT
BRANCH   1   2
ATOM      2  C   UNL     1      77.965  -0.760  25.056  1.00  0.00     0.237 C 
BRANCH   2   3
ATOM      3  N   UNL     1      77.283  -1.542  24.017  1.00  0.00    -0.350 N 
ATOM      4  H   UNL     1      77.982  -1.902  23.327  1.00  0.00     0.345 HD
ATOM      5  H   UNL     1      76.575  -0.956  23.518  1.00  0.00     0.345 HD
ATOM      6  H   UNL     1      76.802  -2.363  24.452  1.00  0.00     0.345 HD
ENDBRANCH   2   3
BRANCH   2   7
ATOM      7  C   UNL     1      77.255  -0.917  26.377  1.00  0.00     0.100 C 
ATOM      8  O   UNL     1      76.630  -1.977  26.644  1.00  0.00    -0.544 OA
ATOM      9  O   UNL     1      77.305   0.105  27.316  1.00  0.00    -0.544 OA
ENDBRANCH   2   7
ENDBRANCH   1   2
BRANCH   1  10
ATOM     10  C   UNL     1      79.579  -2.608  25.623  1.00  0.00     0.223 C 
ATOM     11  O   UNL     1      79.696  -3.529  24.773  1.00  0.00    -0.275 OA
ATOM     12  N   UNL     1      79.614  -2.922  27.016  1.00  0.00    -0.369 N 
ATOM     13  H   UNL     1      79.722  -3.912  27.330  1.00  0.00     0.159 HD
ATOM     14  H   UNL     1      79.537  -2.169  27.734  1.00  0.00     0.159 HD
ENDBRANCH   1  10
TORSDOF 4
ENDMDL
MODEL 5
REMARK VINA RESULT:    -4.433      1.801      2.050
REMARK INTER + INTRA:          -5.464
REMARK INTER:                  -5.545
REMARK INTRA:                   0.081
REMARK UNBOUND:                -0.124
REMARK SMILES NC(=O)C[C@@H]([NH3+])C(=O)[O-]
REMARK SMILES IDX 4 1 5 2 6 3 7 7 8 8 9 9 2 10 3 11 1 12
REMARK H PARENT 6 4 6 5 6 6 1 13 1 14
REMARK Flexibility Score: inf
ROOT
ATOM      1  C   UNL     1      79.109  -2.168  26.562  1.00  0.00     0.171 C 
ENDROOT
BRANCH   1   2
ATOM      2  C   UNL     1      77.910  -1.499  25.860  1.00  0.00     0.237 C 
BRANCH   2   3
ATOM      3  N   UNL     1      76.988  -0.928  26.850  1.00  0.00    -0.350 N 
ATOM      4  H   UNL     1      76.605  -1.689  27.458  1.00  0.00     0.345 HD
ATOM      5  H   UNL     1      76.198  -0.432  26.378  1.00  0.00     0.345 HD
ATOM      6  H   UNL     1      77.501  -0.251  27.461  1.00  0.00     0.345 HD
ENDBRANCH   2   3
BRANCH   2   7
ATOM      7  C   UNL     1      78.368  -0.432  24.899  1.00  0.00     0.100 C 
ATOM      8  O   UNL     1      77.694  -0.168  23.868  1.00  0.00    -0.544 OA
ATOM      9  O   UNL     1      79.533   0.280  25.158  1.00  0.00    -0.544 OA
ENDBRANCH   2   7
ENDBRANCH   1   2
BRANCH   1  10
ATOM     10  C   UNL     1      79.687  -3.278  25.732  1.00  0.00     0.223 C 
ATOM     11  O   UNL     1      79.866  -3.108  24.497  1.00  0.00    -0.275 OA
ATOM     12  N   UNL     1      80.072  -4.512  26.339  1.00  0.00    -0.369 N 
ATOM     13  H   UNL     1      80.487  -5.276  25.761  1.00  0.00     0.159 HD
ATOM     14  H   UNL     1      79.949  -4.663  27.364  1.00  0.00     0.159 HD
ENDBRANCH   1  10
TORSDOF 4
ENDMDL
MODEL 6
REMARK VINA RESULT:    -4.245      2.284      3.266
REMARK INTER + INTRA:          -5.237
REMARK INTER:                  -5.147
REMARK INTRA:                  -0.091
REMARK UNBOUND:                -0.124
REMARK SMILES NC(=O)C[C@@H]([NH3+])C(=O)[O-]
REMARK SMILES IDX 4 1 5 2 6 3 7 7 8 8 9 9 2 10 3 11 1 12
REMARK H PARENT 6 4 6 5 6 6 1 13 1 14
REMARK Flexibility Score: inf
ROOT
ATOM      1  C   UNL     1      77.443  -0.814  25.308  1.00  0.00     0.171 C 
ENDROOT
BRANCH   1   2
ATOM      2  C   UNL     1      78.936  -1.089  25.033  1.00  0.00     0.237 C 
BRANCH   2   3
ATOM      3  N   UNL     1      79.767  -0.013  25.587  1.00  0.00    -0.350 N 
ATOM      4  H   UNL     1      80.779  -0.264  25.497  1.00  0.00     0.345 HD
ATOM      5  H   UNL     1      79.540   0.149  26.595  1.00  0.00     0.345 HD
ATOM      6  H   UNL     1      79.602   0.871  25.053  1.00  0.00     0.345 HD
ENDBRANCH   2   3
BRANCH   2   7
ATOM      7  C   UNL     1      79.357  -2.419  25.604  1.00  0.00     0.100 C 
ATOM      8  O   UNL     1      79.906  -3.285  24.871  1.00  0.00    -0.544 OA
ATOM      9  O   UNL     1      79.158  -2.689  26.952  1.00  0.00    -0.544 OA
ENDBRANCH   2   7
ENDBRANCH   1   2
BRANCH   1  10
ATOM     10  C   UNL     1      77.189  -0.546  26.763  1.00  0.00     0.223 C 
ATOM     11  O   UNL     1      77.663   0.490  27.301  1.00  0.00    -0.275 OA
ATOM     12  N   UNL     1      76.382  -1.437  27.534  1.00  0.00    -0.369 N 
ATOM     13  H   UNL     1      76.195  -1.240  28.542  1.00  0.00     0.159 HD
ATOM     14  H   UNL     1      75.965  -2.290  27.100  1.00  0.00     0.159 HD
ENDBRANCH   1  10
TORSDOF 4
ENDMDL
MODEL 7
REMARK VINA RESULT:    -4.222      2.105      2.918
REMARK INTER + INTRA:          -5.210
REMARK INTER:                  -5.041
REMARK INTRA:                  -0.169
REMARK UNBOUND:                -0.124
REMARK SMILES NC(=O)C[C@@H]([NH3+])C(=O)[O-]
REMARK SMILES IDX 4 1 5 2 6 3 7 7 8 8 9 9 2 10 3 11 1 12
REMARK H PARENT 6 4 6 5 6 6 1 13 1 14
REMARK Flexibility Score: inf
ROOT
ATOM      1  C   UNL     1      79.318  -1.388  26.198  1.00  0.00     0.171 C 
ENDROOT
BRANCH   1   2
ATOM      2  C   UNL     1      77.903  -1.814  25.754  1.00  0.00     0.237 C 
BRANCH   2   3
ATOM      3  N   UNL     1      76.888  -1.222  26.634  1.00  0.00    -0.350 N 
ATOM      4  H   UNL     1      77.251  -0.329  27.042  1.00  0.00     0.345 HD
ATOM      5  H   UNL     1      76.640  -1.880  27.408  1.00  0.00     0.345 HD
ATOM      6  H   UNL     1      76.027  -1.002  26.082  1.00  0.00     0.345 HD
ENDBRANCH   2   3
BRANCH   2   7
ATOM      7  C   UNL     1      77.643  -1.423  24.321  1.00  0.00     0.100 C 
ATOM      8  O   UNL     1      77.365  -2.299  23.460  1.00  0.00    -0.544 OA
ATOM      9  O   UNL     1      77.691  -0.086  23.948  1.00  0.00    -0.544 OA
ENDBRANCH   2   7
ENDBRANCH   1   2
BRANCH   1  10
ATOM     10  C   UNL     1      79.430   0.103  26.331  1.00  0.00     0.223 C 
ATOM     11  O   UNL     1      78.819   0.695  27.260  1.00  0.00    -0.275 OA
ATOM     12  N   UNL     1      80.255   0.851  25.437  1.00  0.00    -0.369 N 
ATOM     13  H   UNL     1      80.342   1.886  25.542  1.00  0.00     0.159 HD
ATOM     14  H   UNL     1      80.783   0.374  24.674  1.00  0.00     0.159 HD
ENDBRANCH   1  10
TORSDOF 4
ENDMDL
MODEL 8
REMARK VINA RESULT:    -4.135      2.459      3.275
REMARK INTER + INTRA:          -5.105
REMARK INTER:                  -4.968
REMARK INTRA:                  -0.137
REMARK UNBOUND:                -0.124
REMARK SMILES NC(=O)C[C@@H]([NH3+])C(=O)[O-]
REMARK SMILES IDX 4 1 5 2 6 3 7 7 8 8 9 9 2 10 3 11 1 12
REMARK H PARENT 6 4 6 5 6 6 1 13 1 14
REMARK Flexibility Score: inf
ROOT
ATOM      1  C   UNL     1      77.209  -1.783  26.613  1.00  0.00     0.171 C 
ENDROOT
BRANCH   1   2
ATOM      2  C   UNL     1      78.363  -1.495  25.631  1.00  0.00     0.237 C 
BRANCH   2   3
ATOM      3  N   UNL     1      79.317  -2.610  25.617  1.00  0.00    -0.350 N 
ATOM      4  H   UNL     1      79.503  -2.929  26.596  1.00  0.00     0.345 HD
ATOM      5  H   UNL     1      80.218  -2.322  25.171  1.00  0.00     0.345 HD
ATOM      6  H   UNL     1      78.913  -3.415  25.084  1.00  0.00     0.345 HD
ENDBRANCH   2   3
BRANCH   2   7
ATOM      7  C   UNL     1      77.840  -1.239  24.240  1.00  0.00     0.100 C 
ATOM      8  O   UNL     1      77.481  -2.199  23.506  1.00  0.00    -0.544 OA
ATOM      9  O   UNL     1      77.734   0.063  23.767  1.00  0.00    -0.544 OA
ENDBRANCH   2   7
ENDBRANCH   1   2
BRANCH   1  10
ATOM     10  C   UNL     1      76.745  -0.533  27.303  1.00  0.00     0.223 C 
ATOM     11  O   UNL     1      77.551   0.417  27.485  1.00  0.00    -0.275 OA
ATOM     12  N   UNL     1      75.386  -0.396  27.718  1.00  0.00    -0.369 N 
ATOM     13  H   UNL     1      75.063   0.481  28.185  1.00  0.00     0.159 HD
ATOM     14  H   UNL     1      74.699  -1.166  27.558  1.00  0.00     0.159 HD
ENDBRANCH   1  10
TORSDOF 4
ENDMDL
MODEL 9
REMARK VINA RESULT:    -3.850     15.184     15.979
REMARK INTER + INTRA:          -4.761
REMARK INTER:                  -4.500
REMARK INTRA:                  -0.261
REMARK UNBOUND:                -0.124
REMARK SMILES NC(=O)C[C@@H]([NH3+])C(=O)[O-]
REMARK SMILES IDX 4 1 5 2 6 3 7 7 8 8 9 9 2 10 3 11 1 12
REMARK H PARENT 6 4 6 5 6 6 1 13 1 14
REMARK Flexibility Score: inf
ROOT
ATOM      1  C   UNL     1      68.907  -6.890  37.016  1.00  0.00     0.171 C 
ENDROOT
BRANCH   1   2
ATOM      2  C   UNL     1      68.062  -5.893  36.197  1.00  0.00     0.237 C 
BRANCH   2   3
ATOM      3  N   UNL     1      68.297  -4.519  36.658  1.00  0.00    -0.350 N 
ATOM      4  H   UNL     1      67.483  -3.915  36.402  1.00  0.00     0.345 HD
ATOM      5  H   UNL     1      69.167  -4.128  36.229  1.00  0.00     0.345 HD
ATOM      6  H   UNL     1      68.396  -4.509  37.700  1.00  0.00     0.345 HD
ENDBRANCH   2   3
BRANCH   2   7
ATOM      7  C   UNL     1      68.364  -6.006  34.724  1.00  0.00     0.100 C 
ATOM      8  O   UNL     1      67.948  -6.993  34.060  1.00  0.00    -0.544 OA
ATOM      9  O   UNL     1      69.091  -5.009  34.086  1.00  0.00    -0.544 OA
ENDBRANCH   2   7
ENDBRANCH   1   2
BRANCH   1  10
ATOM     10  C   UNL     1      68.984  -6.492  38.462  1.00  0.00     0.223 C 
ATOM     11  O   UNL     1      70.020  -5.927  38.901  1.00  0.00    -0.275 OA
ATOM     12  N   UNL     1      67.876  -6.715  39.334  1.00  0.00    -0.369 N 
ATOM     13  H   UNL     1      67.928  -6.424  40.336  1.00  0.00     0.159 HD
ATOM     14  H   UNL     1      67.002  -7.164  38.983  1.00  0.00     0.159 HD
ENDBRANCH   1  10
TORSDOF 4
ENDMDL
