MODEL 1
REMARK VINA RESULT:    -3.774      0.000      0.000
REMARK INTER + INTRA:          -7.803
REMARK INTER:                  -6.421
REMARK INTRA:                  -1.382
REMARK UNBOUND:                -1.382
REMARK SMILES CCCCCCCCCCCCCC(=O)[O-]
REMARK SMILES IDX 8 1 9 2 10 3 11 4 12 5 13 6 14 7 15 8 16 9 7 10 6 11 5 12
REMARK SMILES IDX 4 13 3 14 2 15 1 16
REMARK H PARENT
REMARK Flexibility Score: inf
ROOT
ATOM      1  C   UNL     1       3.892  24.750  13.504  1.00  0.00     0.000 C 
ENDROOT
BRANCH   1   2
ATOM      2  C   UNL     1       3.741  24.217  14.938  1.00  0.00     0.000 C 
BRANCH   2   3
ATOM      3  C   UNL     1       3.323  25.306  15.943  1.00  0.00     0.000 C 
BRANCH   3   4
ATOM      4  C   UNL     1       4.188  26.580  15.925  1.00  0.00     0.000 C 
BRANCH   4   5
ATOM      5  C   UNL     1       5.191  26.642  17.089  1.00  0.00     0.006 C 
BRANCH   5   6
ATOM      6  C   UNL     1       6.446  25.803  16.817  1.00  0.00     0.053 C 
BRANCH   6   7
ATOM      7  C   UNL     1       7.180  26.277  15.600  1.00  0.00     0.041 C 
ATOM      8  O   UNL     1       6.984  25.726  14.485  1.00  0.00    -0.550 OA
ATOM      9  O   UNL     1       8.061  27.348  15.693  1.00  0.00    -0.550 OA
ENDBRANCH   6   7
ENDBRANCH   5   6
ENDBRANCH   4   5
ENDBRANCH   3   4
ENDBRANCH   2   3
ENDBRANCH   1   2
BRANCH   1  10
ATOM     10  C   UNL     1       2.573  24.701  12.714  1.00  0.00     0.000 C 
BRANCH  10  11
ATOM     11  C   UNL     1       1.875  26.068  12.636  1.00  0.00    -0.000 C 
BRANCH  11  12
ATOM     12  C   UNL     1       2.153  26.746  11.286  1.00  0.00    -0.000 C 
BRANCH  12  13
ATOM     13  C   UNL     1       2.627  28.202  11.437  1.00  0.00    -0.000 C 
BRANCH  13  14
ATOM     14  C   UNL     1       3.342  28.517  12.764  1.00  0.00    -0.000 C 
BRANCH  14  15
ATOM     15  C   UNL     1       4.851  28.192  12.751  1.00  0.00    -0.003 C 
ATOM     16  C   UNL     1       5.720  29.447  12.674  1.00  0.00     0.004 C 
ENDBRANCH  14  15
ENDBRANCH  13  14
ENDBRANCH  12  13
ENDBRANCH  11  12
ENDBRANCH  10  11
ENDBRANCH   1  10
TORSDOF 12
ENDMDL
MODEL 2
REMARK VINA RESULT:    -3.590      1.808      5.087
REMARK INTER + INTRA:          -7.491
REMARK INTER:                  -6.349
REMARK INTRA:                  -1.143
REMARK UNBOUND:                -1.382
REMARK SMILES CCCCCCCCCCCCCC(=O)[O-]
REMARK SMILES IDX 8 1 9 2 10 3 11 4 12 5 13 6 14 7 15 8 16 9 7 10 6 11 5 12
REMARK SMILES IDX 4 13 3 14 2 15 1 16
REMARK H PARENT
REMARK Flexibility Score: inf
ROOT
ATOM      1  C   UNL     1       4.589  28.181  12.600  1.00  0.00     0.000 C 
ENDROOT
BRANCH   1   2
ATOM      2  C   UNL     1       3.167  28.618  12.210  1.00  0.00     0.000 C 
BRANCH   2   3
ATOM      3  C   UNL     1       2.538  27.719  11.129  1.00  0.00     0.000 C 
BRANCH   3   4
ATOM      4  C   UNL     1       2.497  26.218  11.468  1.00  0.00     0.000 C 
BRANCH   4   5
ATOM      5  C   UNL     1       1.911  25.932  12.861  1.00  0.00     0.006 C 
BRANCH   5   6
ATOM      6  C   UNL     1       1.950  24.439  13.211  1.00  0.00     0.053 C 
BRANCH   6   7
ATOM      7  C   UNL     1       2.804  24.171  14.412  1.00  0.00     0.041 C 
ATOM      8  O   UNL     1       4.006  24.546  14.434  1.00  0.00    -0.550 OA
ATOM      9  O   UNL     1       2.263  23.530  15.520  1.00  0.00    -0.550 OA
ENDBRANCH   6   7
ENDBRANCH   5   6
ENDBRANCH   4   5
ENDBRANCH   3   4
ENDBRANCH   2   3
ENDBRANCH   1   2
BRANCH   1  10
ATOM     10  C   UNL     1       4.870  28.360  14.102  1.00  0.00     0.000 C 
BRANCH  10  11
ATOM     11  C   UNL     1       3.618  28.160  14.969  1.00  0.00    -0.000 C 
BRANCH  11  12
ATOM     12  C   UNL     1       3.983  28.155  16.461  1.00  0.00    -0.000 C 
BRANCH  12  13
ATOM     13  C   UNL     1       4.666  26.849  16.904  1.00  0.00    -0.000 C 
BRANCH  13  14
ATOM     14  C   UNL     1       6.188  26.955  17.115  1.00  0.00    -0.000 C 
BRANCH  14  15
ATOM     15  C   UNL     1       6.991  25.820  16.443  1.00  0.00    -0.003 C 
ATOM     16  C   UNL     1       7.299  26.111  14.975  1.00  0.00     0.004 C 
ENDBRANCH  14  15
ENDBRANCH  13  14
ENDBRANCH  12  13
ENDBRANCH  11  12
ENDBRANCH  10  11
ENDBRANCH   1  10
TORSDOF 12
ENDMDL
MODEL 3
REMARK VINA RESULT:    -3.548      9.197     11.796
REMARK INTER + INTRA:          -7.419
REMARK INTER:                  -6.085
REMARK INTRA:                  -1.334
REMARK UNBOUND:                -1.382
REMARK SMILES CCCCCCCCCCCCCC(=O)[O-]
REMARK SMILES IDX 8 1 9 2 10 3 11 4 12 5 13 6 14 7 15 8 16 9 7 10 6 11 5 12
REMARK SMILES IDX 4 13 3 14 2 15 1 16
REMARK H PARENT
REMARK Flexibility Score: inf
ROOT
ATOM      1  C   UNL     1       5.097  16.129  12.647  1.00  0.00     0.000 C 
ENDROOT
BRANCH   1   2
ATOM      2  C   UNL     1       3.615  16.456  12.397  1.00  0.00     0.000 C 
BRANCH   2   3
ATOM      3  C   UNL     1       3.252  16.493  10.901  1.00  0.00     0.000 C 
BRANCH   3   4
ATOM      4  C   UNL     1       3.457  15.168  10.144  1.00  0.00     0.000 C 
BRANCH   4   5
ATOM      5  C   UNL     1       3.697  15.367   8.638  1.00  0.00     0.006 C 
BRANCH   5   6
ATOM      6  C   UNL     1       4.771  16.426   8.358  1.00  0.00     0.053 C 
BRANCH   6   7
ATOM      7  C   UNL     1       5.549  16.116   7.116  1.00  0.00     0.041 C 
ATOM      8  O   UNL     1       4.981  16.123   5.992  1.00  0.00    -0.550 OA
ATOM      9  O   UNL     1       6.910  15.846   7.197  1.00  0.00    -0.550 OA
ENDBRANCH   6   7
ENDBRANCH   5   6
ENDBRANCH   4   5
ENDBRANCH   3   4
ENDBRANCH   2   3
ENDBRANCH   1   2
BRANCH   1  10
ATOM     10  C   UNL     1       5.294  15.136  13.805  1.00  0.00     0.000 C 
BRANCH  10  11
ATOM     11  C   UNL     1       4.083  15.073  14.748  1.00  0.00    -0.000 C 
BRANCH  11  12
ATOM     12  C   UNL     1       4.489  15.440  16.183  1.00  0.00    -0.000 C 
BRANCH  12  13
ATOM     13  C   UNL     1       5.554  16.550  16.236  1.00  0.00    -0.000 C 
BRANCH  13  14
ATOM     14  C   UNL     1       5.011  17.955  16.556  1.00  0.00    -0.000 C 
BRANCH  14  15
ATOM     15  C   UNL     1       4.660  18.787  15.305  1.00  0.00    -0.003 C 
ATOM     16  C   UNL     1       3.154  18.993  15.141  1.00  0.00     0.004 C 
ENDBRANCH  14  15
ENDBRANCH  13  14
ENDBRANCH  12  13
ENDBRANCH  11  12
ENDBRANCH  10  11
ENDBRANCH   1  10
TORSDOF 12
ENDMDL
MODEL 4
REMARK VINA RESULT:    -3.545     10.484     12.816
REMARK INTER + INTRA:          -7.414
REMARK INTER:                  -6.201
REMARK INTRA:                  -1.213
REMARK UNBOUND:                -1.382
REMARK SMILES CCCCCCCCCCCCCC(=O)[O-]
REMARK SMILES IDX 8 1 9 2 10 3 11 4 12 5 13 6 14 7 15 8 16 9 7 10 6 11 5 12
REMARK SMILES IDX 4 13 3 14 2 15 1 16
REMARK H PARENT
REMARK Flexibility Score: inf
ROOT
ATOM      1  C   UNL     1       3.731  18.053   8.485  1.00  0.00     0.000 C 
ENDROOT
BRANCH   1   2
ATOM      2  C   UNL     1       3.251  19.109   7.477  1.00  0.00     0.000 C 
BRANCH   2   3
ATOM      3  C   UNL     1       2.757  18.496   6.154  1.00  0.00     0.000 C 
BRANCH   3   4
ATOM      4  C   UNL     1       3.788  17.630   5.407  1.00  0.00     0.000 C 
BRANCH   4   5
ATOM      5  C   UNL     1       3.308  16.187   5.179  1.00  0.00     0.006 C 
BRANCH   5   6
ATOM      6  C   UNL     1       3.976  15.195   6.140  1.00  0.00     0.053 C 
BRANCH   6   7
ATOM      7  C   UNL     1       5.469  15.222   6.018  1.00  0.00     0.041 C 
ATOM      8  O   UNL     1       6.029  14.801   4.972  1.00  0.00    -0.550 OA
ATOM      9  O   UNL     1       6.241  15.740   7.051  1.00  0.00    -0.550 OA
ENDBRANCH   6   7
ENDBRANCH   5   6
ENDBRANCH   4   5
ENDBRANCH   3   4
ENDBRANCH   2   3
ENDBRANCH   1   2
BRANCH   1  10
ATOM     10  C   UNL     1       2.612  17.588   9.432  1.00  0.00     0.000 C 
BRANCH  10  11
ATOM     11  C   UNL     1       2.551  16.059   9.576  1.00  0.00    -0.000 C 
BRANCH  11  12
ATOM     12  C   UNL     1       3.948  15.482   9.848  1.00  0.00    -0.000 C 
BRANCH  12  13
ATOM     13  C   UNL     1       4.063  14.829  11.237  1.00  0.00    -0.000 C 
BRANCH  13  14
ATOM     14  C   UNL     1       4.662  15.733  12.331  1.00  0.00    -0.000 C 
BRANCH  14  15
ATOM     15  C   UNL     1       5.309  14.955  13.496  1.00  0.00    -0.003 C 
ATOM     16  C   UNL     1       6.273  15.816  14.312  1.00  0.00     0.004 C 
ENDBRANCH  14  15
ENDBRANCH  13  14
ENDBRANCH  12  13
ENDBRANCH  11  12
ENDBRANCH  10  11
ENDBRANCH   1  10
TORSDOF 12
ENDMDL
MODEL 5
REMARK VINA RESULT:    -3.539      9.983     11.880
REMARK INTER + INTRA:          -7.403
REMARK INTER:                  -5.911
REMARK INTRA:                  -1.493
REMARK UNBOUND:                -1.382
REMARK SMILES CCCCCCCCCCCCCC(=O)[O-]
REMARK SMILES IDX 8 1 9 2 10 3 11 4 12 5 13 6 14 7 15 8 16 9 7 10 6 11 5 12
REMARK SMILES IDX 4 13 3 14 2 15 1 16
REMARK H PARENT
REMARK Flexibility Score: inf
ROOT
ATOM      1  C   UNL     1       3.192  18.836   8.101  1.00  0.00     0.000 C 
ENDROOT
BRANCH   1   2
ATOM      2  C   UNL     1       4.037  17.621   8.517  1.00  0.00     0.000 C 
BRANCH   2   3
ATOM      3  C   UNL     1       3.210  16.523   9.210  1.00  0.00     0.000 C 
BRANCH   3   4
ATOM      4  C   UNL     1       4.002  15.267   9.621  1.00  0.00     0.000 C 
BRANCH   4   5
ATOM      5  C   UNL     1       3.879  14.943  11.119  1.00  0.00     0.006 C 
BRANCH   5   6
ATOM      6  C   UNL     1       4.172  16.162  12.001  1.00  0.00     0.053 C 
BRANCH   6   7
ATOM      7  C   UNL     1       5.227  15.870  13.024  1.00  0.00     0.041 C 
ATOM      8  O   UNL     1       5.475  14.682  13.359  1.00  0.00    -0.550 OA
ATOM      9  O   UNL     1       5.956  16.910  13.587  1.00  0.00    -0.550 OA
ENDBRANCH   6   7
ENDBRANCH   5   6
ENDBRANCH   4   5
ENDBRANCH   3   4
ENDBRANCH   2   3
ENDBRANCH   1   2
BRANCH   1  10
ATOM     10  C   UNL     1       3.333  19.170   6.606  1.00  0.00     0.000 C 
BRANCH  10  11
ATOM     11  C   UNL     1       2.171  18.621   5.763  1.00  0.00    -0.000 C 
BRANCH  11  12
ATOM     12  C   UNL     1       2.685  18.047   4.435  1.00  0.00    -0.000 C 
BRANCH  12  13
ATOM     13  C   UNL     1       3.668  16.879   4.631  1.00  0.00    -0.000 C 
BRANCH  13  14
ATOM     14  C   UNL     1       3.072  15.640   5.326  1.00  0.00    -0.000 C 
BRANCH  14  15
ATOM     15  C   UNL     1       4.123  14.750   6.022  1.00  0.00    -0.003 C 
ATOM     16  C   UNL     1       5.525  15.356   5.978  1.00  0.00     0.004 C 
ENDBRANCH  14  15
ENDBRANCH  13  14
ENDBRANCH  12  13
ENDBRANCH  11  12
ENDBRANCH  10  11
ENDBRANCH   1  10
TORSDOF 12
ENDMDL
MODEL 6
REMARK VINA RESULT:    -3.535      9.872     11.516
REMARK INTER + INTRA:          -7.398
REMARK INTER:                  -6.013
REMARK INTRA:                  -1.384
REMARK UNBOUND:                -1.382
REMARK SMILES CCCCCCCCCCCCCC(=O)[O-]
REMARK SMILES IDX 8 1 9 2 10 3 11 4 12 5 13 6 14 7 15 8 16 9 7 10 6 11 5 12
REMARK SMILES IDX 4 13 3 14 2 15 1 16
REMARK H PARENT
REMARK Flexibility Score: inf
ROOT
ATOM      1  C   UNL     1       5.138  16.928   8.891  1.00  0.00     0.000 C 
ENDROOT
BRANCH   1   2
ATOM      2  C   UNL     1       3.650  16.592   9.090  1.00  0.00     0.000 C 
BRANCH   2   3
ATOM      3  C   UNL     1       3.314  16.181  10.535  1.00  0.00     0.000 C 
BRANCH   3   4
ATOM      4  C   UNL     1       3.882  14.820  10.978  1.00  0.00     0.000 C 
BRANCH   4   5
ATOM      5  C   UNL     1       4.634  14.890  12.318  1.00  0.00     0.006 C 
BRANCH   5   6
ATOM      6  C   UNL     1       4.955  16.333  12.727  1.00  0.00     0.053 C 
BRANCH   6   7
ATOM      7  C   UNL     1       5.620  16.397  14.068  1.00  0.00     0.041 C 
ATOM      8  O   UNL     1       6.656  15.720  14.296  1.00  0.00    -0.550 OA
ATOM      9  O   UNL     1       5.111  17.229  15.058  1.00  0.00    -0.550 OA
ENDBRANCH   6   7
ENDBRANCH   5   6
ENDBRANCH   4   5
ENDBRANCH   3   4
ENDBRANCH   2   3
ENDBRANCH   1   2
BRANCH   1  10
ATOM     10  C   UNL     1       5.693  16.390   7.561  1.00  0.00     0.000 C 
BRANCH  10  11
ATOM     11  C   UNL     1       4.723  15.426   6.860  1.00  0.00    -0.000 C 
BRANCH  11  12
ATOM     12  C   UNL     1       4.838  15.553   5.333  1.00  0.00    -0.000 C 
BRANCH  12  13
ATOM     13  C   UNL     1       4.205  16.847   4.793  1.00  0.00    -0.000 C 
BRANCH  13  14
ATOM     14  C   UNL     1       2.776  17.129   5.294  1.00  0.00    -0.000 C 
BRANCH  14  15
ATOM     15  C   UNL     1       2.463  18.630   5.471  1.00  0.00    -0.003 C 
ATOM     16  C   UNL     1       3.213  19.251   6.648  1.00  0.00     0.004 C 
ENDBRANCH  14  15
ENDBRANCH  13  14
ENDBRANCH  12  13
ENDBRANCH  11  12
ENDBRANCH  10  11
ENDBRANCH   1  10
TORSDOF 12
ENDMDL
MODEL 7
REMARK VINA RESULT:    -3.516      8.816     11.491
REMARK INTER + INTRA:          -7.365
REMARK INTER:                  -6.115
REMARK INTRA:                  -1.250
REMARK UNBOUND:                -1.382
REMARK SMILES CCCCCCCCCCCCCC(=O)[O-]
REMARK SMILES IDX 8 1 9 2 10 3 11 4 12 5 13 6 14 7 15 8 16 9 7 10 6 11 5 12
REMARK SMILES IDX 4 13 3 14 2 15 1 16
REMARK H PARENT
REMARK Flexibility Score: inf
ROOT
ATOM      1  C   UNL     1       3.472  16.449  12.193  1.00  0.00     0.000 C 
ENDROOT
BRANCH   1   2
ATOM      2  C   UNL     1       2.536  15.532  11.389  1.00  0.00     0.000 C 
BRANCH   2   3
ATOM      3  C   UNL     1       3.249  14.814  10.229  1.00  0.00     0.000 C 
BRANCH   3   4
ATOM      4  C   UNL     1       3.166  15.526   8.866  1.00  0.00     0.000 C 
BRANCH   4   5
ATOM      5  C   UNL     1       4.527  16.050   8.378  1.00  0.00     0.006 C 
BRANCH   5   6
ATOM      6  C   UNL     1       4.773  17.504   8.798  1.00  0.00     0.053 C 
BRANCH   6   7
ATOM      7  C   UNL     1       3.642  18.399   8.393  1.00  0.00     0.041 C 
ATOM      8  O   UNL     1       2.831  18.828   9.256  1.00  0.00    -0.550 OA
ATOM      9  O   UNL     1       3.500  18.784   7.065  1.00  0.00    -0.550 OA
ENDBRANCH   6   7
ENDBRANCH   5   6
ENDBRANCH   4   5
ENDBRANCH   3   4
ENDBRANCH   2   3
ENDBRANCH   1   2
BRANCH   1  10
ATOM     10  C   UNL     1       4.891  15.872  12.329  1.00  0.00     0.000 C 
BRANCH  10  11
ATOM     11  C   UNL     1       4.961  14.692  13.311  1.00  0.00    -0.000 C 
BRANCH  11  12
ATOM     12  C   UNL     1       4.686  15.162  14.747  1.00  0.00    -0.000 C 
BRANCH  12  13
ATOM     13  C   UNL     1       5.686  16.229  15.228  1.00  0.00    -0.000 C 
BRANCH  13  14
ATOM     14  C   UNL     1       5.319  16.909  16.560  1.00  0.00    -0.000 C 
BRANCH  14  15
ATOM     15  C   UNL     1       4.872  18.378  16.407  1.00  0.00    -0.003 C 
ATOM     16  C   UNL     1       4.730  18.798  14.944  1.00  0.00     0.004 C 
ENDBRANCH  14  15
ENDBRANCH  13  14
ENDBRANCH  12  13
ENDBRANCH  11  12
ENDBRANCH  10  11
ENDBRANCH   1  10
TORSDOF 12
ENDMDL
MODEL 8
REMARK VINA RESULT:    -3.431     10.105     11.538
REMARK INTER + INTRA:          -7.220
REMARK INTER:                  -5.613
REMARK INTRA:                  -1.607
REMARK UNBOUND:                -1.382
REMARK SMILES CCCCCCCCCCCCCC(=O)[O-]
REMARK SMILES IDX 8 1 9 2 10 3 11 4 12 5 13 6 14 7 15 8 16 9 7 10 6 11 5 12
REMARK SMILES IDX 4 13 3 14 2 15 1 16
REMARK H PARENT
REMARK Flexibility Score: inf
ROOT
ATOM      1  C   UNL     1       4.355  16.028   8.086  1.00  0.00     0.000 C 
ENDROOT
BRANCH   1   2
ATOM      2  C   UNL     1       2.868  15.643   8.172  1.00  0.00     0.000 C 
BRANCH   2   3
ATOM      3  C   UNL     1       2.539  14.789   9.411  1.00  0.00     0.000 C 
BRANCH   3   4
ATOM      4  C   UNL     1       2.258  15.584  10.699  1.00  0.00     0.000 C 
BRANCH   4   5
ATOM      5  C   UNL     1       3.199  15.207  11.856  1.00  0.00     0.006 C 
BRANCH   5   6
ATOM      6  C   UNL     1       4.452  16.089  11.893  1.00  0.00     0.053 C 
BRANCH   6   7
ATOM      7  C   UNL     1       5.278  15.832  13.117  1.00  0.00     0.041 C 
ATOM      8  O   UNL     1       5.366  14.669  13.591  1.00  0.00    -0.550 OA
ATOM      9  O   UNL     1       5.974  16.874  13.717  1.00  0.00    -0.550 OA
ENDBRANCH   6   7
ENDBRANCH   5   6
ENDBRANCH   4   5
ENDBRANCH   3   4
ENDBRANCH   2   3
ENDBRANCH   1   2
BRANCH   1  10
ATOM     10  C   UNL     1       4.612  17.488   8.495  1.00  0.00     0.000 C 
BRANCH  10  11
ATOM     11  C   UNL     1       3.357  18.366   8.384  1.00  0.00    -0.000 C 
BRANCH  11  12
ATOM     12  C   UNL     1       3.338  19.123   7.047  1.00  0.00    -0.000 C 
BRANCH  12  13
ATOM     13  C   UNL     1       2.159  18.713   6.146  1.00  0.00    -0.000 C 
BRANCH  13  14
ATOM     14  C   UNL     1       2.558  17.988   4.847  1.00  0.00    -0.000 C 
BRANCH  14  15
ATOM     15  C   UNL     1       4.033  17.534   4.815  1.00  0.00    -0.003 C 
ATOM     16  C   UNL     1       4.199  16.119   4.263  1.00  0.00     0.004 C 
ENDBRANCH  14  15
ENDBRANCH  13  14
ENDBRANCH  12  13
ENDBRANCH  11  12
ENDBRANCH  10  11
ENDBRANCH   1  10
TORSDOF 12
ENDMDL
MODEL 9
REMARK VINA RESULT:    -3.417      9.670     11.180
REMARK INTER + INTRA:          -7.196
REMARK INTER:                  -6.012
REMARK INTRA:                  -1.184
REMARK UNBOUND:                -1.382
REMARK SMILES CCCCCCCCCCCCCC(=O)[O-]
REMARK SMILES IDX 8 1 9 2 10 3 11 4 12 5 13 6 14 7 15 8 16 9 7 10 6 11 5 12
REMARK SMILES IDX 4 13 3 14 2 15 1 16
REMARK H PARENT
REMARK Flexibility Score: inf
ROOT
ATOM      1  C   UNL     1       2.238  17.929   8.625  1.00  0.00     0.000 C 
ENDROOT
BRANCH   1   2
ATOM      2  C   UNL     1       2.554  16.558   9.246  1.00  0.00     0.000 C 
BRANCH   2   3
ATOM      3  C   UNL     1       3.710  16.610  10.262  1.00  0.00     0.000 C 
BRANCH   3   4
ATOM      4  C   UNL     1       3.282  16.757  11.734  1.00  0.00     0.000 C 
BRANCH   4   5
ATOM      5  C   UNL     1       4.208  16.007  12.706  1.00  0.00     0.006 C 
BRANCH   5   6
ATOM      6  C   UNL     1       4.973  16.962  13.630  1.00  0.00     0.053 C 
BRANCH   6   7
ATOM      7  C   UNL     1       5.850  16.223  14.593  1.00  0.00     0.041 C 
ATOM      8  O   UNL     1       6.749  15.449  14.170  1.00  0.00    -0.550 OA
ATOM      9  O   UNL     1       5.692  16.410  15.962  1.00  0.00    -0.550 OA
ENDBRANCH   6   7
ENDBRANCH   5   6
ENDBRANCH   4   5
ENDBRANCH   3   4
ENDBRANCH   2   3
ENDBRANCH   1   2
BRANCH   1  10
ATOM     10  C   UNL     1       3.495  18.643   8.099  1.00  0.00     0.000 C 
BRANCH  10  11
ATOM     11  C   UNL     1       3.357  19.090   6.636  1.00  0.00    -0.000 C 
BRANCH  11  12
ATOM     12  C   UNL     1       2.993  17.900   5.735  1.00  0.00    -0.000 C 
BRANCH  12  13
ATOM     13  C   UNL     1       4.138  17.496   4.789  1.00  0.00    -0.000 C 
BRANCH  13  14
ATOM     14  C   UNL     1       4.622  16.042   4.942  1.00  0.00    -0.000 C 
BRANCH  14  15
ATOM     15  C   UNL     1       4.646  15.544   6.403  1.00  0.00    -0.003 C 
ATOM     16  C   UNL     1       5.987  15.801   7.088  1.00  0.00     0.004 C 
ENDBRANCH  14  15
ENDBRANCH  13  14
ENDBRANCH  12  13
ENDBRANCH  11  12
ENDBRANCH  10  11
ENDBRANCH   1  10
TORSDOF 12
ENDMDL
