MODEL 1
REMARK VINA RESULT:    -3.294      0.000      0.000
REMARK INTER + INTRA:          -4.779
REMARK INTER:                  -4.642
REMARK INTRA:                  -0.138
REMARK UNBOUND:                -0.138
REMARK SMILES CC1=CCC(=C(C)C)C(=O)CC(C)=CCC1
REMARK SMILES IDX 12 1 14 2 13 3 15 4 16 5 2 6 1 7 3 8 11 10 9 11 10 12 5 13
REMARK SMILES IDX 6 14 7 15 8 16 4 17
REMARK H PARENT
REMARK Flexibility Score: 60.00
ROOT
ATOM      1  C   UNL     1     -35.264  -6.980  45.447  1.00  0.00    -0.070 C 
ATOM      2  C   UNL     1     -35.197  -5.633  45.554  1.00  0.00    -0.027 C 
ATOM      3  C   UNL     1     -34.356  -7.659  44.452  1.00  0.00     0.039 C 
ENDROOT
BRANCH   2   4
ATOM      4  C   UNL     1     -36.127  -4.785  46.385  1.00  0.00     0.032 C 
BRANCH   4   5
ATOM      5  C   UNL     1     -35.502  -4.522  47.759  1.00  0.00     0.034 C 
BRANCH   5   6
ATOM      6  C   UNL     1     -36.521  -4.574  48.879  1.00  0.00    -0.077 C 
ATOM      7  C   UNL     1     -37.476  -3.419  49.042  1.00  0.00     0.039 C 
ATOM      8  C   UNL     1     -36.674  -5.640  49.705  1.00  0.00    -0.023 CG0
ATOM      9  G   UNL     1     -35.807  -6.885  49.776  1.00  0.00     0.000 G0
ENDBRANCH   5   6
ENDBRANCH   4   5
ENDBRANCH   2   4
BRANCH   1  10
ATOM     10  C   UNL     1     -36.188  -7.839  46.287  1.00  0.00     0.111 C 
BRANCH  10  11
ATOM     11  C   UNL     1     -35.550  -8.241  47.595  1.00  0.00     0.163 C 
ATOM     12  O   UNL     1     -34.388  -8.729  47.541  1.00  0.00    -0.294 OA
BRANCH  11  13
ATOM     13  C   UNL     1     -36.209  -8.074  48.933  1.00  0.00    -0.002 C 
ATOM     14  C   UNL     1     -37.031  -9.049  49.430  1.00  0.00    -0.069 C 
ATOM     15  C   UNL     1     -37.526  -9.028  50.859  1.00  0.00     0.039 C 
ATOM     16  C   UNL     1     -37.532 -10.179  48.559  1.00  0.00     0.039 C 
BRANCH  13  17
ATOM     17  C   UNL     1     -35.793  -6.882  49.787  1.00  0.00     0.066 CG0
ATOM     18  G   UNL     1     -36.674  -5.649  49.702  1.00  0.00     0.000 G0
ENDBRANCH  13  17
ENDBRANCH  11  13
ENDBRANCH  10  11
ENDBRANCH   1  10
TORSDOF 0
ENDMDL
MODEL 2
REMARK VINA RESULT:    -3.056      2.053      4.159
REMARK INTER + INTRA:          -4.444
REMARK INTER:                  -4.461
REMARK INTRA:                   0.017
REMARK UNBOUND:                -0.138
REMARK SMILES CC1=CCC(=C(C)C)C(=O)CC(C)=CCC1
REMARK SMILES IDX 12 1 14 2 13 3 15 4 16 5 2 6 1 7 3 8 11 10 9 11 10 12 5 13
REMARK SMILES IDX 6 14 7 15 8 16 4 17
REMARK H PARENT
REMARK Flexibility Score: 60.00
ROOT
ATOM      1  C   UNL     1     -33.322  -8.039  45.234  1.00  0.00    -0.070 C 
ATOM      2  C   UNL     1     -32.899  -9.250  45.666  1.00  0.00    -0.027 C 
ATOM      3  C   UNL     1     -33.510  -7.842  43.751  1.00  0.00     0.039 C 
ENDROOT
BRANCH   2   4
ATOM      4  C   UNL     1     -32.522  -9.574  47.090  1.00  0.00     0.032 C 
BRANCH   4   5
ATOM      5  C   UNL     1     -33.783  -9.876  47.906  1.00  0.00     0.034 C 
BRANCH   5   6
ATOM      6  C   UNL     1     -33.750  -9.240  49.282  1.00  0.00    -0.077 C 
ATOM      7  C   UNL     1     -32.655  -9.643  50.238  1.00  0.00     0.039 C 
ATOM      8  C   UNL     1     -34.610  -8.270  49.680  1.00  0.00    -0.023 CG0
ATOM      9  G   UNL     1     -35.817  -7.741  48.927  1.00  0.00     0.000 G0
ENDBRANCH   5   6
ENDBRANCH   4   5
ENDBRANCH   2   4
BRANCH   1  10
ATOM     10  C   UNL     1     -33.634  -6.883  46.163  1.00  0.00     0.111 C 
BRANCH  10  11
ATOM     11  C   UNL     1     -35.084  -6.874  46.586  1.00  0.00     0.163 C 
ATOM     12  O   UNL     1     -35.939  -7.170  45.707  1.00  0.00    -0.294 OA
BRANCH  11  13
ATOM     13  C   UNL     1     -35.546  -6.557  47.978  1.00  0.00    -0.002 C 
ATOM     14  C   UNL     1     -35.875  -5.275  48.326  1.00  0.00    -0.069 C 
ATOM     15  C   UNL     1     -36.561  -4.951  49.635  1.00  0.00     0.039 C 
ATOM     16  C   UNL     1     -35.524  -4.101  47.440  1.00  0.00     0.039 C 
BRANCH  13  17
ATOM     17  C   UNL     1     -35.809  -7.724  48.923  1.00  0.00     0.066 CG0
ATOM     18  G   UNL     1     -34.610  -8.261  49.684  1.00  0.00     0.000 G0
ENDBRANCH  13  17
ENDBRANCH  11  13
ENDBRANCH  10  11
ENDBRANCH   1  10
TORSDOF 0
ENDMDL
MODEL 3
REMARK VINA RESULT:    -3.002     13.320     15.450
REMARK INTER + INTRA:          -4.369
REMARK INTER:                  -4.357
REMARK INTRA:                  -0.012
REMARK UNBOUND:                -0.138
REMARK SMILES CC1=CCC(=C(C)C)C(=O)CC(C)=CCC1
REMARK SMILES IDX 12 1 14 2 13 3 15 4 16 5 2 6 1 7 3 8 11 10 9 11 10 12 5 13
REMARK SMILES IDX 6 14 7 15 8 16 4 17
REMARK H PARENT
REMARK Flexibility Score: 60.00
ROOT
ATOM      1  C   UNL     1     -49.884   2.515  45.745  1.00  0.00    -0.070 C 
ATOM      2  C   UNL     1     -51.120   2.110  45.372  1.00  0.00    -0.027 C 
ATOM      3  C   UNL     1     -49.778   3.623  46.763  1.00  0.00     0.039 C 
ENDROOT
BRANCH   2   4
ATOM      4  C   UNL     1     -51.408   1.125  44.268  1.00  0.00     0.032 C 
BRANCH   4   5
ATOM      5  C   UNL     1     -51.463  -0.296  44.840  1.00  0.00     0.034 C 
BRANCH   5   6
ATOM      6  C   UNL     1     -50.636  -1.278  44.035  1.00  0.00    -0.077 C 
ATOM      7  C   UNL     1     -51.133  -1.696  42.674  1.00  0.00     0.039 C 
ATOM      8  C   UNL     1     -49.430  -1.751  44.439  1.00  0.00    -0.023 CG0
ATOM      9  G   UNL     1     -48.751  -1.524  45.778  1.00  0.00     0.000 G0
ENDBRANCH   5   6
ENDBRANCH   4   5
ENDBRANCH   2   4
BRANCH   1  10
ATOM     10  C   UNL     1     -48.606   1.902  45.208  1.00  0.00     0.111 C 
BRANCH  10  11
ATOM     11  C   UNL     1     -48.001   0.919  46.181  1.00  0.00     0.163 C 
ATOM     12  O   UNL     1     -47.823   1.318  47.364  1.00  0.00    -0.294 OA
BRANCH  11  13
ATOM     13  C   UNL     1     -47.625  -0.489  45.822  1.00  0.00    -0.002 C 
ATOM     14  C   UNL     1     -46.310  -0.851  45.710  1.00  0.00    -0.069 C 
ATOM     15  C   UNL     1     -45.885  -2.297  45.580  1.00  0.00     0.039 C 
ATOM     16  C   UNL     1     -45.207   0.183  45.658  1.00  0.00     0.039 C 
BRANCH  13  17
ATOM     17  C   UNL     1     -48.737  -1.530  45.767  1.00  0.00     0.066 CG0
ATOM     18  G   UNL     1     -49.418  -1.724  44.424  1.00  0.00     0.000 G0
ENDBRANCH  13  17
ENDBRANCH  11  13
ENDBRANCH  10  11
ENDBRANCH   1  10
TORSDOF 0
ENDMDL
MODEL 4
REMARK VINA RESULT:    -2.980      2.275      5.017
REMARK INTER + INTRA:          -4.337
REMARK INTER:                  -4.202
REMARK INTRA:                  -0.135
REMARK UNBOUND:                -0.138
REMARK SMILES CC1=CCC(=C(C)C)C(=O)CC(C)=CCC1
REMARK SMILES IDX 12 1 14 2 13 3 15 4 16 5 2 6 1 7 3 8 11 10 9 11 10 12 5 13
REMARK SMILES IDX 6 14 7 15 8 16 4 17
REMARK H PARENT
REMARK Flexibility Score: 60.00
ROOT
ATOM      1  C   UNL     1     -37.253  -7.918  48.496  1.00  0.00    -0.070 C 
ATOM      2  C   UNL     1     -36.170  -8.609  48.073  1.00  0.00    -0.027 C 
ATOM      3  C   UNL     1     -37.865  -8.300  49.821  1.00  0.00     0.039 C 
ENDROOT
BRANCH   2   4
ATOM      4  C   UNL     1     -35.526  -8.459  46.717  1.00  0.00     0.032 C 
BRANCH   4   5
ATOM      5  C   UNL     1     -34.380  -7.444  46.795  1.00  0.00     0.034 C 
BRANCH   5   6
ATOM      6  C   UNL     1     -34.345  -6.516  45.598  1.00  0.00    -0.077 C 
ATOM      7  C   UNL     1     -33.877  -7.063  44.273  1.00  0.00     0.039 C 
ATOM      8  C   UNL     1     -34.782  -5.232  45.631  1.00  0.00    -0.023 CG0
ATOM      9  G   UNL     1     -35.241  -4.445  46.845  1.00  0.00     0.000 G0
ENDBRANCH   5   6
ENDBRANCH   4   5
ENDBRANCH   2   4
BRANCH   1  10
ATOM     10  C   UNL     1     -37.868  -6.772  47.719  1.00  0.00     0.111 C 
BRANCH  10  11
ATOM     11  C   UNL     1     -37.273  -5.440  48.110  1.00  0.00     0.163 C 
ATOM     12  O   UNL     1     -37.211  -5.181  49.343  1.00  0.00    -0.294 OA
BRANCH  11  13
ATOM     13  C   UNL     1     -36.744  -4.439  47.126  1.00  0.00    -0.002 C 
ATOM     14  C   UNL     1     -37.557  -3.458  46.626  1.00  0.00    -0.069 C 
ATOM     15  C   UNL     1     -37.013  -2.300  45.820  1.00  0.00     0.039 C 
ATOM     16  C   UNL     1     -39.058  -3.506  46.810  1.00  0.00     0.039 C 
BRANCH  13  17
ATOM     17  C   UNL     1     -35.246  -4.440  46.847  1.00  0.00     0.066 CG0
ATOM     18  G   UNL     1     -34.784  -5.225  45.632  1.00  0.00     0.000 G0
ENDBRANCH  13  17
ENDBRANCH  11  13
ENDBRANCH  10  11
ENDBRANCH   1  10
TORSDOF 0
ENDMDL
MODEL 5
REMARK VINA RESULT:    -2.974      1.818      3.649
REMARK INTER + INTRA:          -4.329
REMARK INTER:                  -4.372
REMARK INTRA:                   0.043
REMARK UNBOUND:                -0.138
REMARK SMILES CC1=CCC(=C(C)C)C(=O)CC(C)=CCC1
REMARK SMILES IDX 12 1 14 2 13 3 15 4 16 5 2 6 1 7 3 8 11 10 9 11 10 12 5 13
REMARK SMILES IDX 6 14 7 15 8 16 4 17
REMARK H PARENT
REMARK Flexibility Score: 60.00
ROOT
ATOM      1  C   UNL     1     -36.524  -5.525  48.255  1.00  0.00    -0.070 C 
ATOM      2  C   UNL     1     -35.458  -4.990  47.616  1.00  0.00    -0.027 C 
ATOM      3  C   UNL     1     -36.637  -5.312  49.744  1.00  0.00     0.039 C 
ENDROOT
BRANCH   2   4
ATOM      4  C   UNL     1     -35.113  -5.226  46.167  1.00  0.00     0.032 C 
BRANCH   4   5
ATOM      5  C   UNL     1     -33.849  -6.088  46.069  1.00  0.00     0.034 C 
BRANCH   5   6
ATOM      6  C   UNL     1     -34.136  -7.481  45.545  1.00  0.00    -0.077 C 
ATOM      7  C   UNL     1     -33.935  -7.757  44.076  1.00  0.00     0.039 C 
ATOM      8  C   UNL     1     -34.495  -8.521  46.339  1.00  0.00    -0.023 CG0
ATOM      9  G   UNL     1     -34.810  -8.483  47.823  1.00  0.00     0.000 G0
ENDBRANCH   5   6
ENDBRANCH   4   5
ENDBRANCH   2   4
BRANCH   1  10
ATOM     10  C   UNL     1     -37.614  -6.307  47.551  1.00  0.00     0.111 C 
BRANCH  10  11
ATOM     11  C   UNL     1     -37.248  -7.762  47.386  1.00  0.00     0.163 C 
ATOM     12  O   UNL     1     -37.796  -8.388  46.438  1.00  0.00    -0.294 OA
BRANCH  11  13
ATOM     13  C   UNL     1     -36.267  -8.482  48.265  1.00  0.00    -0.002 C 
ATOM     14  C   UNL     1     -36.703  -9.238  49.320  1.00  0.00    -0.069 C 
ATOM     15  C   UNL     1     -35.777 -10.158  50.083  1.00  0.00     0.039 C 
ATOM     16  C   UNL     1     -38.130  -9.156  49.815  1.00  0.00     0.039 C 
BRANCH  13  17
ATOM     17  C   UNL     1     -34.804  -8.491  47.839  1.00  0.00     0.066 CG0
ATOM     18  G   UNL     1     -34.534  -8.526  46.346  1.00  0.00     0.000 G0
ENDBRANCH  13  17
ENDBRANCH  11  13
ENDBRANCH  10  11
ENDBRANCH   1  10
TORSDOF 0
ENDMDL
MODEL 6
REMARK VINA RESULT:    -2.869      1.861      3.365
REMARK INTER + INTRA:          -4.181
REMARK INTER:                  -4.012
REMARK INTRA:                  -0.169
REMARK UNBOUND:                -0.138
REMARK SMILES CC1=CCC(=C(C)C)C(=O)CC(C)=CCC1
REMARK SMILES IDX 12 1 14 2 13 3 15 4 16 5 2 6 1 7 3 8 11 10 9 11 10 12 5 13
REMARK SMILES IDX 6 14 7 15 8 16 4 17
REMARK H PARENT
REMARK Flexibility Score: 60.00
ROOT
ATOM      1  C   UNL     1     -37.259  -2.862  46.544  1.00  0.00    -0.070 C 
ATOM      2  C   UNL     1     -37.815  -2.067  47.486  1.00  0.00    -0.027 C 
ATOM      3  C   UNL     1     -36.558  -2.202  45.383  1.00  0.00     0.039 C 
ENDROOT
BRANCH   2   4
ATOM      4  C   UNL     1     -38.674  -2.551  48.627  1.00  0.00     0.032 C 
BRANCH   4   5
ATOM      5  C   UNL     1     -37.798  -2.834  49.853  1.00  0.00     0.034 C 
BRANCH   5   6
ATOM      6  C   UNL     1     -38.207  -4.100  50.578  1.00  0.00    -0.077 C 
ATOM      7  C   UNL     1     -39.498  -4.102  51.357  1.00  0.00     0.039 C 
ATOM      8  C   UNL     1     -37.511  -5.263  50.507  1.00  0.00    -0.023 CG0
ATOM      9  G   UNL     1     -36.167  -5.495  49.840  1.00  0.00     0.000 G0
ENDBRANCH   5   6
ENDBRANCH   4   5
ENDBRANCH   2   4
BRANCH   1  10
ATOM     10  C   UNL     1     -37.287  -4.376  46.606  1.00  0.00     0.111 C 
BRANCH  10  11
ATOM     11  C   UNL     1     -36.083  -4.933  47.327  1.00  0.00     0.163 C 
ATOM     12  O   UNL     1     -34.956  -4.464  47.009  1.00  0.00    -0.294 OA
BRANCH  11  13
ATOM     13  C   UNL     1     -36.162  -5.984  48.396  1.00  0.00    -0.002 C 
ATOM     14  C   UNL     1     -36.075  -7.311  48.074  1.00  0.00    -0.069 C 
ATOM     15  C   UNL     1     -35.917  -8.383  49.130  1.00  0.00     0.039 C 
ATOM     16  C   UNL     1     -36.185  -7.786  46.643  1.00  0.00     0.039 C 
BRANCH  13  17
ATOM     17  C   UNL     1     -36.156  -5.521  49.848  1.00  0.00     0.066 CG0
ATOM     18  G   UNL     1     -37.511  -5.264  50.482  1.00  0.00     0.000 G0
ENDBRANCH  13  17
ENDBRANCH  11  13
ENDBRANCH  10  11
ENDBRANCH   1  10
TORSDOF 0
ENDMDL
MODEL 7
REMARK VINA RESULT:    -2.856      2.269      4.724
REMARK INTER + INTRA:          -4.162
REMARK INTER:                  -4.096
REMARK INTRA:                  -0.067
REMARK UNBOUND:                -0.138
REMARK SMILES CC1=CCC(=C(C)C)C(=O)CC(C)=CCC1
REMARK SMILES IDX 12 1 14 2 13 3 15 4 16 5 2 6 1 7 3 8 11 10 9 11 10 12 5 13
REMARK SMILES IDX 6 14 7 15 8 16 4 17
REMARK H PARENT
REMARK Flexibility Score: 60.00
ROOT
ATOM      1  C   UNL     1     -39.256  -8.206  48.251  1.00  0.00    -0.070 C 
ATOM      2  C   UNL     1     -38.258  -8.925  47.685  1.00  0.00    -0.027 C 
ATOM      3  C   UNL     1     -40.256  -8.937  49.112  1.00  0.00     0.039 C 
ENDROOT
BRANCH   2   4
ATOM      4  C   UNL     1     -37.266  -8.385  46.686  1.00  0.00     0.032 C 
BRANCH   4   5
ATOM      5  C   UNL     1     -35.860  -8.388  47.296  1.00  0.00     0.034 C 
BRANCH   5   6
ATOM      6  C   UNL     1     -35.136  -7.073  47.090  1.00  0.00    -0.077 C 
ATOM      7  C   UNL     1     -34.205  -6.938  45.911  1.00  0.00     0.039 C 
ATOM      8  C   UNL     1     -35.332  -5.979  47.867  1.00  0.00    -0.023 CG0
ATOM      9  G   UNL     1     -36.167  -5.883  49.131  1.00  0.00     0.000 G0
ENDBRANCH   5   6
ENDBRANCH   4   5
ENDBRANCH   2   4
BRANCH   1  10
ATOM     10  C   UNL     1     -39.407  -6.708  48.080  1.00  0.00     0.111 C 
BRANCH  10  11
ATOM     11  C   UNL     1     -38.759  -5.944  49.210  1.00  0.00     0.163 C 
ATOM     12  O   UNL     1     -39.311  -6.014  50.341  1.00  0.00    -0.294 OA
BRANCH  11  13
ATOM     13  C   UNL     1     -37.503  -5.136  49.059  1.00  0.00    -0.002 C 
ATOM     14  C   UNL     1     -37.557  -3.769  49.005  1.00  0.00    -0.069 C 
ATOM     15  C   UNL     1     -36.312  -2.914  49.088  1.00  0.00     0.039 C 
ATOM     16  C   UNL     1     -38.866  -3.038  48.807  1.00  0.00     0.039 C 
BRANCH  13  17
ATOM     17  C   UNL     1     -36.170  -5.870  49.154  1.00  0.00     0.066 CG0
ATOM     18  G   UNL     1     -35.361  -5.970  47.874  1.00  0.00     0.000 G0
ENDBRANCH  13  17
ENDBRANCH  11  13
ENDBRANCH  10  11
ENDBRANCH   1  10
TORSDOF 0
ENDMDL
MODEL 8
REMARK VINA RESULT:    -2.809      1.868      3.795
REMARK INTER + INTRA:          -4.095
REMARK INTER:                  -4.124
REMARK INTRA:                   0.028
REMARK UNBOUND:                -0.138
REMARK SMILES CC1=CCC(=C(C)C)C(=O)CC(C)=CCC1
REMARK SMILES IDX 12 1 14 2 13 3 15 4 16 5 2 6 1 7 3 8 11 10 9 11 10 12 5 13
REMARK SMILES IDX 6 14 7 15 8 16 4 17
REMARK H PARENT
REMARK Flexibility Score: 60.00
ROOT
ATOM      1  C   UNL     1     -35.744  -4.421  46.628  1.00  0.00    -0.070 C 
ATOM      2  C   UNL     1     -34.903  -5.115  45.828  1.00  0.00    -0.027 C 
ATOM      3  C   UNL     1     -36.445  -3.218  46.047  1.00  0.00     0.039 C 
ENDROOT
BRANCH   2   4
ATOM      4  C   UNL     1     -34.015  -6.246  46.283  1.00  0.00     0.032 C 
BRANCH   4   5
ATOM      5  C   UNL     1     -34.666  -7.589  45.933  1.00  0.00     0.034 C 
BRANCH   5   6
ATOM      6  C   UNL     1     -34.338  -8.672  46.942  1.00  0.00    -0.077 C 
ATOM      7  C   UNL     1     -32.994  -9.352  46.862  1.00  0.00     0.039 C 
ATOM      8  C   UNL     1     -35.160  -9.018  47.964  1.00  0.00    -0.023 CG0
ATOM      9  G   UNL     1     -36.572  -8.523  48.221  1.00  0.00     0.000 G0
ENDBRANCH   5   6
ENDBRANCH   4   5
ENDBRANCH   2   4
BRANCH   1  10
ATOM     10  C   UNL     1     -36.032  -4.801  48.067  1.00  0.00     0.111 C 
BRANCH  10  11
ATOM     11  C   UNL     1     -36.991  -5.963  48.162  1.00  0.00     0.163 C 
ATOM     12  O   UNL     1     -38.065  -5.876  47.506  1.00  0.00    -0.294 OA
BRANCH  11  13
ATOM     13  C   UNL     1     -36.726  -7.201  48.968  1.00  0.00    -0.002 C 
ATOM     14  C   UNL     1     -36.775  -7.165  50.335  1.00  0.00    -0.069 C 
ATOM     15  C   UNL     1     -36.746  -8.424  51.172  1.00  0.00     0.039 C 
ATOM     16  C   UNL     1     -36.811  -5.855  51.090  1.00  0.00     0.039 C 
BRANCH  13  17
ATOM     17  C   UNL     1     -36.585  -8.520  48.218  1.00  0.00     0.066 CG0
ATOM     18  G   UNL     1     -35.169  -9.009  47.970  1.00  0.00     0.000 G0
ENDBRANCH  13  17
ENDBRANCH  11  13
ENDBRANCH  10  11
ENDBRANCH   1  10
TORSDOF 0
ENDMDL
MODEL 9
REMARK VINA RESULT:    -2.572      1.979      4.960
REMARK INTER + INTRA:          -3.763
REMARK INTER:                  -4.045
REMARK INTRA:                   0.282
REMARK UNBOUND:                -0.138
REMARK SMILES CC1=CCC(=C(C)C)C(=O)CC(C)=CCC1
REMARK SMILES IDX 12 1 14 2 13 3 15 4 16 5 2 6 1 7 3 8 11 10 9 11 10 12 5 13
REMARK SMILES IDX 6 14 7 15 8 16 4 17
REMARK H PARENT
REMARK Flexibility Score: 60.00
ROOT
ATOM      1  C   UNL     1     -38.911  -6.613  48.753  1.00  0.00    -0.070 C 
ATOM      2  C   UNL     1     -39.171  -7.889  48.385  1.00  0.00    -0.027 C 
ATOM      3  C   UNL     1     -39.619  -5.504  48.017  1.00  0.00     0.039 C 
ENDROOT
BRANCH   2   4
ATOM      4  C   UNL     1     -38.448  -9.103  48.910  1.00  0.00     0.032 C 
BRANCH   4   5
ATOM      5  C   UNL     1     -37.483  -9.634  47.844  1.00  0.00     0.034 C 
BRANCH   5   6
ATOM      6  C   UNL     1     -36.030  -9.484  48.250  1.00  0.00    -0.077 C 
ATOM      7  C   UNL     1     -35.382 -10.594  49.038  1.00  0.00     0.039 C 
ATOM      8  C   UNL     1     -35.254  -8.435  47.881  1.00  0.00    -0.023 CG0
ATOM      9  G   UNL     1     -35.686  -7.181  47.143  1.00  0.00     0.000 G0
ENDBRANCH   5   6
ENDBRANCH   4   5
ENDBRANCH   2   4
BRANCH   1  10
ATOM     10  C   UNL     1     -37.962  -6.245  49.876  1.00  0.00     0.111 C 
BRANCH  10  11
ATOM     11  C   UNL     1     -36.521  -6.274  49.429  1.00  0.00     0.163 C 
ATOM     12  O   UNL     1     -35.656  -6.574  50.297  1.00  0.00    -0.294 OA
BRANCH  11  13
ATOM     13  C   UNL     1     -36.075  -5.987  48.025  1.00  0.00    -0.002 C 
ATOM     14  C   UNL     1     -35.874  -4.699  47.608  1.00  0.00    -0.069 C 
ATOM     15  C   UNL     1     -35.209  -4.379  46.288  1.00  0.00     0.039 C 
ATOM     16  C   UNL     1     -36.354  -3.520  48.425  1.00  0.00     0.039 C 
BRANCH  13  17
ATOM     17  C   UNL     1     -35.683  -7.171  47.148  1.00  0.00     0.066 CG0
ATOM     18  G   UNL     1     -35.244  -8.432  47.870  1.00  0.00     0.000 G0
ENDBRANCH  13  17
ENDBRANCH  11  13
ENDBRANCH  10  11
ENDBRANCH   1  10
TORSDOF 0
ENDMDL
