MODEL 1
REMARK VINA RESULT:    -4.896      0.000      0.000
REMARK INTER + INTRA:          -5.455
REMARK INTER:                  -5.182
REMARK INTRA:                  -0.273
REMARK UNBOUND:                -0.273
REMARK SMILES CC1=CC[C@@H]2[C@H]3[C@@H](C(C)C)CC[C@]2(C)[C@@H]13
REMARK SMILES IDX 1 1 2 2 3 3 4 4 5 5 6 6 15 7 13 8 12 9 11 10 7 11 14 12 8 13
REMARK SMILES IDX 9 14 10 15
REMARK H PARENT
REMARK Flexibility Score: inf
ROOT
ATOM      1  C   UNL     1      22.143  66.036  13.742  1.00  0.00     0.039 C 
ATOM      2  C   UNL     1      21.049  65.049  14.073  1.00  0.00    -0.073 C 
ATOM      3  C   UNL     1      20.943  63.833  13.453  1.00  0.00    -0.027 C 
ATOM      4  C   UNL     1      19.916  62.824  13.988  1.00  0.00     0.031 C 
ATOM      5  C   UNL     1      19.078  63.453  15.149  1.00  0.00     0.003 C 
ATOM      6  C   UNL     1      18.663  64.870  14.705  1.00  0.00     0.004 C 
ATOM      7  C   UNL     1      20.053  65.329  15.198  1.00  0.00     0.024 C 
ATOM      8  C   UNL     1      19.994  64.148  16.189  1.00  0.00    -0.022 C 
ATOM      9  C   UNL     1      19.151  64.498  17.438  1.00  0.00     0.008 C 
ATOM     10  C   UNL     1      17.947  65.425  17.116  1.00  0.00     0.005 C 
ATOM     11  C   UNL     1      17.532  65.458  15.605  1.00  0.00    -0.005 C 
ATOM     12  C   UNL     1      21.327  63.483  16.598  1.00  0.00     0.012 C 
ENDROOT
BRANCH  11  13
ATOM     13  C   UNL     1      16.123  64.812  15.374  1.00  0.00    -0.014 C 
ATOM     14  C   UNL     1      15.362  65.460  14.197  1.00  0.00     0.007 C 
ATOM     15  C   UNL     1      15.262  64.898  16.638  1.00  0.00     0.007 C 
ENDBRANCH  11  13
TORSDOF 1
ENDMDL
MODEL 2
REMARK VINA RESULT:    -4.623      2.247      5.668
REMARK INTER + INTRA:          -5.166
REMARK INTER:                  -4.886
REMARK INTRA:                  -0.280
REMARK UNBOUND:                -0.273
REMARK SMILES CC1=CC[C@@H]2[C@H]3[C@@H](C(C)C)CC[C@]2(C)[C@@H]13
REMARK SMILES IDX 1 1 2 2 3 3 4 4 5 5 6 6 15 7 13 8 12 9 11 10 7 11 14 12 8 13
REMARK SMILES IDX 9 14 10 15
REMARK H PARENT
REMARK Flexibility Score: inf
ROOT
ATOM      1  C   UNL     1      19.276  66.000  15.986  1.00  0.00     0.039 C 
ATOM      2  C   UNL     1      19.882  64.799  15.302  1.00  0.00    -0.073 C 
ATOM      3  C   UNL     1      19.121  63.787  14.779  1.00  0.00    -0.027 C 
ATOM      4  C   UNL     1      19.815  62.705  13.940  1.00  0.00     0.031 C 
ATOM      5  C   UNL     1      21.363  62.932  13.918  1.00  0.00     0.003 C 
ATOM      6  C   UNL     1      21.805  63.241  15.362  1.00  0.00     0.004 C 
ATOM      7  C   UNL     1      21.391  64.702  15.076  1.00  0.00     0.024 C 
ATOM      8  C   UNL     1      21.709  64.408  13.595  1.00  0.00    -0.022 C 
ATOM      9  C   UNL     1      23.226  64.512  13.310  1.00  0.00     0.008 C 
ATOM     10  C   UNL     1      24.100  64.030  14.500  1.00  0.00     0.005 C 
ATOM     11  C   UNL     1      23.351  63.127  15.539  1.00  0.00    -0.005 C 
ATOM     12  C   UNL     1      20.898  65.165  12.520  1.00  0.00     0.012 C 
ENDROOT
BRANCH  11  13
ATOM     13  C   UNL     1      23.893  61.656  15.530  1.00  0.00    -0.014 C 
ATOM     14  C   UNL     1      24.586  61.273  16.856  1.00  0.00     0.007 C 
ATOM     15  C   UNL     1      24.868  61.435  14.369  1.00  0.00     0.007 C 
ENDBRANCH  11  13
TORSDOF 1
ENDMDL
MODEL 3
REMARK VINA RESULT:    -4.486      1.291      3.292
REMARK INTER + INTRA:          -5.021
REMARK INTER:                  -4.739
REMARK INTRA:                  -0.282
REMARK UNBOUND:                -0.273
REMARK SMILES CC1=CC[C@@H]2[C@H]3[C@@H](C(C)C)CC[C@]2(C)[C@@H]13
REMARK SMILES IDX 1 1 2 2 3 3 4 4 5 5 6 6 15 7 13 8 12 9 11 10 7 11 14 12 8 13
REMARK SMILES IDX 9 14 10 15
REMARK H PARENT
REMARK Flexibility Score: inf
ROOT
ATOM      1  C   UNL     1      23.042  62.481  17.652  1.00  0.00     0.039 C 
ATOM      2  C   UNL     1      22.408  63.546  16.791  1.00  0.00    -0.073 C 
ATOM      3  C   UNL     1      22.915  64.815  16.697  1.00  0.00    -0.027 C 
ATOM      4  C   UNL     1      22.314  65.770  15.656  1.00  0.00     0.031 C 
ATOM      5  C   UNL     1      21.107  65.098  14.922  1.00  0.00     0.003 C 
ATOM      6  C   UNL     1      20.233  64.420  15.996  1.00  0.00     0.004 C 
ATOM      7  C   UNL     1      21.208  63.225  15.901  1.00  0.00     0.024 C 
ATOM      8  C   UNL     1      21.467  63.668  14.445  1.00  0.00    -0.022 C 
ATOM      9  C   UNL     1      20.355  63.165  13.494  1.00  0.00     0.008 C 
ATOM     10  C   UNL     1      18.952  63.145  14.161  1.00  0.00     0.005 C 
ATOM     11  C   UNL     1      18.825  64.033  15.447  1.00  0.00    -0.005 C 
ATOM     12  C   UNL     1      22.864  63.390  13.846  1.00  0.00     0.012 C 
ENDROOT
BRANCH  11  13
ATOM     13  C   UNL     1      17.865  65.250  15.221  1.00  0.00    -0.014 C 
ATOM     14  C   UNL     1      17.707  66.122  16.486  1.00  0.00     0.007 C 
ATOM     15  C   UNL     1      16.481  64.784  14.755  1.00  0.00     0.007 C 
ENDBRANCH  11  13
TORSDOF 1
ENDMDL
MODEL 4
REMARK VINA RESULT:    -4.452      1.586      4.603
REMARK INTER + INTRA:          -4.985
REMARK INTER:                  -5.006
REMARK INTRA:                   0.020
REMARK UNBOUND:                -0.273
REMARK SMILES CC1=CC[C@@H]2[C@H]3[C@@H](C(C)C)CC[C@]2(C)[C@@H]13
REMARK SMILES IDX 1 1 2 2 3 3 4 4 5 5 6 6 15 7 13 8 12 9 11 10 7 11 14 12 8 13
REMARK SMILES IDX 9 14 10 15
REMARK H PARENT
REMARK Flexibility Score: inf
ROOT
ATOM      1  C   UNL     1      17.069  64.926  14.868  1.00  0.00     0.039 C 
ATOM      2  C   UNL     1      18.419  64.255  14.954  1.00  0.00    -0.073 C 
ATOM      3  C   UNL     1      18.774  63.210  14.143  1.00  0.00    -0.027 C 
ATOM      4  C   UNL     1      20.228  62.718  14.175  1.00  0.00     0.031 C 
ATOM      5  C   UNL     1      21.049  63.494  15.257  1.00  0.00     0.003 C 
ATOM      6  C   UNL     1      20.190  63.554  16.535  1.00  0.00     0.004 C 
ATOM      7  C   UNL     1      19.499  64.781  15.899  1.00  0.00     0.024 C 
ATOM      8  C   UNL     1      20.822  65.023  15.143  1.00  0.00    -0.022 C 
ATOM      9  C   UNL     1      21.859  65.747  16.035  1.00  0.00     0.008 C 
ATOM     10  C   UNL     1      21.774  65.326  17.527  1.00  0.00     0.005 C 
ATOM     11  C   UNL     1      21.025  63.973  17.784  1.00  0.00    -0.005 C 
ATOM     12  C   UNL     1      20.746  65.683  13.749  1.00  0.00     0.012 C 
ENDROOT
BRANCH  11  13
ATOM     13  C   UNL     1      21.996  62.862  18.311  1.00  0.00    -0.014 C 
ATOM     14  C   UNL     1      22.421  63.095  19.778  1.00  0.00     0.007 C 
ATOM     15  C   UNL     1      23.248  62.761  17.434  1.00  0.00     0.007 C 
ENDBRANCH  11  13
TORSDOF 1
ENDMDL
MODEL 5
REMARK VINA RESULT:    -4.437      2.429      5.433
REMARK INTER + INTRA:          -4.969
REMARK INTER:                  -4.686
REMARK INTRA:                  -0.284
REMARK UNBOUND:                -0.273
REMARK SMILES CC1=CC[C@@H]2[C@H]3[C@@H](C(C)C)CC[C@]2(C)[C@@H]13
REMARK SMILES IDX 1 1 2 2 3 3 4 4 5 5 6 6 15 7 13 8 12 9 11 10 7 11 14 12 8 13
REMARK SMILES IDX 9 14 10 15
REMARK H PARENT
REMARK Flexibility Score: inf
ROOT
ATOM      1  C   UNL     1      19.176  62.752  13.863  1.00  0.00     0.039 C 
ATOM      2  C   UNL     1      20.395  63.444  14.424  1.00  0.00    -0.073 C 
ATOM      3  C   UNL     1      21.133  64.340  13.697  1.00  0.00    -0.027 C 
ATOM      4  C   UNL     1      22.238  65.131  14.411  1.00  0.00     0.031 C 
ATOM      5  C   UNL     1      22.375  64.667  15.899  1.00  0.00     0.003 C 
ATOM      6  C   UNL     1      22.351  63.126  15.908  1.00  0.00     0.004 C 
ATOM      7  C   UNL     1      20.810  63.244  15.881  1.00  0.00     0.024 C 
ATOM      8  C   UNL     1      20.992  64.600  16.594  1.00  0.00    -0.022 C 
ATOM      9  C   UNL     1      21.208  64.416  18.116  1.00  0.00     0.008 C 
ATOM     10  C   UNL     1      22.018  63.136  18.461  1.00  0.00     0.005 C 
ATOM     11  C   UNL     1      22.840  62.539  17.267  1.00  0.00    -0.005 C 
ATOM     12  C   UNL     1      19.944  65.703  16.322  1.00  0.00     0.012 C 
ENDROOT
BRANCH  11  13
ATOM     13  C   UNL     1      24.384  62.664  17.505  1.00  0.00    -0.014 C 
ATOM     14  C   UNL     1      25.125  61.325  17.293  1.00  0.00     0.007 C 
ATOM     15  C   UNL     1      24.686  63.190  18.912  1.00  0.00     0.007 C 
ENDBRANCH  11  13
TORSDOF 1
ENDMDL
MODEL 6
REMARK VINA RESULT:    -4.435      2.448      4.487
REMARK INTER + INTRA:          -4.967
REMARK INTER:                  -4.694
REMARK INTRA:                  -0.273
REMARK UNBOUND:                -0.273
REMARK SMILES CC1=CC[C@@H]2[C@H]3[C@@H](C(C)C)CC[C@]2(C)[C@@H]13
REMARK SMILES IDX 1 1 2 2 3 3 4 4 5 5 6 6 15 7 13 8 12 9 11 10 7 11 14 12 8 13
REMARK SMILES IDX 9 14 10 15
REMARK H PARENT
REMARK Flexibility Score: inf
ROOT
ATOM      1  C   UNL     1      24.375  60.892  13.273  1.00  0.00     0.039 C 
ATOM      2  C   UNL     1      24.010  62.113  14.083  1.00  0.00    -0.073 C 
ATOM      3  C   UNL     1      24.912  62.763  14.883  1.00  0.00    -0.027 C 
ATOM      4  C   UNL     1      24.500  64.099  15.518  1.00  0.00     0.031 C 
ATOM      5  C   UNL     1      23.009  64.433  15.182  1.00  0.00     0.003 C 
ATOM      6  C   UNL     1      22.186  63.148  15.399  1.00  0.00     0.004 C 
ATOM      7  C   UNL     1      22.621  62.741  13.973  1.00  0.00     0.024 C 
ATOM      8  C   UNL     1      22.721  64.251  13.670  1.00  0.00    -0.022 C 
ATOM      9  C   UNL     1      21.334  64.858  13.351  1.00  0.00     0.008 C 
ATOM     10  C   UNL     1      20.186  64.210  14.173  1.00  0.00     0.005 C 
ATOM     11  C   UNL     1      20.654  63.435  15.452  1.00  0.00    -0.005 C 
ATOM     12  C   UNL     1      23.769  64.709  12.631  1.00  0.00     0.012 C 
ENDROOT
BRANCH  11  13
ATOM     13  C   UNL     1      20.176  64.141  16.767  1.00  0.00    -0.014 C 
ATOM     14  C   UNL     1      20.233  63.205  17.995  1.00  0.00     0.007 C 
ATOM     15  C   UNL     1      18.752  64.685  16.615  1.00  0.00     0.007 C 
ENDBRANCH  11  13
TORSDOF 1
ENDMDL
MODEL 7
REMARK VINA RESULT:    -4.380      2.680      4.706
REMARK INTER + INTRA:          -4.909
REMARK INTER:                  -4.758
REMARK INTRA:                  -0.150
REMARK UNBOUND:                -0.273
REMARK SMILES CC1=CC[C@@H]2[C@H]3[C@@H](C(C)C)CC[C@]2(C)[C@@H]13
REMARK SMILES IDX 1 1 2 2 3 3 4 4 5 5 6 6 15 7 13 8 12 9 11 10 7 11 14 12 8 13
REMARK SMILES IDX 9 14 10 15
REMARK H PARENT
REMARK Flexibility Score: inf
ROOT
ATOM      1  C   UNL     1      24.800  61.258  17.215  1.00  0.00     0.039 C 
ATOM      2  C   UNL     1      23.634  62.197  17.024  1.00  0.00    -0.073 C 
ATOM      3  C   UNL     1      22.693  62.410  17.995  1.00  0.00    -0.027 C 
ATOM      4  C   UNL     1      21.655  63.521  17.781  1.00  0.00     0.031 C 
ATOM      5  C   UNL     1      21.828  64.173  16.370  1.00  0.00     0.003 C 
ATOM      6  C   UNL     1      22.011  63.031  15.351  1.00  0.00     0.004 C 
ATOM      7  C   UNL     1      23.503  63.037  15.753  1.00  0.00     0.024 C 
ATOM      8  C   UNL     1      23.312  64.530  16.096  1.00  0.00    -0.022 C 
ATOM      9  C   UNL     1      23.385  65.416  14.829  1.00  0.00     0.008 C 
ATOM     10  C   UNL     1      22.783  64.727  13.574  1.00  0.00     0.005 C 
ATOM     11  C   UNL     1      21.830  63.522  13.882  1.00  0.00    -0.005 C 
ATOM     12  C   UNL     1      24.177  65.125  17.229  1.00  0.00     0.012 C 
ENDROOT
BRANCH  11  13
ATOM     13  C   UNL     1      20.346  63.837  13.486  1.00  0.00    -0.014 C 
ATOM     14  C   UNL     1      19.877  65.216  14.002  1.00  0.00     0.007 C 
ATOM     15  C   UNL     1      19.394  62.755  14.005  1.00  0.00     0.007 C 
ENDBRANCH  11  13
TORSDOF 1
ENDMDL
MODEL 8
REMARK VINA RESULT:    -4.372      2.836      4.976
REMARK INTER + INTRA:          -4.900
REMARK INTER:                  -4.620
REMARK INTRA:                  -0.281
REMARK UNBOUND:                -0.273
REMARK SMILES CC1=CC[C@@H]2[C@H]3[C@@H](C(C)C)CC[C@]2(C)[C@@H]13
REMARK SMILES IDX 1 1 2 2 3 3 4 4 5 5 6 6 15 7 13 8 12 9 11 10 7 11 14 12 8 13
REMARK SMILES IDX 9 14 10 15
REMARK H PARENT
REMARK Flexibility Score: inf
ROOT
ATOM      1  C   UNL     1      24.673  66.114  19.031  1.00  0.00     0.039 C 
ATOM      2  C   UNL     1      24.184  64.810  18.448  1.00  0.00    -0.073 C 
ATOM      3  C   UNL     1      24.974  63.694  18.376  1.00  0.00    -0.027 C 
ATOM      4  C   UNL     1      24.332  62.368  17.942  1.00  0.00     0.031 C 
ATOM      5  C   UNL     1      22.831  62.581  17.557  1.00  0.00     0.003 C 
ATOM      6  C   UNL     1      22.755  63.842  16.674  1.00  0.00     0.004 C 
ATOM      7  C   UNL     1      22.734  64.649  17.991  1.00  0.00     0.024 C 
ATOM      8  C   UNL     1      22.087  63.406  18.638  1.00  0.00    -0.022 C 
ATOM      9  C   UNL     1      20.567  63.345  18.352  1.00  0.00     0.008 C 
ATOM     10  C   UNL     1      20.194  63.888  16.945  1.00  0.00     0.005 C 
ATOM     11  C   UNL     1      21.388  63.956  15.931  1.00  0.00    -0.005 C 
ATOM     12  C   UNL     1      22.372  63.142  20.133  1.00  0.00     0.012 C 
ENDROOT
BRANCH  11  13
ATOM     13  C   UNL     1      21.209  62.938  14.753  1.00  0.00    -0.014 C 
ATOM     14  C   UNL     1      22.488  62.788  13.901  1.00  0.00     0.007 C 
ATOM     15  C   UNL     1      20.044  63.345  13.844  1.00  0.00     0.007 C 
ENDBRANCH  11  13
TORSDOF 1
ENDMDL
MODEL 9
REMARK VINA RESULT:    -4.161      2.924      5.152
REMARK INTER + INTRA:          -4.677
REMARK INTER:                  -4.396
REMARK INTRA:                  -0.281
REMARK UNBOUND:                -0.273
REMARK SMILES CC1=CC[C@@H]2[C@H]3[C@@H](C(C)C)CC[C@]2(C)[C@@H]13
REMARK SMILES IDX 1 1 2 2 3 3 4 4 5 5 6 6 15 7 13 8 12 9 11 10 7 11 14 12 8 13
REMARK SMILES IDX 9 14 10 15
REMARK H PARENT
REMARK Flexibility Score: inf
ROOT
ATOM      1  C   UNL     1      24.101  61.722  14.161  1.00  0.00     0.039 C 
ATOM      2  C   UNL     1      23.729  62.870  15.069  1.00  0.00    -0.073 C 
ATOM      3  C   UNL     1      24.358  64.085  15.014  1.00  0.00    -0.027 C 
ATOM      4  C   UNL     1      23.786  65.245  15.843  1.00  0.00     0.031 C 
ATOM      5  C   UNL     1      22.578  64.760  16.710  1.00  0.00     0.003 C 
ATOM      6  C   UNL     1      22.984  63.424  17.363  1.00  0.00     0.004 C 
ATOM      7  C   UNL     1      22.554  62.755  16.039  1.00  0.00     0.024 C 
ATOM      8  C   UNL     1      21.576  63.935  15.864  1.00  0.00    -0.022 C 
ATOM      9  C   UNL     1      20.282  63.727  16.687  1.00  0.00     0.008 C 
ATOM     10  C   UNL     1      20.534  62.999  18.036  1.00  0.00     0.005 C 
ATOM     11  C   UNL     1      22.023  63.024  18.526  1.00  0.00    -0.005 C 
ATOM     12  C   UNL     1      21.239  64.384  14.424  1.00  0.00     0.012 C 
ENDROOT
BRANCH  11  13
ATOM     13  C   UNL     1      22.194  63.882  19.826  1.00  0.00    -0.014 C 
ATOM     14  C   UNL     1      22.656  63.039  21.034  1.00  0.00     0.007 C 
ATOM     15  C   UNL     1      20.891  64.605  20.185  1.00  0.00     0.007 C 
ENDBRANCH  11  13
TORSDOF 1
ENDMDL
