MODEL 1
REMARK VINA RESULT:    -5.424      0.000      0.000
REMARK INTER + INTRA:         -10.590
REMARK INTER:                  -8.278
REMARK INTRA:                  -2.312
REMARK UNBOUND:                -2.312
REMARK SMILES CC(=O)CCC=C(C)CCC=C(C)CCC=C(C)C
REMARK SMILES IDX 10 1 11 2 12 3 13 4 14 5 15 6 16 7 18 8 17 9 19 10 9 11 7 12
REMARK SMILES IDX 6 13 8 14 5 15 4 16 2 17 3 18 1 19
REMARK H PARENT
REMARK Flexibility Score: inf
ROOT
ATOM      1  C   UNL     1      15.594 -35.372  20.544  1.00  0.00     0.032 C 
ENDROOT
BRANCH   1   2
ATOM      2  C   UNL     1      15.391 -34.419  21.698  1.00  0.00    -0.028 C 
ATOM      3  C   UNL     1      16.086 -34.457  22.856  1.00  0.00    -0.077 C 
ATOM      4  C   UNL     1      17.096 -35.543  23.147  1.00  0.00     0.039 C 
BRANCH   3   5
ATOM      5  C   UNL     1      15.826 -33.395  23.903  1.00  0.00     0.034 C 
BRANCH   5   6
ATOM      6  C   UNL     1      14.322 -33.156  24.072  1.00  0.00     0.032 C 
BRANCH   6   7
ATOM      7  C   UNL     1      14.047 -31.726  24.462  1.00  0.00    -0.028 C 
ATOM      8  C   UNL     1      12.753 -31.239  22.374  1.00  0.00     0.039 C 
ATOM      9  C   UNL     1      13.364 -30.845  23.696  1.00  0.00    -0.080 C 
ATOM     10  C   UNL     1      13.180 -29.425  24.166  1.00  0.00     0.039 C 
ENDBRANCH   6   7
ENDBRANCH   5   6
ENDBRANCH   3   5
ENDBRANCH   1   2
BRANCH   1  11
ATOM     11  C   UNL     1      16.611 -34.828  19.530  1.00  0.00     0.034 C 
BRANCH  11  12
ATOM     12  C   UNL     1      17.919 -35.599  19.570  1.00  0.00    -0.077 C 
ATOM     13  C   UNL     1      19.111 -35.022  19.850  1.00  0.00    -0.028 C 
ATOM     14  C   UNL     1      17.894 -37.081  19.293  1.00  0.00     0.039 C 
BRANCH  13  15
ATOM     15  C   UNL     1      19.340 -33.545  20.072  1.00  0.00     0.035 C 
BRANCH  15  16
ATOM     16  C   UNL     1      19.442 -33.223  21.566  1.00  0.00     0.079 C 
BRANCH  16  17
ATOM     17  C   UNL     1      18.701 -31.957  21.911  1.00  0.00     0.130 C 
ATOM     18  O   UNL     1      19.032 -31.316  22.896  1.00  0.00    -0.300 OA
ATOM     19  C   UNL     1      17.557 -31.471  21.070  1.00  0.00     0.087 C 
ENDBRANCH  16  17
ENDBRANCH  15  16
ENDBRANCH  13  15
ENDBRANCH  11  12
ENDBRANCH   1  11
TORSDOF 9
ENDMDL
MODEL 2
REMARK VINA RESULT:    -5.354      2.090      5.320
REMARK INTER + INTRA:         -10.483
REMARK INTER:                  -7.718
REMARK INTRA:                  -2.765
REMARK UNBOUND:                -2.312
REMARK SMILES CC(=O)CCC=C(C)CCC=C(C)CCC=C(C)C
REMARK SMILES IDX 10 1 11 2 12 3 13 4 14 5 15 6 16 7 18 8 17 9 19 10 9 11 7 12
REMARK SMILES IDX 6 13 8 14 5 15 4 16 2 17 3 18 1 19
REMARK H PARENT
REMARK Flexibility Score: inf
ROOT
ATOM      1  C   UNL     1      15.857 -34.644  23.980  1.00  0.00     0.032 C 
ENDROOT
BRANCH   1   2
ATOM      2  C   UNL     1      15.768 -34.676  22.473  1.00  0.00    -0.028 C 
ATOM      3  C   UNL     1      16.582 -35.397  21.670  1.00  0.00    -0.077 C 
ATOM      4  C   UNL     1      17.745 -36.191  22.219  1.00  0.00     0.039 C 
BRANCH   3   5
ATOM      5  C   UNL     1      16.335 -35.390  20.177  1.00  0.00     0.034 C 
BRANCH   5   6
ATOM      6  C   UNL     1      17.484 -34.693  19.440  1.00  0.00     0.032 C 
BRANCH   6   7
ATOM      7  C   UNL     1      17.636 -33.268  19.909  1.00  0.00    -0.028 C 
ATOM      8  C   UNL     1      19.992 -33.609  20.689  1.00  0.00     0.039 C 
ATOM      9  C   UNL     1      18.750 -32.774  20.496  1.00  0.00    -0.080 C 
ATOM     10  C   UNL     1      18.781 -31.342  20.962  1.00  0.00     0.039 C 
ENDBRANCH   6   7
ENDBRANCH   5   6
ENDBRANCH   3   5
ENDBRANCH   1   2
BRANCH   1  11
ATOM     11  C   UNL     1      15.638 -33.228  24.532  1.00  0.00     0.034 C 
BRANCH  11  12
ATOM     12  C   UNL     1      16.803 -32.307  24.210  1.00  0.00    -0.077 C 
ATOM     13  C   UNL     1      16.646 -31.072  23.679  1.00  0.00    -0.028 C 
ATOM     14  C   UNL     1      18.204 -32.783  24.502  1.00  0.00     0.039 C 
BRANCH  13  15
ATOM     15  C   UNL     1      15.332 -30.464  23.247  1.00  0.00     0.035 C 
BRANCH  15  16
ATOM     16  C   UNL     1      15.031 -30.789  21.780  1.00  0.00     0.079 C 
BRANCH  16  17
ATOM     17  C   UNL     1      13.811 -31.662  21.646  1.00  0.00     0.130 C 
ATOM     18  O   UNL     1      13.003 -31.711  22.560  1.00  0.00    -0.300 OA
ATOM     19  C   UNL     1      13.572 -32.480  20.411  1.00  0.00     0.087 C 
ENDBRANCH  16  17
ENDBRANCH  15  16
ENDBRANCH  13  15
ENDBRANCH  11  12
ENDBRANCH   1  11
TORSDOF 9
ENDMDL
MODEL 3
REMARK VINA RESULT:    -5.302      2.013      5.256
REMARK INTER + INTRA:         -10.403
REMARK INTER:                  -7.940
REMARK INTRA:                  -2.463
REMARK UNBOUND:                -2.312
REMARK SMILES CC(=O)CCC=C(C)CCC=C(C)CCC=C(C)C
REMARK SMILES IDX 10 1 11 2 12 3 13 4 14 5 15 6 16 7 18 8 17 9 19 10 9 11 7 12
REMARK SMILES IDX 6 13 8 14 5 15 4 16 2 17 3 18 1 19
REMARK H PARENT
REMARK Flexibility Score: inf
ROOT
ATOM      1  C   UNL     1      19.134 -31.814  21.132  1.00  0.00     0.032 C 
ENDROOT
BRANCH   1   2
ATOM      2  C   UNL     1      17.961 -32.525  20.499  1.00  0.00    -0.028 C 
ATOM      3  C   UNL     1      18.011 -33.768  19.970  1.00  0.00    -0.077 C 
ATOM      4  C   UNL     1      19.304 -34.547  19.881  1.00  0.00     0.039 C 
BRANCH   3   5
ATOM      5  C   UNL     1      16.741 -34.387  19.429  1.00  0.00     0.034 C 
BRANCH   5   6
ATOM      6  C   UNL     1      16.169 -35.407  20.420  1.00  0.00     0.032 C 
BRANCH   6   7
ATOM      7  C   UNL     1      15.450 -34.713  21.549  1.00  0.00    -0.028 C 
ATOM      8  C   UNL     1      17.150 -35.390  23.259  1.00  0.00     0.039 C 
ATOM      9  C   UNL     1      15.867 -34.720  22.836  1.00  0.00    -0.080 C 
ATOM     10  C   UNL     1      15.048 -34.025  23.894  1.00  0.00     0.039 C 
ENDBRANCH   6   7
ENDBRANCH   5   6
ENDBRANCH   3   5
ENDBRANCH   1   2
BRANCH   1  11
ATOM     11  C   UNL     1      18.677 -30.666  22.044  1.00  0.00     0.034 C 
BRANCH  11  12
ATOM     12  C   UNL     1      17.919 -31.174  23.258  1.00  0.00    -0.077 C 
ATOM     13  C   UNL     1      16.642 -30.822  23.534  1.00  0.00    -0.028 C 
ATOM     14  C   UNL     1      18.614 -32.124  24.200  1.00  0.00     0.039 C 
BRANCH  13  15
ATOM     15  C   UNL     1      15.818 -29.824  22.754  1.00  0.00     0.035 C 
BRANCH  15  16
ATOM     16  C   UNL     1      14.692 -30.522  21.985  1.00  0.00     0.079 C 
BRANCH  16  17
ATOM     17  C   UNL     1      13.470 -30.713  22.846  1.00  0.00     0.130 C 
ATOM     18  O   UNL     1      12.718 -31.649  22.623  1.00  0.00    -0.300 OA
ATOM     19  C   UNL     1      13.155 -29.770  23.969  1.00  0.00     0.087 C 
ENDBRANCH  16  17
ENDBRANCH  15  16
ENDBRANCH  13  15
ENDBRANCH  11  12
ENDBRANCH   1  11
TORSDOF 9
ENDMDL
MODEL 4
REMARK VINA RESULT:    -5.244      2.199      5.810
REMARK INTER + INTRA:         -10.314
REMARK INTER:                  -7.281
REMARK INTRA:                  -3.033
REMARK UNBOUND:                -2.312
REMARK SMILES CC(=O)CCC=C(C)CCC=C(C)CCC=C(C)C
REMARK SMILES IDX 10 1 11 2 12 3 13 4 14 5 15 6 16 7 18 8 17 9 19 10 9 11 7 12
REMARK SMILES IDX 6 13 8 14 5 15 4 16 2 17 3 18 1 19
REMARK H PARENT
REMARK Flexibility Score: inf
ROOT
ATOM      1  C   UNL     1      17.864 -30.542  21.791  1.00  0.00     0.032 C 
ENDROOT
BRANCH   1   2
ATOM      2  C   UNL     1      17.657 -31.789  20.965  1.00  0.00    -0.028 C 
ATOM      3  C   UNL     1      18.644 -32.633  20.588  1.00  0.00    -0.077 C 
ATOM      4  C   UNL     1      20.097 -32.349  20.892  1.00  0.00     0.039 C 
BRANCH   3   5
ATOM      5  C   UNL     1      18.284 -33.885  19.819  1.00  0.00     0.034 C 
BRANCH   5   6
ATOM      6  C   UNL     1      18.897 -35.125  20.481  1.00  0.00     0.032 C 
BRANCH   6   7
ATOM      7  C   UNL     1      18.071 -35.565  21.663  1.00  0.00    -0.028 C 
ATOM      8  C   UNL     1      19.913 -35.144  23.308  1.00  0.00     0.039 C 
ATOM      9  C   UNL     1      18.524 -35.603  22.937  1.00  0.00    -0.080 C 
ATOM     10  C   UNL     1      17.625 -36.099  24.040  1.00  0.00     0.039 C 
ENDBRANCH   6   7
ENDBRANCH   5   6
ENDBRANCH   3   5
ENDBRANCH   1   2
BRANCH   1  11
ATOM     11  C   UNL     1      16.951 -30.520  23.025  1.00  0.00     0.034 C 
BRANCH  11  12
ATOM     12  C   UNL     1      17.268 -31.652  23.986  1.00  0.00    -0.077 C 
ATOM     13  C   UNL     1      16.430 -32.692  24.208  1.00  0.00    -0.028 C 
ATOM     14  C   UNL     1      18.582 -31.629  24.724  1.00  0.00     0.039 C 
BRANCH  13  15
ATOM     15  C   UNL     1      15.044 -32.842  23.624  1.00  0.00     0.035 C 
BRANCH  15  16
ATOM     16  C   UNL     1      15.026 -33.903  22.519  1.00  0.00     0.079 C 
BRANCH  16  17
ATOM     17  C   UNL     1      14.498 -33.344  21.223  1.00  0.00     0.130 C 
ATOM     18  O   UNL     1      14.587 -34.008  20.202  1.00  0.00    -0.300 OA
ATOM     19  C   UNL     1      13.869 -31.983  21.162  1.00  0.00     0.087 C 
ENDBRANCH  16  17
ENDBRANCH  15  16
ENDBRANCH  13  15
ENDBRANCH  11  12
ENDBRANCH   1  11
TORSDOF 9
ENDMDL
MODEL 5
REMARK VINA RESULT:    -5.240      1.829      5.450
REMARK INTER + INTRA:         -10.309
REMARK INTER:                  -7.947
REMARK INTRA:                  -2.362
REMARK UNBOUND:                -2.312
REMARK SMILES CC(=O)CCC=C(C)CCC=C(C)CCC=C(C)C
REMARK SMILES IDX 10 1 11 2 12 3 13 4 14 5 15 6 16 7 18 8 17 9 19 10 9 11 7 12
REMARK SMILES IDX 6 13 8 14 5 15 4 16 2 17 3 18 1 19
REMARK H PARENT
REMARK Flexibility Score: inf
ROOT
ATOM      1  C   UNL     1      14.875 -32.218  23.497  1.00  0.00     0.032 C 
ENDROOT
BRANCH   1   2
ATOM      2  C   UNL     1      15.032 -33.250  22.405  1.00  0.00    -0.028 C 
ATOM      3  C   UNL     1      14.449 -33.175  21.188  1.00  0.00    -0.077 C 
ATOM      4  C   UNL     1      13.488 -32.064  20.830  1.00  0.00     0.039 C 
BRANCH   3   5
ATOM      5  C   UNL     1      14.748 -34.247  20.164  1.00  0.00     0.034 C 
BRANCH   5   6
ATOM      6  C   UNL     1      16.255 -34.343  19.901  1.00  0.00     0.032 C 
BRANCH   6   7
ATOM      7  C   UNL     1      16.679 -35.779  19.726  1.00  0.00    -0.028 C 
ATOM      8  C   UNL     1      17.565 -35.968  22.061  1.00  0.00     0.039 C 
ATOM      9  C   UNL     1      17.293 -36.514  20.681  1.00  0.00    -0.080 C 
ATOM     10  C   UNL     1      17.710 -37.932  20.385  1.00  0.00     0.039 C 
ENDBRANCH   6   7
ENDBRANCH   5   6
ENDBRANCH   3   5
ENDBRANCH   1   2
BRANCH   1  11
ATOM     11  C   UNL     1      16.179 -31.443  23.737  1.00  0.00     0.034 C 
BRANCH  11  12
ATOM     12  C   UNL     1      16.603 -30.652  22.512  1.00  0.00    -0.077 C 
ATOM     13  C   UNL     1      17.608 -31.038  21.692  1.00  0.00    -0.028 C 
ATOM     14  C   UNL     1      15.866 -29.378  22.182  1.00  0.00     0.039 C 
BRANCH  13  15
ATOM     15  C   UNL     1      18.506 -32.234  21.908  1.00  0.00     0.035 C 
BRANCH  15  16
ATOM     16  C   UNL     1      19.651 -32.252  20.891  1.00  0.00     0.079 C 
BRANCH  16  17
ATOM     17  C   UNL     1      20.105 -33.657  20.593  1.00  0.00     0.130 C 
ATOM     18  O   UNL     1      19.793 -34.178  19.533  1.00  0.00    -0.300 OA
ATOM     19  C   UNL     1      20.929 -34.434  21.577  1.00  0.00     0.087 C 
ENDBRANCH  16  17
ENDBRANCH  15  16
ENDBRANCH  13  15
ENDBRANCH  11  12
ENDBRANCH   1  11
TORSDOF 9
ENDMDL
MODEL 6
REMARK VINA RESULT:    -5.185      2.454      4.358
REMARK INTER + INTRA:         -10.225
REMARK INTER:                  -7.239
REMARK INTRA:                  -2.986
REMARK UNBOUND:                -2.312
REMARK SMILES CC(=O)CCC=C(C)CCC=C(C)CCC=C(C)C
REMARK SMILES IDX 10 1 11 2 12 3 13 4 14 5 15 6 16 7 18 8 17 9 19 10 9 11 7 12
REMARK SMILES IDX 6 13 8 14 5 15 4 16 2 17 3 18 1 19
REMARK H PARENT
REMARK Flexibility Score: inf
ROOT
ATOM      1  C   UNL     1      20.536 -34.291  21.852  1.00  0.00     0.032 C 
ENDROOT
BRANCH   1   2
ATOM      2  C   UNL     1      19.501 -35.176  22.506  1.00  0.00    -0.028 C 
ATOM      3  C   UNL     1      18.852 -34.879  23.654  1.00  0.00    -0.077 C 
ATOM      4  C   UNL     1      19.176 -33.641  24.457  1.00  0.00     0.039 C 
BRANCH   3   5
ATOM      5  C   UNL     1      17.787 -35.827  24.160  1.00  0.00     0.034 C 
BRANCH   5   6
ATOM      6  C   UNL     1      16.518 -35.061  24.550  1.00  0.00     0.032 C 
BRANCH   6   7
ATOM      7  C   UNL     1      15.729 -34.671  23.325  1.00  0.00    -0.028 C 
ATOM      8  C   UNL     1      15.842 -32.222  23.837  1.00  0.00     0.039 C 
ATOM      9  C   UNL     1      15.396 -33.399  23.006  1.00  0.00    -0.080 C 
ATOM     10  C   UNL     1      14.569 -33.126  21.777  1.00  0.00     0.039 C 
ENDBRANCH   6   7
ENDBRANCH   5   6
ENDBRANCH   3   5
ENDBRANCH   1   2
BRANCH   1  11
ATOM     11  C   UNL     1      20.080 -33.812  20.466  1.00  0.00     0.034 C 
BRANCH  11  12
ATOM     12  C   UNL     1      18.763 -33.057  20.533  1.00  0.00    -0.077 C 
ATOM     13  C   UNL     1      17.615 -33.522  19.987  1.00  0.00    -0.028 C 
ATOM     14  C   UNL     1      18.724 -31.730  21.247  1.00  0.00     0.039 C 
BRANCH  13  15
ATOM     15  C   UNL     1      17.481 -34.784  19.167  1.00  0.00     0.035 C 
BRANCH  15  16
ATOM     16  C   UNL     1      16.832 -35.905  19.985  1.00  0.00     0.079 C 
BRANCH  16  17
ATOM     17  C   UNL     1      17.485 -37.236  19.718  1.00  0.00     0.130 C 
ATOM     18  O   UNL     1      17.546 -37.656  18.573  1.00  0.00    -0.300 OA
ATOM     19  C   UNL     1      18.055 -38.060  20.834  1.00  0.00     0.087 C 
ENDBRANCH  16  17
ENDBRANCH  15  16
ENDBRANCH  13  15
ENDBRANCH  11  12
ENDBRANCH   1  11
TORSDOF 9
ENDMDL
MODEL 7
REMARK VINA RESULT:    -5.151      1.706      3.240
REMARK INTER + INTRA:         -10.173
REMARK INTER:                  -8.086
REMARK INTRA:                  -2.087
REMARK UNBOUND:                -2.312
REMARK SMILES CC(=O)CCC=C(C)CCC=C(C)CCC=C(C)C
REMARK SMILES IDX 10 1 11 2 12 3 13 4 14 5 15 6 16 7 18 8 17 9 19 10 9 11 7 12
REMARK SMILES IDX 6 13 8 14 5 15 4 16 2 17 3 18 1 19
REMARK H PARENT
REMARK Flexibility Score: inf
ROOT
ATOM      1  C   UNL     1      18.034 -31.522  21.935  1.00  0.00     0.032 C 
ENDROOT
BRANCH   1   2
ATOM      2  C   UNL     1      17.132 -32.496  22.656  1.00  0.00    -0.028 C 
ATOM      3  C   UNL     1      17.051 -32.617  24.000  1.00  0.00    -0.077 C 
ATOM      4  C   UNL     1      17.946 -31.828  24.928  1.00  0.00     0.039 C 
BRANCH   3   5
ATOM      5  C   UNL     1      16.053 -33.588  24.590  1.00  0.00     0.034 C 
BRANCH   5   6
ATOM      6  C   UNL     1      14.668 -33.392  23.963  1.00  0.00     0.032 C 
BRANCH   6   7
ATOM      7  C   UNL     1      14.062 -32.083  24.399  1.00  0.00    -0.028 C 
ATOM      8  C   UNL     1      13.636 -31.316  22.053  1.00  0.00     0.039 C 
ATOM      9  C   UNL     1      13.616 -31.129  23.550  1.00  0.00    -0.080 C 
ATOM     10  C   UNL     1      13.063 -29.837  24.094  1.00  0.00     0.039 C 
ENDBRANCH   6   7
ENDBRANCH   5   6
ENDBRANCH   3   5
ENDBRANCH   1   2
BRANCH   1  11
ATOM     11  C   UNL     1      18.319 -31.972  20.494  1.00  0.00     0.034 C 
BRANCH  11  12
ATOM     12  C   UNL     1      19.402 -33.034  20.436  1.00  0.00    -0.077 C 
ATOM     13  C   UNL     1      19.243 -34.221  19.803  1.00  0.00    -0.028 C 
ATOM     14  C   UNL     1      20.725 -32.758  21.104  1.00  0.00     0.039 C 
BRANCH  13  15
ATOM     15  C   UNL     1      17.967 -34.703  19.153  1.00  0.00     0.035 C 
BRANCH  15  16
ATOM     16  C   UNL     1      17.505 -36.029  19.767  1.00  0.00     0.079 C 
BRANCH  16  17
ATOM     17  C   UNL     1      16.895 -35.825  21.129  1.00  0.00     0.130 C 
ATOM     18  O   UNL     1      15.759 -35.385  21.219  1.00  0.00    -0.300 OA
ATOM     19  C   UNL     1      17.659 -36.145  22.379  1.00  0.00     0.087 C 
ENDBRANCH  16  17
ENDBRANCH  15  16
ENDBRANCH  13  15
ENDBRANCH  11  12
ENDBRANCH   1  11
TORSDOF 9
ENDMDL
MODEL 8
REMARK VINA RESULT:    -5.140      2.278      5.383
REMARK INTER + INTRA:         -10.156
REMARK INTER:                  -7.274
REMARK INTRA:                  -2.882
REMARK UNBOUND:                -2.312
REMARK SMILES CC(=O)CCC=C(C)CCC=C(C)CCC=C(C)C
REMARK SMILES IDX 10 1 11 2 12 3 13 4 14 5 15 6 16 7 18 8 17 9 19 10 9 11 7 12
REMARK SMILES IDX 6 13 8 14 5 15 4 16 2 17 3 18 1 19
REMARK H PARENT
REMARK Flexibility Score: inf
ROOT
ATOM      1  C   UNL     1      15.016 -34.004  23.446  1.00  0.00     0.032 C 
ENDROOT
BRANCH   1   2
ATOM      2  C   UNL     1      15.735 -34.801  22.384  1.00  0.00    -0.028 C 
ATOM      3  C   UNL     1      15.563 -34.639  21.053  1.00  0.00    -0.077 C 
ATOM      4  C   UNL     1      14.539 -33.679  20.492  1.00  0.00     0.039 C 
BRANCH   3   5
ATOM      5  C   UNL     1      16.402 -35.460  20.099  1.00  0.00     0.034 C 
BRANCH   5   6
ATOM      6  C   UNL     1      17.198 -34.552  19.155  1.00  0.00     0.032 C 
BRANCH   6   7
ATOM      7  C   UNL     1      18.578 -34.288  19.703  1.00  0.00    -0.028 C 
ATOM      8  C   UNL     1      17.973 -32.016  20.566  1.00  0.00     0.039 C 
ATOM      9  C   UNL     1      18.947 -33.141  20.317  1.00  0.00    -0.080 C 
ATOM     10  C   UNL     1      20.367 -32.966  20.792  1.00  0.00     0.039 C 
ENDBRANCH   6   7
ENDBRANCH   5   6
ENDBRANCH   3   5
ENDBRANCH   1   2
BRANCH   1  11
ATOM     11  C   UNL     1      15.940 -33.667  24.626  1.00  0.00     0.034 C 
BRANCH  11  12
ATOM     12  C   UNL     1      17.003 -32.653  24.242  1.00  0.00    -0.077 C 
ATOM     13  C   UNL     1      18.325 -32.941  24.214  1.00  0.00    -0.028 C 
ATOM     14  C   UNL     1      16.571 -31.258  23.865  1.00  0.00     0.039 C 
BRANCH  13  15
ATOM     15  C   UNL     1      18.947 -34.251  24.637  1.00  0.00     0.035 C 
BRANCH  15  16
ATOM     16  C   UNL     1      19.373 -35.076  23.418  1.00  0.00     0.079 C 
BRANCH  16  17
ATOM     17  C   UNL     1      18.702 -36.425  23.400  1.00  0.00     0.130 C 
ATOM     18  O   UNL     1      18.032 -36.776  24.359  1.00  0.00    -0.300 OA
ATOM     19  C   UNL     1      18.847 -37.351  22.229  1.00  0.00     0.087 C 
ENDBRANCH  16  17
ENDBRANCH  15  16
ENDBRANCH  13  15
ENDBRANCH  11  12
ENDBRANCH   1  11
TORSDOF 9
ENDMDL
MODEL 9
REMARK VINA RESULT:    -5.129      1.574      5.374
REMARK INTER + INTRA:         -10.139
REMARK INTER:                  -7.778
REMARK INTRA:                  -2.360
REMARK UNBOUND:                -2.312
REMARK SMILES CC(=O)CCC=C(C)CCC=C(C)CCC=C(C)C
REMARK SMILES IDX 10 1 11 2 12 3 13 4 14 5 15 6 16 7 18 8 17 9 19 10 9 11 7 12
REMARK SMILES IDX 6 13 8 14 5 15 4 16 2 17 3 18 1 19
REMARK H PARENT
REMARK Flexibility Score: inf
ROOT
ATOM      1  C   UNL     1      13.854 -32.375  21.597  1.00  0.00     0.032 C 
ENDROOT
BRANCH   1   2
ATOM      2  C   UNL     1      14.625 -33.408  20.810  1.00  0.00    -0.028 C 
ATOM      3  C   UNL     1      15.369 -34.394  21.360  1.00  0.00    -0.077 C 
ATOM      4  C   UNL     1      15.575 -34.501  22.853  1.00  0.00     0.039 C 
BRANCH   3   5
ATOM      5  C   UNL     1      16.034 -35.405  20.451  1.00  0.00     0.034 C 
BRANCH   5   6
ATOM      6  C   UNL     1      16.863 -34.702  19.371  1.00  0.00     0.032 C 
BRANCH   6   7
ATOM      7  C   UNL     1      18.303 -34.574  19.798  1.00  0.00    -0.028 C 
ATOM      8  C   UNL     1      18.049 -32.183  20.500  1.00  0.00     0.039 C 
ATOM      9  C   UNL     1      18.856 -33.439  20.284  1.00  0.00    -0.080 C 
ATOM     10  C   UNL     1      20.319 -33.411  20.644  1.00  0.00     0.039 C 
ENDBRANCH   6   7
ENDBRANCH   5   6
ENDBRANCH   3   5
ENDBRANCH   1   2
BRANCH   1  11
ATOM     11  C   UNL     1      14.623 -31.049  21.697  1.00  0.00     0.034 C 
BRANCH  11  12
ATOM     12  C   UNL     1      14.662 -30.523  23.121  1.00  0.00    -0.077 C 
ATOM     13  C   UNL     1      15.787 -30.505  23.874  1.00  0.00    -0.028 C 
ATOM     14  C   UNL     1      13.392 -29.984  23.729  1.00  0.00     0.039 C 
BRANCH  13  15
ATOM     15  C   UNL     1      17.125 -31.075  23.464  1.00  0.00     0.035 C 
BRANCH  15  16
ATOM     16  C   UNL     1      17.664 -32.034  24.531  1.00  0.00     0.079 C 
BRANCH  16  17
ATOM     17  C   UNL     1      18.991 -32.622  24.127  1.00  0.00     0.130 C 
ATOM     18  O   UNL     1      19.914 -31.878  23.833  1.00  0.00    -0.300 OA
ATOM     19  C   UNL     1      19.200 -34.106  24.073  1.00  0.00     0.087 C 
ENDBRANCH  16  17
ENDBRANCH  15  16
ENDBRANCH  13  15
ENDBRANCH  11  12
ENDBRANCH   1  11
TORSDOF 9
ENDMDL
