MODEL 1
REMARK VINA RESULT:    -6.140      0.000      0.000
REMARK INTER + INTRA:          -7.581
REMARK INTER:                  -7.037
REMARK INTRA:                  -0.544
REMARK UNBOUND:                -0.544
REMARK SMILES C=C(C)[C@H]1CC[C@]2(C(=O)[O-])CC[C@]3(C)[C@H](CC[C@@H]4[C@@]5(C)CC[C@@H](O)C(C)(C)[C@H]5CC[C@@]43C)[C@H]12
REMARK SMILES IDX 7 1 6 2 33 3 11 4 5 5 15 6 4 7 12 8 16 9 13 10 17 11 31 12
REMARK SMILES IDX 14 13 18 14 30 15 32 16 19 17 29 18 21 19 20 20 28 21 22 22
REMARK SMILES IDX 25 23 23 24 26 25 27 26 8 27 9 28 10 29 2 30 3 31 1 32 24 33
REMARK H PARENT 24 34
REMARK Flexibility Score: inf
ROOT
ATOM      1  C   UNL     1     -10.632 -26.935 -41.432  1.00  0.00     0.014 C 
ATOM      2  C   UNL     1     -11.013 -27.926 -42.569  1.00  0.00     0.014 C 
ATOM      3  C   UNL     1     -11.935 -26.813 -40.559  1.00  0.00     0.012 C 
ATOM      4  C   UNL     1      -9.369 -27.488 -40.695  1.00  0.00     0.014 C 
ATOM      5  C   UNL     1     -12.526 -27.988 -42.598  1.00  0.00     0.009 C 
ATOM      6  C   UNL     1     -11.739 -26.779 -38.994  1.00  0.00     0.000 C 
ATOM      7  C   UNL     1     -12.954 -27.825 -41.148  1.00  0.00     0.018 C 
ATOM      8  C   UNL     1      -9.291 -27.125 -39.214  1.00  0.00     0.008 C 
ATOM      9  C   UNL     1     -13.027 -27.054 -38.223  1.00  0.00     0.005 C 
ATOM     10  C   UNL     1     -10.542 -27.590 -38.397  1.00  0.00    -0.024 C 
ATOM     11  C   UNL     1     -12.870 -26.669 -36.763  1.00  0.00     0.005 C 
ATOM     12  C   UNL     1     -10.350 -27.296 -36.804  1.00  0.00    -0.024 C 
ATOM     13  C   UNL     1     -10.775 -29.125 -38.619  1.00  0.00     0.012 C 
ATOM     14  C   UNL     1     -11.727 -27.435 -36.003  1.00  0.00     0.002 C 
ATOM     15  C   UNL     1      -9.826 -25.850 -36.552  1.00  0.00     0.008 C 
ATOM     16  C   UNL     1      -9.281 -28.310 -36.261  1.00  0.00     0.012 C 
ATOM     17  C   UNL     1     -11.708 -27.011 -34.442  1.00  0.00    -0.026 C 
ATOM     18  C   UNL     1      -9.740 -25.439 -35.079  1.00  0.00     0.005 C 
ATOM     19  C   UNL     1     -10.962 -28.052 -33.544  1.00  0.00     0.010 C 
ATOM     20  C   UNL     1     -13.196 -27.029 -33.950  1.00  0.00     0.012 C 
ATOM     21  C   UNL     1     -11.054 -25.579 -34.252  1.00  0.00     0.003 C 
ATOM     22  C   UNL     1     -10.828 -27.645 -32.064  1.00  0.00     0.033 C 
ATOM     23  C   UNL     1     -10.823 -25.142 -32.728  1.00  0.00    -0.006 C 
ATOM     24  C   UNL     1     -10.146 -26.280 -31.887  1.00  0.00     0.120 C 
ATOM     25  C   UNL     1     -12.159 -24.720 -32.050  1.00  0.00     0.014 C 
ATOM     26  C   UNL     1      -9.934 -23.863 -32.636  1.00  0.00     0.014 C 
ENDROOT
BRANCH   1  27
ATOM     27  C   UNL     1     -10.295 -25.557 -42.001  1.00  0.00     0.048 C 
ATOM     28  O   UNL     1     -10.678 -25.212 -43.153  1.00  0.00    -0.550 OA
ATOM     29  O   UNL     1      -9.636 -24.624 -41.212  1.00  0.00    -0.550 OA
ENDBRANCH   1  27
BRANCH   7  30
ATOM     30  C   UNL     1     -14.430 -27.431 -41.075  1.00  0.00    -0.077 C 
ATOM     31  C   UNL     1     -14.897 -26.036 -41.437  1.00  0.00     0.039 C 
ATOM     32  C   UNL     1     -15.350 -28.390 -40.859  1.00  0.00     0.008 C 
ENDBRANCH   7  30
BRANCH  24  33
ATOM     33  O   UNL     1      -8.785 -26.420 -32.219  1.00  0.00    -0.393 OA
ATOM     34  H   UNL     1      -8.648 -26.038 -33.124  1.00  0.00     0.210 HD
ENDBRANCH  24  33
TORSDOF 3
ENDMDL
MODEL 2
REMARK VINA RESULT:    -6.093      5.427     11.709
REMARK INTER + INTRA:          -7.527
REMARK INTER:                  -6.898
REMARK INTRA:                  -0.629
REMARK UNBOUND:                -0.544
REMARK SMILES C=C(C)[C@H]1CC[C@]2(C(=O)[O-])CC[C@]3(C)[C@H](CC[C@@H]4[C@@]5(C)CC[C@@H](O)C(C)(C)[C@H]5CC[C@@]43C)[C@H]12
REMARK SMILES IDX 7 1 6 2 33 3 11 4 5 5 15 6 4 7 12 8 16 9 13 10 17 11 31 12
REMARK SMILES IDX 14 13 18 14 30 15 32 16 19 17 29 18 21 19 20 20 28 21 22 22
REMARK SMILES IDX 25 23 23 24 26 25 27 26 8 27 9 28 10 29 2 30 3 31 1 32 24 33
REMARK H PARENT 24 34
REMARK Flexibility Score: inf
ROOT
ATOM      1  C   UNL     1     -14.547 -24.609 -41.794  1.00  0.00     0.014 C 
ATOM      2  C   UNL     1     -14.190 -25.236 -40.416  1.00  0.00     0.014 C 
ATOM      3  C   UNL     1     -13.319 -24.952 -42.715  1.00  0.00     0.012 C 
ATOM      4  C   UNL     1     -15.925 -25.182 -42.256  1.00  0.00     0.014 C 
ATOM      5  C   UNL     1     -12.698 -25.498 -40.435  1.00  0.00     0.009 C 
ATOM      6  C   UNL     1     -13.644 -25.384 -44.198  1.00  0.00     0.000 C 
ATOM      7  C   UNL     1     -12.381 -25.861 -41.878  1.00  0.00     0.018 C 
ATOM      8  C   UNL     1     -16.088 -25.295 -43.771  1.00  0.00     0.008 C 
ATOM      9  C   UNL     1     -12.470 -26.065 -44.895  1.00  0.00     0.005 C 
ATOM     10  C   UNL     1     -14.977 -26.165 -44.448  1.00  0.00    -0.024 C 
ATOM     11  C   UNL     1     -12.706 -26.140 -46.393  1.00  0.00     0.005 C 
ATOM     12  C   UNL     1     -15.270 -26.362 -46.041  1.00  0.00    -0.024 C 
ATOM     13  C   UNL     1     -14.910 -27.569 -43.753  1.00  0.00     0.012 C 
ATOM     14  C   UNL     1     -13.993 -26.937 -46.813  1.00  0.00     0.002 C 
ATOM     15  C   UNL     1     -15.637 -25.009 -46.723  1.00  0.00     0.008 C 
ATOM     16  C   UNL     1     -16.495 -27.334 -46.180  1.00  0.00     0.012 C 
ATOM     17  C   UNL     1     -14.098 -27.027 -48.426  1.00  0.00    -0.026 C 
ATOM     18  C   UNL     1     -15.801 -25.074 -48.244  1.00  0.00     0.005 C 
ATOM     19  C   UNL     1     -15.038 -28.181 -48.906  1.00  0.00     0.010 C 
ATOM     20  C   UNL     1     -12.670 -27.407 -48.950  1.00  0.00     0.012 C 
ATOM     21  C   UNL     1     -14.590 -25.650 -49.039  1.00  0.00     0.003 C 
ATOM     22  C   UNL     1     -15.249 -28.245 -50.430  1.00  0.00     0.033 C 
ATOM     23  C   UNL     1     -14.899 -25.685 -50.610  1.00  0.00    -0.006 C 
ATOM     24  C   UNL     1     -15.777 -26.922 -51.008  1.00  0.00     0.120 C 
ATOM     25  C   UNL     1     -13.586 -25.690 -51.446  1.00  0.00     0.014 C 
ATOM     26  C   UNL     1     -15.633 -24.388 -51.071  1.00  0.00     0.014 C 
ENDROOT
BRANCH   1  27
ATOM     27  C   UNL     1     -14.667 -23.089 -41.686  1.00  0.00     0.048 C 
ATOM     28  O   UNL     1     -14.930 -22.379 -42.695  1.00  0.00    -0.550 OA
ATOM     29  O   UNL     1     -14.579 -22.475 -40.444  1.00  0.00    -0.550 OA
ENDBRANCH   1  27
BRANCH   7  30
ATOM     30  C   UNL     1     -10.881 -25.722 -42.139  1.00  0.00    -0.077 C 
ATOM     31  C   UNL     1     -10.000 -26.934 -42.364  1.00  0.00     0.039 C 
ATOM     32  C   UNL     1     -10.367 -24.496 -42.351  1.00  0.00     0.008 C 
ENDBRANCH   7  30
BRANCH  24  33
ATOM     33  O   UNL     1     -17.111 -26.758 -50.589  1.00  0.00    -0.393 OA
ATOM     34  H   UNL     1     -17.692 -27.272 -51.207  1.00  0.00     0.210 HD
ENDBRANCH  24  33
TORSDOF 3
ENDMDL
MODEL 3
REMARK VINA RESULT:    -5.919      4.740      8.665
REMARK INTER + INTRA:          -7.327
REMARK INTER:                  -6.877
REMARK INTRA:                  -0.450
REMARK UNBOUND:                -0.544
REMARK SMILES C=C(C)[C@H]1CC[C@]2(C(=O)[O-])CC[C@]3(C)[C@H](CC[C@@H]4[C@@]5(C)CC[C@@H](O)C(C)(C)[C@H]5CC[C@@]43C)[C@H]12
REMARK SMILES IDX 7 1 6 2 33 3 11 4 5 5 15 6 4 7 12 8 16 9 13 10 17 11 31 12
REMARK SMILES IDX 14 13 18 14 30 15 32 16 19 17 29 18 21 19 20 20 28 21 22 22
REMARK SMILES IDX 25 23 23 24 26 25 27 26 8 27 9 28 10 29 2 30 3 31 1 32 24 33
REMARK H PARENT 24 34
REMARK Flexibility Score: inf
ROOT
ATOM      1  C   UNL     1     -15.598 -20.640 -38.946  1.00  0.00     0.014 C 
ATOM      2  C   UNL     1     -16.896 -20.117 -38.267  1.00  0.00     0.014 C 
ATOM      3  C   UNL     1     -15.384 -22.075 -38.339  1.00  0.00     0.012 C 
ATOM      4  C   UNL     1     -15.791 -20.579 -40.496  1.00  0.00     0.014 C 
ATOM      5  C   UNL     1     -17.125 -20.987 -37.048  1.00  0.00     0.009 C 
ATOM      6  C   UNL     1     -14.903 -23.202 -39.334  1.00  0.00     0.000 C 
ATOM      7  C   UNL     1     -16.620 -22.364 -37.448  1.00  0.00     0.018 C 
ATOM      8  C   UNL     1     -15.032 -21.654 -41.271  1.00  0.00     0.008 C 
ATOM      9  C   UNL     1     -15.094 -24.611 -38.781  1.00  0.00     0.005 C 
ATOM     10  C   UNL     1     -15.388 -23.109 -40.820  1.00  0.00    -0.024 C 
ATOM     11  C   UNL     1     -14.312 -25.619 -39.603  1.00  0.00     0.005 C 
ATOM     12  C   UNL     1     -14.653 -24.219 -41.763  1.00  0.00    -0.024 C 
ATOM     13  C   UNL     1     -16.941 -23.316 -40.886  1.00  0.00     0.012 C 
ATOM     14  C   UNL     1     -14.715 -25.681 -41.121  1.00  0.00     0.002 C 
ATOM     15  C   UNL     1     -13.145 -23.880 -41.967  1.00  0.00     0.008 C 
ATOM     16  C   UNL     1     -15.360 -24.190 -43.165  1.00  0.00     0.012 C 
ATOM     17  C   UNL     1     -13.883 -26.845 -41.877  1.00  0.00    -0.026 C 
ATOM     18  C   UNL     1     -12.342 -24.936 -42.733  1.00  0.00     0.005 C 
ATOM     19  C   UNL     1     -14.553 -27.292 -43.217  1.00  0.00     0.010 C 
ATOM     20  C   UNL     1     -13.925 -28.107 -40.948  1.00  0.00     0.012 C 
ATOM     21  C   UNL     1     -12.391 -26.383 -42.157  1.00  0.00     0.003 C 
ATOM     22  C   UNL     1     -13.747 -28.327 -44.025  1.00  0.00     0.033 C 
ATOM     23  C   UNL     1     -11.533 -27.391 -43.059  1.00  0.00    -0.006 C 
ATOM     24  C   UNL     1     -12.320 -27.849 -44.336  1.00  0.00     0.120 C 
ATOM     25  C   UNL     1     -11.088 -28.642 -42.247  1.00  0.00     0.014 C 
ATOM     26  C   UNL     1     -10.190 -26.739 -43.512  1.00  0.00     0.014 C 
ENDROOT
BRANCH   1  27
ATOM     27  C   UNL     1     -14.399 -19.768 -38.574  1.00  0.00     0.048 C 
ATOM     28  O   UNL     1     -13.592 -20.116 -37.668  1.00  0.00    -0.550 OA
ATOM     29  O   UNL     1     -14.129 -18.616 -39.299  1.00  0.00    -0.550 OA
ENDBRANCH   1  27
BRANCH   7  30
ATOM     30  C   UNL     1     -16.382 -23.220 -36.203  1.00  0.00    -0.077 C 
ATOM     31  C   UNL     1     -15.719 -22.651 -34.965  1.00  0.00     0.039 C 
ATOM     32  C   UNL     1     -16.934 -24.446 -36.140  1.00  0.00     0.008 C 
ENDBRANCH   7  30
BRANCH  24  33
ATOM     33  O   UNL     1     -12.398 -26.813 -45.287  1.00  0.00    -0.393 OA
ATOM     34  H   UNL     1     -11.563 -26.823 -45.822  1.00  0.00     0.210 HD
ENDBRANCH  24  33
TORSDOF 3
ENDMDL
MODEL 4
REMARK VINA RESULT:    -5.884      2.116      8.037
REMARK INTER + INTRA:          -7.288
REMARK INTER:                  -7.548
REMARK INTRA:                   0.260
REMARK UNBOUND:                -0.544
REMARK SMILES C=C(C)[C@H]1CC[C@]2(C(=O)[O-])CC[C@]3(C)[C@H](CC[C@@H]4[C@@]5(C)CC[C@@H](O)C(C)(C)[C@H]5CC[C@@]43C)[C@H]12
REMARK SMILES IDX 7 1 6 2 33 3 11 4 5 5 15 6 4 7 12 8 16 9 13 10 17 11 31 12
REMARK SMILES IDX 14 13 18 14 30 15 32 16 19 17 29 18 21 19 20 20 28 21 22 22
REMARK SMILES IDX 25 23 23 24 26 25 27 26 8 27 9 28 10 29 2 30 3 31 1 32 24 33
REMARK H PARENT 24 34
REMARK Flexibility Score: inf
ROOT
ATOM      1  C   UNL     1     -11.379 -27.149 -35.138  1.00  0.00     0.014 C 
ATOM      2  C   UNL     1     -10.701 -28.222 -34.238  1.00  0.00     0.014 C 
ATOM      3  C   UNL     1     -10.276 -26.757 -36.187  1.00  0.00     0.012 C 
ATOM      4  C   UNL     1     -12.694 -27.755 -35.727  1.00  0.00     0.014 C 
ATOM      5  C   UNL     1      -9.210 -28.099 -34.471  1.00  0.00     0.009 C 
ATOM      6  C   UNL     1     -10.755 -26.547 -37.676  1.00  0.00     0.000 C 
ATOM      7  C   UNL     1      -9.071 -27.701 -35.932  1.00  0.00     0.018 C 
ATOM      8  C   UNL     1     -13.076 -27.219 -37.105  1.00  0.00     0.008 C 
ATOM      9  C   UNL     1      -9.608 -26.561 -38.682  1.00  0.00     0.005 C 
ATOM     10  C   UNL     1     -11.955 -27.418 -38.179  1.00  0.00    -0.024 C 
ATOM     11  C   UNL     1     -10.065 -26.015 -40.023  1.00  0.00     0.005 C 
ATOM     12  C   UNL     1     -12.461 -26.949 -39.657  1.00  0.00    -0.024 C 
ATOM     13  C   UNL     1     -11.533 -28.927 -38.227  1.00  0.00     0.012 C 
ATOM     14  C   UNL     1     -11.245 -26.813 -40.687  1.00  0.00     0.002 C 
ATOM     15  C   UNL     1     -13.163 -25.559 -39.602  1.00  0.00     0.008 C 
ATOM     16  C   UNL     1     -13.505 -28.010 -40.157  1.00  0.00     0.012 C 
ATOM     17  C   UNL     1     -11.590 -26.200 -42.144  1.00  0.00    -0.026 C 
ATOM     18  C   UNL     1     -13.555 -24.977 -40.964  1.00  0.00     0.005 C 
ATOM     19  C   UNL     1     -12.380 -27.202 -43.048  1.00  0.00     0.010 C 
ATOM     20  C   UNL     1     -10.222 -25.971 -42.873  1.00  0.00     0.012 C 
ATOM     21  C   UNL     1     -12.407 -24.847 -42.009  1.00  0.00     0.003 C 
ATOM     22  C   UNL     1     -12.820 -26.630 -44.409  1.00  0.00     0.033 C 
ATOM     23  C   UNL     1     -12.953 -24.252 -43.392  1.00  0.00    -0.006 C 
ATOM     24  C   UNL     1     -13.655 -25.348 -44.267  1.00  0.00     0.120 C 
ATOM     25  C   UNL     1     -11.812 -23.584 -44.213  1.00  0.00     0.014 C 
ATOM     26  C   UNL     1     -13.967 -23.091 -43.146  1.00  0.00     0.014 C 
ENDROOT
BRANCH   1  27
ATOM     27  C   UNL     1     -11.743 -25.907 -34.324  1.00  0.00     0.048 C 
ATOM     28  O   UNL     1     -12.910 -25.734 -33.878  1.00  0.00    -0.550 OA
ATOM     29  O   UNL     1     -10.758 -24.990 -33.982  1.00  0.00    -0.550 OA
ENDBRANCH   1  27
BRANCH   7  30
ATOM     30  C   UNL     1      -7.680 -27.122 -36.191  1.00  0.00    -0.077 C 
ATOM     31  C   UNL     1      -7.488 -25.839 -36.974  1.00  0.00     0.039 C 
ATOM     32  C   UNL     1      -6.621 -27.662 -35.558  1.00  0.00     0.008 C 
ENDBRANCH   7  30
BRANCH  24  33
ATOM     33  O   UNL     1     -14.913 -25.696 -43.737  1.00  0.00    -0.393 OA
ATOM     34  H   UNL     1     -15.057 -26.664 -43.901  1.00  0.00     0.210 HD
ENDBRANCH  24  33
TORSDOF 3
ENDMDL
MODEL 5
REMARK VINA RESULT:    -5.681      5.391     11.402
REMARK INTER + INTRA:          -7.055
REMARK INTER:                  -6.954
REMARK INTRA:                  -0.101
REMARK UNBOUND:                -0.544
REMARK SMILES C=C(C)[C@H]1CC[C@]2(C(=O)[O-])CC[C@]3(C)[C@H](CC[C@@H]4[C@@]5(C)CC[C@@H](O)C(C)(C)[C@H]5CC[C@@]43C)[C@H]12
REMARK SMILES IDX 7 1 6 2 33 3 11 4 5 5 15 6 4 7 12 8 16 9 13 10 17 11 31 12
REMARK SMILES IDX 14 13 18 14 30 15 32 16 19 17 29 18 21 19 20 20 28 21 22 22
REMARK SMILES IDX 25 23 23 24 26 25 27 26 8 27 9 28 10 29 2 30 3 31 1 32 24 33
REMARK H PARENT 24 34
REMARK Flexibility Score: inf
ROOT
ATOM      1  C   UNL     1     -10.904 -26.505 -42.196  1.00  0.00     0.014 C 
ATOM      2  C   UNL     1     -10.251 -27.393 -41.099  1.00  0.00     0.014 C 
ATOM      3  C   UNL     1     -10.201 -26.945 -43.532  1.00  0.00     0.012 C 
ATOM      4  C   UNL     1     -12.452 -26.709 -42.142  1.00  0.00     0.014 C 
ATOM      5  C   UNL     1      -8.973 -27.946 -41.696  1.00  0.00     0.009 C 
ATOM      6  C   UNL     1     -11.121 -27.071 -44.808  1.00  0.00     0.000 C 
ATOM      7  C   UNL     1      -9.281 -28.141 -43.172  1.00  0.00     0.018 C 
ATOM      8  C   UNL     1     -13.158 -26.555 -43.487  1.00  0.00     0.008 C 
ATOM      9  C   UNL     1     -10.470 -27.862 -45.940  1.00  0.00     0.005 C 
ATOM     10  C   UNL     1     -12.604 -27.518 -44.590  1.00  0.00    -0.024 C 
ATOM     11  C   UNL     1     -11.227 -27.658 -47.240  1.00  0.00     0.005 C 
ATOM     12  C   UNL     1     -13.476 -27.407 -45.964  1.00  0.00    -0.024 C 
ATOM     13  C   UNL     1     -12.643 -28.995 -44.066  1.00  0.00     0.012 C 
ATOM     14  C   UNL     1     -12.734 -28.104 -47.197  1.00  0.00     0.002 C 
ATOM     15  C   UNL     1     -13.716 -25.920 -46.365  1.00  0.00     0.008 C 
ATOM     16  C   UNL     1     -14.870 -28.078 -45.695  1.00  0.00     0.012 C 
ATOM     17  C   UNL     1     -13.415 -27.924 -48.653  1.00  0.00    -0.026 C 
ATOM     18  C   UNL     1     -14.414 -25.718 -47.714  1.00  0.00     0.005 C 
ATOM     19  C   UNL     1     -14.716 -28.777 -48.820  1.00  0.00     0.010 C 
ATOM     20  C   UNL     1     -12.402 -28.502 -49.700  1.00  0.00     0.012 C 
ATOM     21  C   UNL     1     -13.739 -26.399 -48.942  1.00  0.00     0.003 C 
ATOM     22  C   UNL     1     -15.458 -28.564 -50.153  1.00  0.00     0.033 C 
ATOM     23  C   UNL     1     -14.578 -26.132 -50.281  1.00  0.00    -0.006 C 
ATOM     24  C   UNL     1     -15.814 -27.090 -50.400  1.00  0.00     0.120 C 
ATOM     25  C   UNL     1     -13.686 -26.274 -51.548  1.00  0.00     0.014 C 
ATOM     26  C   UNL     1     -15.086 -24.657 -50.343  1.00  0.00     0.014 C 
ENDROOT
BRANCH   1  27
ATOM     27  C   UNL     1     -10.602 -25.026 -41.949  1.00  0.00     0.048 C 
ATOM     28  O   UNL     1     -10.082 -24.635 -40.868  1.00  0.00    -0.550 OA
ATOM     29  O   UNL     1     -10.814 -24.099 -42.960  1.00  0.00    -0.550 OA
ENDBRANCH   1  27
BRANCH   7  30
ATOM     30  C   UNL     1      -7.983 -28.271 -43.969  1.00  0.00    -0.077 C 
ATOM     31  C   UNL     1      -6.696 -27.622 -43.499  1.00  0.00     0.039 C 
ATOM     32  C   UNL     1      -7.939 -29.125 -45.008  1.00  0.00     0.008 C 
ENDBRANCH   7  30
BRANCH  24  33
ATOM     33  O   UNL     1     -16.833 -26.724 -49.500  1.00  0.00    -0.393 OA
ATOM     34  H   UNL     1     -16.451 -26.732 -48.585  1.00  0.00     0.210 HD
ENDBRANCH  24  33
TORSDOF 3
ENDMDL
MODEL 6
REMARK VINA RESULT:    -5.300      5.248     11.308
REMARK INTER + INTRA:          -6.618
REMARK INTER:                  -5.911
REMARK INTRA:                  -0.707
REMARK UNBOUND:                -0.544
REMARK SMILES C=C(C)[C@H]1CC[C@]2(C(=O)[O-])CC[C@]3(C)[C@H](CC[C@@H]4[C@@]5(C)CC[C@@H](O)C(C)(C)[C@H]5CC[C@@]43C)[C@H]12
REMARK SMILES IDX 7 1 6 2 33 3 11 4 5 5 15 6 4 7 12 8 16 9 13 10 17 11 31 12
REMARK SMILES IDX 14 13 18 14 30 15 32 16 19 17 29 18 21 19 20 20 28 21 22 22
REMARK SMILES IDX 25 23 23 24 26 25 27 26 8 27 9 28 10 29 2 30 3 31 1 32 24 33
REMARK H PARENT 24 34
REMARK Flexibility Score: inf
ROOT
ATOM      1  C   UNL     1     -12.543 -25.871 -41.587  1.00  0.00     0.014 C 
ATOM      2  C   UNL     1     -12.092 -24.793 -40.561  1.00  0.00     0.014 C 
ATOM      3  C   UNL     1     -13.890 -25.315 -42.179  1.00  0.00     0.012 C 
ATOM      4  C   UNL     1     -11.388 -26.091 -42.616  1.00  0.00     0.014 C 
ATOM      5  C   UNL     1     -13.309 -23.941 -40.266  1.00  0.00     0.009 C 
ATOM      6  C   UNL     1     -14.111 -25.496 -43.731  1.00  0.00     0.000 C 
ATOM      7  C   UNL     1     -14.085 -23.900 -41.573  1.00  0.00     0.018 C 
ATOM      8  C   UNL     1     -11.853 -26.487 -44.015  1.00  0.00     0.008 C 
ATOM      9  C   UNL     1     -15.220 -24.608 -44.287  1.00  0.00     0.005 C 
ATOM     10  C   UNL     1     -12.846 -25.458 -44.651  1.00  0.00    -0.024 C 
ATOM     11  C   UNL     1     -15.626 -25.064 -45.676  1.00  0.00     0.005 C 
ATOM     12  C   UNL     1     -13.208 -25.859 -46.190  1.00  0.00    -0.024 C 
ATOM     13  C   UNL     1     -12.209 -24.025 -44.622  1.00  0.00     0.012 C 
ATOM     14  C   UNL     1     -14.467 -25.040 -46.738  1.00  0.00     0.002 C 
ATOM     15  C   UNL     1     -13.565 -27.371 -46.314  1.00  0.00     0.008 C 
ATOM     16  C   UNL     1     -11.933 -25.579 -47.064  1.00  0.00     0.012 C 
ATOM     17  C   UNL     1     -15.030 -25.459 -48.196  1.00  0.00    -0.026 C 
ATOM     18  C   UNL     1     -14.046 -27.811 -47.700  1.00  0.00     0.005 C 
ATOM     19  C   UNL     1     -14.093 -24.997 -49.360  1.00  0.00     0.010 C 
ATOM     20  C   UNL     1     -16.371 -24.674 -48.404  1.00  0.00     0.012 C 
ATOM     21  C   UNL     1     -15.258 -27.026 -48.286  1.00  0.00     0.003 C 
ATOM     22  C   UNL     1     -14.535 -25.460 -50.761  1.00  0.00     0.033 C 
ATOM     23  C   UNL     1     -15.644 -27.567 -49.743  1.00  0.00    -0.006 C 
ATOM     24  C   UNL     1     -14.702 -26.985 -50.854  1.00  0.00     0.120 C 
ATOM     25  C   UNL     1     -17.125 -27.242 -50.095  1.00  0.00     0.014 C 
ATOM     26  C   UNL     1     -15.576 -29.125 -49.803  1.00  0.00     0.014 C 
ENDROOT
BRANCH   1  27
ATOM     27  C   UNL     1     -12.829 -27.201 -40.890  1.00  0.00     0.048 C 
ATOM     28  O   UNL     1     -11.979 -27.736 -40.126  1.00  0.00    -0.550 OA
ATOM     29  O   UNL     1     -14.078 -27.794 -41.015  1.00  0.00    -0.550 OA
ENDBRANCH   1  27
BRANCH   7  30
ATOM     30  C   UNL     1     -15.526 -23.458 -41.316  1.00  0.00    -0.077 C 
ATOM     31  C   UNL     1     -16.608 -24.453 -40.948  1.00  0.00     0.039 C 
ATOM     32  C   UNL     1     -15.800 -22.142 -41.238  1.00  0.00     0.008 C 
ENDBRANCH   7  30
BRANCH  24  33
ATOM     33  O   UNL     1     -13.424 -27.573 -50.800  1.00  0.00    -0.393 OA
ATOM     34  H   UNL     1     -12.751 -26.845 -50.782  1.00  0.00     0.210 HD
ENDBRANCH  24  33
TORSDOF 3
ENDMDL
MODEL 7
REMARK VINA RESULT:    -5.115      5.656      7.177
REMARK INTER + INTRA:          -6.406
REMARK INTER:                  -6.048
REMARK INTRA:                  -0.358
REMARK UNBOUND:                -0.544
REMARK SMILES C=C(C)[C@H]1CC[C@]2(C(=O)[O-])CC[C@]3(C)[C@H](CC[C@@H]4[C@@]5(C)CC[C@@H](O)C(C)(C)[C@H]5CC[C@@]43C)[C@H]12
REMARK SMILES IDX 7 1 6 2 33 3 11 4 5 5 15 6 4 7 12 8 16 9 13 10 17 11 31 12
REMARK SMILES IDX 14 13 18 14 30 15 32 16 19 17 29 18 21 19 20 20 28 21 22 22
REMARK SMILES IDX 25 23 23 24 26 25 27 26 8 27 9 28 10 29 2 30 3 31 1 32 24 33
REMARK H PARENT 24 34
REMARK Flexibility Score: inf
ROOT
ATOM      1  C   UNL     1     -13.064 -27.483 -44.677  1.00  0.00     0.014 C 
ATOM      2  C   UNL     1     -13.633 -28.585 -45.617  1.00  0.00     0.014 C 
ATOM      3  C   UNL     1     -13.859 -26.183 -45.063  1.00  0.00     0.012 C 
ATOM      4  C   UNL     1     -13.221 -27.964 -43.199  1.00  0.00     0.014 C 
ATOM      5  C   UNL     1     -14.347 -27.864 -46.742  1.00  0.00     0.009 C 
ATOM      6  C   UNL     1     -14.311 -25.249 -43.874  1.00  0.00     0.000 C 
ATOM      7  C   UNL     1     -14.929 -26.614 -46.102  1.00  0.00     0.018 C 
ATOM      8  C   UNL     1     -13.425 -26.839 -42.186  1.00  0.00     0.008 C 
ATOM      9  C   UNL     1     -15.389 -24.246 -44.276  1.00  0.00     0.005 C 
ATOM     10  C   UNL     1     -14.659 -25.932 -42.510  1.00  0.00    -0.024 C 
ATOM     11  C   UNL     1     -15.532 -23.163 -43.222  1.00  0.00     0.005 C 
ATOM     12  C   UNL     1     -14.910 -24.832 -41.332  1.00  0.00    -0.024 C 
ATOM     13  C   UNL     1     -15.939 -26.823 -42.671  1.00  0.00     0.012 C 
ATOM     14  C   UNL     1     -15.926 -23.687 -41.794  1.00  0.00     0.002 C 
ATOM     15  C   UNL     1     -13.583 -24.121 -40.928  1.00  0.00     0.008 C 
ATOM     16  C   UNL     1     -15.461 -25.599 -40.077  1.00  0.00     0.012 C 
ATOM     17  C   UNL     1     -16.136 -22.446 -40.777  1.00  0.00    -0.026 C 
ATOM     18  C   UNL     1     -13.742 -22.978 -39.920  1.00  0.00     0.005 C 
ATOM     19  C   UNL     1     -16.981 -22.833 -39.519  1.00  0.00     0.010 C 
ATOM     20  C   UNL     1     -16.990 -21.377 -41.540  1.00  0.00     0.012 C 
ATOM     21  C   UNL     1     -14.740 -21.849 -40.316  1.00  0.00     0.003 C 
ATOM     22  C   UNL     1     -17.124 -21.713 -38.472  1.00  0.00     0.033 C 
ATOM     23  C   UNL     1     -14.831 -20.733 -39.171  1.00  0.00    -0.006 C 
ATOM     24  C   UNL     1     -15.766 -21.177 -37.992  1.00  0.00     0.120 C 
ATOM     25  C   UNL     1     -15.325 -19.372 -39.742  1.00  0.00     0.014 C 
ATOM     26  C   UNL     1     -13.421 -20.407 -38.588  1.00  0.00     0.014 C 
ENDROOT
BRANCH   1  27
ATOM     27  C   UNL     1     -11.579 -27.247 -44.953  1.00  0.00     0.048 C 
ATOM     28  O   UNL     1     -10.938 -27.976 -45.760  1.00  0.00    -0.550 OA
ATOM     29  O   UNL     1     -10.934 -26.158 -44.384  1.00  0.00    -0.550 OA
ENDBRANCH   1  27
BRANCH   7  30
ATOM     30  C   UNL     1     -15.289 -25.590 -47.178  1.00  0.00    -0.077 C 
ATOM     31  C   UNL     1     -14.378 -25.328 -48.361  1.00  0.00     0.039 C 
ATOM     32  C   UNL     1     -16.520 -25.044 -47.172  1.00  0.00     0.008 C 
ENDBRANCH   7  30
BRANCH  24  33
ATOM     33  O   UNL     1     -15.155 -22.167 -37.200  1.00  0.00    -0.393 OA
ATOM     34  H   UNL     1     -15.785 -22.928 -37.120  1.00  0.00     0.210 HD
ENDBRANCH  24  33
TORSDOF 3
ENDMDL
MODEL 8
REMARK VINA RESULT:    -4.958      3.699      9.566
REMARK INTER + INTRA:          -6.226
REMARK INTER:                  -5.520
REMARK INTRA:                  -0.706
REMARK UNBOUND:                -0.544
REMARK SMILES C=C(C)[C@H]1CC[C@]2(C(=O)[O-])CC[C@]3(C)[C@H](CC[C@@H]4[C@@]5(C)CC[C@@H](O)C(C)(C)[C@H]5CC[C@@]43C)[C@H]12
REMARK SMILES IDX 7 1 6 2 33 3 11 4 5 5 15 6 4 7 12 8 16 9 13 10 17 11 31 12
REMARK SMILES IDX 14 13 18 14 30 15 32 16 19 17 29 18 21 19 20 20 28 21 22 22
REMARK SMILES IDX 25 23 23 24 26 25 27 26 8 27 9 28 10 29 2 30 3 31 1 32 24 33
REMARK H PARENT 24 34
REMARK Flexibility Score: inf
ROOT
ATOM      1  C   UNL     1      -9.925 -26.796 -40.689  1.00  0.00     0.014 C 
ATOM      2  C   UNL     1      -9.654 -26.192 -39.281  1.00  0.00     0.014 C 
ATOM      3  C   UNL     1     -11.411 -27.306 -40.623  1.00  0.00     0.012 C 
ATOM      4  C   UNL     1      -9.629 -25.700 -41.763  1.00  0.00     0.014 C 
ATOM      5  C   UNL     1     -10.732 -26.735 -38.365  1.00  0.00     0.009 C 
ATOM      6  C   UNL     1     -12.304 -27.056 -41.899  1.00  0.00     0.000 C 
ATOM      7  C   UNL     1     -11.966 -26.863 -39.243  1.00  0.00     0.018 C 
ATOM      8  C   UNL     1     -10.480 -25.807 -43.027  1.00  0.00     0.008 C 
ATOM      9  C   UNL     1     -13.797 -27.213 -41.626  1.00  0.00     0.005 C 
ATOM     10  C   UNL     1     -12.018 -25.769 -42.742  1.00  0.00    -0.024 C 
ATOM     11  C   UNL     1     -14.572 -27.311 -42.928  1.00  0.00     0.005 C 
ATOM     12  C   UNL     1     -12.876 -25.754 -44.129  1.00  0.00    -0.024 C 
ATOM     13  C   UNL     1     -12.366 -24.493 -41.899  1.00  0.00     0.012 C 
ATOM     14  C   UNL     1     -14.424 -26.065 -43.874  1.00  0.00     0.002 C 
ATOM     15  C   UNL     1     -12.358 -26.831 -45.129  1.00  0.00     0.008 C 
ATOM     16  C   UNL     1     -12.689 -24.339 -44.785  1.00  0.00     0.012 C 
ATOM     17  C   UNL     1     -15.356 -26.239 -45.185  1.00  0.00    -0.026 C 
ATOM     18  C   UNL     1     -13.188 -26.979 -46.408  1.00  0.00     0.005 C 
ATOM     19  C   UNL     1     -15.642 -24.882 -45.906  1.00  0.00     0.010 C 
ATOM     20  C   UNL     1     -16.752 -26.745 -44.681  1.00  0.00     0.012 C 
ATOM     21  C   UNL     1     -14.707 -27.261 -46.210  1.00  0.00     0.003 C 
ATOM     22  C   UNL     1     -16.443 -25.007 -47.216  1.00  0.00     0.033 C 
ATOM     23  C   UNL     1     -15.461 -27.369 -47.619  1.00  0.00    -0.006 C 
ATOM     24  C   UNL     1     -15.779 -25.958 -48.225  1.00  0.00     0.120 C 
ATOM     25  C   UNL     1     -16.777 -28.191 -47.497  1.00  0.00     0.014 C 
ATOM     26  C   UNL     1     -14.611 -28.172 -48.653  1.00  0.00     0.014 C 
ENDROOT
BRANCH   1  27
ATOM     27  C   UNL     1      -9.009 -27.991 -40.953  1.00  0.00     0.048 C 
ATOM     28  O   UNL     1      -9.251 -29.125 -40.454  1.00  0.00    -0.550 OA
ATOM     29  O   UNL     1      -7.942 -27.865 -41.831  1.00  0.00    -0.550 OA
ENDBRANCH   1  27
BRANCH   7  30
ATOM     30  C   UNL     1     -12.987 -27.792 -38.585  1.00  0.00    -0.077 C 
ATOM     31  C   UNL     1     -14.274 -27.261 -37.988  1.00  0.00     0.039 C 
ATOM     32  C   UNL     1     -12.824 -29.124 -38.699  1.00  0.00     0.008 C 
ENDBRANCH   7  30
BRANCH  24  33
ATOM     33  O   UNL     1     -14.614 -25.338 -48.716  1.00  0.00    -0.393 OA
ATOM     34  H   UNL     1     -13.852 -25.625 -48.151  1.00  0.00     0.210 HD
ENDBRANCH  24  33
TORSDOF 3
ENDMDL
