MODEL 1
REMARK VINA RESULT:    -2.888      0.000      0.000
REMARK INTER + INTRA:          -3.778
REMARK INTER:                  -4.408
REMARK INTRA:                   0.629
REMARK UNBOUND:                 0.629
REMARK SMILES CC1=CCC[C@@H](C)C(=O)C[C@H](C(C)C)C(=O)C1
REMARK SMILES IDX 8 1 9 2 6 3 7 4 5 5 4 6 3 7 2 8 1 9 10 11 11 12 15 13 16 14
REMARK SMILES IDX 17 15 12 17 13 18 14 19
REMARK H PARENT
REMARK Flexibility Score: 70.00
ROOT
ATOM      1  C   UNL     1      10.934  10.636   1.404  1.00  0.00     0.136 C 
ATOM      2  O   UNL     1      10.455  11.572   2.028  1.00  0.00    -0.299 OA
ENDROOT
BRANCH   1   3
ATOM      3  C   UNL     1      10.182  10.151   0.166  1.00  0.00     0.053 C 
ATOM      4  C   UNL     1       9.364   8.862   0.360  1.00  0.00     0.016 C 
BRANCH   3   5
ATOM      5  C   UNL     1      11.106  10.069  -1.080  1.00  0.00     0.015 C 
BRANCH   5   6
ATOM      6  C   UNL     1      12.347   9.174  -0.926  1.00  0.00     0.028 C 
BRANCH   6   7
ATOM      7  C   UNL     1      11.991   7.709  -0.916  1.00  0.00    -0.028 C 
ATOM      8  C   UNL     1      12.303   6.818   0.053  1.00  0.00    -0.070 CG0
ATOM      9  C   UNL     1      11.841   5.393  -0.126  1.00  0.00     0.039 C 
ATOM     10  G   UNL     1      13.051   7.179   1.325  1.00  0.00     0.000 G0
ENDBRANCH   6   7
ENDBRANCH   5   6
ENDBRANCH   3   5
ENDBRANCH   1   3
BRANCH   1  11
ATOM     11  C   UNL     1      12.160   9.952   1.980  1.00  0.00     0.087 C 
BRANCH  11  12
ATOM     12  C   UNL     1      11.861   8.873   3.055  1.00  0.00     0.066 C 
BRANCH  12  13
ATOM     13  C   UNL     1      12.147   7.481   2.494  1.00  0.00     0.140 C 
ATOM     14  O   UNL     1      11.605   6.531   3.039  1.00  0.00    -0.299 OA
BRANCH  13  15
ATOM     15  C   UNL     1      13.082   7.190   1.337  1.00  0.00     0.106 CG0
ATOM     16  G   UNL     1      12.312   6.832   0.079  1.00  0.00     0.000 G0
ENDBRANCH  13  15
ENDBRANCH  12  13
BRANCH  12  17
ATOM     17  C   UNL     1      12.449   9.168   4.475  1.00  0.00    -0.006 C 
ATOM     18  C   UNL     1      13.122  10.554   4.539  1.00  0.00     0.008 C 
ATOM     19  C   UNL     1      11.351   9.125   5.556  1.00  0.00     0.008 C 
ENDBRANCH  12  17
ENDBRANCH  11  12
ENDBRANCH   1  11
TORSDOF 1
ENDMDL
MODEL 2
REMARK VINA RESULT:    -1.843      1.639      4.016
REMARK INTER + INTRA:          -2.184
REMARK INTER:                  -3.892
REMARK INTRA:                   1.708
REMARK UNBOUND:                 0.629
REMARK SMILES CC1=CCC[C@@H](C)C(=O)C[C@H](C(C)C)C(=O)C1
REMARK SMILES IDX 8 1 9 2 6 3 7 4 5 5 4 6 3 7 2 8 1 9 10 11 11 12 15 13 16 14
REMARK SMILES IDX 17 15 12 17 13 18 14 19
REMARK H PARENT
REMARK Flexibility Score: 70.00
ROOT
ATOM      1  C   UNL     1      11.200   9.585  -0.759  1.00  0.00     0.136 C 
ATOM      2  O   UNL     1      10.064   9.134  -0.748  1.00  0.00    -0.299 OA
ENDROOT
BRANCH   1   3
ATOM      3  C   UNL     1      11.364  11.097  -0.605  1.00  0.00     0.053 C 
ATOM      4  C   UNL     1      12.773  11.636  -0.910  1.00  0.00     0.016 C 
BRANCH   3   5
ATOM      5  C   UNL     1      10.833  11.603   0.763  1.00  0.00     0.015 C 
BRANCH   5   6
ATOM      6  C   UNL     1      11.879  11.694   1.887  1.00  0.00     0.028 C 
BRANCH   6   7
ATOM      7  C   UNL     1      11.686  10.622   2.929  1.00  0.00    -0.028 C 
ATOM      8  C   UNL     1      12.204   9.372   2.893  1.00  0.00    -0.070 CG0
ATOM      9  C   UNL     1      11.896   8.450   4.047  1.00  0.00     0.039 C 
ATOM     10  G   UNL     1      13.105   8.861   1.783  1.00  0.00     0.000 G0
ENDBRANCH   6   7
ENDBRANCH   5   6
ENDBRANCH   3   5
ENDBRANCH   1   3
BRANCH   1  11
ATOM     11  C   UNL     1      12.341   8.630  -1.053  1.00  0.00     0.087 C 
BRANCH  11  12
ATOM     12  C   UNL     1      12.296   7.296  -0.260  1.00  0.00     0.066 C 
BRANCH  12  13
ATOM     13  C   UNL     1      12.704   7.536   1.192  1.00  0.00     0.140 C 
ATOM     14  O   UNL     1      12.656   6.583   1.956  1.00  0.00    -0.299 OA
BRANCH  13  15
ATOM     15  C   UNL     1      13.125   8.876   1.762  1.00  0.00     0.106 CG0
ATOM     16  G   UNL     1      12.197   9.318   2.880  1.00  0.00     0.000 G0
ENDBRANCH  13  15
ENDBRANCH  12  13
BRANCH  12  17
ATOM     17  C   UNL     1      11.002   6.440  -0.471  1.00  0.00    -0.006 C 
ATOM     18  C   UNL     1      11.337   4.987  -0.867  1.00  0.00     0.008 C 
ATOM     19  C   UNL     1      10.145   6.395   0.809  1.00  0.00     0.008 C 
ENDBRANCH  12  17
ENDBRANCH  11  12
ENDBRANCH   1  11
TORSDOF 1
ENDMDL
MODEL 3
REMARK VINA RESULT:    -1.775      1.926      4.643
REMARK INTER + INTRA:          -2.080
REMARK INTER:                  -3.721
REMARK INTRA:                   1.641
REMARK UNBOUND:                 0.629
REMARK SMILES CC1=CCC[C@@H](C)C(=O)C[C@H](C(C)C)C(=O)C1
REMARK SMILES IDX 8 1 9 2 6 3 7 4 5 5 4 6 3 7 2 8 1 9 10 11 11 12 15 13 16 14
REMARK SMILES IDX 17 15 12 17 13 18 14 19
REMARK H PARENT
REMARK Flexibility Score: 70.00
ROOT
ATOM      1  C   UNL     1      11.339   7.835   0.041  1.00  0.00     0.136 C 
ATOM      2  O   UNL     1      10.961   7.575  -1.091  1.00  0.00    -0.299 OA
ENDROOT
BRANCH   1   3
ATOM      3  C   UNL     1      12.671   7.241   0.499  1.00  0.00     0.053 C 
ATOM      4  C   UNL     1      12.907   5.775   0.093  1.00  0.00     0.016 C 
BRANCH   3   5
ATOM      5  C   UNL     1      12.920   7.471   2.014  1.00  0.00     0.015 C 
BRANCH   5   6
ATOM      6  C   UNL     1      11.764   7.065   2.944  1.00  0.00     0.028 C 
BRANCH   6   7
ATOM      7  C   UNL     1      11.730   7.897   4.201  1.00  0.00    -0.028 C 
ATOM      8  C   UNL     1      12.000   9.221   4.290  1.00  0.00    -0.070 CG0
ATOM      9  C   UNL     1      11.900   9.869   5.648  1.00  0.00     0.039 C 
ATOM     10  G   UNL     1      12.356  10.093   3.099  1.00  0.00     0.000 G0
ENDBRANCH   6   7
ENDBRANCH   5   6
ENDBRANCH   3   5
ENDBRANCH   1   3
BRANCH   1  11
ATOM     11  C   UNL     1      10.401   8.616   0.942  1.00  0.00     0.087 C 
BRANCH  11  12
ATOM     12  C   UNL     1      10.660  10.147   0.984  1.00  0.00     0.066 C 
BRANCH  12  13
ATOM     13  C   UNL     1      11.084  10.567   2.390  1.00  0.00     0.140 C 
ATOM     14  O   UNL     1      10.370  11.365   2.979  1.00  0.00    -0.299 OA
BRANCH  13  15
ATOM     15  C   UNL     1      12.344  10.099   3.090  1.00  0.00     0.106 CG0
ATOM     16  G   UNL     1      12.020   9.212   4.279  1.00  0.00     0.000 G0
ENDBRANCH  13  15
ENDBRANCH  12  13
BRANCH  12  17
ATOM     17  C   UNL     1      11.536  10.706  -0.187  1.00  0.00    -0.006 C 
ATOM     18  C   UNL     1      10.761  11.730  -1.041  1.00  0.00     0.008 C 
ATOM     19  C   UNL     1      12.806  11.398   0.345  1.00  0.00     0.008 C 
ENDBRANCH  12  17
ENDBRANCH  11  12
ENDBRANCH   1  11
TORSDOF 1
ENDMDL
MODEL 4
REMARK VINA RESULT:    -1.456      1.729      3.853
REMARK INTER + INTRA:          -1.593
REMARK INTER:                  -2.473
REMARK INTRA:                   0.880
REMARK UNBOUND:                 0.629
REMARK SMILES CC1=CCC[C@@H](C)C(=O)C[C@H](C(C)C)C(=O)C1
REMARK SMILES IDX 8 1 9 2 6 3 7 4 5 5 4 6 3 7 2 8 1 9 10 11 11 12 15 13 16 14
REMARK SMILES IDX 17 15 12 17 13 18 14 19
REMARK H PARENT
REMARK Flexibility Score: 70.00
ROOT
ATOM      1  C   UNL     1      10.198   9.765   0.420  1.00  0.00     0.136 C 
ATOM      2  O   UNL     1      10.144  10.406  -0.619  1.00  0.00    -0.299 OA
ENDROOT
BRANCH   1   3
ATOM      3  C   UNL     1      10.612  10.507   1.690  1.00  0.00     0.053 C 
ATOM      4  C   UNL     1       9.671  11.647   2.118  1.00  0.00     0.016 C 
BRANCH   3   5
ATOM      5  C   UNL     1      12.095  10.967   1.637  1.00  0.00     0.015 C 
BRANCH   5   6
ATOM      6  C   UNL     1      13.103  10.032   2.326  1.00  0.00     0.028 C 
BRANCH   6   7
ATOM      7  C   UNL     1      12.428   8.853   2.979  1.00  0.00    -0.028 C 
ATOM      8  C   UNL     1      12.396   7.586   2.503  1.00  0.00    -0.070 CG0
ATOM      9  C   UNL     1      11.670   6.547   3.320  1.00  0.00     0.039 C 
ATOM     10  G   UNL     1      13.083   7.147   1.222  1.00  0.00     0.000 G0
ENDBRANCH   6   7
ENDBRANCH   5   6
ENDBRANCH   3   5
ENDBRANCH   1   3
BRANCH   1  11
ATOM     11  C   UNL     1       9.977   8.266   0.343  1.00  0.00     0.087 C 
BRANCH  11  12
ATOM     12  C   UNL     1      11.027   7.494  -0.501  1.00  0.00     0.066 C 
BRANCH  12  13
ATOM     13  C   UNL     1      12.435   7.809  -0.000  1.00  0.00     0.140 C 
ATOM     14  O   UNL     1      13.095   8.615  -0.641  1.00  0.00    -0.299 OA
BRANCH  13  15
ATOM     15  C   UNL     1      13.088   7.168   1.209  1.00  0.00     0.106 CG0
ATOM     16  G   UNL     1      12.393   7.579   2.495  1.00  0.00     0.000 G0
ENDBRANCH  13  15
ENDBRANCH  12  13
BRANCH  12  17
ATOM     17  C   UNL     1      10.711   5.978  -0.732  1.00  0.00    -0.006 C 
ATOM     18  C   UNL     1      11.972   5.103  -0.588  1.00  0.00     0.008 C 
ATOM     19  C   UNL     1       9.662   5.465   0.274  1.00  0.00     0.008 C 
ENDBRANCH  12  17
ENDBRANCH  11  12
ENDBRANCH   1  11
TORSDOF 1
ENDMDL
