MODEL 1
REMARK VINA RESULT:    -3.966      0.000      0.000
REMARK INTER + INTRA:          -6.141
REMARK INTER:                  -6.052
REMARK INTRA:                  -0.088
REMARK UNBOUND:                -0.088
REMARK SMILES CC1=CCC[C@@H](C)C(=O)C[C@@H](C(C)C)C(=O)C1
REMARK SMILES IDX 8 1 9 2 6 3 7 4 5 5 4 6 3 7 2 8 1 9 10 11 11 12 15 13 16 14
REMARK SMILES IDX 17 15 12 17 13 18 14 19
REMARK H PARENT
REMARK Flexibility Score: 70.00
ROOT
ATOM      1  C   UNL     1     100.679 117.799 123.881  1.00  0.00     0.136 C 
ATOM      2  O   UNL     1     100.319 118.041 125.024  1.00  0.00    -0.299 OA
ENDROOT
BRANCH   1   3
ATOM      3  C   UNL     1     100.733 118.921 122.861  1.00  0.00     0.053 C 
ATOM      4  C   UNL     1     100.622 120.285 123.559  1.00  0.00     0.016 C 
BRANCH   3   5
ATOM      5  C   UNL     1      99.614 118.735 121.796  1.00  0.00     0.015 C 
BRANCH   5   6
ATOM      6  C   UNL     1      99.965 117.752 120.662  1.00  0.00     0.028 C 
BRANCH   6   7
ATOM      7  C   UNL     1     101.362 117.879 120.091  1.00  0.00    -0.028 C 
ATOM      8  C   UNL     1     102.337 116.943 120.144  1.00  0.00    -0.070 CG0
ATOM      9  C   UNL     1     103.615 117.216 119.388  1.00  0.00     0.039 C 
ATOM     10  G   UNL     1     102.206 115.641 120.911  1.00  0.00     0.000 G0
ENDBRANCH   6   7
ENDBRANCH   5   6
ENDBRANCH   3   5
ENDBRANCH   1   3
BRANCH   1  11
ATOM     11  C   UNL     1     101.037 116.378 123.500  1.00  0.00     0.087 C 
BRANCH  11  12
ATOM     12  C   UNL     1     102.567 116.071 123.505  1.00  0.00     0.066 C 
BRANCH  12  13
ATOM     13  C   UNL     1     103.073 115.565 122.157  1.00  0.00     0.140 C 
ATOM     14  O   UNL     1     104.215 115.141 122.060  1.00  0.00    -0.299 OA
BRANCH  13  15
ATOM     15  C   UNL     1     102.225 115.618 120.905  1.00  0.00     0.106 CG0
ATOM     16  G   UNL     1     102.348 116.934 120.163  1.00  0.00     0.000 G0
ENDBRANCH  13  15
ENDBRANCH  12  13
BRANCH  12  17
ATOM     17  C   UNL     1     103.060 115.190 124.701  1.00  0.00    -0.006 C 
ATOM     18  C   UNL     1     102.393 113.808 124.794  1.00  0.00     0.008 C 
ATOM     19  C   UNL     1     102.913 115.928 126.043  1.00  0.00     0.008 C 
ENDBRANCH  12  17
ENDBRANCH  11  12
ENDBRANCH   1  11
TORSDOF 1
ENDMDL
MODEL 2
REMARK VINA RESULT:    -3.955      1.859      4.234
REMARK INTER + INTRA:          -6.123
REMARK INTER:                  -5.947
REMARK INTRA:                  -0.176
REMARK UNBOUND:                -0.088
REMARK SMILES CC1=CCC[C@@H](C)C(=O)C[C@@H](C(C)C)C(=O)C1
REMARK SMILES IDX 8 1 9 2 6 3 7 4 5 5 4 6 3 7 2 8 1 9 10 11 11 12 15 13 16 14
REMARK SMILES IDX 17 15 12 17 13 18 14 19
REMARK H PARENT
REMARK Flexibility Score: 70.00
ROOT
ATOM      1  C   UNL     1     101.269 119.011 122.710  1.00  0.00     0.136 C 
ATOM      2  O   UNL     1     101.630 120.177 122.764  1.00  0.00    -0.299 OA
ENDROOT
BRANCH   1   3
ATOM      3  C   UNL     1     100.148 118.534 123.614  1.00  0.00     0.053 C 
ATOM      4  C   UNL     1      99.128 119.660 123.842  1.00  0.00     0.016 C 
BRANCH   3   5
ATOM      5  C   UNL     1     100.727 118.011 124.960  1.00  0.00     0.015 C 
BRANCH   5   6
ATOM      6  C   UNL     1     101.905 117.028 124.811  1.00  0.00     0.028 C 
BRANCH   6   7
ATOM      7  C   UNL     1     101.532 115.565 124.710  1.00  0.00    -0.028 C 
ATOM      8  C   UNL     1     101.823 114.733 123.683  1.00  0.00    -0.070 CG0
ATOM      9  C   UNL     1     101.481 113.272 123.844  1.00  0.00     0.039 C 
ATOM     10  G   UNL     1     102.477 115.192 122.394  1.00  0.00     0.000 G0
ENDBRANCH   6   7
ENDBRANCH   5   6
ENDBRANCH   3   5
ENDBRANCH   1   3
BRANCH   1  11
ATOM     11  C   UNL     1     101.968 118.059 121.763  1.00  0.00     0.087 C 
BRANCH  11  12
ATOM     12  C   UNL     1     101.030 117.009 121.090  1.00  0.00     0.066 C 
BRANCH  12  13
ATOM     13  C   UNL     1     101.505 115.573 121.300  1.00  0.00     0.140 C 
ATOM     14  O   UNL     1     101.050 114.678 120.603  1.00  0.00    -0.299 OA
BRANCH  13  15
ATOM     15  C   UNL     1     102.488 115.199 122.387  1.00  0.00     0.106 CG0
ATOM     16  G   UNL     1     101.812 114.731 123.661  1.00  0.00     0.000 G0
ENDBRANCH  13  15
ENDBRANCH  12  13
BRANCH  12  17
ATOM     17  C   UNL     1     100.663 117.309 119.598  1.00  0.00    -0.006 C 
ATOM     18  C   UNL     1     101.741 118.080 118.819  1.00  0.00     0.008 C 
ATOM     19  C   UNL     1      99.317 118.043 119.486  1.00  0.00     0.008 C 
ENDBRANCH  12  17
ENDBRANCH  11  12
ENDBRANCH   1  11
TORSDOF 1
ENDMDL
MODEL 3
REMARK VINA RESULT:    -3.904      1.658      2.623
REMARK INTER + INTRA:          -6.047
REMARK INTER:                  -5.909
REMARK INTRA:                  -0.138
REMARK UNBOUND:                -0.088
REMARK SMILES CC1=CCC[C@@H](C)C(=O)C[C@@H](C(C)C)C(=O)C1
REMARK SMILES IDX 8 1 9 2 6 3 7 4 5 5 4 6 3 7 2 8 1 9 10 11 11 12 15 13 16 14
REMARK SMILES IDX 17 15 12 17 13 18 14 19
REMARK H PARENT
REMARK Flexibility Score: 70.00
ROOT
ATOM      1  C   UNL     1     100.092 117.922 122.779  1.00  0.00     0.136 C 
ATOM      2  O   UNL     1      99.741 118.954 123.331  1.00  0.00    -0.299 OA
ENDROOT
BRANCH   1   3
ATOM      3  C   UNL     1     100.488 117.955 121.314  1.00  0.00     0.053 C 
ATOM      4  C   UNL     1     100.035 116.669 120.608  1.00  0.00     0.016 C 
BRANCH   3   5
ATOM      5  C   UNL     1     102.022 118.170 121.176  1.00  0.00     0.015 C 
BRANCH   5   6
ATOM      6  C   UNL     1     102.747 117.101 120.335  1.00  0.00     0.028 C 
BRANCH   6   7
ATOM      7  C   UNL     1     103.828 116.322 121.052  1.00  0.00    -0.028 C 
ATOM      8  C   UNL     1     103.668 115.153 121.714  1.00  0.00    -0.070 CG0
ATOM      9  C   UNL     1     104.906 114.469 122.241  1.00  0.00     0.039 C 
ATOM     10  G   UNL     1     102.319 114.499 121.943  1.00  0.00     0.000 G0
ENDBRANCH   6   7
ENDBRANCH   5   6
ENDBRANCH   3   5
ENDBRANCH   1   3
BRANCH   1  11
ATOM     11  C   UNL     1     100.098 116.625 123.561  1.00  0.00     0.087 C 
BRANCH  11  12
ATOM     12  C   UNL     1     101.519 116.086 123.913  1.00  0.00     0.066 C 
BRANCH  12  13
ATOM     13  C   UNL     1     101.780 114.693 123.347  1.00  0.00     0.140 C 
ATOM     14  O   UNL     1     101.599 113.710 124.050  1.00  0.00    -0.299 OA
BRANCH  13  15
ATOM     15  C   UNL     1     102.313 114.478 121.947  1.00  0.00     0.106 CG0
ATOM     16  G   UNL     1     103.656 115.144 121.718  1.00  0.00     0.000 G0
ENDBRANCH  13  15
ENDBRANCH  12  13
BRANCH  12  17
ATOM     17  C   UNL     1     101.916 116.205 125.422  1.00  0.00    -0.006 C 
ATOM     18  C   UNL     1     101.453 117.504 126.103  1.00  0.00     0.008 C 
ATOM     19  C   UNL     1     103.430 116.026 125.623  1.00  0.00     0.008 C 
ENDBRANCH  12  17
ENDBRANCH  11  12
ENDBRANCH   1  11
TORSDOF 1
ENDMDL
MODEL 4
REMARK VINA RESULT:    -3.869      2.053      4.815
REMARK INTER + INTRA:          -5.993
REMARK INTER:                  -5.514
REMARK INTRA:                  -0.479
REMARK UNBOUND:                -0.088
REMARK SMILES CC1=CCC[C@@H](C)C(=O)C[C@@H](C(C)C)C(=O)C1
REMARK SMILES IDX 8 1 9 2 6 3 7 4 5 5 4 6 3 7 2 8 1 9 10 11 11 12 15 13 16 14
REMARK SMILES IDX 17 15 12 17 13 18 14 19
REMARK H PARENT
REMARK Flexibility Score: 70.00
ROOT
ATOM      1  C   UNL     1     101.243 117.317 121.184  1.00  0.00     0.136 C 
ATOM      2  O   UNL     1     100.805 116.715 120.215  1.00  0.00    -0.299 OA
ENDROOT
BRANCH   1   3
ATOM      3  C   UNL     1     102.720 117.663 121.245  1.00  0.00     0.053 C 
ATOM      4  C   UNL     1     103.131 118.471 120.005  1.00  0.00     0.016 C 
BRANCH   3   5
ATOM      5  C   UNL     1     103.570 116.369 121.388  1.00  0.00     0.015 C 
BRANCH   5   6
ATOM      6  C   UNL     1     103.016 115.347 122.400  1.00  0.00     0.028 C 
BRANCH   6   7
ATOM      7  C   UNL     1     103.500 115.506 123.826  1.00  0.00    -0.028 C 
ATOM      8  C   UNL     1     102.735 115.795 124.904  1.00  0.00    -0.070 CG0
ATOM      9  C   UNL     1     103.395 115.771 126.261  1.00  0.00     0.039 C 
ATOM     10  G   UNL     1     101.259 116.132 124.816  1.00  0.00     0.000 G0
ENDBRANCH   6   7
ENDBRANCH   5   6
ENDBRANCH   3   5
ENDBRANCH   1   3
BRANCH   1  11
ATOM     11  C   UNL     1     100.308 117.681 122.318  1.00  0.00     0.087 C 
BRANCH  11  12
ATOM     12  C   UNL     1     100.987 118.440 123.501  1.00  0.00     0.066 C 
BRANCH  12  13
ATOM     13  C   UNL     1     100.991 117.633 124.796  1.00  0.00     0.140 C 
ATOM     14  O   UNL     1     100.831 118.204 125.865  1.00  0.00    -0.299 OA
BRANCH  13  15
ATOM     15  C   UNL     1     101.242 116.141 124.817  1.00  0.00     0.106 CG0
ATOM     16  G   UNL     1     102.716 115.792 124.906  1.00  0.00     0.000 G0
ENDBRANCH  13  15
ENDBRANCH  12  13
BRANCH  12  17
ATOM     17  C   UNL     1     100.497 119.911 123.711  1.00  0.00    -0.006 C 
ATOM     18  C   UNL     1      98.988 120.118 123.498  1.00  0.00     0.008 C 
ATOM     19  C   UNL     1     101.284 120.898 122.832  1.00  0.00     0.008 C 
ENDBRANCH  12  17
ENDBRANCH  11  12
ENDBRANCH   1  11
TORSDOF 1
ENDMDL
MODEL 5
REMARK VINA RESULT:    -3.853      2.005      3.421
REMARK INTER + INTRA:          -5.969
REMARK INTER:                  -6.072
REMARK INTRA:                   0.103
REMARK UNBOUND:                -0.088
REMARK SMILES CC1=CCC[C@@H](C)C(=O)C[C@@H](C(C)C)C(=O)C1
REMARK SMILES IDX 8 1 9 2 6 3 7 4 5 5 4 6 3 7 2 8 1 9 10 11 11 12 15 13 16 14
REMARK SMILES IDX 17 15 12 17 13 18 14 19
REMARK H PARENT
REMARK Flexibility Score: 70.00
ROOT
ATOM      1  C   UNL     1     102.383 114.793 125.018  1.00  0.00     0.136 C 
ATOM      2  O   UNL     1     102.648 113.871 125.776  1.00  0.00    -0.299 OA
ENDROOT
BRANCH   1   3
ATOM      3  C   UNL     1     102.753 116.212 125.409  1.00  0.00     0.053 C 
ATOM      4  C   UNL     1     103.679 116.205 126.635  1.00  0.00     0.016 C 
BRANCH   3   5
ATOM      5  C   UNL     1     101.468 117.050 125.672  1.00  0.00     0.015 C 
BRANCH   5   6
ATOM      6  C   UNL     1     100.639 117.363 124.411  1.00  0.00     0.028 C 
BRANCH   6   7
ATOM      7  C   UNL     1     101.361 118.127 123.322  1.00  0.00    -0.028 C 
ATOM      8  C   UNL     1     101.506 117.741 122.034  1.00  0.00    -0.070 CG0
ATOM      9  C   UNL     1     102.142 118.718 121.074  1.00  0.00     0.039 C 
ATOM     10  G   UNL     1     101.059 116.390 121.510  1.00  0.00     0.000 G0
ENDBRANCH   6   7
ENDBRANCH   5   6
ENDBRANCH   3   5
ENDBRANCH   1   3
BRANCH   1  11
ATOM     11  C   UNL     1     101.665 114.503 123.718  1.00  0.00     0.087 C 
BRANCH  11  12
ATOM     12  C   UNL     1     102.597 114.403 122.470  1.00  0.00     0.066 C 
BRANCH  12  13
ATOM     13  C   UNL     1     102.201 115.370 121.358  1.00  0.00     0.140 C 
ATOM     14  O   UNL     1     102.842 115.391 120.317  1.00  0.00    -0.299 OA
BRANCH  13  15
ATOM     15  C   UNL     1     101.066 116.358 121.514  1.00  0.00     0.106 CG0
ATOM     16  G   UNL     1     101.525 117.710 122.026  1.00  0.00     0.000 G0
ENDBRANCH  13  15
ENDBRANCH  12  13
BRANCH  12  17
ATOM     17  C   UNL     1     102.843 112.950 121.943  1.00  0.00    -0.006 C 
ATOM     18  C   UNL     1     101.587 112.065 121.901  1.00  0.00     0.008 C 
ATOM     19  C   UNL     1     103.950 112.241 122.741  1.00  0.00     0.008 C 
ENDBRANCH  12  17
ENDBRANCH  11  12
ENDBRANCH   1  11
TORSDOF 1
ENDMDL
MODEL 6
REMARK VINA RESULT:    -3.799      2.109      4.227
REMARK INTER + INTRA:          -5.887
REMARK INTER:                  -6.068
REMARK INTRA:                   0.182
REMARK UNBOUND:                -0.088
REMARK SMILES CC1=CCC[C@@H](C)C(=O)C[C@@H](C(C)C)C(=O)C1
REMARK SMILES IDX 8 1 9 2 6 3 7 4 5 5 4 6 3 7 2 8 1 9 10 11 11 12 15 13 16 14
REMARK SMILES IDX 17 15 12 17 13 18 14 19
REMARK H PARENT
REMARK Flexibility Score: 70.00
ROOT
ATOM      1  C   UNL     1      99.822 118.872 121.865  1.00  0.00     0.136 C 
ATOM      2  O   UNL     1      98.969 118.985 120.996  1.00  0.00    -0.299 OA
ENDROOT
BRANCH   1   3
ATOM      3  C   UNL     1      99.654 119.616 123.177  1.00  0.00     0.053 C 
ATOM      4  C   UNL     1     100.778 120.648 123.354  1.00  0.00     0.016 C 
BRANCH   3   5
ATOM      5  C   UNL     1      99.612 118.610 124.364  1.00  0.00     0.015 C 
BRANCH   5   6
ATOM      6  C   UNL     1     100.761 118.768 125.379  1.00  0.00     0.028 C 
BRANCH   6   7
ATOM      7  C   UNL     1     101.317 117.481 125.948  1.00  0.00    -0.028 C 
ATOM      8  C   UNL     1     102.108 116.594 125.301  1.00  0.00    -0.070 CG0
ATOM      9  C   UNL     1     102.669 115.441 126.097  1.00  0.00     0.039 C 
ATOM     10  G   UNL     1     102.461 116.706 123.830  1.00  0.00     0.000 G0
ENDBRANCH   6   7
ENDBRANCH   5   6
ENDBRANCH   3   5
ENDBRANCH   1   3
BRANCH   1  11
ATOM     11  C   UNL     1     101.041 118.014 121.603  1.00  0.00     0.087 C 
BRANCH  11  12
ATOM     12  C   UNL     1     100.801 116.480 121.757  1.00  0.00     0.066 C 
BRANCH  12  13
ATOM     13  C   UNL     1     101.600 115.869 122.905  1.00  0.00     0.140 C 
ATOM     14  O   UNL     1     101.505 114.674 123.140  1.00  0.00    -0.299 OA
BRANCH  13  15
ATOM     15  C   UNL     1     102.478 116.705 123.811  1.00  0.00     0.106 CG0
ATOM     16  G   UNL     1     102.099 116.585 125.275  1.00  0.00     0.000 G0
ENDBRANCH  13  15
ENDBRANCH  12  13
BRANCH  12  17
ATOM     17  C   UNL     1     100.923 115.655 120.433  1.00  0.00    -0.006 C 
ATOM     18  C   UNL     1     102.368 115.368 119.991  1.00  0.00     0.008 C 
ATOM     19  C   UNL     1     100.150 116.318 119.281  1.00  0.00     0.008 C 
ENDBRANCH  12  17
ENDBRANCH  11  12
ENDBRANCH   1  11
TORSDOF 1
ENDMDL
MODEL 7
REMARK VINA RESULT:    -3.690      2.068      3.930
REMARK INTER + INTRA:          -5.719
REMARK INTER:                  -5.147
REMARK INTRA:                  -0.572
REMARK UNBOUND:                -0.088
REMARK SMILES CC1=CCC[C@@H](C)C(=O)C[C@@H](C(C)C)C(=O)C1
REMARK SMILES IDX 8 1 9 2 6 3 7 4 5 5 4 6 3 7 2 8 1 9 10 11 11 12 15 13 16 14
REMARK SMILES IDX 17 15 12 17 13 18 14 19
REMARK H PARENT
REMARK Flexibility Score: 70.00
ROOT
ATOM      1  C   UNL     1     102.794 117.767 120.317  1.00  0.00     0.136 C 
ATOM      2  O   UNL     1     103.298 118.861 120.104  1.00  0.00    -0.299 OA
ENDROOT
BRANCH   1   3
ATOM      3  C   UNL     1     101.626 117.305 119.465  1.00  0.00     0.053 C 
ATOM      4  C   UNL     1     102.053 117.175 117.996  1.00  0.00     0.016 C 
BRANCH   3   5
ATOM      5  C   UNL     1     100.425 118.280 119.625  1.00  0.00     0.015 C 
BRANCH   5   6
ATOM      6  C   UNL     1      99.463 117.930 120.778  1.00  0.00     0.028 C 
BRANCH   6   7
ATOM      7  C   UNL     1      99.701 118.667 122.079  1.00  0.00    -0.028 C 
ATOM      8  C   UNL     1     100.122 118.121 123.243  1.00  0.00    -0.070 CG0
ATOM      9  C   UNL     1     100.431 119.058 124.386  1.00  0.00     0.039 C 
ATOM     10  G   UNL     1     100.305 116.630 123.450  1.00  0.00     0.000 G0
ENDBRANCH   6   7
ENDBRANCH   5   6
ENDBRANCH   3   5
ENDBRANCH   1   3
BRANCH   1  11
ATOM     11  C   UNL     1     103.329 116.909 121.443  1.00  0.00     0.087 C 
BRANCH  11  12
ATOM     12  C   UNL     1     102.337 115.819 121.955  1.00  0.00     0.066 C 
BRANCH  12  13
ATOM     13  C   UNL     1     101.737 116.158 123.317  1.00  0.00     0.140 C 
ATOM     14  O   UNL     1     102.410 116.014 124.327  1.00  0.00    -0.299 OA
BRANCH  13  15
ATOM     15  C   UNL     1     100.306 116.620 123.476  1.00  0.00     0.106 CG0
ATOM     16  G   UNL     1     100.139 118.112 123.261  1.00  0.00     0.000 G0
ENDBRANCH  13  15
ENDBRANCH  12  13
BRANCH  12  17
ATOM     17  C   UNL     1     102.873 114.350 121.883  1.00  0.00    -0.006 C 
ATOM     18  C   UNL     1     103.972 114.123 120.832  1.00  0.00     0.008 C 
ATOM     19  C   UNL     1     101.732 113.343 121.666  1.00  0.00     0.008 C 
ENDBRANCH  12  17
ENDBRANCH  11  12
ENDBRANCH   1  11
TORSDOF 1
ENDMDL
MODEL 8
REMARK VINA RESULT:    -3.683      2.623      3.925
REMARK INTER + INTRA:          -5.710
REMARK INTER:                  -5.795
REMARK INTRA:                   0.085
REMARK UNBOUND:                -0.088
REMARK SMILES CC1=CCC[C@@H](C)C(=O)C[C@@H](C(C)C)C(=O)C1
REMARK SMILES IDX 8 1 9 2 6 3 7 4 5 5 4 6 3 7 2 8 1 9 10 11 11 12 15 13 16 14
REMARK SMILES IDX 17 15 12 17 13 18 14 19
REMARK H PARENT
REMARK Flexibility Score: 70.00
ROOT
ATOM      1  C   UNL     1     102.615 113.899 125.205  1.00  0.00     0.136 C 
ATOM      2  O   UNL     1     102.840 113.350 126.274  1.00  0.00    -0.299 OA
ENDROOT
BRANCH   1   3
ATOM      3  C   UNL     1     103.030 115.345 125.007  1.00  0.00     0.053 C 
ATOM      4  C   UNL     1     102.763 116.158 126.282  1.00  0.00     0.016 C 
BRANCH   3   5
ATOM      5  C   UNL     1     102.291 115.953 123.780  1.00  0.00     0.015 C 
BRANCH   5   6
ATOM      6  C   UNL     1     103.194 116.236 122.564  1.00  0.00     0.028 C 
BRANCH   6   7
ATOM      7  C   UNL     1     102.506 116.214 121.215  1.00  0.00    -0.028 C 
ATOM      8  C   UNL     1     102.404 115.150 120.385  1.00  0.00    -0.070 CG0
ATOM      9  C   UNL     1     101.553 115.304 119.148  1.00  0.00     0.039 C 
ATOM     10  G   UNL     1     103.089 113.822 120.640  1.00  0.00     0.000 G0
ENDBRANCH   6   7
ENDBRANCH   5   6
ENDBRANCH   3   5
ENDBRANCH   1   3
BRANCH   1  11
ATOM     11  C   UNL     1     101.903 113.133 124.111  1.00  0.00     0.087 C 
BRANCH  11  12
ATOM     12  C   UNL     1     102.837 112.586 122.988  1.00  0.00     0.066 C 
BRANCH  12  13
ATOM     13  C   UNL     1     102.328 112.909 121.586  1.00  0.00     0.140 C 
ATOM     14  O   UNL     1     101.294 112.397 121.185  1.00  0.00    -0.299 OA
BRANCH  13  15
ATOM     15  C   UNL     1     103.090 113.809 120.638  1.00  0.00     0.106 CG0
ATOM     16  G   UNL     1     102.407 115.143 120.411  1.00  0.00     0.000 G0
ENDBRANCH  13  15
ENDBRANCH  12  13
BRANCH  12  17
ATOM     17  C   UNL     1     103.252 111.085 123.145  1.00  0.00    -0.006 C 
ATOM     18  C   UNL     1     104.036 110.770 124.430  1.00  0.00     0.008 C 
ATOM     19  C   UNL     1     104.039 110.586 121.922  1.00  0.00     0.008 C 
ENDBRANCH  12  17
ENDBRANCH  11  12
ENDBRANCH   1  11
TORSDOF 1
ENDMDL
MODEL 9
REMARK VINA RESULT:    -3.559      9.200     11.518
REMARK INTER + INTRA:          -5.519
REMARK INTER:                  -5.321
REMARK INTRA:                  -0.199
REMARK UNBOUND:                -0.088
REMARK SMILES CC1=CCC[C@@H](C)C(=O)C[C@@H](C(C)C)C(=O)C1
REMARK SMILES IDX 8 1 9 2 6 3 7 4 5 5 4 6 3 7 2 8 1 9 10 11 11 12 15 13 16 14
REMARK SMILES IDX 17 15 12 17 13 18 14 19
REMARK H PARENT
REMARK Flexibility Score: 70.00
ROOT
ATOM      1  C   UNL     1     100.603 107.422 116.910  1.00  0.00     0.136 C 
ATOM      2  O   UNL     1     100.317 107.941 117.979  1.00  0.00    -0.299 OA
ENDROOT
BRANCH   1   3
ATOM      3  C   UNL     1     101.797 106.487 116.829  1.00  0.00     0.053 C 
ATOM      4  C   UNL     1     101.521 105.197 117.615  1.00  0.00     0.016 C 
BRANCH   3   5
ATOM      5  C   UNL     1     103.077 107.205 117.344  1.00  0.00     0.015 C 
BRANCH   5   6
ATOM      6  C   UNL     1     103.679 108.228 116.361  1.00  0.00     0.028 C 
BRANCH   6   7
ATOM      7  C   UNL     1     103.523 109.683 116.749  1.00  0.00    -0.028 C 
ATOM      8  C   UNL     1     102.872 110.634 116.042  1.00  0.00    -0.070 CG0
ATOM      9  C   UNL     1     102.713 111.995 116.676  1.00  0.00     0.039 C 
ATOM     10  G   UNL     1     102.292 110.401 114.660  1.00  0.00     0.000 G0
ENDBRANCH   6   7
ENDBRANCH   5   6
ENDBRANCH   3   5
ENDBRANCH   1   3
BRANCH   1  11
ATOM     11  C   UNL     1      99.778 107.743 115.682  1.00  0.00     0.087 C 
BRANCH  11  12
ATOM     12  C   UNL     1     100.588 108.357 114.498  1.00  0.00     0.066 C 
BRANCH  12  13
ATOM     13  C   UNL     1     100.872 109.845 114.687  1.00  0.00     0.140 C 
ATOM     14  O   UNL     1      99.942 110.626 114.826  1.00  0.00    -0.299 OA
BRANCH  13  15
ATOM     15  C   UNL     1     102.276 110.409 114.652  1.00  0.00     0.106 CG0
ATOM     16  G   UNL     1     102.862 110.621 116.034  1.00  0.00     0.000 G0
ENDBRANCH  13  15
ENDBRANCH  12  13
BRANCH  12  17
ATOM     17  C   UNL     1     100.030 108.028 113.074  1.00  0.00    -0.006 C 
ATOM     18  C   UNL     1     100.798 108.690 111.919  1.00  0.00     0.008 C 
ATOM     19  C   UNL     1      98.534 108.365 112.962  1.00  0.00     0.008 C 
ENDBRANCH  12  17
ENDBRANCH  11  12
ENDBRANCH   1  11
TORSDOF 1
ENDMDL
