MODEL 1
REMARK VINA RESULT:    -2.866      0.000      0.000
REMARK INTER + INTRA:          -4.683
REMARK INTER:                  -4.374
REMARK INTRA:                  -0.309
REMARK UNBOUND:                -0.309
REMARK SMILES CC1=CCC[C@@H](C)C(=O)C[C@H](C(C)C)C(=O)C1
REMARK SMILES IDX 8 1 9 2 6 3 7 4 5 5 4 6 3 7 2 8 1 9 10 11 11 12 15 13 16 14
REMARK SMILES IDX 17 15 12 17 13 18 14 19
REMARK H PARENT
REMARK Flexibility Score: 70.00
ROOT
ATOM      1  C   UNL     1      25.235 -31.153 -10.218  1.00  0.00     0.136 C 
ATOM      2  O   UNL     1      25.349 -31.414  -9.029  1.00  0.00    -0.299 OA
ENDROOT
BRANCH   1   3
ATOM      3  C   UNL     1      23.853 -31.115 -10.843  1.00  0.00     0.053 C 
ATOM      4  C   UNL     1      22.959 -32.205 -10.236  1.00  0.00     0.016 C 
BRANCH   3   5
ATOM      5  C   UNL     1      23.948 -31.271 -12.379  1.00  0.00     0.015 C 
BRANCH   5   6
ATOM      6  C   UNL     1      24.007 -32.753 -12.796  1.00  0.00     0.028 C 
BRANCH   6   7
ATOM      7  C   UNL     1      24.740 -32.981 -14.095  1.00  0.00    -0.028 C 
ATOM      8  C   UNL     1      26.047 -33.323 -14.214  1.00  0.00    -0.070 CG0
ATOM      9  C   UNL     1      26.625 -33.403 -15.605  1.00  0.00     0.039 C 
ATOM     10  G   UNL     1      26.941 -33.674 -13.030  1.00  0.00     0.000 G0
ENDBRANCH   6   7
ENDBRANCH   5   6
ENDBRANCH   3   5
ENDBRANCH   1   3
BRANCH   1  11
ATOM     11  C   UNL     1      26.480 -30.865 -11.029  1.00  0.00     0.087 C 
BRANCH  11  12
ATOM     12  C   UNL     1      27.462 -32.064 -11.033  1.00  0.00     0.066 C 
BRANCH  12  13
ATOM     13  C   UNL     1      27.753 -32.530 -12.453  1.00  0.00     0.140 C 
ATOM     14  O   UNL     1      28.630 -31.995 -13.115  1.00  0.00    -0.299 OA
BRANCH  13  15
ATOM     15  C   UNL     1      26.976 -33.685 -13.035  1.00  0.00     0.106 CG0
ATOM     16  G   UNL     1      26.088 -33.304 -14.214  1.00  0.00     0.000 G0
ENDBRANCH  13  15
ENDBRANCH  12  13
BRANCH  12  17
ATOM     17  C   UNL     1      28.737 -31.792 -10.174  1.00  0.00    -0.006 C 
ATOM     18  C   UNL     1      28.754 -32.504  -8.809  1.00  0.00     0.008 C 
ATOM     19  C   UNL     1      28.990 -30.288  -9.996  1.00  0.00     0.008 C 
ENDBRANCH  12  17
ENDBRANCH  11  12
ENDBRANCH   1  11
TORSDOF 1
ENDMDL
MODEL 2
REMARK VINA RESULT:    -2.742     12.034     13.312
REMARK INTER + INTRA:          -4.494
REMARK INTER:                  -4.181
REMARK INTRA:                  -0.313
REMARK UNBOUND:                -0.309
REMARK SMILES CC1=CCC[C@@H](C)C(=O)C[C@H](C(C)C)C(=O)C1
REMARK SMILES IDX 8 1 9 2 6 3 7 4 5 5 4 6 3 7 2 8 1 9 10 11 11 12 15 13 16 14
REMARK SMILES IDX 17 15 12 17 13 18 14 19
REMARK H PARENT
REMARK Flexibility Score: 70.00
ROOT
ATOM      1  C   UNL     1      25.855 -46.971 -10.860  1.00  0.00     0.136 C 
ATOM      2  O   UNL     1      25.985 -48.095 -10.395  1.00  0.00    -0.299 OA
ENDROOT
BRANCH   1   3
ATOM      3  C   UNL     1      26.108 -46.744 -12.339  1.00  0.00     0.053 C 
ATOM      4  C   UNL     1      25.252 -47.699 -13.183  1.00  0.00     0.016 C 
BRANCH   3   5
ATOM      5  C   UNL     1      27.610 -46.915 -12.665  1.00  0.00     0.015 C 
BRANCH   5   6
ATOM      6  C   UNL     1      28.304 -45.555 -12.872  1.00  0.00     0.028 C 
BRANCH   6   7
ATOM      7  C   UNL     1      27.373 -44.480 -13.378  1.00  0.00    -0.028 C 
ATOM      8  C   UNL     1      26.924 -43.422 -12.658  1.00  0.00    -0.070 CG0
ATOM      9  C   UNL     1      25.916 -42.510 -13.310  1.00  0.00     0.039 C 
ATOM     10  G   UNL     1      27.418 -43.082 -11.257  1.00  0.00     0.000 G0
ENDBRANCH   6   7
ENDBRANCH   5   6
ENDBRANCH   3   5
ENDBRANCH   1   3
BRANCH   1  11
ATOM     11  C   UNL     1      25.436 -45.842  -9.945  1.00  0.00     0.087 C 
BRANCH  11  12
ATOM     12  C   UNL     1      26.632 -44.939  -9.549  1.00  0.00     0.066 C 
BRANCH  12  13
ATOM     13  C   UNL     1      26.483 -43.541 -10.133  1.00  0.00     0.140 C 
ATOM     14  O   UNL     1      25.633 -42.775  -9.704  1.00  0.00    -0.299 OA
BRANCH  13  15
ATOM     15  C   UNL     1      27.414 -43.086 -11.230  1.00  0.00     0.106 CG0
ATOM     16  G   UNL     1      26.932 -43.426 -12.635  1.00  0.00     0.000 G0
ENDBRANCH  13  15
ENDBRANCH  12  13
BRANCH  12  17
ATOM     17  C   UNL     1      26.913 -44.964  -8.013  1.00  0.00    -0.006 C 
ATOM     18  C   UNL     1      28.029 -45.933  -7.582  1.00  0.00     0.008 C 
ATOM     19  C   UNL     1      25.633 -45.229  -7.207  1.00  0.00     0.008 C 
ENDBRANCH  12  17
ENDBRANCH  11  12
ENDBRANCH   1  11
TORSDOF 1
ENDMDL
MODEL 3
REMARK VINA RESULT:    -2.734     12.567     13.734
REMARK INTER + INTRA:          -4.482
REMARK INTER:                  -4.146
REMARK INTRA:                  -0.336
REMARK UNBOUND:                -0.309
REMARK SMILES CC1=CCC[C@@H](C)C(=O)C[C@H](C(C)C)C(=O)C1
REMARK SMILES IDX 8 1 9 2 6 3 7 4 5 5 4 6 3 7 2 8 1 9 10 11 11 12 15 13 16 14
REMARK SMILES IDX 17 15 12 17 13 18 14 19
REMARK H PARENT
REMARK Flexibility Score: 70.00
ROOT
ATOM      1  C   UNL     1      27.605 -43.394 -10.413  1.00  0.00     0.136 C 
ATOM      2  O   UNL     1      27.658 -42.385  -9.724  1.00  0.00    -0.299 OA
ENDROOT
BRANCH   1   3
ATOM      3  C   UNL     1      27.491 -43.260 -11.920  1.00  0.00     0.053 C 
ATOM      4  C   UNL     1      26.022 -43.098 -12.336  1.00  0.00     0.016 C 
BRANCH   3   5
ATOM      5  C   UNL     1      28.132 -44.481 -12.622  1.00  0.00     0.015 C 
BRANCH   5   6
ATOM      6  C   UNL     1      27.131 -45.188 -13.556  1.00  0.00     0.028 C 
BRANCH   6   7
ATOM      7  C   UNL     1      27.221 -46.694 -13.498  1.00  0.00    -0.028 C 
ATOM      8  C   UNL     1      26.621 -47.484 -12.573  1.00  0.00    -0.070 CG0
ATOM      9  C   UNL     1      26.916 -48.962 -12.621  1.00  0.00     0.039 C 
ATOM     10  G   UNL     1      25.637 -46.969 -11.529  1.00  0.00     0.000 G0
ENDBRANCH   6   7
ENDBRANCH   5   6
ENDBRANCH   3   5
ENDBRANCH   1   3
BRANCH   1  11
ATOM     11  C   UNL     1      27.665 -44.747  -9.739  1.00  0.00     0.087 C 
BRANCH  11  12
ATOM     12  C   UNL     1      26.258 -45.371  -9.559  1.00  0.00     0.066 C 
BRANCH  12  13
ATOM     13  C   UNL     1      26.198 -46.773 -10.150  1.00  0.00     0.140 C 
ATOM     14  O   UNL     1      26.589 -47.736  -9.506  1.00  0.00    -0.299 OA
BRANCH  13  15
ATOM     15  C   UNL     1      25.621 -46.980 -11.529  1.00  0.00     0.106 CG0
ATOM     16  G   UNL     1      26.628 -47.488 -12.553  1.00  0.00     0.000 G0
ENDBRANCH  13  15
ENDBRANCH  12  13
BRANCH  12  17
ATOM     17  C   UNL     1      25.748 -45.274  -8.087  1.00  0.00    -0.006 C 
ATOM     18  C   UNL     1      24.817 -44.080  -7.807  1.00  0.00     0.008 C 
ATOM     19  C   UNL     1      26.910 -45.293  -7.082  1.00  0.00     0.008 C 
ENDBRANCH  12  17
ENDBRANCH  11  12
ENDBRANCH   1  11
TORSDOF 1
ENDMDL
MODEL 4
REMARK VINA RESULT:    -2.639      1.904      4.433
REMARK INTER + INTRA:          -4.337
REMARK INTER:                  -4.020
REMARK INTRA:                  -0.317
REMARK UNBOUND:                -0.309
REMARK SMILES CC1=CCC[C@@H](C)C(=O)C[C@H](C(C)C)C(=O)C1
REMARK SMILES IDX 8 1 9 2 6 3 7 4 5 5 4 6 3 7 2 8 1 9 10 11 11 12 15 13 16 14
REMARK SMILES IDX 17 15 12 17 13 18 14 19
REMARK H PARENT
REMARK Flexibility Score: 70.00
ROOT
ATOM      1  C   UNL     1      24.777 -33.544 -14.125  1.00  0.00     0.136 C 
ATOM      2  O   UNL     1      24.342 -34.118 -15.114  1.00  0.00    -0.299 OA
ENDROOT
BRANCH   1   3
ATOM      3  C   UNL     1      23.933 -32.475 -13.455  1.00  0.00     0.053 C 
ATOM      4  C   UNL     1      24.343 -31.080 -13.947  1.00  0.00     0.016 C 
BRANCH   3   5
ATOM      5  C   UNL     1      24.055 -32.575 -11.916  1.00  0.00     0.015 C 
BRANCH   5   6
ATOM      6  C   UNL     1      24.575 -31.261 -11.301  1.00  0.00     0.028 C 
BRANCH   6   7
ATOM      7  C   UNL     1      25.662 -31.470 -10.276  1.00  0.00    -0.028 C 
ATOM      8  C   UNL     1      26.992 -31.518 -10.536  1.00  0.00    -0.070 CG0
ATOM      9  C   UNL     1      27.917 -31.839  -9.388  1.00  0.00     0.039 C 
ATOM     10  G   UNL     1      27.599 -31.219 -11.901  1.00  0.00     0.000 G0
ENDBRANCH   6   7
ENDBRANCH   5   6
ENDBRANCH   3   5
ENDBRANCH   1   3
BRANCH   1  11
ATOM     11  C   UNL     1      26.141 -33.926 -13.595  1.00  0.00     0.087 C 
BRANCH  11  12
ATOM     12  C   UNL     1      27.211 -32.852 -13.914  1.00  0.00     0.066 C 
BRANCH  12  13
ATOM     13  C   UNL     1      27.999 -32.473 -12.668  1.00  0.00     0.140 C 
ATOM     14  O   UNL     1      28.951 -33.149 -12.305  1.00  0.00    -0.299 OA
BRANCH  13  15
ATOM     15  C   UNL     1      27.621 -31.235 -11.891  1.00  0.00     0.106 CG0
ATOM     16  G   UNL     1      27.014 -31.522 -10.524  1.00  0.00     0.000 G0
ENDBRANCH  13  15
ENDBRANCH  12  13
BRANCH  12  17
ATOM     17  C   UNL     1      28.099 -33.241 -15.138  1.00  0.00    -0.006 C 
ATOM     18  C   UNL     1      27.713 -32.547 -16.457  1.00  0.00     0.008 C 
ATOM     19  C   UNL     1      28.159 -34.764 -15.333  1.00  0.00     0.008 C 
ENDBRANCH  12  17
ENDBRANCH  11  12
ENDBRANCH   1  11
TORSDOF 1
ENDMDL
MODEL 5
REMARK VINA RESULT:    -2.580      2.169      4.388
REMARK INTER + INTRA:          -4.247
REMARK INTER:                  -4.564
REMARK INTRA:                   0.316
REMARK UNBOUND:                -0.309
REMARK SMILES CC1=CCC[C@@H](C)C(=O)C[C@H](C(C)C)C(=O)C1
REMARK SMILES IDX 8 1 9 2 6 3 7 4 5 5 4 6 3 7 2 8 1 9 10 11 11 12 15 13 16 14
REMARK SMILES IDX 17 15 12 17 13 18 14 19
REMARK H PARENT
REMARK Flexibility Score: 70.00
ROOT
ATOM      1  C   UNL     1      24.002 -33.809 -14.185  1.00  0.00     0.136 C 
ATOM      2  O   UNL     1      23.385 -34.655 -13.552  1.00  0.00    -0.299 OA
ENDROOT
BRANCH   1   3
ATOM      3  C   UNL     1      24.732 -34.214 -15.452  1.00  0.00     0.053 C 
ATOM      4  C   UNL     1      24.892 -35.739 -15.517  1.00  0.00     0.016 C 
BRANCH   3   5
ATOM      5  C   UNL     1      26.108 -33.511 -15.533  1.00  0.00     0.015 C 
BRANCH   5   6
ATOM      6  C   UNL     1      27.032 -33.938 -14.377  1.00  0.00     0.028 C 
BRANCH   6   7
ATOM      7  C   UNL     1      28.104 -32.924 -14.062  1.00  0.00    -0.028 C 
ATOM      8  C   UNL     1      27.888 -31.655 -13.634  1.00  0.00    -0.070 CG0
ATOM      9  C   UNL     1      29.090 -30.759 -13.472  1.00  0.00     0.039 C 
ATOM     10  G   UNL     1      26.514 -31.109 -13.264  1.00  0.00     0.000 G0
ENDBRANCH   6   7
ENDBRANCH   5   6
ENDBRANCH   3   5
ENDBRANCH   1   3
BRANCH   1  11
ATOM     11  C   UNL     1      24.010 -32.381 -13.686  1.00  0.00     0.087 C 
BRANCH  11  12
ATOM     12  C   UNL     1      24.447 -32.284 -12.203  1.00  0.00     0.066 C 
BRANCH  12  13
ATOM     13  C   UNL     1      25.874 -31.769 -12.083  1.00  0.00     0.140 C 
ATOM     14  O   UNL     1      26.508 -31.928 -11.050  1.00  0.00    -0.299 OA
BRANCH  13  15
ATOM     15  C   UNL     1      26.524 -31.084 -13.261  1.00  0.00     0.106 CG0
ATOM     16  G   UNL     1      27.888 -31.651 -13.633  1.00  0.00     0.000 G0
ENDBRANCH  13  15
ENDBRANCH  12  13
BRANCH  12  17
ATOM     17  C   UNL     1      23.412 -31.512 -11.326  1.00  0.00    -0.006 C 
ATOM     18  C   UNL     1      23.560 -29.980 -11.358  1.00  0.00     0.008 C 
ATOM     19  C   UNL     1      23.408 -32.019  -9.876  1.00  0.00     0.008 C 
ENDBRANCH  12  17
ENDBRANCH  11  12
ENDBRANCH   1  11
TORSDOF 1
ENDMDL
MODEL 6
REMARK VINA RESULT:    -2.524     20.466     21.450
REMARK INTER + INTRA:          -4.161
REMARK INTER:                  -4.306
REMARK INTRA:                   0.145
REMARK UNBOUND:                -0.309
REMARK SMILES CC1=CCC[C@@H](C)C(=O)C[C@H](C(C)C)C(=O)C1
REMARK SMILES IDX 8 1 9 2 6 3 7 4 5 5 4 6 3 7 2 8 1 9 10 11 11 12 15 13 16 14
REMARK SMILES IDX 17 15 12 17 13 18 14 19
REMARK H PARENT
REMARK Flexibility Score: 70.00
ROOT
ATOM      1  C   UNL     1      15.683 -49.718  -5.934  1.00  0.00     0.136 C 
ATOM      2  O   UNL     1      16.897 -49.571  -5.910  1.00  0.00    -0.299 OA
ENDROOT
BRANCH   1   3
ATOM      3  C   UNL     1      14.996 -50.017  -7.254  1.00  0.00     0.053 C 
ATOM      4  C   UNL     1      15.962 -49.790  -8.426  1.00  0.00     0.016 C 
BRANCH   3   5
ATOM      5  C   UNL     1      13.724 -49.152  -7.411  1.00  0.00     0.015 C 
BRANCH   5   6
ATOM      6  C   UNL     1      14.068 -47.655  -7.538  1.00  0.00     0.028 C 
BRANCH   6   7
ATOM      7  C   UNL     1      12.956 -46.745  -7.077  1.00  0.00    -0.028 C 
ATOM      8  C   UNL     1      12.290 -46.847  -5.900  1.00  0.00    -0.070 CG0
ATOM      9  C   UNL     1      11.137 -45.903  -5.666  1.00  0.00     0.039 C 
ATOM     10  G   UNL     1      12.673 -47.821  -4.792  1.00  0.00     0.000 G0
ENDBRANCH   6   7
ENDBRANCH   5   6
ENDBRANCH   3   5
ENDBRANCH   1   3
BRANCH   1  11
ATOM     11  C   UNL     1      14.904 -49.607  -4.643  1.00  0.00     0.087 C 
BRANCH  11  12
ATOM     12  C   UNL     1      15.130 -48.243  -3.942  1.00  0.00     0.066 C 
BRANCH  12  13
ATOM     13  C   UNL     1      13.856 -47.410  -3.935  1.00  0.00     0.140 C 
ATOM     14  O   UNL     1      13.790 -46.381  -3.278  1.00  0.00    -0.299 OA
BRANCH  13  15
ATOM     15  C   UNL     1      12.676 -47.840  -4.772  1.00  0.00     0.106 CG0
ATOM     16  G   UNL     1      12.315 -46.863  -5.883  1.00  0.00     0.000 G0
ENDBRANCH  13  15
ENDBRANCH  12  13
BRANCH  12  17
ATOM     17  C   UNL     1      15.802 -48.399  -2.541  1.00  0.00    -0.006 C 
ATOM     18  C   UNL     1      17.279 -48.830  -2.582  1.00  0.00     0.008 C 
ATOM     19  C   UNL     1      14.996 -49.335  -1.627  1.00  0.00     0.008 C 
ENDBRANCH  12  17
ENDBRANCH  11  12
ENDBRANCH   1  11
TORSDOF 1
ENDMDL
MODEL 7
REMARK VINA RESULT:    -2.510     13.007     14.264
REMARK INTER + INTRA:          -4.140
REMARK INTER:                  -3.816
REMARK INTRA:                  -0.323
REMARK UNBOUND:                -0.309
REMARK SMILES CC1=CCC[C@@H](C)C(=O)C[C@H](C(C)C)C(=O)C1
REMARK SMILES IDX 8 1 9 2 6 3 7 4 5 5 4 6 3 7 2 8 1 9 10 11 11 12 15 13 16 14
REMARK SMILES IDX 17 15 12 17 13 18 14 19
REMARK H PARENT
REMARK Flexibility Score: 70.00
ROOT
ATOM      1  C   UNL     1      25.938 -44.433  -9.267  1.00  0.00     0.136 C 
ATOM      2  O   UNL     1      25.988 -43.231  -9.050  1.00  0.00    -0.299 OA
ENDROOT
BRANCH   1   3
ATOM      3  C   UNL     1      26.050 -45.404  -8.106  1.00  0.00     0.053 C 
ATOM      4  C   UNL     1      24.891 -45.199  -7.121  1.00  0.00     0.016 C 
BRANCH   3   5
ATOM      5  C   UNL     1      27.414 -45.242  -7.395  1.00  0.00     0.015 C 
BRANCH   5   6
ATOM      6  C   UNL     1      28.469 -46.210  -7.965  1.00  0.00     0.028 C 
BRANCH   6   7
ATOM      7  C   UNL     1      27.900 -47.551  -8.359  1.00  0.00    -0.028 C 
ATOM      8  C   UNL     1      27.799 -48.022  -9.627  1.00  0.00    -0.070 CG0
ATOM      9  C   UNL     1      27.104 -49.346  -9.826  1.00  0.00     0.039 C 
ATOM     10  G   UNL     1      28.389 -47.317 -10.842  1.00  0.00     0.000 G0
ENDBRANCH   6   7
ENDBRANCH   5   6
ENDBRANCH   3   5
ENDBRANCH   1   3
BRANCH   1  11
ATOM     11  C   UNL     1      25.755 -44.916 -10.689  1.00  0.00     0.087 C 
BRANCH  11  12
ATOM     12  C   UNL     1      27.109 -45.100 -11.420  1.00  0.00     0.066 C 
BRANCH  12  13
ATOM     13  C   UNL     1      27.390 -46.571 -11.694  1.00  0.00     0.140 C 
ATOM     14  O   UNL     1      26.828 -47.151 -12.612  1.00  0.00    -0.299 OA
BRANCH  13  15
ATOM     15  C   UNL     1      28.396 -47.311 -10.846  1.00  0.00     0.106 CG0
ATOM     16  G   UNL     1      27.790 -48.014  -9.637  1.00  0.00     0.000 G0
ENDBRANCH  13  15
ENDBRANCH  12  13
BRANCH  12  17
ATOM     17  C   UNL     1      27.239 -44.179 -12.674  1.00  0.00    -0.006 C 
ATOM     18  C   UNL     1      28.221 -43.005 -12.509  1.00  0.00     0.008 C 
ATOM     19  C   UNL     1      25.869 -43.669 -13.146  1.00  0.00     0.008 C 
ENDBRANCH  12  17
ENDBRANCH  11  12
ENDBRANCH   1  11
TORSDOF 1
ENDMDL
MODEL 8
REMARK VINA RESULT:    -2.406     13.489     14.464
REMARK INTER + INTRA:          -3.981
REMARK INTER:                  -3.872
REMARK INTRA:                  -0.109
REMARK UNBOUND:                -0.309
REMARK SMILES CC1=CCC[C@@H](C)C(=O)C[C@H](C(C)C)C(=O)C1
REMARK SMILES IDX 8 1 9 2 6 3 7 4 5 5 4 6 3 7 2 8 1 9 10 11 11 12 15 13 16 14
REMARK SMILES IDX 17 15 12 17 13 18 14 19
REMARK H PARENT
REMARK Flexibility Score: 70.00
ROOT
ATOM      1  C   UNL     1      26.230 -45.340  -7.705  1.00  0.00     0.136 C 
ATOM      2  O   UNL     1      25.505 -45.769  -6.817  1.00  0.00    -0.299 OA
ENDROOT
BRANCH   1   3
ATOM      3  C   UNL     1      26.116 -43.885  -8.120  1.00  0.00     0.053 C 
ATOM      4  C   UNL     1      24.643 -43.488  -8.290  1.00  0.00     0.016 C 
BRANCH   3   5
ATOM      5  C   UNL     1      26.910 -43.630  -9.422  1.00  0.00     0.015 C 
BRANCH   5   6
ATOM      6  C   UNL     1      26.010 -43.742 -10.667  1.00  0.00     0.028 C 
BRANCH   6   7
ATOM      7  C   UNL     1      26.663 -44.475 -11.814  1.00  0.00    -0.028 C 
ATOM      8  C   UNL     1      26.622 -45.815 -12.018  1.00  0.00    -0.070 CG0
ATOM      9  C   UNL     1      27.425 -46.371 -13.168  1.00  0.00     0.039 C 
ATOM     10  G   UNL     1      25.776 -46.773 -11.188  1.00  0.00     0.000 G0
ENDBRANCH   6   7
ENDBRANCH   5   6
ENDBRANCH   3   5
ENDBRANCH   1   3
BRANCH   1  11
ATOM     11  C   UNL     1      27.226 -46.275  -8.354  1.00  0.00     0.087 C 
BRANCH  11  12
ATOM     12  C   UNL     1      26.567 -47.601  -8.813  1.00  0.00     0.066 C 
BRANCH  12  13
ATOM     13  C   UNL     1      26.582 -47.726 -10.330  1.00  0.00     0.140 C 
ATOM     14  O   UNL     1      27.219 -48.616 -10.874  1.00  0.00    -0.299 OA
BRANCH  13  15
ATOM     15  C   UNL     1      25.776 -46.763 -11.168  1.00  0.00     0.106 CG0
ATOM     16  G   UNL     1      26.620 -45.837 -12.034  1.00  0.00     0.000 G0
ENDBRANCH  13  15
ENDBRANCH  12  13
BRANCH  12  17
ATOM     17  C   UNL     1      27.144 -48.843  -8.063  1.00  0.00    -0.006 C 
ATOM     18  C   UNL     1      26.084 -49.735  -7.391  1.00  0.00     0.008 C 
ATOM     19  C   UNL     1      28.226 -48.440  -7.049  1.00  0.00     0.008 C 
ENDBRANCH  12  17
ENDBRANCH  11  12
ENDBRANCH   1  11
TORSDOF 1
ENDMDL
MODEL 9
REMARK VINA RESULT:    -2.377     12.944     14.097
REMARK INTER + INTRA:          -3.936
REMARK INTER:                  -4.097
REMARK INTRA:                   0.161
REMARK UNBOUND:                -0.309
REMARK SMILES CC1=CCC[C@@H](C)C(=O)C[C@H](C(C)C)C(=O)C1
REMARK SMILES IDX 8 1 9 2 6 3 7 4 5 5 4 6 3 7 2 8 1 9 10 11 11 12 15 13 16 14
REMARK SMILES IDX 17 15 12 17 13 18 14 19
REMARK H PARENT
REMARK Flexibility Score: 70.00
ROOT
ATOM      1  C   UNL     1      25.518 -45.552  -9.928  1.00  0.00     0.136 C 
ATOM      2  O   UNL     1      25.119 -46.704 -10.022  1.00  0.00    -0.299 OA
ENDROOT
BRANCH   1   3
ATOM      3  C   UNL     1      24.920 -44.641  -8.871  1.00  0.00     0.053 C 
ATOM      4  C   UNL     1      25.604 -43.268  -8.895  1.00  0.00     0.016 C 
BRANCH   3   5
ATOM      5  C   UNL     1      25.032 -45.290  -7.471  1.00  0.00     0.015 C 
BRANCH   5   6
ATOM      6  C   UNL     1      26.482 -45.271  -6.952  1.00  0.00     0.028 C 
BRANCH   6   7
ATOM      7  C   UNL     1      27.090 -46.647  -6.828  1.00  0.00    -0.028 C 
ATOM      8  C   UNL     1      28.211 -47.073  -7.462  1.00  0.00    -0.070 CG0
ATOM      9  C   UNL     1      28.603 -48.520  -7.290  1.00  0.00     0.039 C 
ATOM     10  G   UNL     1      29.113 -46.166  -8.290  1.00  0.00     0.000 G0
ENDBRANCH   6   7
ENDBRANCH   5   6
ENDBRANCH   3   5
ENDBRANCH   1   3
BRANCH   1  11
ATOM     11  C   UNL     1      26.606 -45.073 -10.863  1.00  0.00     0.087 C 
BRANCH  11  12
ATOM     12  C   UNL     1      27.911 -44.719 -10.105  1.00  0.00     0.066 C 
BRANCH  12  13
ATOM     13  C   UNL     1      28.681 -45.975  -9.721  1.00  0.00     0.140 C 
ATOM     14  O   UNL     1      28.968 -46.811 -10.565  1.00  0.00    -0.299 OA
BRANCH  13  15
ATOM     15  C   UNL     1      29.124 -46.174  -8.291  1.00  0.00     0.106 CG0
ATOM     16  G   UNL     1      28.198 -47.067  -7.474  1.00  0.00     0.000 G0
ENDBRANCH  13  15
ENDBRANCH  12  13
BRANCH  12  17
ATOM     17  C   UNL     1      28.765 -43.649 -10.856  1.00  0.00    -0.006 C 
ATOM     18  C   UNL     1      28.508 -42.197 -10.412  1.00  0.00     0.008 C 
ATOM     19  C   UNL     1      28.620 -43.777 -12.379  1.00  0.00     0.008 C 
ENDBRANCH  12  17
ENDBRANCH  11  12
ENDBRANCH   1  11
TORSDOF 1
ENDMDL
