MODEL 1
REMARK VINA RESULT:    -7.629      0.000      0.000
REMARK INTER + INTRA:          -9.288
REMARK INTER:                  -8.967
REMARK INTRA:                  -0.320
REMARK UNBOUND:                -0.320
REMARK SMILES O=c1c(O)c(-c2ccc(O)c(O)c2)oc2cc(O)ccc12
REMARK SMILES IDX 5 1 3 2 2 3 1 4 21 5 15 6 14 7 16 8 17 9 19 10 20 11 6 12
REMARK SMILES IDX 7 13 8 14 9 15 13 16 11 17 10 18 12 20 4 22 18 24
REMARK H PARENT 10 19 12 21 4 23 18 25
REMARK Flexibility Score: inf
ROOT
ATOM      1  C   UNL     1       6.550   6.415  -0.594  1.00  0.00     0.180 A 
ATOM      2  C   UNL     1       5.691   6.955   0.385  1.00  0.00     0.208 A 
ATOM      3  C   UNL     1       5.852   6.556   1.721  1.00  0.00     0.235 A 
ATOM      4  O   UNL     1       5.102   7.033   2.617  1.00  0.00    -0.285 OA
ATOM      5  C   UNL     1       6.845   5.618   2.046  1.00  0.00     0.069 A 
ATOM      6  C   UNL     1       7.649   5.107   1.004  1.00  0.00     0.142 A 
ATOM      7  O   UNL     1       7.470   5.518  -0.246  1.00  0.00    -0.452 OA
ATOM      8  C   UNL     1       8.643   4.164   1.286  1.00  0.00     0.094 A 
ATOM      9  C   UNL     1       8.847   3.725   2.598  1.00  0.00     0.119 A 
ATOM     10  C   UNL     1       8.052   4.230   3.636  1.00  0.00     0.047 A 
ATOM     11  C   UNL     1       7.055   5.173   3.363  1.00  0.00     0.020 A 
ENDROOT
BRANCH   1  12
ATOM     12  C   UNL     1       6.456   6.801  -2.021  1.00  0.00     0.025 A 
ATOM     13  C   UNL     1       7.101   7.949  -2.514  1.00  0.00     0.016 A 
ATOM     14  C   UNL     1       7.017   8.279  -3.869  1.00  0.00     0.051 A 
ATOM     15  C   UNL     1       6.302   7.461  -4.754  1.00  0.00     0.157 A 
ATOM     16  C   UNL     1       5.758   5.973  -2.915  1.00  0.00     0.062 A 
ATOM     17  C   UNL     1       5.671   6.301  -4.273  1.00  0.00     0.158 A 
BRANCH  15  18
ATOM     18  O   UNL     1       6.219   7.795  -6.105  1.00  0.00    -0.504 OA
ATOM     19  H   UNL     1       5.342   8.065  -6.531  1.00  0.00     0.293 HD
ENDBRANCH  15  18
BRANCH  17  20
ATOM     20  O   UNL     1       4.958   5.462  -5.129  1.00  0.00    -0.504 OA
ATOM     21  H   UNL     1       4.208   4.867  -4.797  1.00  0.00     0.293 HD
ENDBRANCH  17  20
ENDBRANCH   1  12
BRANCH   2  22
ATOM     22  O   UNL     1       4.680   7.849   0.024  1.00  0.00    -0.502 OA
ATOM     23  H   UNL     1       4.318   7.905  -0.920  1.00  0.00     0.293 HD
ENDBRANCH   2  22
BRANCH   9  24
ATOM     24  O   UNL     1       9.841   2.785   2.861  1.00  0.00    -0.508 OA
ATOM     25  H   UNL     1       9.844   2.242   3.717  1.00  0.00     0.293 HD
ENDBRANCH   9  24
TORSDOF 5
ENDMDL
MODEL 2
REMARK VINA RESULT:    -7.592      2.058      3.445
REMARK INTER + INTRA:          -9.244
REMARK INTER:                  -8.930
REMARK INTRA:                  -0.315
REMARK UNBOUND:                -0.320
REMARK SMILES O=c1c(O)c(-c2ccc(O)c(O)c2)oc2cc(O)ccc12
REMARK SMILES IDX 5 1 3 2 2 3 1 4 21 5 15 6 14 7 16 8 17 9 19 10 20 11 6 12
REMARK SMILES IDX 7 13 8 14 9 15 13 16 11 17 10 18 12 20 4 22 18 24
REMARK H PARENT 10 19 12 21 4 23 18 25
REMARK Flexibility Score: inf
ROOT
ATOM      1  C   UNL     1       6.550   5.558   1.189  1.00  0.00     0.180 A 
ATOM      2  C   UNL     1       7.851   5.014   1.199  1.00  0.00     0.208 A 
ATOM      3  C   UNL     1       8.231   4.191   2.270  1.00  0.00     0.235 A 
ATOM      4  O   UNL     1       9.386   3.684   2.297  1.00  0.00    -0.285 OA
ATOM      5  C   UNL     1       7.320   3.947   3.310  1.00  0.00     0.069 A 
ATOM      6  C   UNL     1       6.045   4.548   3.237  1.00  0.00     0.142 A 
ATOM      7  O   UNL     1       5.721   5.313   2.201  1.00  0.00    -0.452 OA
ATOM      8  C   UNL     1       5.112   4.336   4.258  1.00  0.00     0.094 A 
ATOM      9  C   UNL     1       5.436   3.529   5.354  1.00  0.00     0.119 A 
ATOM     10  C   UNL     1       6.700   2.929   5.430  1.00  0.00     0.047 A 
ATOM     11  C   UNL     1       7.640   3.136   4.414  1.00  0.00     0.020 A 
ENDROOT
BRANCH   1  12
ATOM     12  C   UNL     1       6.068   6.420   0.085  1.00  0.00     0.025 A 
ATOM     13  C   UNL     1       6.201   7.819   0.136  1.00  0.00     0.016 A 
ATOM     14  C   UNL     1       5.759   8.610  -0.928  1.00  0.00     0.051 A 
ATOM     15  C   UNL     1       5.192   8.016  -2.064  1.00  0.00     0.157 A 
ATOM     16  C   UNL     1       5.518   5.828  -1.064  1.00  0.00     0.062 A 
ATOM     17  C   UNL     1       5.074   6.618  -2.131  1.00  0.00     0.158 A 
BRANCH  15  18
ATOM     18  O   UNL     1       4.751   8.808  -3.122  1.00  0.00    -0.504 OA
ATOM     19  H   UNL     1       4.517   8.408  -4.022  1.00  0.00     0.293 HD
ENDBRANCH  15  18
BRANCH  17  20
ATOM     20  O   UNL     1       4.521   5.995  -3.250  1.00  0.00    -0.504 OA
ATOM     21  H   UNL     1       4.266   5.014  -3.249  1.00  0.00     0.293 HD
ENDBRANCH  17  20
ENDBRANCH   1  12
BRANCH   2  22
ATOM     22  O   UNL     1       8.752   5.315   0.175  1.00  0.00    -0.502 OA
ATOM     23  H   UNL     1       9.096   4.611  -0.467  1.00  0.00     0.293 HD
ENDBRANCH   2  22
BRANCH   9  24
ATOM     24  O   UNL     1       4.496   3.329   6.362  1.00  0.00    -0.508 OA
ATOM     25  H   UNL     1       3.533   3.626   6.254  1.00  0.00     0.293 HD
ENDBRANCH   9  24
TORSDOF 5
ENDMDL
MODEL 3
REMARK VINA RESULT:    -7.404     13.596     15.557
REMARK INTER + INTRA:          -9.022
REMARK INTER:                  -9.036
REMARK INTRA:                   0.014
REMARK UNBOUND:                -0.320
REMARK SMILES O=c1c(O)c(-c2ccc(O)c(O)c2)oc2cc(O)ccc12
REMARK SMILES IDX 5 1 3 2 2 3 1 4 21 5 15 6 14 7 16 8 17 9 19 10 20 11 6 12
REMARK SMILES IDX 7 13 8 14 9 15 13 16 11 17 10 18 12 20 4 22 18 24
REMARK H PARENT 10 19 12 21 4 23 18 25
REMARK Flexibility Score: inf
ROOT
ATOM      1  C   UNL     1       1.950  -7.864   3.802  1.00  0.00     0.180 A 
ATOM      2  C   UNL     1       2.004  -8.891   4.767  1.00  0.00     0.208 A 
ATOM      3  C   UNL     1       1.397  -8.681   6.014  1.00  0.00     0.235 A 
ATOM      4  O   UNL     1       1.424  -9.590   6.890  1.00  0.00    -0.285 OA
ATOM      5  C   UNL     1       0.771  -7.453   6.279  1.00  0.00     0.069 A 
ATOM      6  C   UNL     1       0.780  -6.466   5.269  1.00  0.00     0.142 A 
ATOM      7  O   UNL     1       1.358  -6.709   4.099  1.00  0.00    -0.452 OA
ATOM      8  C   UNL     1       0.175  -5.226   5.498  1.00  0.00     0.094 A 
ATOM      9  C   UNL     1      -0.442  -4.957   6.724  1.00  0.00     0.119 A 
ATOM     10  C   UNL     1      -0.455  -5.934   7.728  1.00  0.00     0.047 A 
ATOM     11  C   UNL     1       0.149  -7.177   7.510  1.00  0.00     0.020 A 
ENDROOT
BRANCH   1  12
ATOM     12  C   UNL     1       2.550  -8.016   2.457  1.00  0.00     0.025 A 
ATOM     13  C   UNL     1       2.325  -9.166   1.680  1.00  0.00     0.016 A 
ATOM     14  C   UNL     1       2.883  -9.276   0.404  1.00  0.00     0.051 A 
ATOM     15  C   UNL     1       3.661  -8.236  -0.121  1.00  0.00     0.157 A 
ATOM     16  C   UNL     1       3.313  -6.967   1.919  1.00  0.00     0.062 A 
ATOM     17  C   UNL     1       3.874  -7.074   0.641  1.00  0.00     0.158 A 
BRANCH  15  18
ATOM     18  O   UNL     1       4.217  -8.350  -1.394  1.00  0.00    -0.504 OA
ATOM     19  H   UNL     1       4.049  -9.162  -1.975  1.00  0.00     0.293 HD
ENDBRANCH  15  18
BRANCH  17  20
ATOM     20  O   UNL     1       4.636  -6.018   0.144  1.00  0.00    -0.504 OA
ATOM     21  H   UNL     1       4.273  -5.074   0.083  1.00  0.00     0.293 HD
ENDBRANCH  17  20
ENDBRANCH   1  12
BRANCH   2  22
ATOM     22  O   UNL     1       2.677 -10.085   4.492  1.00  0.00    -0.502 OA
ATOM     23  H   UNL     1       3.503 -10.371   5.003  1.00  0.00     0.293 HD
ENDBRANCH   2  22
BRANCH   9  24
ATOM     24  O   UNL     1      -1.040  -3.717   6.934  1.00  0.00    -0.508 OA
ATOM     25  H   UNL     1      -0.750  -3.112   7.694  1.00  0.00     0.293 HD
ENDBRANCH   9  24
TORSDOF 5
ENDMDL
MODEL 4
REMARK VINA RESULT:    -7.349      1.996      7.040
REMARK INTER + INTRA:          -8.958
REMARK INTER:                  -8.752
REMARK INTRA:                  -0.206
REMARK UNBOUND:                -0.320
REMARK SMILES O=c1c(O)c(-c2ccc(O)c(O)c2)oc2cc(O)ccc12
REMARK SMILES IDX 5 1 3 2 2 3 1 4 21 5 15 6 14 7 16 8 17 9 19 10 20 11 6 12
REMARK SMILES IDX 7 13 8 14 9 15 13 16 11 17 10 18 12 20 4 22 18 24
REMARK H PARENT 10 19 12 21 4 23 18 25
REMARK Flexibility Score: inf
ROOT
ATOM      1  C   UNL     1       5.798   5.398   2.263  1.00  0.00     0.180 A 
ATOM      2  C   UNL     1       5.557   6.716   2.704  1.00  0.00     0.208 A 
ATOM      3  C   UNL     1       5.300   7.712   1.749  1.00  0.00     0.235 A 
ATOM      4  O   UNL     1       5.072   8.897   2.120  1.00  0.00    -0.285 OA
ATOM      5  C   UNL     1       5.309   7.379   0.385  1.00  0.00     0.069 A 
ATOM      6  C   UNL     1       5.581   6.042   0.025  1.00  0.00     0.142 A 
ATOM      7  O   UNL     1       5.810   5.128   0.960  1.00  0.00    -0.452 OA
ATOM      8  C   UNL     1       5.607   5.673  -1.324  1.00  0.00     0.094 A 
ATOM      9  C   UNL     1       5.363   6.624  -2.321  1.00  0.00     0.119 A 
ATOM     10  C   UNL     1       5.091   7.952  -1.967  1.00  0.00     0.047 A 
ATOM     11  C   UNL     1       5.064   8.331  -0.621  1.00  0.00     0.020 A 
ENDROOT
BRANCH   1  12
ATOM     12  C   UNL     1       6.058   4.288   3.209  1.00  0.00     0.025 A 
ATOM     13  C   UNL     1       5.062   3.825   4.087  1.00  0.00     0.016 A 
ATOM     14  C   UNL     1       5.324   2.761   4.953  1.00  0.00     0.051 A 
ATOM     15  C   UNL     1       6.578   2.134   4.946  1.00  0.00     0.157 A 
ATOM     16  C   UNL     1       7.306   3.644   3.191  1.00  0.00     0.062 A 
ATOM     17  C   UNL     1       7.572   2.578   4.058  1.00  0.00     0.158 A 
BRANCH  15  18
ATOM     18  O   UNL     1       6.836   1.074   5.814  1.00  0.00    -0.504 OA
ATOM     19  H   UNL     1       7.715   0.573   5.792  1.00  0.00     0.293 HD
ENDBRANCH  15  18
BRANCH  17  20
ATOM     20  O   UNL     1       8.827   1.971   4.021  1.00  0.00    -0.504 OA
ATOM     21  H   UNL     1       9.663   2.480   3.758  1.00  0.00     0.293 HD
ENDBRANCH  17  20
ENDBRANCH   1  12
BRANCH   2  22
ATOM     22  O   UNL     1       5.604   7.026   4.065  1.00  0.00    -0.502 OA
ATOM     23  H   UNL     1       5.371   7.946   4.419  1.00  0.00     0.293 HD
ENDBRANCH   2  22
BRANCH   9  24
ATOM     24  O   UNL     1       5.394   6.239  -3.659  1.00  0.00    -0.508 OA
ATOM     25  H   UNL     1       5.079   6.860  -4.396  1.00  0.00     0.293 HD
ENDBRANCH   9  24
TORSDOF 5
ENDMDL
MODEL 5
REMARK VINA RESULT:    -7.211     17.363     18.928
REMARK INTER + INTRA:          -8.797
REMARK INTER:                  -8.626
REMARK INTRA:                  -0.170
REMARK UNBOUND:                -0.320
REMARK SMILES O=c1c(O)c(-c2ccc(O)c(O)c2)oc2cc(O)ccc12
REMARK SMILES IDX 5 1 3 2 2 3 1 4 21 5 15 6 14 7 16 8 17 9 19 10 20 11 6 12
REMARK SMILES IDX 7 13 8 14 9 15 13 16 11 17 10 18 12 20 4 22 18 24
REMARK H PARENT 10 19 12 21 4 23 18 25
REMARK Flexibility Score: inf
ROOT
ATOM      1  C   UNL     1      -8.476  -2.913   1.715  1.00  0.00     0.180 A 
ATOM      2  C   UNL     1      -8.204  -2.196   0.531  1.00  0.00     0.208 A 
ATOM      3  C   UNL     1      -7.971  -2.910  -0.654  1.00  0.00     0.235 A 
ATOM      4  O   UNL     1      -7.735  -2.291  -1.728  1.00  0.00    -0.285 OA
ATOM      5  C   UNL     1      -7.993  -4.314  -0.629  1.00  0.00     0.069 A 
ATOM      6  C   UNL     1      -8.249  -4.958   0.600  1.00  0.00     0.142 A 
ATOM      7  O   UNL     1      -8.474  -4.244   1.697  1.00  0.00    -0.452 OA
ATOM      8  C   UNL     1      -8.271  -6.355   0.667  1.00  0.00     0.094 A 
ATOM      9  C   UNL     1      -8.041  -7.120  -0.481  1.00  0.00     0.119 A 
ATOM     10  C   UNL     1      -7.787  -6.485  -1.704  1.00  0.00     0.047 A 
ATOM     11  C   UNL     1      -7.763  -5.088  -1.781  1.00  0.00     0.020 A 
ENDROOT
BRANCH   1  12
ATOM     12  C   UNL     1      -8.751  -2.232   3.001  1.00  0.00     0.025 A 
ATOM     13  C   UNL     1      -9.873  -1.402   3.165  1.00  0.00     0.016 A 
ATOM     14  C   UNL     1     -10.125  -0.789   4.395  1.00  0.00     0.051 A 
ATOM     15  C   UNL     1      -9.268  -1.007   5.483  1.00  0.00     0.157 A 
ATOM     16  C   UNL     1      -7.906  -2.464   4.099  1.00  0.00     0.062 A 
ATOM     17  C   UNL     1      -8.155  -1.851   5.333  1.00  0.00     0.158 A 
BRANCH  15  18
ATOM     18  O   UNL     1      -9.521  -0.392   6.708  1.00  0.00    -0.504 OA
ATOM     19  H   UNL     1      -8.792  -0.268   7.399  1.00  0.00     0.293 HD
ENDBRANCH  15  18
BRANCH  17  20
ATOM     20  O   UNL     1      -7.287  -2.095   6.397  1.00  0.00    -0.504 OA
ATOM     21  H   UNL     1      -6.441  -2.640   6.287  1.00  0.00     0.293 HD
ENDBRANCH  17  20
ENDBRANCH   1  12
BRANCH   2  22
ATOM     22  O   UNL     1      -8.140  -0.800   0.549  1.00  0.00    -0.502 OA
ATOM     23  H   UNL     1      -8.833  -0.221   0.091  1.00  0.00     0.293 HD
ENDBRANCH   2  22
BRANCH   9  24
ATOM     24  O   UNL     1      -8.066  -8.510  -0.396  1.00  0.00    -0.508 OA
ATOM     25  H   UNL     1      -7.605  -9.003   0.361  1.00  0.00     0.293 HD
ENDBRANCH   9  24
TORSDOF 5
ENDMDL
MODEL 6
REMARK VINA RESULT:    -7.147      1.815      6.698
REMARK INTER + INTRA:          -8.721
REMARK INTER:                  -8.426
REMARK INTRA:                  -0.295
REMARK UNBOUND:                -0.320
REMARK SMILES O=c1c(O)c(-c2ccc(O)c(O)c2)oc2cc(O)ccc12
REMARK SMILES IDX 5 1 3 2 2 3 1 4 21 5 15 6 14 7 16 8 17 9 19 10 20 11 6 12
REMARK SMILES IDX 7 13 8 14 9 15 13 16 11 17 10 18 12 20 4 22 18 24
REMARK H PARENT 10 19 12 21 4 23 18 25
REMARK Flexibility Score: inf
ROOT
ATOM      1  C   UNL     1       5.931   6.269   0.784  1.00  0.00     0.180 A 
ATOM      2  C   UNL     1       5.672   7.618   1.102  1.00  0.00     0.208 A 
ATOM      3  C   UNL     1       5.310   8.499   0.072  1.00  0.00     0.235 A 
ATOM      4  O   UNL     1       5.063   9.708   0.333  1.00  0.00    -0.285 OA
ATOM      5  C   UNL     1       5.235   8.024  -1.248  1.00  0.00     0.069 A 
ATOM      6  C   UNL     1       5.532   6.665  -1.487  1.00  0.00     0.142 A 
ATOM      7  O   UNL     1       5.862   5.862  -0.482  1.00  0.00    -0.452 OA
ATOM      8  C   UNL     1       5.477   6.156  -2.789  1.00  0.00     0.094 A 
ATOM      9  C   UNL     1       5.126   6.988  -3.858  1.00  0.00     0.119 A 
ATOM     10  C   UNL     1       4.829   8.337  -3.624  1.00  0.00     0.047 A 
ATOM     11  C   UNL     1       4.883   8.855  -2.326  1.00  0.00     0.020 A 
ENDROOT
BRANCH   1  12
ATOM     12  C   UNL     1       6.300   5.274   1.817  1.00  0.00     0.025 A 
ATOM     13  C   UNL     1       7.643   4.943   2.069  1.00  0.00     0.016 A 
ATOM     14  C   UNL     1       7.968   4.019   3.065  1.00  0.00     0.051 A 
ATOM     15  C   UNL     1       6.959   3.423   3.834  1.00  0.00     0.157 A 
ATOM     16  C   UNL     1       5.293   4.691   2.604  1.00  0.00     0.062 A 
ATOM     17  C   UNL     1       5.615   3.764   3.603  1.00  0.00     0.158 A 
BRANCH  15  18
ATOM     18  O   UNL     1       7.287   2.500   4.826  1.00  0.00    -0.504 OA
ATOM     19  H   UNL     1       7.464   1.528   4.608  1.00  0.00     0.293 HD
ENDBRANCH  15  18
BRANCH  17  20
ATOM     20  O   UNL     1       4.589   3.195   4.356  1.00  0.00    -0.504 OA
ATOM     21  H   UNL     1       4.763   2.478   5.050  1.00  0.00     0.293 HD
ENDBRANCH  17  20
ENDBRANCH   1  12
BRANCH   2  22
ATOM     22  O   UNL     1       5.803   8.072   2.417  1.00  0.00    -0.502 OA
ATOM     23  H   UNL     1       6.005   7.447   3.188  1.00  0.00     0.293 HD
ENDBRANCH   2  22
BRANCH   9  24
ATOM     24  O   UNL     1       5.077   6.464  -5.148  1.00  0.00    -0.508 OA
ATOM     25  H   UNL     1       4.195   6.246  -5.597  1.00  0.00     0.293 HD
ENDBRANCH   9  24
TORSDOF 5
ENDMDL
MODEL 7
REMARK VINA RESULT:    -7.060      2.549      4.650
REMARK INTER + INTRA:          -8.618
REMARK INTER:                  -8.397
REMARK INTRA:                  -0.221
REMARK UNBOUND:                -0.320
REMARK SMILES O=c1c(O)c(-c2ccc(O)c(O)c2)oc2cc(O)ccc12
REMARK SMILES IDX 5 1 3 2 2 3 1 4 21 5 15 6 14 7 16 8 17 9 19 10 20 11 6 12
REMARK SMILES IDX 7 13 8 14 9 15 13 16 11 17 10 18 12 20 4 22 18 24
REMARK H PARENT 10 19 12 21 4 23 18 25
REMARK Flexibility Score: inf
ROOT
ATOM      1  C   UNL     1       6.815   4.895   2.065  1.00  0.00     0.180 A 
ATOM      2  C   UNL     1       8.136   4.445   1.864  1.00  0.00     0.208 A 
ATOM      3  C   UNL     1       8.648   3.448   2.708  1.00  0.00     0.235 A 
ATOM      4  O   UNL     1       9.824   3.022   2.541  1.00  0.00    -0.285 OA
ATOM      5  C   UNL     1       7.844   2.940   3.742  1.00  0.00     0.069 A 
ATOM      6  C   UNL     1       6.540   3.459   3.892  1.00  0.00     0.142 A 
ATOM      7  O   UNL     1       6.091   4.396   3.065  1.00  0.00    -0.452 OA
ATOM      8  C   UNL     1       5.712   2.985   4.915  1.00  0.00     0.094 A 
ATOM      9  C   UNL     1       6.169   1.995   5.791  1.00  0.00     0.119 A 
ATOM     10  C   UNL     1       7.462   1.476   5.645  1.00  0.00     0.047 A 
ATOM     11  C   UNL     1       8.298   1.945   4.625  1.00  0.00     0.020 A 
ENDROOT
BRANCH   1  12
ATOM     12  C   UNL     1       6.197   5.929   1.204  1.00  0.00     0.025 A 
ATOM     13  C   UNL     1       5.888   5.673  -0.143  1.00  0.00     0.016 A 
ATOM     14  C   UNL     1       5.283   6.657  -0.929  1.00  0.00     0.051 A 
ATOM     15  C   UNL     1       4.965   7.906  -0.379  1.00  0.00     0.157 A 
ATOM     16  C   UNL     1       5.857   7.175   1.757  1.00  0.00     0.062 A 
ATOM     17  C   UNL     1       5.252   8.164   0.973  1.00  0.00     0.158 A 
BRANCH  15  18
ATOM     18  O   UNL     1       4.363   8.886  -1.166  1.00  0.00    -0.504 OA
ATOM     19  H   UNL     1       4.650   9.855  -1.117  1.00  0.00     0.293 HD
ENDBRANCH  15  18
BRANCH  17  20
ATOM     20  O   UNL     1       4.941   9.393   1.553  1.00  0.00    -0.504 OA
ATOM     21  H   UNL     1       5.002   9.547   2.552  1.00  0.00     0.293 HD
ENDBRANCH  17  20
ENDBRANCH   1  12
BRANCH   2  22
ATOM     22  O   UNL     1       8.928   5.005   0.858  1.00  0.00    -0.502 OA
ATOM     23  H   UNL     1       8.912   4.665  -0.096  1.00  0.00     0.293 HD
ENDBRANCH   2  22
BRANCH   9  24
ATOM     24  O   UNL     1       5.332   1.535   6.805  1.00  0.00    -0.508 OA
ATOM     25  H   UNL     1       5.067   0.559   6.871  1.00  0.00     0.293 HD
ENDBRANCH   9  24
TORSDOF 5
ENDMDL
MODEL 8
REMARK VINA RESULT:    -7.015     14.452     16.412
REMARK INTER + INTRA:          -8.565
REMARK INTER:                  -8.296
REMARK INTRA:                  -0.270
REMARK UNBOUND:                -0.320
REMARK SMILES O=c1c(O)c(-c2ccc(O)c(O)c2)oc2cc(O)ccc12
REMARK SMILES IDX 5 1 3 2 2 3 1 4 21 5 15 6 14 7 16 8 17 9 19 10 20 11 6 12
REMARK SMILES IDX 7 13 8 14 9 15 13 16 11 17 10 18 12 20 4 22 18 24
REMARK H PARENT 10 19 12 21 4 23 18 25
REMARK Flexibility Score: inf
ROOT
ATOM      1  C   UNL     1       0.111  -7.549   4.734  1.00  0.00     0.180 A 
ATOM      2  C   UNL     1       0.086  -8.289   5.934  1.00  0.00     0.208 A 
ATOM      3  C   UNL     1      -0.783  -7.886   6.959  1.00  0.00     0.235 A 
ATOM      4  O   UNL     1      -0.831  -8.538   8.039  1.00  0.00    -0.285 OA
ATOM      5  C   UNL     1      -1.587  -6.749   6.776  1.00  0.00     0.069 A 
ATOM      6  C   UNL     1      -1.486  -6.049   5.554  1.00  0.00     0.142 A 
ATOM      7  O   UNL     1      -0.657  -6.469   4.606  1.00  0.00    -0.452 OA
ATOM      8  C   UNL     1      -2.263  -4.907   5.337  1.00  0.00     0.094 A 
ATOM      9  C   UNL     1      -3.144  -4.454   6.324  1.00  0.00     0.119 A 
ATOM     10  C   UNL     1      -3.249  -5.147   7.538  1.00  0.00     0.047 A 
ATOM     11  C   UNL     1      -2.474  -6.289   7.765  1.00  0.00     0.020 A 
ENDROOT
BRANCH   1  12
ATOM     12  C   UNL     1       0.987  -7.922   3.599  1.00  0.00     0.025 A 
ATOM     13  C   UNL     1       0.684  -9.015   2.769  1.00  0.00     0.016 A 
ATOM     14  C   UNL     1       1.513  -9.334   1.690  1.00  0.00     0.051 A 
ATOM     15  C   UNL     1       2.646  -8.556   1.414  1.00  0.00     0.157 A 
ATOM     16  C   UNL     1       2.112  -7.133   3.307  1.00  0.00     0.062 A 
ATOM     17  C   UNL     1       2.944  -7.449   2.226  1.00  0.00     0.158 A 
BRANCH  15  18
ATOM     18  O   UNL     1       3.471  -8.878   0.338  1.00  0.00    -0.504 OA
ATOM     19  H   UNL     1       3.345  -8.453  -0.572  1.00  0.00     0.293 HD
ENDBRANCH  15  18
BRANCH  17  20
ATOM     20  O   UNL     1       4.059  -6.651   1.975  1.00  0.00    -0.504 OA
ATOM     21  H   UNL     1       4.762  -6.908   1.291  1.00  0.00     0.293 HD
ENDBRANCH  17  20
ENDBRANCH   1  12
BRANCH   2  22
ATOM     22  O   UNL     1       0.933  -9.387   6.106  1.00  0.00    -0.502 OA
ATOM     23  H   UNL     1       1.426  -9.817   5.333  1.00  0.00     0.293 HD
ENDBRANCH   2  22
BRANCH   9  24
ATOM     24  O   UNL     1      -3.910  -3.314   6.091  1.00  0.00    -0.508 OA
ATOM     25  H   UNL     1      -4.909  -3.303   6.264  1.00  0.00     0.293 HD
ENDBRANCH   9  24
TORSDOF 5
ENDMDL
