MODEL 1
REMARK VINA RESULT:    -6.121      0.000      0.000
REMARK INTER + INTRA:          -7.723
REMARK INTER:                  -7.553
REMARK INTRA:                  -0.170
REMARK UNBOUND:                -0.170
REMARK SMILES O=c1c(O)c(-c2cc(O)c(O)c(O)c2)oc2cc(O)cc(O)c12
REMARK SMILES IDX 5 1 3 2 2 3 1 4 23 5 21 6 20 7 18 8 17 9 16 10 15 11 6 12
REMARK SMILES IDX 7 13 8 14 14 15 10 16 12 17 9 18 11 20 13 22 4 24 22 26
REMARK SMILES IDX 19 28
REMARK H PARENT 9 19 11 21 13 23 4 25 22 27 19 29
REMARK Flexibility Score: inf
ROOT
ATOM      1  C   UNL     1      69.533  48.775   8.429  1.00  0.00     0.180 A 
ATOM      2  C   UNL     1      68.984  49.935   9.000  1.00  0.00     0.208 A 
ATOM      3  C   UNL     1      67.597  50.001   9.211  1.00  0.00     0.238 A 
ATOM      4  O   UNL     1      67.119  51.020   9.772  1.00  0.00    -0.285 OA
ATOM      5  C   UNL     1      66.776  48.911   8.834  1.00  0.00     0.111 A 
ATOM      6  C   UNL     1      65.355  48.885   8.965  1.00  0.00     0.134 A 
ATOM      7  C   UNL     1      64.656  47.704   8.681  1.00  0.00     0.093 A 
ATOM      8  C   UNL     1      65.322  46.570   8.208  1.00  0.00     0.123 A 
ATOM      9  C   UNL     1      66.701  46.605   8.022  1.00  0.00     0.094 A 
ATOM     10  C   UNL     1      67.430  47.757   8.330  1.00  0.00     0.146 A 
ATOM     11  O   UNL     1      68.744  47.744   8.146  1.00  0.00    -0.452 OA
ENDROOT
BRANCH   1  12
ATOM     12  C   UNL     1      70.982  48.642   8.153  1.00  0.00     0.029 A 
ATOM     13  C   UNL     1      71.889  48.633   9.221  1.00  0.00     0.062 A 
ATOM     14  C   UNL     1      73.263  48.489   8.987  1.00  0.00     0.162 A 
ATOM     15  C   UNL     1      71.464  48.464   6.846  1.00  0.00     0.062 A 
ATOM     16  C   UNL     1      73.745  48.334   7.679  1.00  0.00     0.200 A 
ATOM     17  C   UNL     1      72.833  48.315   6.598  1.00  0.00     0.162 A 
BRANCH  14  18
ATOM     18  O   UNL     1      74.159  48.498  10.053  1.00  0.00    -0.504 OA
ATOM     19  H   UNL     1      74.078  49.167  10.811  1.00  0.00     0.293 HD
ENDBRANCH  14  18
BRANCH  16  20
ATOM     20  O   UNL     1      75.125  48.202   7.500  1.00  0.00    -0.502 OA
ATOM     21  H   UNL     1      75.573  47.367   7.155  1.00  0.00     0.293 HD
ENDBRANCH  16  20
BRANCH  17  22
ATOM     22  O   UNL     1      73.238  48.144   5.272  1.00  0.00    -0.504 OA
ATOM     23  H   UNL     1      73.991  47.536   4.985  1.00  0.00     0.293 HD
ENDBRANCH  17  22
ENDBRANCH   1  12
BRANCH   2  24
ATOM     24  O   UNL     1      69.816  50.990   9.384  1.00  0.00    -0.502 OA
ATOM     25  H   UNL     1      70.671  50.846   9.909  1.00  0.00     0.293 HD
ENDBRANCH   2  24
BRANCH   6  26
ATOM     26  O   UNL     1      64.585  49.990   9.341  1.00  0.00    -0.507 OA
ATOM     27  H   UNL     1      63.694  49.936   9.809  1.00  0.00     0.293 HD
ENDBRANCH   6  26
BRANCH   8  28
ATOM     28  O   UNL     1      64.618  45.405   7.914  1.00  0.00    -0.508 OA
ATOM     29  H   UNL     1      64.935  44.760   7.200  1.00  0.00     0.293 HD
ENDBRANCH   8  28
TORSDOF 7
ENDMDL
MODEL 2
REMARK VINA RESULT:    -6.076      0.088      1.762
REMARK INTER + INTRA:          -7.666
REMARK INTER:                  -7.497
REMARK INTRA:                  -0.169
REMARK UNBOUND:                -0.170
REMARK SMILES O=c1c(O)c(-c2cc(O)c(O)c(O)c2)oc2cc(O)cc(O)c12
REMARK SMILES IDX 5 1 3 2 2 3 1 4 23 5 21 6 20 7 18 8 17 9 16 10 15 11 6 12
REMARK SMILES IDX 7 13 8 14 14 15 10 16 12 17 9 18 11 20 13 22 4 24 22 26
REMARK SMILES IDX 19 28
REMARK H PARENT 9 19 11 21 13 23 4 25 22 27 19 29
REMARK Flexibility Score: inf
ROOT
ATOM      1  C   UNL     1      69.569  48.694   8.434  1.00  0.00     0.180 A 
ATOM      2  C   UNL     1      69.039  49.862   9.008  1.00  0.00     0.208 A 
ATOM      3  C   UNL     1      67.651  49.956   9.203  1.00  0.00     0.238 A 
ATOM      4  O   UNL     1      67.189  50.982   9.767  1.00  0.00    -0.285 OA
ATOM      5  C   UNL     1      66.811  48.887   8.808  1.00  0.00     0.111 A 
ATOM      6  C   UNL     1      65.388  48.892   8.922  1.00  0.00     0.134 A 
ATOM      7  C   UNL     1      64.668  47.728   8.621  1.00  0.00     0.093 A 
ATOM      8  C   UNL     1      65.314  46.583   8.148  1.00  0.00     0.123 A 
ATOM      9  C   UNL     1      66.696  46.590   7.977  1.00  0.00     0.094 A 
ATOM     10  C   UNL     1      67.446  47.723   8.303  1.00  0.00     0.146 A 
ATOM     11  O   UNL     1      68.761  47.683   8.134  1.00  0.00    -0.452 OA
ENDROOT
BRANCH   1  12
ATOM     12  C   UNL     1      71.018  48.532   8.174  1.00  0.00     0.029 A 
ATOM     13  C   UNL     1      71.474  48.428   6.853  1.00  0.00     0.062 A 
ATOM     14  C   UNL     1      72.841  48.294   6.580  1.00  0.00     0.162 A 
ATOM     15  C   UNL     1      71.954  48.540   9.221  1.00  0.00     0.062 A 
ATOM     16  C   UNL     1      73.774  48.279   7.628  1.00  0.00     0.200 A 
ATOM     17  C   UNL     1      73.323  48.411   8.963  1.00  0.00     0.162 A 
BRANCH  14  18
ATOM     18  O   UNL     1      73.284  48.174   5.265  1.00  0.00    -0.504 OA
ATOM     19  H   UNL     1      72.800  48.625   4.497  1.00  0.00     0.293 HD
ENDBRANCH  14  18
BRANCH  16  20
ATOM     20  O   UNL     1      75.125  48.134   7.302  1.00  0.00    -0.502 OA
ATOM     21  H   UNL     1      75.484  48.152   6.359  1.00  0.00     0.293 HD
ENDBRANCH  16  20
BRANCH  17  22
ATOM     22  O   UNL     1      74.194  48.425  10.055  1.00  0.00    -0.504 OA
ATOM     23  H   UNL     1      75.003  49.026  10.125  1.00  0.00     0.293 HD
ENDBRANCH  17  22
ENDBRANCH   1  12
BRANCH   2  24
ATOM     24  O   UNL     1      69.889  50.896   9.410  1.00  0.00    -0.502 OA
ATOM     25  H   UNL     1      69.677  51.501  10.194  1.00  0.00     0.293 HD
ENDBRANCH   2  24
BRANCH   6  26
ATOM     26  O   UNL     1      64.638  50.010   9.298  1.00  0.00    -0.507 OA
ATOM     27  H   UNL     1      64.892  50.965   9.098  1.00  0.00     0.293 HD
ENDBRANCH   6  26
BRANCH   8  28
ATOM     28  O   UNL     1      64.589  45.436   7.836  1.00  0.00    -0.508 OA
ATOM     29  H   UNL     1      64.853  44.527   8.198  1.00  0.00     0.293 HD
ENDBRANCH   8  28
TORSDOF 7
ENDMDL
MODEL 3
REMARK VINA RESULT:    -5.910      4.173      8.010
REMARK INTER + INTRA:          -7.461
REMARK INTER:                  -7.147
REMARK INTRA:                  -0.314
REMARK UNBOUND:                -0.170
REMARK SMILES O=c1c(O)c(-c2cc(O)c(O)c(O)c2)oc2cc(O)cc(O)c12
REMARK SMILES IDX 5 1 3 2 2 3 1 4 23 5 21 6 20 7 18 8 17 9 16 10 15 11 6 12
REMARK SMILES IDX 7 13 8 14 14 15 10 16 12 17 9 18 11 20 13 22 4 24 22 26
REMARK SMILES IDX 19 28
REMARK H PARENT 9 19 11 21 13 23 4 25 22 27 19 29
REMARK Flexibility Score: inf
ROOT
ATOM      1  C   UNL     1      71.366  44.685   6.857  1.00  0.00     0.180 A 
ATOM      2  C   UNL     1      71.911  44.676   5.562  1.00  0.00     0.208 A 
ATOM      3  C   UNL     1      72.772  45.717   5.177  1.00  0.00     0.238 A 
ATOM      4  O   UNL     1      73.300  45.674   4.036  1.00  0.00    -0.285 OA
ATOM      5  C   UNL     1      73.062  46.763   6.087  1.00  0.00     0.111 A 
ATOM      6  C   UNL     1      73.888  47.888   5.790  1.00  0.00     0.134 A 
ATOM      7  C   UNL     1      74.213  48.795   6.808  1.00  0.00     0.093 A 
ATOM      8  C   UNL     1      73.687  48.651   8.095  1.00  0.00     0.123 A 
ATOM      9  C   UNL     1      72.833  47.588   8.378  1.00  0.00     0.094 A 
ATOM     10  C   UNL     1      72.519  46.648   7.393  1.00  0.00     0.146 A 
ATOM     11  O   UNL     1      71.709  45.645   7.709  1.00  0.00    -0.452 OA
ENDROOT
BRANCH   1  12
ATOM     12  C   UNL     1      70.432  43.636   7.326  1.00  0.00     0.029 A 
ATOM     13  C   UNL     1      70.939  42.397   7.743  1.00  0.00     0.062 A 
ATOM     14  C   UNL     1      70.079  41.396   8.209  1.00  0.00     0.162 A 
ATOM     15  C   UNL     1      69.052  43.874   7.420  1.00  0.00     0.062 A 
ATOM     16  C   UNL     1      68.697  41.627   8.281  1.00  0.00     0.200 A 
ATOM     17  C   UNL     1      68.180  42.885   7.888  1.00  0.00     0.162 A 
BRANCH  14  18
ATOM     18  O   UNL     1      70.590  40.162   8.605  1.00  0.00    -0.504 OA
ATOM     19  H   UNL     1      71.582  40.022   8.761  1.00  0.00     0.293 HD
ENDBRANCH  14  18
BRANCH  16  20
ATOM     20  O   UNL     1      67.882  40.592   8.746  1.00  0.00    -0.502 OA
ATOM     21  H   UNL     1      68.217  39.668   8.975  1.00  0.00     0.293 HD
ENDBRANCH  16  20
BRANCH  17  22
ATOM     22  O   UNL     1      66.820  43.194   7.952  1.00  0.00    -0.504 OA
ATOM     23  H   UNL     1      66.380  43.649   8.739  1.00  0.00     0.293 HD
ENDBRANCH  17  22
ENDBRANCH   1  12
BRANCH   2  24
ATOM     24  O   UNL     1      71.628  43.623   4.688  1.00  0.00    -0.502 OA
ATOM     25  H   UNL     1      72.169  43.452   3.849  1.00  0.00     0.293 HD
ENDBRANCH   2  24
BRANCH   6  26
ATOM     26  O   UNL     1      74.389  48.174   4.517  1.00  0.00    -0.507 OA
ATOM     27  H   UNL     1      75.053  47.601   4.019  1.00  0.00     0.293 HD
ENDBRANCH   6  26
BRANCH   8  28
ATOM     28  O   UNL     1      74.003  49.565   9.097  1.00  0.00    -0.508 OA
ATOM     29  H   UNL     1      73.287  50.119   9.554  1.00  0.00     0.293 HD
ENDBRANCH   8  28
TORSDOF 7
ENDMDL
MODEL 4
REMARK VINA RESULT:    -5.761      1.867      7.091
REMARK INTER + INTRA:          -7.278
REMARK INTER:                  -6.933
REMARK INTRA:                  -0.344
REMARK UNBOUND:                -0.170
REMARK SMILES O=c1c(O)c(-c2cc(O)c(O)c(O)c2)oc2cc(O)cc(O)c12
REMARK SMILES IDX 5 1 3 2 2 3 1 4 23 5 21 6 20 7 18 8 17 9 16 10 15 11 6 12
REMARK SMILES IDX 7 13 8 14 14 15 10 16 12 17 9 18 11 20 13 22 4 24 22 26
REMARK SMILES IDX 19 28
REMARK H PARENT 9 19 11 21 13 23 4 25 22 27 19 29
REMARK Flexibility Score: inf
ROOT
ATOM      1  C   UNL     1      70.006  47.708   7.986  1.00  0.00     0.180 A 
ATOM      2  C   UNL     1      70.719  48.749   8.604  1.00  0.00     0.208 A 
ATOM      3  C   UNL     1      72.115  48.799   8.456  1.00  0.00     0.238 A 
ATOM      4  O   UNL     1      72.741  49.764   8.966  1.00  0.00    -0.285 OA
ATOM      5  C   UNL     1      72.780  47.799   7.707  1.00  0.00     0.111 A 
ATOM      6  C   UNL     1      74.194  47.730   7.527  1.00  0.00     0.134 A 
ATOM      7  C   UNL     1      74.733  46.772   6.657  1.00  0.00     0.093 A 
ATOM      8  C   UNL     1      73.913  45.840   6.015  1.00  0.00     0.123 A 
ATOM      9  C   UNL     1      72.538  45.864   6.232  1.00  0.00     0.094 A 
ATOM     10  C   UNL     1      71.967  46.830   7.065  1.00  0.00     0.146 A 
ATOM     11  O   UNL     1      70.651  46.822   7.236  1.00  0.00    -0.452 OA
ENDROOT
BRANCH   1  12
ATOM     12  C   UNL     1      68.536  47.574   8.117  1.00  0.00     0.029 A 
ATOM     13  C   UNL     1      67.699  48.283   7.244  1.00  0.00     0.062 A 
ATOM     14  C   UNL     1      66.307  48.158   7.335  1.00  0.00     0.162 A 
ATOM     15  C   UNL     1      67.962  46.705   9.058  1.00  0.00     0.062 A 
ATOM     16  C   UNL     1      65.734  47.307   8.291  1.00  0.00     0.200 A 
ATOM     17  C   UNL     1      66.573  46.567   9.157  1.00  0.00     0.162 A 
BRANCH  14  18
ATOM     18  O   UNL     1      65.482  48.880   6.475  1.00  0.00    -0.504 OA
ATOM     19  H   UNL     1      65.281  48.557   5.536  1.00  0.00     0.293 HD
ENDBRANCH  14  18
BRANCH  16  20
ATOM     20  O   UNL     1      64.340  47.225   8.344  1.00  0.00    -0.502 OA
ATOM     21  H   UNL     1      63.784  47.548   9.122  1.00  0.00     0.293 HD
ENDBRANCH  16  20
BRANCH  17  22
ATOM     22  O   UNL     1      66.075  45.684  10.118  1.00  0.00    -0.504 OA
ATOM     23  H   UNL     1      66.294  44.699  10.149  1.00  0.00     0.293 HD
ENDBRANCH  17  22
ENDBRANCH   1  12
BRANCH   2  24
ATOM     24  O   UNL     1      70.039  49.738   9.320  1.00  0.00    -0.502 OA
ATOM     25  H   UNL     1      69.039  49.878   9.240  1.00  0.00     0.293 HD
ENDBRANCH   2  24
BRANCH   6  26
ATOM     26  O   UNL     1      75.108  48.553   8.191  1.00  0.00    -0.507 OA
ATOM     27  H   UNL     1      76.110  48.459   8.138  1.00  0.00     0.293 HD
ENDBRANCH   6  26
BRANCH   8  28
ATOM     28  O   UNL     1      74.459  44.882   5.165  1.00  0.00    -0.508 OA
ATOM     29  H   UNL     1      74.970  45.143   4.330  1.00  0.00     0.293 HD
ENDBRANCH   8  28
TORSDOF 7
ENDMDL
MODEL 5
REMARK VINA RESULT:    -5.744      2.033      7.161
REMARK INTER + INTRA:          -7.257
REMARK INTER:                  -6.914
REMARK INTRA:                  -0.343
REMARK UNBOUND:                -0.170
REMARK SMILES O=c1c(O)c(-c2cc(O)c(O)c(O)c2)oc2cc(O)cc(O)c12
REMARK SMILES IDX 5 1 3 2 2 3 1 4 23 5 21 6 20 7 18 8 17 9 16 10 15 11 6 12
REMARK SMILES IDX 7 13 8 14 14 15 10 16 12 17 9 18 11 20 13 22 4 24 22 26
REMARK SMILES IDX 19 28
REMARK H PARENT 9 19 11 21 13 23 4 25 22 27 19 29
REMARK Flexibility Score: inf
ROOT
ATOM      1  C   UNL     1      69.891  47.612   7.864  1.00  0.00     0.180 A 
ATOM      2  C   UNL     1      70.285  46.414   8.482  1.00  0.00     0.208 A 
ATOM      3  C   UNL     1      71.514  45.834   8.123  1.00  0.00     0.238 A 
ATOM      4  O   UNL     1      71.886  44.791   8.719  1.00  0.00    -0.285 OA
ATOM      5  C   UNL     1      72.324  46.454   7.141  1.00  0.00     0.111 A 
ATOM      6  C   UNL     1      73.568  45.933   6.672  1.00  0.00     0.134 A 
ATOM      7  C   UNL     1      74.348  46.696   5.793  1.00  0.00     0.093 A 
ATOM      8  C   UNL     1      73.897  47.930   5.316  1.00  0.00     0.123 A 
ATOM      9  C   UNL     1      72.658  48.417   5.722  1.00  0.00     0.094 A 
ATOM     10  C   UNL     1      71.873  47.697   6.626  1.00  0.00     0.146 A 
ATOM     11  O   UNL     1      70.703  48.203   6.994  1.00  0.00    -0.452 OA
ENDROOT
BRANCH   1  12
ATOM     12  C   UNL     1      68.600  48.269   8.171  1.00  0.00     0.029 A 
ATOM     13  C   UNL     1      68.581  49.400   8.998  1.00  0.00     0.062 A 
ATOM     14  C   UNL     1      67.375  50.050   9.287  1.00  0.00     0.162 A 
ATOM     15  C   UNL     1      67.397  47.819   7.603  1.00  0.00     0.062 A 
ATOM     16  C   UNL     1      66.170  49.586   8.738  1.00  0.00     0.200 A 
ATOM     17  C   UNL     1      66.185  48.461   7.880  1.00  0.00     0.162 A 
BRANCH  14  18
ATOM     18  O   UNL     1      67.363  51.164  10.125  1.00  0.00    -0.504 OA
ATOM     19  H   UNL     1      66.611  51.844  10.095  1.00  0.00     0.293 HD
ENDBRANCH  14  18
BRANCH  16  20
ATOM     20  O   UNL     1      64.995  50.266   9.065  1.00  0.00    -0.502 OA
ATOM     21  H   UNL     1      64.273  50.500   8.399  1.00  0.00     0.293 HD
ENDBRANCH  16  20
BRANCH  17  22
ATOM     22  O   UNL     1      65.030  47.955   7.280  1.00  0.00    -0.504 OA
ATOM     23  H   UNL     1      64.352  47.376   7.756  1.00  0.00     0.293 HD
ENDBRANCH  17  22
ENDBRANCH   1  12
BRANCH   2  24
ATOM     24  O   UNL     1      69.480  45.831   9.464  1.00  0.00    -0.502 OA
ATOM     25  H   UNL     1      69.773  45.021   9.998  1.00  0.00     0.293 HD
ENDBRANCH   2  24
BRANCH   6  26
ATOM     26  O   UNL     1      74.066  44.673   7.016  1.00  0.00    -0.507 OA
ATOM     27  H   UNL     1      73.869  44.194   7.880  1.00  0.00     0.293 HD
ENDBRANCH   6  26
BRANCH   8  28
ATOM     28  O   UNL     1      74.672  48.674   4.430  1.00  0.00    -0.508 OA
ATOM     29  H   UNL     1      74.586  49.682   4.368  1.00  0.00     0.293 HD
ENDBRANCH   8  28
TORSDOF 7
ENDMDL
MODEL 6
REMARK VINA RESULT:    -5.694      2.475      3.194
REMARK INTER + INTRA:          -7.196
REMARK INTER:                  -6.826
REMARK INTRA:                  -0.369
REMARK UNBOUND:                -0.170
REMARK SMILES O=c1c(O)c(-c2cc(O)c(O)c(O)c2)oc2cc(O)cc(O)c12
REMARK SMILES IDX 5 1 3 2 2 3 1 4 23 5 21 6 20 7 18 8 17 9 16 10 15 11 6 12
REMARK SMILES IDX 7 13 8 14 14 15 10 16 12 17 9 18 11 20 13 22 4 24 22 26
REMARK SMILES IDX 19 28
REMARK H PARENT 9 19 11 21 13 23 4 25 22 27 19 29
REMARK Flexibility Score: inf
ROOT
ATOM      1  C   UNL     1      70.888  47.431   7.416  1.00  0.00     0.180 A 
ATOM      2  C   UNL     1      71.259  48.553   8.176  1.00  0.00     0.208 A 
ATOM      3  C   UNL     1      70.258  49.432   8.624  1.00  0.00     0.238 A 
ATOM      4  O   UNL     1      70.591  50.405   9.350  1.00  0.00    -0.285 OA
ATOM      5  C   UNL     1      68.904  49.186   8.292  1.00  0.00     0.111 A 
ATOM      6  C   UNL     1      67.815  50.032   8.659  1.00  0.00     0.134 A 
ATOM      7  C   UNL     1      66.502  49.622   8.390  1.00  0.00     0.093 A 
ATOM      8  C   UNL     1      66.245  48.429   7.709  1.00  0.00     0.123 A 
ATOM      9  C   UNL     1      67.305  47.627   7.295  1.00  0.00     0.094 A 
ATOM     10  C   UNL     1      68.624  47.991   7.581  1.00  0.00     0.146 A 
ATOM     11  O   UNL     1      69.603  47.192   7.177  1.00  0.00    -0.452 OA
ENDROOT
BRANCH   1  12
ATOM     12  C   UNL     1      71.887  46.473   6.888  1.00  0.00     0.029 A 
ATOM     13  C   UNL     1      72.198  45.323   7.626  1.00  0.00     0.062 A 
ATOM     14  C   UNL     1      73.124  44.393   7.139  1.00  0.00     0.162 A 
ATOM     15  C   UNL     1      72.487  46.661   5.632  1.00  0.00     0.062 A 
ATOM     16  C   UNL     1      73.741  44.593   5.895  1.00  0.00     0.200 A 
ATOM     17  C   UNL     1      73.412  45.738   5.131  1.00  0.00     0.162 A 
BRANCH  14  18
ATOM     18  O   UNL     1      73.440  43.261   7.887  1.00  0.00    -0.504 OA
ATOM     19  H   UNL     1      73.935  42.476   7.481  1.00  0.00     0.293 HD
ENDBRANCH  14  18
BRANCH  16  20
ATOM     20  O   UNL     1      74.663  43.639   5.458  1.00  0.00    -0.502 OA
ATOM     21  H   UNL     1      75.409  43.830   4.806  1.00  0.00     0.293 HD
ENDBRANCH  16  20
BRANCH  17  22
ATOM     22  O   UNL     1      73.969  45.993   3.875  1.00  0.00    -0.504 OA
ATOM     23  H   UNL     1      73.471  46.434   3.115  1.00  0.00     0.293 HD
ENDBRANCH  17  22
ENDBRANCH   1  12
BRANCH   2  24
ATOM     24  O   UNL     1      72.599  48.765   8.510  1.00  0.00    -0.502 OA
ATOM     25  H   UNL     1      72.894  49.511   9.128  1.00  0.00     0.293 HD
ENDBRANCH   2  24
BRANCH   6  26
ATOM     26  O   UNL     1      67.967  51.285   9.260  1.00  0.00    -0.507 OA
ATOM     27  H   UNL     1      68.431  51.447  10.140  1.00  0.00     0.293 HD
ENDBRANCH   6  26
BRANCH   8  28
ATOM     28  O   UNL     1      64.938  48.038   7.432  1.00  0.00    -0.508 OA
ATOM     29  H   UNL     1      64.718  47.092   7.143  1.00  0.00     0.293 HD
ENDBRANCH   8  28
TORSDOF 7
ENDMDL
MODEL 7
REMARK VINA RESULT:    -5.667      3.640      6.458
REMARK INTER + INTRA:          -7.161
REMARK INTER:                  -6.931
REMARK INTRA:                  -0.230
REMARK UNBOUND:                -0.170
REMARK SMILES O=c1c(O)c(-c2cc(O)c(O)c(O)c2)oc2cc(O)cc(O)c12
REMARK SMILES IDX 5 1 3 2 2 3 1 4 23 5 21 6 20 7 18 8 17 9 16 10 15 11 6 12
REMARK SMILES IDX 7 13 8 14 14 15 10 16 12 17 9 18 11 20 13 22 4 24 22 26
REMARK SMILES IDX 19 28
REMARK H PARENT 9 19 11 21 13 23 4 25 22 27 19 29
REMARK Flexibility Score: inf
ROOT
ATOM      1  C   UNL     1      69.442  45.607   7.965  1.00  0.00     0.180 A 
ATOM      2  C   UNL     1      68.339  46.476   7.924  1.00  0.00     0.208 A 
ATOM      3  C   UNL     1      68.531  47.834   8.228  1.00  0.00     0.238 A 
ATOM      4  O   UNL     1      67.551  48.618   8.137  1.00  0.00    -0.285 OA
ATOM      5  C   UNL     1      69.820  48.301   8.584  1.00  0.00     0.111 A 
ATOM      6  C   UNL     1      70.121  49.647   8.949  1.00  0.00     0.134 A 
ATOM      7  C   UNL     1      71.454  50.026   9.155  1.00  0.00     0.093 A 
ATOM      8  C   UNL     1      72.489  49.090   9.073  1.00  0.00     0.123 A 
ATOM      9  C   UNL     1      72.198  47.761   8.775  1.00  0.00     0.094 A 
ATOM     10  C   UNL     1      70.882  47.361   8.529  1.00  0.00     0.146 A 
ATOM     11  O   UNL     1      70.650  46.087   8.238  1.00  0.00    -0.452 OA
ENDROOT
BRANCH   1  12
ATOM     12  C   UNL     1      69.314  44.158   7.682  1.00  0.00     0.029 A 
ATOM     13  C   UNL     1      69.999  43.605   6.592  1.00  0.00     0.062 A 
ATOM     14  C   UNL     1      69.910  42.236   6.315  1.00  0.00     0.162 A 
ATOM     15  C   UNL     1      68.567  43.314   8.518  1.00  0.00     0.062 A 
ATOM     16  C   UNL     1      69.144  41.396   7.138  1.00  0.00     0.200 A 
ATOM     17  C   UNL     1      68.472  41.942   8.257  1.00  0.00     0.162 A 
BRANCH  14  18
ATOM     18  O   UNL     1      70.581  41.697   5.219  1.00  0.00    -0.504 OA
ATOM     19  H   UNL     1      71.444  41.177   5.327  1.00  0.00     0.293 HD
ENDBRANCH  14  18
BRANCH  16  20
ATOM     20  O   UNL     1      69.082  40.038   6.813  1.00  0.00    -0.502 OA
ATOM     21  H   UNL     1      69.695  39.336   7.199  1.00  0.00     0.293 HD
ENDBRANCH  16  20
BRANCH  17  22
ATOM     22  O   UNL     1      67.709  41.165   9.132  1.00  0.00    -0.504 OA
ATOM     23  H   UNL     1      68.007  40.902  10.061  1.00  0.00     0.293 HD
ENDBRANCH  17  22
ENDBRANCH   1  12
BRANCH   2  24
ATOM     24  O   UNL     1      67.081  45.998   7.550  1.00  0.00    -0.502 OA
ATOM     25  H   UNL     1      66.926  45.492   6.686  1.00  0.00     0.293 HD
ENDBRANCH   2  24
BRANCH   6  26
ATOM     26  O   UNL     1      69.154  50.637   9.147  1.00  0.00    -0.507 OA
ATOM     27  H   UNL     1      68.638  51.092   8.410  1.00  0.00     0.293 HD
ENDBRANCH   6  26
BRANCH   8  28
ATOM     28  O   UNL     1      73.810  49.471   9.294  1.00  0.00    -0.508 OA
ATOM     29  H   UNL     1      74.115  49.832  10.190  1.00  0.00     0.293 HD
ENDBRANCH   8  28
TORSDOF 7
ENDMDL
MODEL 8
REMARK VINA RESULT:    -5.654      1.810      6.955
REMARK INTER + INTRA:          -7.146
REMARK INTER:                  -6.811
REMARK INTRA:                  -0.335
REMARK UNBOUND:                -0.170
REMARK SMILES O=c1c(O)c(-c2cc(O)c(O)c(O)c2)oc2cc(O)cc(O)c12
REMARK SMILES IDX 5 1 3 2 2 3 1 4 23 5 21 6 20 7 18 8 17 9 16 10 15 11 6 12
REMARK SMILES IDX 7 13 8 14 14 15 10 16 12 17 9 18 11 20 13 22 4 24 22 26
REMARK SMILES IDX 19 28
REMARK H PARENT 9 19 11 21 13 23 4 25 22 27 19 29
REMARK Flexibility Score: inf
ROOT
ATOM      1  C   UNL     1      70.021  48.197   7.810  1.00  0.00     0.180 A 
ATOM      2  C   UNL     1      70.590  48.506   6.562  1.00  0.00     0.208 A 
ATOM      3  C   UNL     1      71.875  48.025   6.262  1.00  0.00     0.238 A 
ATOM      4  O   UNL     1      72.356  48.259   5.123  1.00  0.00    -0.285 OA
ATOM      5  C   UNL     1      72.580  47.256   7.219  1.00  0.00     0.111 A 
ATOM      6  C   UNL     1      73.903  46.752   7.036  1.00  0.00     0.134 A 
ATOM      7  C   UNL     1      74.453  45.892   7.996  1.00  0.00     0.093 A 
ATOM      8  C   UNL     1      73.753  45.573   9.162  1.00  0.00     0.123 A 
ATOM      9  C   UNL     1      72.486  46.108   9.376  1.00  0.00     0.094 A 
ATOM     10  C   UNL     1      71.895  46.939   8.420  1.00  0.00     0.146 A 
ATOM     11  O   UNL     1      70.682  47.419   8.660  1.00  0.00    -0.452 OA
ENDROOT
BRANCH   1  12
ATOM     12  C   UNL     1      68.682  48.689   8.208  1.00  0.00     0.029 A 
ATOM     13  C   UNL     1      68.576  49.857   8.975  1.00  0.00     0.062 A 
ATOM     14  C   UNL     1      67.321  50.353   9.348  1.00  0.00     0.162 A 
ATOM     15  C   UNL     1      67.510  48.043   7.784  1.00  0.00     0.062 A 
ATOM     16  C   UNL     1      66.151  49.694   8.943  1.00  0.00     0.200 A 
ATOM     17  C   UNL     1      66.249  48.529   8.145  1.00  0.00     0.162 A 
BRANCH  14  18
ATOM     18  O   UNL     1      67.226  51.506  10.125  1.00  0.00    -0.504 OA
ATOM     19  H   UNL     1      67.539  52.406   9.781  1.00  0.00     0.293 HD
ENDBRANCH  14  18
BRANCH  16  20
ATOM     20  O   UNL     1      64.924  50.225   9.348  1.00  0.00    -0.502 OA
ATOM     21  H   UNL     1      64.405  49.902  10.151  1.00  0.00     0.293 HD
ENDBRANCH  16  20
BRANCH  17  22
ATOM     22  O   UNL     1      65.128  47.832   7.687  1.00  0.00    -0.504 OA
ATOM     23  H   UNL     1      65.174  46.973   7.158  1.00  0.00     0.293 HD
ENDBRANCH  17  22
ENDBRANCH   1  12
BRANCH   2  24
ATOM     24  O   UNL     1      69.867  49.248   5.625  1.00  0.00    -0.502 OA
ATOM     25  H   UNL     1      70.007  49.149   4.627  1.00  0.00     0.293 HD
ENDBRANCH   2  24
BRANCH   6  26
ATOM     26  O   UNL     1      74.722  47.082   5.952  1.00  0.00    -0.507 OA
ATOM     27  H   UNL     1      74.529  47.819   5.291  1.00  0.00     0.293 HD
ENDBRANCH   6  26
BRANCH   8  28
ATOM     28  O   UNL     1      74.314  44.730  10.119  1.00  0.00    -0.508 OA
ATOM     29  H   UNL     1      73.978  44.715  11.075  1.00  0.00     0.293 HD
ENDBRANCH   8  28
TORSDOF 7
ENDMDL
MODEL 9
REMARK VINA RESULT:    -5.635      1.580      6.870
REMARK INTER + INTRA:          -7.122
REMARK INTER:                  -7.132
REMARK INTRA:                   0.010
REMARK UNBOUND:                -0.170
REMARK SMILES O=c1c(O)c(-c2cc(O)c(O)c(O)c2)oc2cc(O)cc(O)c12
REMARK SMILES IDX 5 1 3 2 2 3 1 4 23 5 21 6 20 7 18 8 17 9 16 10 15 11 6 12
REMARK SMILES IDX 7 13 8 14 14 15 10 16 12 17 9 18 11 20 13 22 4 24 22 26
REMARK SMILES IDX 19 28
REMARK H PARENT 9 19 11 21 13 23 4 25 22 27 19 29
REMARK Flexibility Score: inf
ROOT
ATOM      1  C   UNL     1      69.027  48.173   8.788  1.00  0.00     0.180 A 
ATOM      2  C   UNL     1      69.664  49.351   8.364  1.00  0.00     0.208 A 
ATOM      3  C   UNL     1      71.066  49.425   8.420  1.00  0.00     0.238 A 
ATOM      4  O   UNL     1      71.633  50.462   7.988  1.00  0.00    -0.285 OA
ATOM      5  C   UNL     1      71.810  48.327   8.914  1.00  0.00     0.111 A 
ATOM      6  C   UNL     1      73.230  48.308   9.053  1.00  0.00     0.134 A 
ATOM      7  C   UNL     1      73.872  47.121   9.430  1.00  0.00     0.093 A 
ATOM      8  C   UNL     1      73.138  45.972   9.736  1.00  0.00     0.123 A 
ATOM      9  C   UNL     1      71.748  45.999   9.661  1.00  0.00     0.094 A 
ATOM     10  C   UNL     1      71.082  47.157   9.253  1.00  0.00     0.146 A 
ATOM     11  O   UNL     1      69.757  47.136   9.185  1.00  0.00    -0.452 OA
ENDROOT
BRANCH   1  12
ATOM     12  C   UNL     1      67.553  48.029   8.782  1.00  0.00     0.029 A 
ATOM     13  C   UNL     1      66.759  49.043   9.334  1.00  0.00     0.062 A 
ATOM     14  C   UNL     1      65.362  48.939   9.323  1.00  0.00     0.162 A 
ATOM     15  C   UNL     1      66.929  46.924   8.180  1.00  0.00     0.062 A 
ATOM     16  C   UNL     1      64.740  47.824   8.742  1.00  0.00     0.200 A 
ATOM     17  C   UNL     1      65.535  46.809   8.158  1.00  0.00     0.162 A 
BRANCH  14  18
ATOM     18  O   UNL     1      64.581  49.944   9.890  1.00  0.00    -0.504 OA
ATOM     19  H   UNL     1      64.841  50.391  10.761  1.00  0.00     0.293 HD
ENDBRANCH  14  18
BRANCH  16  20
ATOM     20  O   UNL     1      63.344  47.766   8.764  1.00  0.00    -0.502 OA
ATOM     21  H   UNL     1      62.762  47.829   7.942  1.00  0.00     0.293 HD
ENDBRANCH  16  20
BRANCH  17  22
ATOM     22  O   UNL     1      64.986  45.681   7.543  1.00  0.00    -0.504 OA
ATOM     23  H   UNL     1      65.292  45.318   6.651  1.00  0.00     0.293 HD
ENDBRANCH  17  22
ENDBRANCH   1  12
BRANCH   2  24
ATOM     24  O   UNL     1      68.912  50.414   7.859  1.00  0.00    -0.502 OA
ATOM     25  H   UNL     1      68.124  50.277   7.237  1.00  0.00     0.293 HD
ENDBRANCH   2  24
BRANCH   6  26
ATOM     26  O   UNL     1      74.049  49.425   8.860  1.00  0.00    -0.507 OA
ATOM     27  H   UNL     1      74.944  49.564   9.302  1.00  0.00     0.293 HD
ENDBRANCH   6  26
BRANCH   8  28
ATOM     28  O   UNL     1      73.783  44.800  10.125  1.00  0.00    -0.508 OA
ATOM     29  H   UNL     1      74.279  44.221   9.457  1.00  0.00     0.293 HD
ENDBRANCH   8  28
TORSDOF 7
ENDMDL
