MODEL 1
REMARK VINA RESULT:    -5.222      0.000      0.000
REMARK INTER + INTRA:          -5.222
REMARK INTER:                  -5.222
REMARK INTRA:                   0.000
REMARK UNBOUND:                 0.000
REMARK SMILES Cc1cccc2ccccc12
REMARK SMILES IDX 1 1 2 2 3 3 4 4 5 5 6 6 7 7 8 8 9 9 10 10 11 11
REMARK H PARENT
REMARK Flexibility Score: inf
ROOT
ATOM      1  C   UNL     1       3.868  -1.385  10.138  1.00  0.00     0.045 C 
ATOM      2  C   UNL     1       2.566  -1.699   9.445  1.00  0.00    -0.043 A 
ATOM      3  C   UNL     1       2.188  -3.044   9.288  1.00  0.00     0.004 A 
ATOM      4  C   UNL     1       0.992  -3.380   8.654  1.00  0.00     0.001 A 
ATOM      5  C   UNL     1       0.152  -2.383   8.163  1.00  0.00     0.009 A 
ATOM      6  C   UNL     1       0.501  -1.033   8.303  1.00  0.00    -0.018 A 
ATOM      7  C   UNL     1      -0.352  -0.033   7.808  1.00  0.00     0.009 A 
ATOM      8  C   UNL     1      -0.010   1.313   7.943  1.00  0.00     0.001 A 
ATOM      9  C   UNL     1       1.181   1.674   8.574  1.00  0.00     0.001 A 
ATOM     10  C   UNL     1       2.040   0.692   9.074  1.00  0.00     0.009 A 
ATOM     11  C   UNL     1       1.716  -0.676   8.949  1.00  0.00    -0.015 A 
ENDROOT
TORSDOF 0
ENDMDL
MODEL 2
REMARK VINA RESULT:    -5.190      0.744      2.541
REMARK INTER + INTRA:          -5.190
REMARK INTER:                  -5.190
REMARK INTRA:                   0.000
REMARK UNBOUND:                 0.000
REMARK SMILES Cc1cccc2ccccc12
REMARK SMILES IDX 1 1 2 2 3 3 4 4 5 5 6 6 7 7 8 8 9 9 10 10 11 11
REMARK H PARENT
REMARK Flexibility Score: inf
ROOT
ATOM      1  C   UNL     1       0.157  -3.597   8.218  1.00  0.00     0.045 C 
ATOM      2  C   UNL     1       1.154  -2.583   8.719  1.00  0.00    -0.043 A 
ATOM      3  C   UNL     1       2.322  -3.036   9.356  1.00  0.00     0.004 A 
ATOM      4  C   UNL     1       3.271  -2.134   9.834  1.00  0.00     0.001 A 
ATOM      5  C   UNL     1       3.075  -0.762   9.686  1.00  0.00     0.009 A 
ATOM      6  C   UNL     1       1.921  -0.278   9.056  1.00  0.00    -0.018 A 
ATOM      7  C   UNL     1       1.730   1.106   8.909  1.00  0.00     0.009 A 
ATOM      8  C   UNL     1       0.584   1.595   8.283  1.00  0.00     0.001 A 
ATOM      9  C   UNL     1      -0.381   0.712   7.796  1.00  0.00     0.001 A 
ATOM     10  C   UNL     1      -0.206  -0.668   7.932  1.00  0.00     0.009 A 
ATOM     11  C   UNL     1       0.946  -1.187   8.563  1.00  0.00    -0.015 A 
ENDROOT
TORSDOF 0
ENDMDL
MODEL 3
REMARK VINA RESULT:    -5.182      0.481      3.370
REMARK INTER + INTRA:          -5.182
REMARK INTER:                  -5.182
REMARK INTRA:                   0.000
REMARK UNBOUND:                 0.000
REMARK SMILES Cc1cccc2ccccc12
REMARK SMILES IDX 1 1 2 2 3 3 4 4 5 5 6 6 7 7 8 8 9 9 10 10 11 11
REMARK H PARENT
REMARK Flexibility Score: inf
ROOT
ATOM      1  C   UNL     1       3.418   1.046   9.747  1.00  0.00     0.045 C 
ATOM      2  C   UNL     1       2.123   0.661   9.078  1.00  0.00    -0.043 A 
ATOM      3  C   UNL     1       1.285   1.676   8.585  1.00  0.00     0.004 A 
ATOM      4  C   UNL     1       0.078   1.365   7.960  1.00  0.00     0.001 A 
ATOM      5  C   UNL     1      -0.316   0.037   7.812  1.00  0.00     0.009 A 
ATOM      6  C   UNL     1       0.496  -0.998   8.293  1.00  0.00    -0.018 A 
ATOM      7  C   UNL     1       0.093  -2.335   8.141  1.00  0.00     0.009 A 
ATOM      8  C   UNL     1       0.897  -3.371   8.617  1.00  0.00     0.001 A 
ATOM      9  C   UNL     1       2.109  -3.085   9.247  1.00  0.00     0.001 A 
ATOM     10  C   UNL     1       2.526  -1.761   9.406  1.00  0.00     0.009 A 
ATOM     11  C   UNL     1       1.729  -0.696   8.932  1.00  0.00    -0.015 A 
ENDROOT
TORSDOF 0
ENDMDL
MODEL 4
REMARK VINA RESULT:    -5.103      0.787      4.163
REMARK INTER + INTRA:          -5.103
REMARK INTER:                  -5.103
REMARK INTRA:                   0.000
REMARK UNBOUND:                 0.000
REMARK SMILES Cc1cccc2ccccc12
REMARK SMILES IDX 1 1 2 2 3 3 4 4 5 5 6 6 7 7 8 8 9 9 10 10 11 11
REMARK H PARENT
REMARK Flexibility Score: inf
ROOT
ATOM      1  C   UNL     1      -0.769   0.404   7.686  1.00  0.00     0.045 C 
ATOM      2  C   UNL     1       0.534   0.024   8.342  1.00  0.00    -0.043 A 
ATOM      3  C   UNL     1       1.405   1.043   8.763  1.00  0.00     0.004 A 
ATOM      4  C   UNL     1       2.621   0.736   9.374  1.00  0.00     0.001 A 
ATOM      5  C   UNL     1       2.991  -0.591   9.578  1.00  0.00     0.009 A 
ATOM      6  C   UNL     1       2.145  -1.631   9.169  1.00  0.00    -0.018 A 
ATOM      7  C   UNL     1       2.523  -2.967   9.378  1.00  0.00     0.009 A 
ATOM      8  C   UNL     1       1.686  -4.007   8.973  1.00  0.00     0.001 A 
ATOM      9  C   UNL     1       0.465  -3.725   8.360  1.00  0.00     0.001 A 
ATOM     10  C   UNL     1       0.072  -2.402   8.145  1.00  0.00     0.009 A 
ATOM     11  C   UNL     1       0.903  -1.332   8.546  1.00  0.00    -0.015 A 
ENDROOT
TORSDOF 0
ENDMDL
MODEL 5
REMARK VINA RESULT:    -4.941      0.629      3.709
REMARK INTER + INTRA:          -4.941
REMARK INTER:                  -4.941
REMARK INTRA:                   0.000
REMARK UNBOUND:                 0.000
REMARK SMILES Cc1cccc2ccccc12
REMARK SMILES IDX 1 1 2 2 3 3 4 4 5 5 6 6 7 7 8 8 9 9 10 10 11 11
REMARK H PARENT
REMARK Flexibility Score: inf
ROOT
ATOM      1  C   UNL     1       0.014  -2.804   8.240  1.00  0.00     0.045 C 
ATOM      2  C   UNL     1       0.459  -1.367   8.340  1.00  0.00    -0.043 A 
ATOM      3  C   UNL     1      -0.399  -0.356   7.875  1.00  0.00     0.004 A 
ATOM      4  C   UNL     1      -0.028   0.986   7.948  1.00  0.00     0.001 A 
ATOM      5  C   UNL     1       1.206   1.346   8.486  1.00  0.00     0.009 A 
ATOM      6  C   UNL     1       2.085   0.362   8.958  1.00  0.00    -0.018 A 
ATOM      7  C   UNL     1       3.327   0.732   9.500  1.00  0.00     0.009 A 
ATOM      8  C   UNL     1       4.207  -0.243   9.971  1.00  0.00     0.001 A 
ATOM      9  C   UNL     1       3.858  -1.592   9.908  1.00  0.00     0.001 A 
ATOM     10  C   UNL     1       2.626  -1.978   9.374  1.00  0.00     0.009 A 
ATOM     11  C   UNL     1       1.718  -1.009   8.890  1.00  0.00    -0.015 A 
ENDROOT
TORSDOF 0
ENDMDL
MODEL 6
REMARK VINA RESULT:    -4.826      1.061      3.061
REMARK INTER + INTRA:          -4.826
REMARK INTER:                  -4.826
REMARK INTRA:                   0.000
REMARK UNBOUND:                 0.000
REMARK SMILES Cc1cccc2ccccc12
REMARK SMILES IDX 1 1 2 2 3 3 4 4 5 5 6 6 7 7 8 8 9 9 10 10 11 11
REMARK H PARENT
REMARK Flexibility Score: inf
ROOT
ATOM      1  C   UNL     1      -0.877   0.669   7.897  1.00  0.00     0.045 C 
ATOM      2  C   UNL     1       0.163  -0.338   8.318  1.00  0.00    -0.043 A 
ATOM      3  C   UNL     1      -0.136  -1.707   8.211  1.00  0.00     0.004 A 
ATOM      4  C   UNL     1       0.796  -2.673   8.588  1.00  0.00     0.001 A 
ATOM      5  C   UNL     1       2.043  -2.294   9.079  1.00  0.00     0.009 A 
ATOM      6  C   UNL     1       2.371  -0.937   9.199  1.00  0.00    -0.018 A 
ATOM      7  C   UNL     1       3.631  -0.560   9.695  1.00  0.00     0.009 A 
ATOM      8  C   UNL     1       3.964   0.789   9.817  1.00  0.00     0.001 A 
ATOM      9  C   UNL     1       3.048   1.774   9.445  1.00  0.00     0.001 A 
ATOM     10  C   UNL     1       1.791   1.417   8.950  1.00  0.00     0.009 A 
ATOM     11  C   UNL     1       1.431   0.058   8.817  1.00  0.00    -0.015 A 
ENDROOT
TORSDOF 0
ENDMDL
MODEL 7
REMARK VINA RESULT:    -4.613      0.974      3.247
REMARK INTER + INTRA:          -4.613
REMARK INTER:                  -4.613
REMARK INTRA:                   0.000
REMARK UNBOUND:                 0.000
REMARK SMILES Cc1cccc2ccccc12
REMARK SMILES IDX 1 1 2 2 3 3 4 4 5 5 6 6 7 7 8 8 9 9 10 10 11 11
REMARK H PARENT
REMARK Flexibility Score: inf
ROOT
ATOM      1  C   UNL     1       4.666  -2.047  10.303  1.00  0.00     0.045 C 
ATOM      2  C   UNL     1       3.524  -1.228   9.757  1.00  0.00    -0.043 A 
ATOM      3  C   UNL     1       3.630   0.173   9.765  1.00  0.00     0.004 A 
ATOM      4  C   UNL     1       2.598   0.969   9.270  1.00  0.00     0.001 A 
ATOM      5  C   UNL     1       1.442   0.385   8.757  1.00  0.00     0.009 A 
ATOM      6  C   UNL     1       1.306  -1.010   8.734  1.00  0.00    -0.018 A 
ATOM      7  C   UNL     1       0.139  -1.593   8.215  1.00  0.00     0.009 A 
ATOM      8  C   UNL     1      -0.003  -2.980   8.190  1.00  0.00     0.001 A 
ATOM      9  C   UNL     1       1.015  -3.799   8.680  1.00  0.00     0.001 A 
ATOM     10  C   UNL     1       2.184  -3.235   9.200  1.00  0.00     0.009 A 
ATOM     11  C   UNL     1       2.350  -1.833   9.236  1.00  0.00    -0.015 A 
ENDROOT
TORSDOF 0
ENDMDL
MODEL 8
REMARK VINA RESULT:    -4.613      1.192      2.933
REMARK INTER + INTRA:          -4.613
REMARK INTER:                  -4.613
REMARK INTRA:                   0.000
REMARK UNBOUND:                 0.000
REMARK SMILES Cc1cccc2ccccc12
REMARK SMILES IDX 1 1 2 2 3 3 4 4 5 5 6 6 7 7 8 8 9 9 10 10 11 11
REMARK H PARENT
REMARK Flexibility Score: inf
ROOT
ATOM      1  C   UNL     1       1.987  -2.277   9.145  1.00  0.00     0.045 C 
ATOM      2  C   UNL     1       1.342  -0.976   8.740  1.00  0.00    -0.043 A 
ATOM      3  C   UNL     1       0.049  -1.001   8.191  1.00  0.00     0.004 A 
ATOM      4  C   UNL     1      -0.585   0.179   7.802  1.00  0.00     0.001 A 
ATOM      5  C   UNL     1       0.057   1.406   7.953  1.00  0.00     0.009 A 
ATOM      6  C   UNL     1       1.348   1.465   8.497  1.00  0.00    -0.018 A 
ATOM      7  C   UNL     1       1.990   2.705   8.648  1.00  0.00     0.009 A 
ATOM      8  C   UNL     1       3.274   2.771   9.188  1.00  0.00     0.001 A 
ATOM      9  C   UNL     1       3.929   1.604   9.584  1.00  0.00     0.001 A 
ATOM     10  C   UNL     1       3.305   0.362   9.443  1.00  0.00     0.009 A 
ATOM     11  C   UNL     1       2.005   0.270   8.898  1.00  0.00    -0.015 A 
ENDROOT
TORSDOF 0
ENDMDL
MODEL 9
REMARK VINA RESULT:    -4.534      1.123      3.234
REMARK INTER + INTRA:          -4.534
REMARK INTER:                  -4.534
REMARK INTRA:                   0.000
REMARK UNBOUND:                 0.000
REMARK SMILES Cc1cccc2ccccc12
REMARK SMILES IDX 1 1 2 2 3 3 4 4 5 5 6 6 7 7 8 8 9 9 10 10 11 11
REMARK H PARENT
REMARK Flexibility Score: inf
ROOT
ATOM      1  C   UNL     1       2.579   2.605   8.844  1.00  0.00     0.045 C 
ATOM      2  C   UNL     1       2.845   1.152   9.148  1.00  0.00    -0.043 A 
ATOM      3  C   UNL     1       4.071   0.795   9.733  1.00  0.00     0.004 A 
ATOM      4  C   UNL     1       4.359  -0.537  10.031  1.00  0.00     0.001 A 
ATOM      5  C   UNL     1       3.431  -1.537   9.751  1.00  0.00     0.009 A 
ATOM      6  C   UNL     1       2.199  -1.213   9.167  1.00  0.00    -0.018 A 
ATOM      7  C   UNL     1       1.267  -2.226   8.888  1.00  0.00     0.009 A 
ATOM      8  C   UNL     1       0.038  -1.911   8.307  1.00  0.00     0.001 A 
ATOM      9  C   UNL     1      -0.273  -0.586   8.000  1.00  0.00     0.001 A 
ATOM     10  C   UNL     1       0.642   0.435   8.272  1.00  0.00     0.009 A 
ATOM     11  C   UNL     1       1.892   0.140   8.859  1.00  0.00    -0.015 A 
ENDROOT
TORSDOF 0
ENDMDL
