MODEL 1
REMARK VINA RESULT:    -3.290      0.000      0.000
REMARK INTER + INTRA:          -5.179
REMARK INTER:                  -5.021
REMARK INTRA:                  -0.158
REMARK UNBOUND:                -0.158
REMARK SMILES CC1=CCC[C@@H](C)C(=O)C[C@H](C(C)C)C(=O)C1
REMARK SMILES IDX 8 1 9 2 6 3 7 4 5 5 4 6 3 7 2 8 1 9 10 11 11 12 15 13 16 14
REMARK SMILES IDX 17 15 12 17 13 18 14 19
REMARK H PARENT
REMARK Flexibility Score: 70.00
ROOT
ATOM      1  C   UNL     1       1.695  74.616 -28.535  1.00  0.00     0.136 C 
ATOM      2  O   UNL     1       1.233  73.487 -28.558  1.00  0.00    -0.299 OA
ENDROOT
BRANCH   1   3
ATOM      3  C   UNL     1       1.574  75.424 -27.255  1.00  0.00     0.053 C 
ATOM      4  C   UNL     1       1.082  74.532 -26.107  1.00  0.00     0.016 C 
BRANCH   3   5
ATOM      5  C   UNL     1       0.660  76.654 -27.433  1.00  0.00     0.015 C 
BRANCH   5   6
ATOM      6  C   UNL     1       1.434  77.977 -27.293  1.00  0.00     0.028 C 
BRANCH   6   7
ATOM      7  C   UNL     1       1.459  78.732 -28.595  1.00  0.00    -0.028 C 
ATOM      8  C   UNL     1       2.497  78.738 -29.462  1.00  0.00    -0.070 CG0
ATOM      9  C   UNL     1       2.347  79.531 -30.736  1.00  0.00     0.039 C 
ATOM     10  G   UNL     1       3.815  78.021 -29.203  1.00  0.00     0.000 G0
ENDBRANCH   6   7
ENDBRANCH   5   6
ENDBRANCH   3   5
ENDBRANCH   1   3
BRANCH   1  11
ATOM     11  C   UNL     1       2.198  75.241 -29.819  1.00  0.00     0.087 C 
BRANCH  11  12
ATOM     12  C   UNL     1       3.733  75.448 -29.974  1.00  0.00     0.066 C 
BRANCH  12  13
ATOM     13  C   UNL     1       4.143  76.905 -30.183  1.00  0.00     0.140 C 
ATOM     14  O   UNL     1       4.804  77.182 -31.176  1.00  0.00    -0.299 OA
BRANCH  13  15
ATOM     15  C   UNL     1       3.834  78.007 -29.195  1.00  0.00     0.106 CG0
ATOM     16  G   UNL     1       2.505  78.695 -29.474  1.00  0.00     0.000 G0
ENDBRANCH  13  15
ENDBRANCH  12  13
BRANCH  12  17
ATOM     17  C   UNL     1       4.697  74.607 -29.060  1.00  0.00    -0.006 C 
ATOM     18  C   UNL     1       5.917  73.967 -29.743  1.00  0.00     0.008 C 
ATOM     19  C   UNL     1       5.137  75.377 -27.804  1.00  0.00     0.008 C 
ENDBRANCH  12  17
ENDBRANCH  11  12
ENDBRANCH   1  11
TORSDOF 1
ENDMDL
MODEL 2
REMARK VINA RESULT:    -3.092      4.573      7.011
REMARK INTER + INTRA:          -4.877
REMARK INTER:                  -4.882
REMARK INTRA:                   0.005
REMARK UNBOUND:                -0.158
REMARK SMILES CC1=CCC[C@@H](C)C(=O)C[C@H](C(C)C)C(=O)C1
REMARK SMILES IDX 8 1 9 2 6 3 7 4 5 5 4 6 3 7 2 8 1 9 10 11 11 12 15 13 16 14
REMARK SMILES IDX 17 15 12 17 13 18 14 19
REMARK H PARENT
REMARK Flexibility Score: 70.00
ROOT
ATOM      1  C   UNL     1       6.754  76.668 -29.912  1.00  0.00     0.136 C 
ATOM      2  O   UNL     1       6.894  77.112 -28.785  1.00  0.00    -0.299 OA
ENDROOT
BRANCH   1   3
ATOM      3  C   UNL     1       5.608  75.705 -30.175  1.00  0.00     0.053 C 
ATOM      4  C   UNL     1       4.301  76.260 -29.591  1.00  0.00     0.016 C 
BRANCH   3   5
ATOM      5  C   UNL     1       5.905  74.293 -29.629  1.00  0.00     0.015 C 
BRANCH   5   6
ATOM      6  C   UNL     1       7.169  73.681 -30.260  1.00  0.00     0.028 C 
BRANCH   6   7
ATOM      7  C   UNL     1       8.274  73.553 -29.246  1.00  0.00    -0.028 C 
ATOM      8  C   UNL     1       9.503  74.104 -29.372  1.00  0.00    -0.070 CG0
ATOM      9  C   UNL     1      10.487  73.895 -28.247  1.00  0.00     0.039 C 
ATOM     10  G   UNL     1       9.954  74.886 -30.597  1.00  0.00     0.000 G0
ENDBRANCH   6   7
ENDBRANCH   5   6
ENDBRANCH   3   5
ENDBRANCH   1   3
BRANCH   1  11
ATOM     11  C   UNL     1       7.818  76.933 -30.955  1.00  0.00     0.087 C 
BRANCH  11  12
ATOM     12  C   UNL     1       9.203  77.449 -30.466  1.00  0.00     0.066 C 
BRANCH  12  13
ATOM     13  C   UNL     1      10.247  76.348 -30.289  1.00  0.00     0.140 C 
ATOM     14  O   UNL     1      11.374  76.672 -29.939  1.00  0.00    -0.299 OA
BRANCH  13  15
ATOM     15  C   UNL     1       9.979  74.891 -30.591  1.00  0.00     0.106 CG0
ATOM     16  G   UNL     1       9.500  74.114 -29.373  1.00  0.00     0.000 G0
ENDBRANCH  13  15
ENDBRANCH  12  13
BRANCH  12  17
ATOM     17  C   UNL     1       9.748  78.799 -31.060  1.00  0.00    -0.006 C 
ATOM     18  C   UNL     1       9.310  79.153 -32.492  1.00  0.00     0.008 C 
ATOM     19  C   UNL     1       9.509  79.995 -30.124  1.00  0.00     0.008 C 
ENDBRANCH  12  17
ENDBRANCH  11  12
ENDBRANCH   1  11
TORSDOF 1
ENDMDL
MODEL 3
REMARK VINA RESULT:    -3.046     12.191     13.818
REMARK INTER + INTRA:          -4.806
REMARK INTER:                  -4.662
REMARK INTRA:                  -0.145
REMARK UNBOUND:                -0.158
REMARK SMILES CC1=CCC[C@@H](C)C(=O)C[C@H](C(C)C)C(=O)C1
REMARK SMILES IDX 8 1 9 2 6 3 7 4 5 5 4 6 3 7 2 8 1 9 10 11 11 12 15 13 16 14
REMARK SMILES IDX 17 15 12 17 13 18 14 19
REMARK H PARENT
REMARK Flexibility Score: 70.00
ROOT
ATOM      1  C   UNL     1       9.393  79.969 -17.675  1.00  0.00     0.136 C 
ATOM      2  O   UNL     1       8.968  80.546 -16.689  1.00  0.00    -0.299 OA
ENDROOT
BRANCH   1   3
ATOM      3  C   UNL     1       9.627  78.470 -17.595  1.00  0.00     0.053 C 
ATOM      4  C   UNL     1       8.351  77.756 -17.129  1.00  0.00     0.016 C 
BRANCH   3   5
ATOM      5  C   UNL     1      10.822  78.121 -16.684  1.00  0.00     0.015 C 
BRANCH   5   6
ATOM      6  C   UNL     1      11.995  77.511 -17.474  1.00  0.00     0.028 C 
BRANCH   6   7
ATOM      7  C   UNL     1      11.540  77.004 -18.816  1.00  0.00    -0.028 C 
ATOM      8  C   UNL     1      11.876  77.558 -20.003  1.00  0.00    -0.070 CG0
ATOM      9  C   UNL     1      11.351  76.907 -21.258  1.00  0.00     0.039 C 
ATOM     10  G   UNL     1      12.721  78.817 -20.136  1.00  0.00     0.000 G0
ENDBRANCH   6   7
ENDBRANCH   5   6
ENDBRANCH   3   5
ENDBRANCH   1   3
BRANCH   1  11
ATOM     11  C   UNL     1       9.849  80.776 -18.871  1.00  0.00     0.087 C 
BRANCH  11  12
ATOM     12  C   UNL     1      11.380  80.898 -19.126  1.00  0.00     0.066 C 
BRANCH  12  13
ATOM     13  C   UNL     1      11.879  80.073 -20.310  1.00  0.00     0.140 C 
ATOM     14  O   UNL     1      11.534  80.411 -21.435  1.00  0.00    -0.299 OA
BRANCH  13  15
ATOM     15  C   UNL     1      12.717  78.822 -20.161  1.00  0.00     0.106 CG0
ATOM     16  G   UNL     1      11.876  77.566 -19.989  1.00  0.00     0.000 G0
ENDBRANCH  13  15
ENDBRANCH  12  13
BRANCH  12  17
ATOM     17  C   UNL     1      12.053  82.310 -18.964  1.00  0.00    -0.006 C 
ATOM     18  C   UNL     1      11.692  83.374 -20.014  1.00  0.00     0.008 C 
ATOM     19  C   UNL     1      11.883  82.885 -17.548  1.00  0.00     0.008 C 
ENDBRANCH  12  17
ENDBRANCH  11  12
ENDBRANCH   1  11
TORSDOF 1
ENDMDL
MODEL 4
REMARK VINA RESULT:    -3.030     10.436     11.780
REMARK INTER + INTRA:          -4.782
REMARK INTER:                  -4.695
REMARK INTRA:                  -0.087
REMARK UNBOUND:                -0.158
REMARK SMILES CC1=CCC[C@@H](C)C(=O)C[C@H](C(C)C)C(=O)C1
REMARK SMILES IDX 8 1 9 2 6 3 7 4 5 5 4 6 3 7 2 8 1 9 10 11 11 12 15 13 16 14
REMARK SMILES IDX 17 15 12 17 13 18 14 19
REMARK H PARENT
REMARK Flexibility Score: 70.00
ROOT
ATOM      1  C   UNL     1       3.273  75.911 -17.493  1.00  0.00     0.136 C 
ATOM      2  O   UNL     1       3.950  74.971 -17.877  1.00  0.00    -0.299 OA
ENDROOT
BRANCH   1   3
ATOM      3  C   UNL     1       1.987  76.230 -18.237  1.00  0.00     0.053 C 
ATOM      4  C   UNL     1       1.439  74.969 -18.920  1.00  0.00     0.016 C 
BRANCH   3   5
ATOM      5  C   UNL     1       2.179  77.373 -19.255  1.00  0.00     0.015 C 
BRANCH   5   6
ATOM      6  C   UNL     1       1.709  78.730 -18.698  1.00  0.00     0.028 C 
BRANCH   6   7
ATOM      7  C   UNL     1       2.661  79.832 -19.080  1.00  0.00    -0.028 C 
ATOM      8  C   UNL     1       3.648  80.307 -18.287  1.00  0.00    -0.070 CG0
ATOM      9  C   UNL     1       4.528  81.401 -18.836  1.00  0.00     0.039 C 
ATOM     10  G   UNL     1       3.891  79.824 -16.864  1.00  0.00     0.000 G0
ENDBRANCH   6   7
ENDBRANCH   5   6
ENDBRANCH   3   5
ENDBRANCH   1   3
BRANCH   1  11
ATOM     11  C   UNL     1       3.817  76.834 -16.425  1.00  0.00     0.087 C 
BRANCH  11  12
ATOM     12  C   UNL     1       5.197  77.508 -16.680  1.00  0.00     0.066 C 
BRANCH  12  13
ATOM     13  C   UNL     1       5.151  79.035 -16.669  1.00  0.00     0.140 C 
ATOM     14  O   UNL     1       6.190  79.642 -16.448  1.00  0.00    -0.299 OA
BRANCH  13  15
ATOM     15  C   UNL     1       3.877  79.831 -16.848  1.00  0.00     0.106 CG0
ATOM     16  G   UNL     1       3.669  80.296 -18.283  1.00  0.00     0.000 G0
ENDBRANCH  13  15
ENDBRANCH  12  13
BRANCH  12  17
ATOM     17  C   UNL     1       6.472  76.873 -16.016  1.00  0.00    -0.006 C 
ATOM     18  C   UNL     1       6.273  75.546 -15.263  1.00  0.00     0.008 C 
ATOM     19  C   UNL     1       7.650  76.752 -16.998  1.00  0.00     0.008 C 
ENDBRANCH  12  17
ENDBRANCH  11  12
ENDBRANCH   1  11
TORSDOF 1
ENDMDL
MODEL 5
REMARK VINA RESULT:    -2.974     11.630     12.810
REMARK INTER + INTRA:          -4.698
REMARK INTER:                  -4.667
REMARK INTRA:                  -0.031
REMARK UNBOUND:                -0.158
REMARK SMILES CC1=CCC[C@@H](C)C(=O)C[C@H](C(C)C)C(=O)C1
REMARK SMILES IDX 8 1 9 2 6 3 7 4 5 5 4 6 3 7 2 8 1 9 10 11 11 12 15 13 16 14
REMARK SMILES IDX 17 15 12 17 13 18 14 19
REMARK H PARENT
REMARK Flexibility Score: 70.00
ROOT
ATOM      1  C   UNL     1       7.182  76.346 -16.906  1.00  0.00     0.136 C 
ATOM      2  O   UNL     1       8.118  75.581 -17.075  1.00  0.00    -0.299 OA
ENDROOT
BRANCH   1   3
ATOM      3  C   UNL     1       6.325  76.181 -15.663  1.00  0.00     0.053 C 
ATOM      4  C   UNL     1       6.800  74.971 -14.846  1.00  0.00     0.016 C 
BRANCH   3   5
ATOM      5  C   UNL     1       4.826  76.064 -16.007  1.00  0.00     0.015 C 
BRANCH   5   6
ATOM      6  C   UNL     1       4.001  77.215 -15.403  1.00  0.00     0.028 C 
BRANCH   6   7
ATOM      7  C   UNL     1       3.328  78.023 -16.480  1.00  0.00    -0.028 C 
ATOM      8  C   UNL     1       3.845  79.138 -17.044  1.00  0.00    -0.070 CG0
ATOM      9  C   UNL     1       3.046  79.815 -18.129  1.00  0.00     0.039 C 
ATOM     10  G   UNL     1       5.166  79.762 -16.617  1.00  0.00     0.000 G0
ENDBRANCH   6   7
ENDBRANCH   5   6
ENDBRANCH   3   5
ENDBRANCH   1   3
BRANCH   1  11
ATOM     11  C   UNL     1       6.791  77.300 -18.014  1.00  0.00     0.087 C 
BRANCH  11  12
ATOM     12  C   UNL     1       7.304  78.768 -17.925  1.00  0.00     0.066 C 
BRANCH  12  13
ATOM     13  C   UNL     1       6.193  79.802 -17.754  1.00  0.00     0.140 C 
ATOM     14  O   UNL     1       6.150  80.738 -18.541  1.00  0.00    -0.299 OA
BRANCH  13  15
ATOM     15  C   UNL     1       5.188  79.766 -16.625  1.00  0.00     0.106 CG0
ATOM     16  G   UNL     1       3.861  79.141 -17.035  1.00  0.00     0.000 G0
ENDBRANCH  13  15
ENDBRANCH  12  13
BRANCH  12  17
ATOM     17  C   UNL     1       8.614  79.052 -17.104  1.00  0.00    -0.006 C 
ATOM     18  C   UNL     1       9.948  78.907 -17.855  1.00  0.00     0.008 C 
ATOM     19  C   UNL     1       8.567  80.401 -16.367  1.00  0.00     0.008 C 
ENDBRANCH  12  17
ENDBRANCH  11  12
ENDBRANCH   1  11
TORSDOF 1
ENDMDL
MODEL 6
REMARK VINA RESULT:    -2.963      4.787      7.141
REMARK INTER + INTRA:          -4.680
REMARK INTER:                  -4.543
REMARK INTRA:                  -0.138
REMARK UNBOUND:                -0.158
REMARK SMILES CC1=CCC[C@@H](C)C(=O)C[C@H](C(C)C)C(=O)C1
REMARK SMILES IDX 8 1 9 2 6 3 7 4 5 5 4 6 3 7 2 8 1 9 10 11 11 12 15 13 16 14
REMARK SMILES IDX 17 15 12 17 13 18 14 19
REMARK H PARENT
REMARK Flexibility Score: 70.00
ROOT
ATOM      1  C   UNL     1       9.634  77.097 -30.940  1.00  0.00     0.136 C 
ATOM      2  O   UNL     1      10.335  77.990 -30.493  1.00  0.00    -0.299 OA
ENDROOT
BRANCH   1   3
ATOM      3  C   UNL     1       8.201  77.423 -31.324  1.00  0.00     0.053 C 
ATOM      4  C   UNL     1       8.125  78.814 -31.969  1.00  0.00     0.016 C 
BRANCH   3   5
ATOM      5  C   UNL     1       7.243  77.318 -30.120  1.00  0.00     0.015 C 
BRANCH   5   6
ATOM      6  C   UNL     1       6.159  76.245 -30.333  1.00  0.00     0.028 C 
BRANCH   6   7
ATOM      7  C   UNL     1       6.105  75.290 -29.171  1.00  0.00    -0.028 C 
ATOM      8  C   UNL     1       6.704  74.078 -29.141  1.00  0.00    -0.070 CG0
ATOM      9  C   UNL     1       6.568  73.255 -27.884  1.00  0.00     0.039 C 
ATOM     10  G   UNL     1       7.472  73.489 -30.316  1.00  0.00     0.000 G0
ENDBRANCH   6   7
ENDBRANCH   5   6
ENDBRANCH   3   5
ENDBRANCH   1   3
BRANCH   1  11
ATOM     11  C   UNL     1      10.143  75.672 -30.922  1.00  0.00     0.087 C 
BRANCH  11  12
ATOM     12  C   UNL     1       9.757  74.778 -29.707  1.00  0.00     0.066 C 
BRANCH  12  13
ATOM     13  C   UNL     1       8.984  73.517 -30.087  1.00  0.00     0.140 C 
ATOM     14  O   UNL     1       9.616  72.484 -30.268  1.00  0.00    -0.299 OA
BRANCH  13  15
ATOM     15  C   UNL     1       7.489  73.494 -30.319  1.00  0.00     0.106 CG0
ATOM     16  G   UNL     1       6.702  74.062 -29.147  1.00  0.00     0.000 G0
ENDBRANCH  13  15
ENDBRANCH  12  13
BRANCH  12  17
ATOM     17  C   UNL     1      10.808  74.595 -28.552  1.00  0.00    -0.006 C 
ATOM     18  C   UNL     1      11.768  75.770 -28.295  1.00  0.00     0.008 C 
ATOM     19  C   UNL     1      10.161  74.144 -27.232  1.00  0.00     0.008 C 
ENDBRANCH  12  17
ENDBRANCH  11  12
ENDBRANCH   1  11
TORSDOF 1
ENDMDL
MODEL 7
REMARK VINA RESULT:    -2.942     12.505     14.354
REMARK INTER + INTRA:          -4.648
REMARK INTER:                  -4.530
REMARK INTRA:                  -0.118
REMARK UNBOUND:                -0.158
REMARK SMILES CC1=CCC[C@@H](C)C(=O)C[C@H](C(C)C)C(=O)C1
REMARK SMILES IDX 8 1 9 2 6 3 7 4 5 5 4 6 3 7 2 8 1 9 10 11 11 12 15 13 16 14
REMARK SMILES IDX 17 15 12 17 13 18 14 19
REMARK H PARENT
REMARK Flexibility Score: 70.00
ROOT
ATOM      1  C   UNL     1      11.786  82.583 -18.355  1.00  0.00     0.136 C 
ATOM      2  O   UNL     1      12.711  82.731 -17.573  1.00  0.00    -0.299 OA
ENDROOT
BRANCH   1   3
ATOM      3  C   UNL     1      11.939  83.119 -19.768  1.00  0.00     0.053 C 
ATOM      4  C   UNL     1      10.612  83.715 -20.258  1.00  0.00     0.016 C 
BRANCH   3   5
ATOM      5  C   UNL     1      12.454  82.039 -20.742  1.00  0.00     0.015 C 
BRANCH   5   6
ATOM      6  C   UNL     1      13.255  80.940 -20.019  1.00  0.00     0.028 C 
BRANCH   6   7
ATOM      7  C   UNL     1      12.787  79.570 -20.428  1.00  0.00    -0.028 C 
ATOM      8  C   UNL     1      12.154  78.696 -19.614  1.00  0.00    -0.070 CG0
ATOM      9  C   UNL     1      11.733  77.369 -20.195  1.00  0.00     0.039 C 
ATOM     10  G   UNL     1      11.880  78.964 -18.141  1.00  0.00     0.000 G0
ENDBRANCH   6   7
ENDBRANCH   5   6
ENDBRANCH   3   5
ENDBRANCH   1   3
BRANCH   1  11
ATOM     11  C   UNL     1      10.463  82.049 -17.852  1.00  0.00     0.087 C 
BRANCH  11  12
ATOM     12  C   UNL     1       9.911  80.745 -18.499  1.00  0.00     0.066 C 
BRANCH  12  13
ATOM     13  C   UNL     1      10.464  79.464 -17.877  1.00  0.00     0.140 C 
ATOM     14  O   UNL     1       9.752  78.849 -17.094  1.00  0.00    -0.299 OA
BRANCH  13  15
ATOM     15  C   UNL     1      11.866  78.955 -18.126  1.00  0.00     0.106 CG0
ATOM     16  G   UNL     1      12.152  78.710 -19.601  1.00  0.00     0.000 G0
ENDBRANCH  13  15
ENDBRANCH  12  13
BRANCH  12  17
ATOM     17  C   UNL     1       8.390  80.694 -18.894  1.00  0.00    -0.006 C 
ATOM     18  C   UNL     1       7.649  82.040 -18.973  1.00  0.00     0.008 C 
ATOM     19  C   UNL     1       8.141  79.878 -20.174  1.00  0.00     0.008 C 
ENDBRANCH  12  17
ENDBRANCH  11  12
ENDBRANCH   1  11
TORSDOF 1
ENDMDL
MODEL 8
REMARK VINA RESULT:    -2.937      6.578      8.466
REMARK INTER + INTRA:          -4.641
REMARK INTER:                  -4.367
REMARK INTRA:                  -0.274
REMARK UNBOUND:                -0.158
REMARK SMILES CC1=CCC[C@@H](C)C(=O)C[C@H](C(C)C)C(=O)C1
REMARK SMILES IDX 8 1 9 2 6 3 7 4 5 5 4 6 3 7 2 8 1 9 10 11 11 12 15 13 16 14
REMARK SMILES IDX 17 15 12 17 13 18 14 19
REMARK H PARENT
REMARK Flexibility Score: 70.00
ROOT
ATOM      1  C   UNL     1       9.187  72.353 -28.631  1.00  0.00     0.136 C 
ATOM      2  O   UNL     1       9.275  71.228 -29.093  1.00  0.00    -0.299 OA
ENDROOT
BRANCH   1   3
ATOM      3  C   UNL     1       8.614  73.455 -29.507  1.00  0.00     0.053 C 
ATOM      4  C   UNL     1       7.195  73.088 -29.963  1.00  0.00     0.016 C 
BRANCH   3   5
ATOM      5  C   UNL     1       9.523  73.762 -30.715  1.00  0.00     0.015 C 
BRANCH   5   6
ATOM      6  C   UNL     1      10.297  75.081 -30.537  1.00  0.00     0.028 C 
BRANCH   6   7
ATOM      7  C   UNL     1       9.672  75.938 -29.468  1.00  0.00    -0.028 C 
ATOM      8  C   UNL     1      10.249  76.233 -28.282  1.00  0.00    -0.070 CG0
ATOM      9  C   UNL     1       9.491  77.128 -27.333  1.00  0.00     0.039 C 
ATOM     10  G   UNL     1      11.598  75.682 -27.841  1.00  0.00     0.000 G0
ENDBRANCH   6   7
ENDBRANCH   5   6
ENDBRANCH   3   5
ENDBRANCH   1   3
BRANCH   1  11
ATOM     11  C   UNL     1       9.815  72.658 -27.289  1.00  0.00     0.087 C 
BRANCH  11  12
ATOM     12  C   UNL     1      11.309  73.095 -27.267  1.00  0.00     0.066 C 
BRANCH  12  13
ATOM     13  C   UNL     1      11.523  74.550 -26.855  1.00  0.00     0.140 C 
ATOM     14  O   UNL     1      11.559  74.812 -25.659  1.00  0.00    -0.299 OA
BRANCH  13  15
ATOM     15  C   UNL     1      11.622  75.690 -27.844  1.00  0.00     0.106 CG0
ATOM     16  G   UNL     1      10.261  76.217 -28.275  1.00  0.00     0.000 G0
ENDBRANCH  13  15
ENDBRANCH  12  13
BRANCH  12  17
ATOM     17  C   UNL     1      12.375  72.080 -26.714  1.00  0.00    -0.006 C 
ATOM     18  C   UNL     1      12.107  70.586 -26.967  1.00  0.00     0.008 C 
ATOM     19  C   UNL     1      13.808  72.439 -27.140  1.00  0.00     0.008 C 
ENDBRANCH  12  17
ENDBRANCH  11  12
ENDBRANCH   1  11
TORSDOF 1
ENDMDL
MODEL 9
REMARK VINA RESULT:    -2.862     12.311     13.716
REMARK INTER + INTRA:          -4.526
REMARK INTER:                  -4.276
REMARK INTRA:                  -0.250
REMARK UNBOUND:                -0.158
REMARK SMILES CC1=CCC[C@@H](C)C(=O)C[C@H](C(C)C)C(=O)C1
REMARK SMILES IDX 8 1 9 2 6 3 7 4 5 5 4 6 3 7 2 8 1 9 10 11 11 12 15 13 16 14
REMARK SMILES IDX 17 15 12 17 13 18 14 19
REMARK H PARENT
REMARK Flexibility Score: 70.00
ROOT
ATOM      1  C   UNL     1       7.981  81.749 -18.775  1.00  0.00     0.136 C 
ATOM      2  O   UNL     1       7.587  82.809 -18.318  1.00  0.00    -0.299 OA
ENDROOT
BRANCH   1   3
ATOM      3  C   UNL     1       7.326  80.464 -18.297  1.00  0.00     0.053 C 
ATOM      4  C   UNL     1       5.825  80.481 -18.616  1.00  0.00     0.016 C 
BRANCH   3   5
ATOM      5  C   UNL     1       7.571  80.216 -16.794  1.00  0.00     0.015 C 
BRANCH   5   6
ATOM      6  C   UNL     1       8.959  79.605 -16.526  1.00  0.00     0.028 C 
BRANCH   6   7
ATOM      7  C   UNL     1       9.258  78.492 -17.493  1.00  0.00    -0.028 C 
ATOM      8  C   UNL     1      10.410  78.365 -18.190  1.00  0.00    -0.070 CG0
ATOM      9  C   UNL     1      10.555  77.173 -19.102  1.00  0.00     0.039 C 
ATOM     10  G   UNL     1      11.546  79.377 -18.130  1.00  0.00     0.000 G0
ENDBRANCH   6   7
ENDBRANCH   5   6
ENDBRANCH   3   5
ENDBRANCH   1   3
BRANCH   1  11
ATOM     11  C   UNL     1       9.218  81.727 -19.646  1.00  0.00     0.087 C 
BRANCH  11  12
ATOM     12  C   UNL     1      10.606  81.742 -18.940  1.00  0.00     0.066 C 
BRANCH  12  13
ATOM     13  C   UNL     1      11.429  80.475 -19.166  1.00  0.00     0.140 C 
ATOM     14  O   UNL     1      11.960  80.319 -20.257  1.00  0.00    -0.299 OA
BRANCH  13  15
ATOM     15  C   UNL     1      11.563  79.375 -18.137  1.00  0.00     0.106 CG0
ATOM     16  G   UNL     1      10.417  78.374 -18.190  1.00  0.00     0.000 G0
ENDBRANCH  13  15
ENDBRANCH  12  13
BRANCH  12  17
ATOM     17  C   UNL     1      11.428  83.082 -18.940  1.00  0.00    -0.006 C 
ATOM     18  C   UNL     1      12.879  83.005 -18.432  1.00  0.00     0.008 C 
ATOM     19  C   UNL     1      11.382  83.803 -20.297  1.00  0.00     0.008 C 
ENDBRANCH  12  17
ENDBRANCH  11  12
ENDBRANCH   1  11
TORSDOF 1
ENDMDL
