MODEL 1
REMARK VINA RESULT:    -7.488      0.000      0.000
REMARK INTER + INTRA:          -9.432
REMARK INTER:                  -9.239
REMARK INTRA:                  -0.193
REMARK UNBOUND:                -0.193
REMARK SMILES O=C1c2c(O)cc(O)cc2O[C@H](c2cc(O)c(O)c(O)c2)[C@@H]1O
REMARK SMILES IDX 12 1 22 2 2 3 1 4 3 5 4 6 6 7 7 8 9 9 10 10 11 11 13 12
REMARK SMILES IDX 14 13 15 14 21 15 17 16 19 17 16 18 18 20 20 22 23 24 5 26
REMARK SMILES IDX 8 28
REMARK H PARENT 16 19 18 21 20 23 23 25 5 27 8 29
REMARK Flexibility Score: inf
ROOT
ATOM      1  C   UNL     1       9.270   0.631  35.346  1.00  0.00     0.240 C 
ATOM      2  C   UNL     1      10.090   1.044  36.577  1.00  0.00     0.231 C 
ATOM      3  C   UNL     1      11.377   1.583  36.010  1.00  0.00     0.202 C 
ATOM      4  O   UNL     1      12.422   0.865  36.014  1.00  0.00    -0.291 OA
ATOM      5  C   UNL     1      11.264   2.720  35.105  1.00  0.00     0.105 A 
ATOM      6  C   UNL     1      12.345   3.577  34.825  1.00  0.00     0.133 A 
ATOM      7  C   UNL     1      12.266   4.466  33.748  1.00  0.00     0.093 A 
ATOM      8  C   UNL     1      11.128   4.492  32.927  1.00  0.00     0.123 A 
ATOM      9  C   UNL     1      10.068   3.605  33.171  1.00  0.00     0.093 A 
ATOM     10  C   UNL     1      10.156   2.690  34.229  1.00  0.00     0.138 A 
ATOM     11  O   UNL     1       9.137   1.743  34.445  1.00  0.00    -0.481 OA
ENDROOT
BRANCH   1  12
ATOM     12  C   UNL     1       7.928  -0.036  35.619  1.00  0.00     0.003 A 
ATOM     13  C   UNL     1       7.846  -1.435  35.542  1.00  0.00     0.058 A 
ATOM     14  C   UNL     1       6.672  -2.107  35.899  1.00  0.00     0.161 A 
ATOM     15  C   UNL     1       6.786   0.686  36.037  1.00  0.00     0.058 A 
ATOM     16  C   UNL     1       5.550  -1.386  36.344  1.00  0.00     0.200 A 
ATOM     17  C   UNL     1       5.606   0.030  36.397  1.00  0.00     0.161 A 
BRANCH  14  18
ATOM     18  O   UNL     1       6.658  -3.502  35.835  1.00  0.00    -0.504 OA
ATOM     19  H   UNL     1       5.953  -4.051  36.315  1.00  0.00     0.293 HD
ENDBRANCH  14  18
BRANCH  16  20
ATOM     20  O   UNL     1       4.427  -2.098  36.769  1.00  0.00    -0.502 OA
ATOM     21  H   UNL     1       4.473  -3.022  37.181  1.00  0.00     0.293 HD
ENDBRANCH  16  20
BRANCH  17  22
ATOM     22  O   UNL     1       4.526   0.816  36.815  1.00  0.00    -0.504 OA
ATOM     23  H   UNL     1       3.602   0.443  36.969  1.00  0.00     0.293 HD
ENDBRANCH  17  22
ENDBRANCH   1  12
BRANCH   2  24
ATOM     24  O   UNL     1       9.402   2.010  37.327  1.00  0.00    -0.381 OA
ATOM     25  H   UNL     1       8.447   1.720  37.334  1.00  0.00     0.211 HD
ENDBRANCH   2  24
BRANCH   6  26
ATOM     26  O   UNL     1      13.496   3.603  35.624  1.00  0.00    -0.507 OA
ATOM     27  H   UNL     1      13.498   3.895  36.598  1.00  0.00     0.293 HD
ENDBRANCH   6  26
BRANCH   8  28
ATOM     28  O   UNL     1      11.066   5.403  31.875  1.00  0.00    -0.508 OA
ATOM     29  H   UNL     1      10.200   5.885  31.659  1.00  0.00     0.293 HD
ENDBRANCH   8  28
TORSDOF 7
ENDMDL
MODEL 2
REMARK VINA RESULT:    -7.202      7.166      9.534
REMARK INTER + INTRA:          -9.080
REMARK INTER:                  -8.716
REMARK INTRA:                  -0.364
REMARK UNBOUND:                -0.193
REMARK SMILES O=C1c2c(O)cc(O)cc2O[C@H](c2cc(O)c(O)c(O)c2)[C@@H]1O
REMARK SMILES IDX 12 1 22 2 2 3 1 4 3 5 4 6 6 7 7 8 9 9 10 10 11 11 13 12
REMARK SMILES IDX 14 13 15 14 21 15 17 16 19 17 16 18 18 20 20 22 23 24 5 26
REMARK SMILES IDX 8 28
REMARK H PARENT 16 19 18 21 20 23 23 25 5 27 8 29
REMARK Flexibility Score: inf
ROOT
ATOM      1  C   UNL     1       3.778  -4.243  38.277  1.00  0.00     0.240 C 
ATOM      2  C   UNL     1       3.590  -3.398  37.008  1.00  0.00     0.231 C 
ATOM      3  C   UNL     1       4.882  -3.557  36.253  1.00  0.00     0.202 C 
ATOM      4  O   UNL     1       5.756  -2.639  36.289  1.00  0.00    -0.291 OA
ATOM      5  C   UNL     1       5.252  -4.916  35.874  1.00  0.00     0.105 A 
ATOM      6  C   UNL     1       6.174  -5.193  34.847  1.00  0.00     0.133 A 
ATOM      7  C   UNL     1       6.703  -6.481  34.717  1.00  0.00     0.093 A 
ATOM      8  C   UNL     1       6.345  -7.494  35.620  1.00  0.00     0.123 A 
ATOM      9  C   UNL     1       5.465  -7.210  36.677  1.00  0.00     0.093 A 
ATOM     10  C   UNL     1       4.957  -5.914  36.830  1.00  0.00     0.138 A 
ATOM     11  O   UNL     1       4.133  -5.591  37.924  1.00  0.00    -0.481 OA
ENDROOT
BRANCH   1  12
ATOM     12  C   UNL     1       2.641  -4.207  39.290  1.00  0.00     0.003 A 
ATOM     13  C   UNL     1       1.782  -5.313  39.374  1.00  0.00     0.058 A 
ATOM     14  C   UNL     1       0.797  -5.385  40.364  1.00  0.00     0.161 A 
ATOM     15  C   UNL     1       2.470  -3.147  40.211  1.00  0.00     0.058 A 
ATOM     16  C   UNL     1       0.652  -4.343  41.297  1.00  0.00     0.200 A 
ATOM     17  C   UNL     1       1.492  -3.204  41.206  1.00  0.00     0.161 A 
BRANCH  14  18
ATOM     18  O   UNL     1      -0.008  -6.525  40.421  1.00  0.00    -0.504 OA
ATOM     19  H   UNL     1       0.281  -7.357  40.925  1.00  0.00     0.293 HD
ENDBRANCH  14  18
BRANCH  16  20
ATOM     20  O   UNL     1      -0.287  -4.490  42.320  1.00  0.00    -0.502 OA
ATOM     21  H   UNL     1      -0.232  -5.208  43.031  1.00  0.00     0.293 HD
ENDBRANCH  16  20
BRANCH  17  22
ATOM     22  O   UNL     1       1.398  -2.121  42.088  1.00  0.00    -0.504 OA
ATOM     23  H   UNL     1       2.080  -1.379  42.122  1.00  0.00     0.293 HD
ENDBRANCH  17  22
ENDBRANCH   1  12
BRANCH   2  24
ATOM     24  O   UNL     1       2.489  -3.858  36.268  1.00  0.00    -0.381 OA
ATOM     25  H   UNL     1       1.981  -3.042  36.000  1.00  0.00     0.211 HD
ENDBRANCH   2  24
BRANCH   6  26
ATOM     26  O   UNL     1       6.551  -4.222  33.909  1.00  0.00    -0.507 OA
ATOM     27  H   UNL     1       6.769  -3.258  34.153  1.00  0.00     0.293 HD
ENDBRANCH   6  26
BRANCH   8  28
ATOM     28  O   UNL     1       6.869  -8.773  35.453  1.00  0.00    -0.508 OA
ATOM     29  H   UNL     1       7.394  -9.218  36.198  1.00  0.00     0.293 HD
ENDBRANCH   8  28
TORSDOF 7
ENDMDL
MODEL 3
REMARK VINA RESULT:    -6.940      5.823      8.894
REMARK INTER + INTRA:          -8.756
REMARK INTER:                  -8.388
REMARK INTRA:                  -0.368
REMARK UNBOUND:                -0.193
REMARK SMILES O=C1c2c(O)cc(O)cc2O[C@H](c2cc(O)c(O)c(O)c2)[C@@H]1O
REMARK SMILES IDX 12 1 22 2 2 3 1 4 3 5 4 6 6 7 7 8 9 9 10 10 11 11 13 12
REMARK SMILES IDX 14 13 15 14 21 15 17 16 19 17 16 18 18 20 20 22 23 24 5 26
REMARK SMILES IDX 8 28
REMARK H PARENT 16 19 18 21 20 23 23 25 5 27 8 29
REMARK Flexibility Score: inf
ROOT
ATOM      1  C   UNL     1       4.563  -5.045  37.361  1.00  0.00     0.240 C 
ATOM      2  C   UNL     1       3.065  -4.956  37.686  1.00  0.00     0.231 C 
ATOM      3  C   UNL     1       2.925  -3.682  38.476  1.00  0.00     0.202 C 
ATOM      4  O   UNL     1       2.819  -3.725  39.739  1.00  0.00    -0.291 OA
ATOM      5  C   UNL     1       3.346  -2.454  37.810  1.00  0.00     0.105 A 
ATOM      6  C   UNL     1       2.914  -1.180  38.226  1.00  0.00     0.133 A 
ATOM      7  C   UNL     1       3.561  -0.037  37.745  1.00  0.00     0.093 A 
ATOM      8  C   UNL     1       4.655  -0.150  36.874  1.00  0.00     0.123 A 
ATOM      9  C   UNL     1       5.122  -1.419  36.497  1.00  0.00     0.093 A 
ATOM     10  C   UNL     1       4.498  -2.568  37.000  1.00  0.00     0.138 A 
ATOM     11  O   UNL     1       4.996  -3.848  36.694  1.00  0.00    -0.481 OA
ENDROOT
BRANCH   1  12
ATOM     12  C   UNL     1       5.023  -6.298  36.625  1.00  0.00     0.003 A 
ATOM     13  C   UNL     1       6.011  -6.170  35.636  1.00  0.00     0.058 A 
ATOM     14  C   UNL     1       6.555  -7.298  35.014  1.00  0.00     0.161 A 
ATOM     15  C   UNL     1       4.564  -7.593  36.959  1.00  0.00     0.058 A 
ATOM     16  C   UNL     1       6.118  -8.585  35.373  1.00  0.00     0.200 A 
ATOM     17  C   UNL     1       5.098  -8.730  36.347  1.00  0.00     0.161 A 
BRANCH  14  18
ATOM     18  O   UNL     1       7.559  -7.113  34.061  1.00  0.00    -0.504 OA
ATOM     19  H   UNL     1       7.436  -7.395  33.094  1.00  0.00     0.293 HD
ENDBRANCH  14  18
BRANCH  16  20
ATOM     20  O   UNL     1       6.744  -9.688  34.788  1.00  0.00    -0.502 OA
ATOM     21  H   UNL     1       6.729 -10.617  35.188  1.00  0.00     0.293 HD
ENDBRANCH  16  20
BRANCH  17  22
ATOM     22  O   UNL     1       4.601  -9.977  36.745  1.00  0.00    -0.504 OA
ATOM     23  H   UNL     1       4.797 -10.385  37.646  1.00  0.00     0.293 HD
ENDBRANCH  17  22
ENDBRANCH   1  12
BRANCH   2  24
ATOM     24  O   UNL     1       2.305  -4.929  36.507  1.00  0.00    -0.381 OA
ATOM     25  H   UNL     1       2.564  -5.747  35.996  1.00  0.00     0.211 HD
ENDBRANCH   2  24
BRANCH   6  26
ATOM     26  O   UNL     1       1.816  -1.012  39.079  1.00  0.00    -0.507 OA
ATOM     27  H   UNL     1       0.926  -0.618  38.781  1.00  0.00     0.293 HD
ENDBRANCH   6  26
BRANCH   8  28
ATOM     28  O   UNL     1       5.266   1.006  36.393  1.00  0.00    -0.508 OA
ATOM     29  H   UNL     1       5.218   1.873  36.917  1.00  0.00     0.293 HD
ENDBRANCH   8  28
TORSDOF 7
ENDMDL
MODEL 4
REMARK VINA RESULT:    -6.907      5.258     11.168
REMARK INTER + INTRA:          -8.715
REMARK INTER:                  -8.356
REMARK INTRA:                  -0.359
REMARK UNBOUND:                -0.193
REMARK SMILES O=C1c2c(O)cc(O)cc2O[C@H](c2cc(O)c(O)c(O)c2)[C@@H]1O
REMARK SMILES IDX 12 1 22 2 2 3 1 4 3 5 4 6 6 7 7 8 9 9 10 10 11 11 13 12
REMARK SMILES IDX 14 13 15 14 21 15 17 16 19 17 16 18 18 20 20 22 23 24 5 26
REMARK SMILES IDX 8 28
REMARK H PARENT 16 19 18 21 20 23 23 25 5 27 8 29
REMARK Flexibility Score: inf
ROOT
ATOM      1  C   UNL     1       2.509  -2.677  38.483  1.00  0.00     0.240 C 
ATOM      2  C   UNL     1       2.662  -2.449  39.994  1.00  0.00     0.231 C 
ATOM      3  C   UNL     1       1.355  -2.910  40.581  1.00  0.00     0.202 C 
ATOM      4  O   UNL     1       0.474  -2.062  40.916  1.00  0.00    -0.291 OA
ATOM      5  C   UNL     1       0.988  -4.301  40.340  1.00  0.00     0.105 A 
ATOM      6  C   UNL     1       0.047  -4.985  41.131  1.00  0.00     0.133 A 
ATOM      7  C   UNL     1      -0.474  -6.206  40.691  1.00  0.00     0.093 A 
ATOM      8  C   UNL     1      -0.087  -6.742  39.453  1.00  0.00     0.123 A 
ATOM      9  C   UNL     1       0.813  -6.040  38.637  1.00  0.00     0.093 A 
ATOM     10  C   UNL     1       1.313  -4.801  39.058  1.00  0.00     0.138 A 
ATOM     11  O   UNL     1       2.159  -4.047  38.223  1.00  0.00    -0.481 OA
ENDROOT
BRANCH   1  12
ATOM     12  C   UNL     1       3.668  -2.217  37.608  1.00  0.00     0.003 A 
ATOM     13  C   UNL     1       3.823  -0.842  37.368  1.00  0.00     0.058 A 
ATOM     14  C   UNL     1       4.935  -0.355  36.673  1.00  0.00     0.161 A 
ATOM     15  C   UNL     1       4.646  -3.105  37.104  1.00  0.00     0.058 A 
ATOM     16  C   UNL     1       5.920  -1.240  36.202  1.00  0.00     0.200 A 
ATOM     17  C   UNL     1       5.762  -2.634  36.408  1.00  0.00     0.161 A 
BRANCH  14  18
ATOM     18  O   UNL     1       5.055   1.025  36.493  1.00  0.00    -0.504 OA
ATOM     19  H   UNL     1       4.340   1.565  36.017  1.00  0.00     0.293 HD
ENDBRANCH  14  18
BRANCH  16  20
ATOM     20  O   UNL     1       7.054  -0.707  35.586  1.00  0.00    -0.502 OA
ATOM     21  H   UNL     1       7.947  -1.182  35.551  1.00  0.00     0.293 HD
ENDBRANCH  16  20
BRANCH  17  22
ATOM     22  O   UNL     1       6.692  -3.578  35.956  1.00  0.00    -0.504 OA
ATOM     23  H   UNL     1       7.592  -3.714  36.389  1.00  0.00     0.293 HD
ENDBRANCH  17  22
ENDBRANCH   1  12
BRANCH   2  24
ATOM     24  O   UNL     1       3.750  -3.180  40.496  1.00  0.00    -0.381 OA
ATOM     25  H   UNL     1       4.493  -2.523  40.606  1.00  0.00     0.211 HD
ENDBRANCH   2  24
BRANCH   6  26
ATOM     26  O   UNL     1      -0.360  -4.502  42.383  1.00  0.00    -0.507 OA
ATOM     27  H   UNL     1      -0.140  -4.964  43.262  1.00  0.00     0.293 HD
ENDBRANCH   6  26
BRANCH   8  28
ATOM     28  O   UNL     1      -0.605  -7.971  39.050  1.00  0.00    -0.508 OA
ATOM     29  H   UNL     1      -1.607  -8.127  39.024  1.00  0.00     0.293 HD
ENDBRANCH   8  28
TORSDOF 7
ENDMDL
MODEL 5
REMARK VINA RESULT:    -6.867      5.032      8.603
REMARK INTER + INTRA:          -8.666
REMARK INTER:                  -8.363
REMARK INTRA:                  -0.303
REMARK UNBOUND:                -0.193
REMARK SMILES O=C1c2c(O)cc(O)cc2O[C@H](c2cc(O)c(O)c(O)c2)[C@@H]1O
REMARK SMILES IDX 12 1 22 2 2 3 1 4 3 5 4 6 6 7 7 8 9 9 10 10 11 11 13 12
REMARK SMILES IDX 14 13 15 14 21 15 17 16 19 17 16 18 18 20 20 22 23 24 5 26
REMARK SMILES IDX 8 28
REMARK H PARENT 16 19 18 21 20 23 23 25 5 27 8 29
REMARK Flexibility Score: inf
ROOT
ATOM      1  C   UNL     1       3.174  -3.977  38.525  1.00  0.00     0.240 C 
ATOM      2  C   UNL     1       2.028  -2.963  38.394  1.00  0.00     0.231 C 
ATOM      3  C   UNL     1       2.697  -1.619  38.514  1.00  0.00     0.202 C 
ATOM      4  O   UNL     1       2.646  -0.979  39.607  1.00  0.00    -0.291 OA
ATOM      5  C   UNL     1       3.724  -1.314  37.524  1.00  0.00     0.105 A 
ATOM      6  C   UNL     1       4.139   0.002  37.243  1.00  0.00     0.133 A 
ATOM      7  C   UNL     1       5.308   0.219  36.507  1.00  0.00     0.093 A 
ATOM      8  C   UNL     1       6.087  -0.863  36.070  1.00  0.00     0.123 A 
ATOM      9  C   UNL     1       5.705  -2.176  36.390  1.00  0.00     0.093 A 
ATOM     10  C   UNL     1       4.552  -2.398  37.155  1.00  0.00     0.138 A 
ATOM     11  O   UNL     1       4.192  -3.700  37.549  1.00  0.00    -0.481 OA
ENDROOT
BRANCH   1  12
ATOM     12  C   UNL     1       2.779  -5.449  38.523  1.00  0.00     0.003 A 
ATOM     13  C   UNL     1       3.724  -6.396  38.100  1.00  0.00     0.058 A 
ATOM     14  C   UNL     1       3.457  -7.766  38.191  1.00  0.00     0.161 A 
ATOM     15  C   UNL     1       1.535  -5.908  39.016  1.00  0.00     0.058 A 
ATOM     16  C   UNL     1       2.232  -8.218  38.711  1.00  0.00     0.200 A 
ATOM     17  C   UNL     1       1.255  -7.273  39.114  1.00  0.00     0.161 A 
BRANCH  14  18
ATOM     18  O   UNL     1       4.448  -8.665  37.787  1.00  0.00    -0.504 OA
ATOM     19  H   UNL     1       5.265  -8.361  37.268  1.00  0.00     0.293 HD
ENDBRANCH  14  18
BRANCH  16  20
ATOM     20  O   UNL     1       2.038  -9.593  38.862  1.00  0.00    -0.502 OA
ATOM     21  H   UNL     1       2.685 -10.290  38.516  1.00  0.00     0.293 HD
ENDBRANCH  16  20
BRANCH  17  22
ATOM     22  O   UNL     1       0.006  -7.645  39.627  1.00  0.00    -0.504 OA
ATOM     23  H   UNL     1      -0.859  -7.221  39.329  1.00  0.00     0.293 HD
ENDBRANCH  17  22
ENDBRANCH   1  12
BRANCH   2  24
ATOM     24  O   UNL     1       1.372  -3.115  37.163  1.00  0.00    -0.381 OA
ATOM     25  H   UNL     1       1.147  -4.085  37.092  1.00  0.00     0.211 HD
ENDBRANCH   2  24
BRANCH   6  26
ATOM     26  O   UNL     1       3.388   1.116  37.642  1.00  0.00    -0.507 OA
ATOM     27  H   UNL     1       2.385   1.200  37.495  1.00  0.00     0.293 HD
ENDBRANCH   6  26
BRANCH   8  28
ATOM     28  O   UNL     1       7.234  -0.618  35.319  1.00  0.00    -0.508 OA
ATOM     29  H   UNL     1       7.594   0.324  35.216  1.00  0.00     0.293 HD
ENDBRANCH   8  28
TORSDOF 7
ENDMDL
MODEL 6
REMARK VINA RESULT:    -6.756      8.515     11.173
REMARK INTER + INTRA:          -8.529
REMARK INTER:                  -8.176
REMARK INTRA:                  -0.353
REMARK UNBOUND:                -0.193
REMARK SMILES O=C1c2c(O)cc(O)cc2O[C@H](c2cc(O)c(O)c(O)c2)[C@@H]1O
REMARK SMILES IDX 12 1 22 2 2 3 1 4 3 5 4 6 6 7 7 8 9 9 10 10 11 11 13 12
REMARK SMILES IDX 14 13 15 14 21 15 17 16 19 17 16 18 18 20 20 22 23 24 5 26
REMARK SMILES IDX 8 28
REMARK H PARENT 16 19 18 21 20 23 23 25 5 27 8 29
REMARK Flexibility Score: inf
ROOT
ATOM      1  C   UNL     1       2.989  -5.935  38.634  1.00  0.00     0.240 C 
ATOM      2  C   UNL     1       1.508  -5.976  38.229  1.00  0.00     0.231 C 
ATOM      3  C   UNL     1       0.772  -5.456  39.435  1.00  0.00     0.202 C 
ATOM      4  O   UNL     1       0.196  -6.264  40.225  1.00  0.00    -0.291 OA
ATOM      5  C   UNL     1       1.113  -4.108  39.875  1.00  0.00     0.105 A 
ATOM      6  C   UNL     1       0.263  -3.339  40.693  1.00  0.00     0.133 A 
ATOM      7  C   UNL     1       0.753  -2.185  41.312  1.00  0.00     0.093 A 
ATOM      8  C   UNL     1       2.093  -1.801  41.148  1.00  0.00     0.123 A 
ATOM      9  C   UNL     1       2.958  -2.592  40.374  1.00  0.00     0.093 A 
ATOM     10  C   UNL     1       2.480  -3.766  39.778  1.00  0.00     0.138 A 
ATOM     11  O   UNL     1       3.348  -4.610  39.060  1.00  0.00    -0.481 OA
ENDROOT
BRANCH   1  12
ATOM     12  C   UNL     1       3.983  -6.490  37.621  1.00  0.00     0.003 A 
ATOM     13  C   UNL     1       4.717  -5.586  36.838  1.00  0.00     0.058 A 
ATOM     14  C   UNL     1       5.727  -6.034  35.980  1.00  0.00     0.161 A 
ATOM     15  C   UNL     1       4.264  -7.871  37.502  1.00  0.00     0.058 A 
ATOM     16  C   UNL     1       6.023  -7.405  35.889  1.00  0.00     0.200 A 
ATOM     17  C   UNL     1       5.269  -8.334  36.650  1.00  0.00     0.161 A 
BRANCH  14  18
ATOM     18  O   UNL     1       6.449  -5.087  35.250  1.00  0.00    -0.504 OA
ATOM     19  H   UNL     1       7.429  -5.221  35.024  1.00  0.00     0.293 HD
ENDBRANCH  14  18
BRANCH  16  20
ATOM     20  O   UNL     1       7.093  -7.803  35.084  1.00  0.00    -0.502 OA
ATOM     21  H   UNL     1       7.501  -8.729  35.114  1.00  0.00     0.293 HD
ENDBRANCH  16  20
BRANCH  17  22
ATOM     22  O   UNL     1       5.495  -9.715  36.601  1.00  0.00    -0.504 OA
ATOM     23  H   UNL     1       5.568 -10.229  35.737  1.00  0.00     0.293 HD
ENDBRANCH  17  22
ENDBRANCH   1  12
BRANCH   2  24
ATOM     24  O   UNL     1       1.284  -5.180  37.094  1.00  0.00    -0.381 OA
ATOM     25  H   UNL     1       0.303  -5.225  36.919  1.00  0.00     0.211 HD
ENDBRANCH   2  24
BRANCH   6  26
ATOM     26  O   UNL     1      -1.087  -3.669  40.875  1.00  0.00    -0.507 OA
ATOM     27  H   UNL     1      -1.633  -3.377  41.682  1.00  0.00     0.293 HD
ENDBRANCH   6  26
BRANCH   8  28
ATOM     28  O   UNL     1       2.548  -0.635  41.758  1.00  0.00    -0.508 OA
ATOM     29  H   UNL     1       2.354  -0.454  42.737  1.00  0.00     0.293 HD
ENDBRANCH   8  28
TORSDOF 7
ENDMDL
MODEL 7
REMARK VINA RESULT:    -6.668      4.786     10.529
REMARK INTER + INTRA:          -8.420
REMARK INTER:                  -8.031
REMARK INTRA:                  -0.389
REMARK UNBOUND:                -0.193
REMARK SMILES O=C1c2c(O)cc(O)cc2O[C@H](c2cc(O)c(O)c(O)c2)[C@@H]1O
REMARK SMILES IDX 12 1 22 2 2 3 1 4 3 5 4 6 6 7 7 8 9 9 10 10 11 11 13 12
REMARK SMILES IDX 14 13 15 14 21 15 17 16 19 17 16 18 18 20 20 22 23 24 5 26
REMARK SMILES IDX 8 28
REMARK H PARENT 16 19 18 21 20 23 23 25 5 27 8 29
REMARK Flexibility Score: inf
ROOT
ATOM      1  C   UNL     1       4.688  -4.237  37.299  1.00  0.00     0.240 C 
ATOM      2  C   UNL     1       4.579  -5.314  36.210  1.00  0.00     0.231 C 
ATOM      3  C   UNL     1       4.215  -6.571  36.955  1.00  0.00     0.202 C 
ATOM      4  O   UNL     1       5.103  -7.440  37.207  1.00  0.00    -0.291 OA
ATOM      5  C   UNL     1       2.974  -6.536  37.722  1.00  0.00     0.105 A 
ATOM      6  C   UNL     1       2.298  -7.704  38.121  1.00  0.00     0.133 A 
ATOM      7  C   UNL     1       1.286  -7.624  39.084  1.00  0.00     0.093 A 
ATOM      8  C   UNL     1       0.958  -6.394  39.675  1.00  0.00     0.123 A 
ATOM      9  C   UNL     1       1.665  -5.235  39.317  1.00  0.00     0.093 A 
ATOM     10  C   UNL     1       2.701  -5.315  38.377  1.00  0.00     0.138 A 
ATOM     11  O   UNL     1       3.469  -4.179  38.059  1.00  0.00    -0.481 OA
ENDROOT
BRANCH   1  12
ATOM     12  C   UNL     1       5.132  -2.854  36.841  1.00  0.00     0.003 A 
ATOM     13  C   UNL     1       4.314  -1.753  37.141  1.00  0.00     0.058 A 
ATOM     14  C   UNL     1       4.729  -0.449  36.851  1.00  0.00     0.161 A 
ATOM     15  C   UNL     1       6.375  -2.619  36.209  1.00  0.00     0.058 A 
ATOM     16  C   UNL     1       5.979  -0.220  36.252  1.00  0.00     0.200 A 
ATOM     17  C   UNL     1       6.804  -1.323  35.913  1.00  0.00     0.161 A 
BRANCH  14  18
ATOM     18  O   UNL     1       3.889   0.610  37.203  1.00  0.00    -0.504 OA
ATOM     19  H   UNL     1       4.234   1.561  37.282  1.00  0.00     0.293 HD
ENDBRANCH  14  18
BRANCH  16  20
ATOM     20  O   UNL     1       6.392   1.100  36.054  1.00  0.00    -0.502 OA
ATOM     21  H   UNL     1       5.807   1.903  36.246  1.00  0.00     0.293 HD
ENDBRANCH  16  20
BRANCH  17  22
ATOM     22  O   UNL     1       8.054  -1.175  35.300  1.00  0.00    -0.504 OA
ATOM     23  H   UNL     1       8.803  -0.635  35.704  1.00  0.00     0.293 HD
ENDBRANCH  17  22
ENDBRANCH   1  12
BRANCH   2  24
ATOM     24  O   UNL     1       3.603  -4.963  35.264  1.00  0.00    -0.381 OA
ATOM     25  H   UNL     1       3.030  -4.275  35.706  1.00  0.00     0.211 HD
ENDBRANCH   2  24
BRANCH   6  26
ATOM     26  O   UNL     1       2.574  -8.953  37.550  1.00  0.00    -0.507 OA
ATOM     27  H   UNL     1       2.272  -9.836  37.955  1.00  0.00     0.293 HD
ENDBRANCH   6  26
BRANCH   8  28
ATOM     28  O   UNL     1      -0.069  -6.341  40.614  1.00  0.00    -0.508 OA
ATOM     29  H   UNL     1      -0.882  -6.941  40.526  1.00  0.00     0.293 HD
ENDBRANCH   8  28
TORSDOF 7
ENDMDL
MODEL 8
REMARK VINA RESULT:    -6.613      4.645      9.838
REMARK INTER + INTRA:          -8.352
REMARK INTER:                  -8.012
REMARK INTRA:                  -0.340
REMARK UNBOUND:                -0.193
REMARK SMILES O=C1c2c(O)cc(O)cc2O[C@H](c2cc(O)c(O)c(O)c2)[C@@H]1O
REMARK SMILES IDX 12 1 22 2 2 3 1 4 3 5 4 6 6 7 7 8 9 9 10 10 11 11 13 12
REMARK SMILES IDX 14 13 15 14 21 15 17 16 19 17 16 18 18 20 20 22 23 24 5 26
REMARK SMILES IDX 8 28
REMARK H PARENT 16 19 18 21 20 23 23 25 5 27 8 29
REMARK Flexibility Score: inf
ROOT
ATOM      1  C   UNL     1       4.508  -4.145  36.161  1.00  0.00     0.240 C 
ATOM      2  C   UNL     1       3.467  -4.581  37.202  1.00  0.00     0.231 C 
ATOM      3  C   UNL     1       3.026  -5.947  36.747  1.00  0.00     0.202 C 
ATOM      4  O   UNL     1       1.927  -6.088  36.131  1.00  0.00    -0.291 OA
ATOM      5  C   UNL     1       4.065  -6.967  36.649  1.00  0.00     0.105 A 
ATOM      6  C   UNL     1       3.776  -8.345  36.644  1.00  0.00     0.133 A 
ATOM      7  C   UNL     1       4.764  -9.259  36.266  1.00  0.00     0.093 A 
ATOM      8  C   UNL     1       6.033  -8.814  35.865  1.00  0.00     0.123 A 
ATOM      9  C   UNL     1       6.310  -7.438  35.820  1.00  0.00     0.093 A 
ATOM     10  C   UNL     1       5.314  -6.517  36.167  1.00  0.00     0.138 A 
ATOM     11  O   UNL     1       5.548  -5.133  36.058  1.00  0.00    -0.481 OA
ENDROOT
BRANCH   1  12
ATOM     12  C   UNL     1       5.079  -2.742  36.322  1.00  0.00     0.003 A 
ATOM     13  C   UNL     1       6.403  -2.506  35.918  1.00  0.00     0.058 A 
ATOM     14  C   UNL     1       6.938  -1.214  35.931  1.00  0.00     0.161 A 
ATOM     15  C   UNL     1       4.305  -1.648  36.772  1.00  0.00     0.058 A 
ATOM     16  C   UNL     1       6.154  -0.126  36.350  1.00  0.00     0.200 A 
ATOM     17  C   UNL     1       4.825  -0.351  36.791  1.00  0.00     0.161 A 
BRANCH  14  18
ATOM     18  O   UNL     1       8.250  -1.033  35.487  1.00  0.00    -0.504 OA
ATOM     19  H   UNL     1       8.968  -1.734  35.642  1.00  0.00     0.293 HD
ENDBRANCH  14  18
BRANCH  16  20
ATOM     20  O   UNL     1       6.699   1.158  36.270  1.00  0.00    -0.502 OA
ATOM     21  H   UNL     1       6.492   1.896  36.931  1.00  0.00     0.293 HD
ENDBRANCH  16  20
BRANCH  17  22
ATOM     22  O   UNL     1       3.989   0.679  37.237  1.00  0.00    -0.504 OA
ATOM     23  H   UNL     1       4.115   1.643  36.971  1.00  0.00     0.293 HD
ENDBRANCH  17  22
ENDBRANCH   1  12
BRANCH   2  24
ATOM     24  O   UNL     1       4.035  -4.614  38.485  1.00  0.00    -0.381 OA
ATOM     25  H   UNL     1       4.073  -3.664  38.790  1.00  0.00     0.211 HD
ENDBRANCH   2  24
BRANCH   6  26
ATOM     26  O   UNL     1       2.531  -8.843  37.052  1.00  0.00    -0.507 OA
ATOM     27  H   UNL     1       2.307  -9.076  38.016  1.00  0.00     0.293 HD
ENDBRANCH   6  26
BRANCH   8  28
ATOM     28  O   UNL     1       7.005  -9.748  35.516  1.00  0.00    -0.508 OA
ATOM     29  H   UNL     1       7.721  -9.520  34.834  1.00  0.00     0.293 HD
ENDBRANCH   8  28
TORSDOF 7
ENDMDL
