MODEL 1
REMARK VINA RESULT:    -2.200      0.000      0.000
REMARK INTER + INTRA:          -4.559
REMARK INTER:                  -3.743
REMARK INTRA:                  -0.816
REMARK UNBOUND:                -0.816
REMARK SMILES CCCCCCCCCCCCCC(=O)[O-]
REMARK SMILES IDX 8 1 9 2 10 3 11 4 12 5 13 6 14 7 15 8 16 9 7 10 6 11 5 12
REMARK SMILES IDX 4 13 3 14 2 15 1 16
REMARK H PARENT
REMARK Flexibility Score: inf
ROOT
ATOM      1  C   UNL     1       3.121  42.857  10.612  1.00  0.00     0.000 C 
ENDROOT
BRANCH   1   2
ATOM      2  C   UNL     1       1.647  43.192  10.321  1.00  0.00     0.000 C 
BRANCH   2   3
ATOM      3  C   UNL     1       0.688  43.010  11.512  1.00  0.00     0.000 C 
BRANCH   3   4
ATOM      4  C   UNL     1       1.064  43.878  12.725  1.00  0.00     0.000 C 
BRANCH   4   5
ATOM      5  C   UNL     1      -0.144  44.653  13.291  1.00  0.00     0.006 C 
BRANCH   5   6
ATOM      6  C   UNL     1      -0.601  44.153  14.670  1.00  0.00     0.053 C 
BRANCH   6   7
ATOM      7  C   UNL     1      -2.082  43.950  14.740  1.00  0.00     0.041 C 
ATOM      8  O   UNL     1      -2.835  44.896  15.091  1.00  0.00    -0.550 OA
ATOM      9  O   UNL     1      -2.630  42.708  14.444  1.00  0.00    -0.550 OA
ENDBRANCH   6   7
ENDBRANCH   5   6
ENDBRANCH   4   5
ENDBRANCH   3   4
ENDBRANCH   2   3
ENDBRANCH   1   2
BRANCH   1  10
ATOM     10  C   UNL     1       4.073  44.029  10.313  1.00  0.00     0.000 C 
BRANCH  10  11
ATOM     11  C   UNL     1       4.237  44.974  11.513  1.00  0.00    -0.000 C 
BRANCH  11  12
ATOM     12  C   UNL     1       5.692  45.076  11.994  1.00  0.00    -0.000 C 
BRANCH  12  13
ATOM     13  C   UNL     1       6.669  44.928  10.818  1.00  0.00    -0.000 C 
BRANCH  13  14
ATOM     14  C   UNL     1       7.932  44.136  11.192  1.00  0.00    -0.000 C 
BRANCH  14  15
ATOM     15  C   UNL     1       7.668  42.629  11.322  1.00  0.00    -0.003 C 
ATOM     16  C   UNL     1       7.713  42.189  12.782  1.00  0.00     0.004 C 
ENDBRANCH  14  15
ENDBRANCH  13  14
ENDBRANCH  12  13
ENDBRANCH  11  12
ENDBRANCH  10  11
ENDBRANCH   1  10
TORSDOF 12
ENDMDL
MODEL 2
REMARK VINA RESULT:    -1.909      2.589      4.274
REMARK INTER + INTRA:          -4.064
REMARK INTER:                  -3.499
REMARK INTRA:                  -0.565
REMARK UNBOUND:                -0.816
REMARK SMILES CCCCCCCCCCCCCC(=O)[O-]
REMARK SMILES IDX 8 1 9 2 10 3 11 4 12 5 13 6 14 7 15 8 16 9 7 10 6 11 5 12
REMARK SMILES IDX 4 13 3 14 2 15 1 16
REMARK H PARENT
REMARK Flexibility Score: inf
ROOT
ATOM      1  C   UNL     1       5.206  43.224  13.530  1.00  0.00     0.000 C 
ENDROOT
BRANCH   1   2
ATOM      2  C   UNL     1       5.529  44.519  12.762  1.00  0.00     0.000 C 
BRANCH   2   3
ATOM      3  C   UNL     1       4.567  44.850  11.605  1.00  0.00     0.000 C 
BRANCH   3   4
ATOM      4  C   UNL     1       4.786  43.961  10.369  1.00  0.00     0.000 C 
BRANCH   4   5
ATOM      5  C   UNL     1       3.552  43.094  10.043  1.00  0.00     0.006 C 
BRANCH   5   6
ATOM      6  C   UNL     1       2.220  43.850  10.170  1.00  0.00     0.053 C 
BRANCH   6   7
ATOM      7  C   UNL     1       1.325  43.257  11.212  1.00  0.00     0.041 C 
ATOM      8  O   UNL     1       1.389  43.658  12.404  1.00  0.00    -0.550 OA
ATOM      9  O   UNL     1       0.437  42.243  10.874  1.00  0.00    -0.550 OA
ENDBRANCH   6   7
ENDBRANCH   5   6
ENDBRANCH   4   5
ENDBRANCH   3   4
ENDBRANCH   2   3
ENDBRANCH   1   2
BRANCH   1  10
ATOM     10  C   UNL     1       6.463  42.517  14.067  1.00  0.00     0.000 C 
BRANCH  10  11
ATOM     11  C   UNL     1       7.642  42.585  13.083  1.00  0.00    -0.000 C 
BRANCH  11  12
ATOM     12  C   UNL     1       7.413  41.739  11.822  1.00  0.00    -0.000 C 
BRANCH  12  13
ATOM     13  C   UNL     1       7.972  42.446  10.578  1.00  0.00    -0.000 C 
BRANCH  13  14
ATOM     14  C   UNL     1       8.975  43.557  10.927  1.00  0.00    -0.000 C 
BRANCH  14  15
ATOM     15  C   UNL     1       8.781  44.818  10.073  1.00  0.00    -0.003 C 
ATOM     16  C   UNL     1       7.300  45.125   9.875  1.00  0.00     0.004 C 
ENDBRANCH  14  15
ENDBRANCH  13  14
ENDBRANCH  12  13
ENDBRANCH  11  12
ENDBRANCH  10  11
ENDBRANCH   1  10
TORSDOF 12
ENDMDL
MODEL 3
REMARK VINA RESULT:    -1.784      0.771      1.040
REMARK INTER + INTRA:          -3.851
REMARK INTER:                  -3.092
REMARK INTRA:                  -0.758
REMARK UNBOUND:                -0.816
REMARK SMILES CCCCCCCCCCCCCC(=O)[O-]
REMARK SMILES IDX 8 1 9 2 10 3 11 4 12 5 13 6 14 7 15 8 16 9 7 10 6 11 5 12
REMARK SMILES IDX 4 13 3 14 2 15 1 16
REMARK H PARENT
REMARK Flexibility Score: inf
ROOT
ATOM      1  C   UNL     1       2.885  42.560   9.878  1.00  0.00     0.000 C 
ENDROOT
BRANCH   1   2
ATOM      2  C   UNL     1       1.899  43.618  10.408  1.00  0.00     0.000 C 
BRANCH   2   3
ATOM      3  C   UNL     1       0.982  43.142  11.550  1.00  0.00     0.000 C 
BRANCH   3   4
ATOM      4  C   UNL     1       1.160  43.956  12.843  1.00  0.00     0.000 C 
BRANCH   4   5
ATOM      5  C   UNL     1      -0.093  44.787  13.191  1.00  0.00     0.006 C 
BRANCH   5   6
ATOM      6  C   UNL     1      -0.540  44.639  14.654  1.00  0.00     0.053 C 
BRANCH   6   7
ATOM      7  C   UNL     1      -1.959  44.178  14.772  1.00  0.00     0.041 C 
ATOM      8  O   UNL     1      -2.852  44.973  15.166  1.00  0.00    -0.550 OA
ATOM      9  O   UNL     1      -2.292  42.863  14.471  1.00  0.00    -0.550 OA
ENDBRANCH   6   7
ENDBRANCH   5   6
ENDBRANCH   4   5
ENDBRANCH   3   4
ENDBRANCH   2   3
ENDBRANCH   1   2
BRANCH   1  10
ATOM     10  C   UNL     1       4.347  43.039   9.900  1.00  0.00     0.000 C 
BRANCH  10  11
ATOM     11  C   UNL     1       4.471  44.534  10.237  1.00  0.00    -0.000 C 
BRANCH  11  12
ATOM     12  C   UNL     1       4.715  44.788  11.732  1.00  0.00    -0.000 C 
BRANCH  12  13
ATOM     13  C   UNL     1       6.197  44.597  12.085  1.00  0.00    -0.000 C 
BRANCH  13  14
ATOM     14  C   UNL     1       6.472  43.260  12.792  1.00  0.00    -0.000 C 
BRANCH  14  15
ATOM     15  C   UNL     1       7.799  42.622  12.356  1.00  0.00    -0.003 C 
ATOM     16  C   UNL     1       7.622  41.807  11.079  1.00  0.00     0.004 C 
ENDBRANCH  14  15
ENDBRANCH  13  14
ENDBRANCH  12  13
ENDBRANCH  11  12
ENDBRANCH  10  11
ENDBRANCH   1  10
TORSDOF 12
ENDMDL
MODEL 4
REMARK VINA RESULT:    -1.710      3.378      7.109
REMARK INTER + INTRA:          -3.726
REMARK INTER:                  -3.086
REMARK INTRA:                  -0.639
REMARK UNBOUND:                -0.816
REMARK SMILES CCCCCCCCCCCCCC(=O)[O-]
REMARK SMILES IDX 8 1 9 2 10 3 11 4 12 5 13 6 14 7 15 8 16 9 7 10 6 11 5 12
REMARK SMILES IDX 4 13 3 14 2 15 1 16
REMARK H PARENT
REMARK Flexibility Score: inf
ROOT
ATOM      1  C   UNL     1       4.671  45.108  11.170  1.00  0.00     0.000 C 
ENDROOT
BRANCH   1   2
ATOM      2  C   UNL     1       5.198  44.456   9.878  1.00  0.00     0.000 C 
BRANCH   2   3
ATOM      3  C   UNL     1       6.636  43.911   9.961  1.00  0.00     0.000 C 
BRANCH   3   4
ATOM      4  C   UNL     1       6.691  42.382  10.121  1.00  0.00     0.000 C 
BRANCH   4   5
ATOM      5  C   UNL     1       7.696  41.940  11.206  1.00  0.00     0.006 C 
BRANCH   5   6
ATOM      6  C   UNL     1       7.779  42.910  12.396  1.00  0.00     0.053 C 
BRANCH   6   7
ATOM      7  C   UNL     1       6.936  42.469  13.550  1.00  0.00     0.041 C 
ATOM      8  O   UNL     1       7.274  41.467  14.235  1.00  0.00    -0.550 OA
ATOM      9  O   UNL     1       5.763  43.147  13.856  1.00  0.00    -0.550 OA
ENDBRANCH   6   7
ENDBRANCH   5   6
ENDBRANCH   4   5
ENDBRANCH   3   4
ENDBRANCH   2   3
ENDBRANCH   1   2
BRANCH   1  10
ATOM     10  C   UNL     1       3.198  44.766  11.456  1.00  0.00     0.000 C 
BRANCH  10  11
ATOM     11  C   UNL     1       2.933  43.252  11.444  1.00  0.00    -0.000 C 
BRANCH  11  12
ATOM     12  C   UNL     1       1.642  42.881  10.699  1.00  0.00    -0.000 C 
BRANCH  12  13
ATOM     13  C   UNL     1       0.404  43.256  11.528  1.00  0.00    -0.000 C 
BRANCH  13  14
ATOM     14  C   UNL     1       0.756  43.675  12.964  1.00  0.00    -0.000 C 
BRANCH  14  15
ATOM     15  C   UNL     1      -0.240  44.690  13.544  1.00  0.00    -0.003 C 
ATOM     16  C   UNL     1      -1.302  43.994  14.390  1.00  0.00     0.004 C 
ENDBRANCH  14  15
ENDBRANCH  13  14
ENDBRANCH  12  13
ENDBRANCH  11  12
ENDBRANCH  10  11
ENDBRANCH   1  10
TORSDOF 12
ENDMDL
MODEL 5
REMARK VINA RESULT:    -1.198      2.232      4.040
REMARK INTER + INTRA:          -2.854
REMARK INTER:                  -2.995
REMARK INTRA:                   0.141
REMARK UNBOUND:                -0.816
REMARK SMILES CCCCCCCCCCCCCC(=O)[O-]
REMARK SMILES IDX 8 1 9 2 10 3 11 4 12 5 13 6 14 7 15 8 16 9 7 10 6 11 5 12
REMARK SMILES IDX 4 13 3 14 2 15 1 16
REMARK H PARENT
REMARK Flexibility Score: inf
ROOT
ATOM      1  C   UNL     1       6.720  45.125  11.490  1.00  0.00     0.000 C 
ENDROOT
BRANCH   1   2
ATOM      2  C   UNL     1       5.201  44.950  11.675  1.00  0.00     0.000 C 
BRANCH   2   3
ATOM      3  C   UNL     1       4.397  44.803  10.370  1.00  0.00     0.000 C 
BRANCH   3   4
ATOM      4  C   UNL     1       4.315  43.349   9.875  1.00  0.00     0.000 C 
BRANCH   4   5
ATOM      5  C   UNL     1       3.176  42.560  10.556  1.00  0.00     0.006 C 
BRANCH   5   6
ATOM      6  C   UNL     1       2.410  43.375  11.610  1.00  0.00     0.053 C 
BRANCH   6   7
ATOM      7  C   UNL     1       0.932  43.155  11.536  1.00  0.00     0.041 C 
ATOM      8  O   UNL     1       0.180  43.600  12.442  1.00  0.00    -0.550 OA
ATOM      9  O   UNL     1       0.386  42.437  10.480  1.00  0.00    -0.550 OA
ENDBRANCH   6   7
ENDBRANCH   5   6
ENDBRANCH   4   5
ENDBRANCH   3   4
ENDBRANCH   2   3
ENDBRANCH   1   2
BRANCH   1  10
ATOM     10  C   UNL     1       7.210  44.676  10.102  1.00  0.00     0.000 C 
BRANCH  10  11
ATOM     11  C   UNL     1       8.236  43.533  10.182  1.00  0.00    -0.000 C 
BRANCH  11  12
ATOM     12  C   UNL     1       8.545  43.113  11.626  1.00  0.00    -0.000 C 
BRANCH  12  13
ATOM     13  C   UNL     1       7.359  42.355  12.242  1.00  0.00    -0.000 C 
BRANCH  13  14
ATOM     14  C   UNL     1       7.684  41.768  13.625  1.00  0.00    -0.000 C 
BRANCH  14  15
ATOM     15  C   UNL     1       6.554  41.990  14.641  1.00  0.00    -0.003 C 
ATOM     16  C   UNL     1       5.458  42.876  14.059  1.00  0.00     0.004 C 
ENDBRANCH  14  15
ENDBRANCH  13  14
ENDBRANCH  12  13
ENDBRANCH  11  12
ENDBRANCH  10  11
ENDBRANCH   1  10
TORSDOF 12
ENDMDL
MODEL 6
REMARK VINA RESULT:    -1.052      2.635      4.440
REMARK INTER + INTRA:          -2.606
REMARK INTER:                  -2.338
REMARK INTRA:                  -0.269
REMARK UNBOUND:                -0.816
REMARK SMILES CCCCCCCCCCCCCC(=O)[O-]
REMARK SMILES IDX 8 1 9 2 10 3 11 4 12 5 13 6 14 7 15 8 16 9 7 10 6 11 5 12
REMARK SMILES IDX 4 13 3 14 2 15 1 16
REMARK H PARENT
REMARK Flexibility Score: inf
ROOT
ATOM      1  C   UNL     1       6.438  42.727  13.927  1.00  0.00     0.000 C 
ENDROOT
BRANCH   1   2
ATOM      2  C   UNL     1       5.250  43.372  13.191  1.00  0.00     0.000 C 
BRANCH   2   3
ATOM      3  C   UNL     1       5.570  44.692  12.464  1.00  0.00     0.000 C 
BRANCH   3   4
ATOM      4  C   UNL     1       4.726  44.899  11.194  1.00  0.00     0.000 C 
BRANCH   4   5
ATOM      5  C   UNL     1       3.948  43.628  10.792  1.00  0.00     0.006 C 
BRANCH   5   6
ATOM      6  C   UNL     1       2.528  43.915  10.280  1.00  0.00     0.053 C 
BRANCH   6   7
ATOM      7  C   UNL     1       1.474  43.329  11.166  1.00  0.00     0.041 C 
ATOM      8  O   UNL     1       0.653  42.492  10.707  1.00  0.00    -0.550 OA
ATOM      9  O   UNL     1       1.380  43.727  12.494  1.00  0.00    -0.550 OA
ENDBRANCH   6   7
ENDBRANCH   5   6
ENDBRANCH   4   5
ENDBRANCH   3   4
ENDBRANCH   2   3
ENDBRANCH   1   2
BRANCH   1  10
ATOM     10  C   UNL     1       7.546  42.248  12.972  1.00  0.00     0.000 C 
BRANCH  10  11
ATOM     11  C   UNL     1       8.390  43.409  12.421  1.00  0.00    -0.000 C 
BRANCH  11  12
ATOM     12  C   UNL     1       8.103  43.701  10.941  1.00  0.00    -0.000 C 
BRANCH  12  13
ATOM     13  C   UNL     1       7.865  42.399  10.162  1.00  0.00    -0.000 C 
BRANCH  13  14
ATOM     14  C   UNL     1       6.375  42.129   9.899  1.00  0.00    -0.000 C 
BRANCH  14  15
ATOM     15  C   UNL     1       6.041  40.630   9.875  1.00  0.00    -0.003 C 
ATOM     16  C   UNL     1       7.308  39.784   9.959  1.00  0.00     0.004 C 
ENDBRANCH  14  15
ENDBRANCH  13  14
ENDBRANCH  12  13
ENDBRANCH  11  12
ENDBRANCH  10  11
ENDBRANCH   1  10
TORSDOF 12
ENDMDL
