MODEL 1
REMARK VINA RESULT:    -3.363      0.000      0.000
REMARK INTER + INTRA:          -4.590
REMARK INTER:                  -4.935
REMARK INTRA:                   0.346
REMARK UNBOUND:                 0.346
REMARK SMILES C=C1CC=CC(C)(C)CC=C(C)CCC1
REMARK SMILES IDX 2 1 1 2 15 3 14 4 13 5 11 6 12 7 10 8 3 10 4 11 5 12 6 13
REMARK SMILES IDX 7 14 8 15 9 16
REMARK H PARENT
REMARK Flexibility Score: 60.00
ROOT
ATOM      1  C   UNL     1     134.689 139.968 135.230  1.00  0.00    -0.074 C 
ATOM      2  C   UNL     1     133.387 139.734 134.981  1.00  0.00     0.008 C 
ENDROOT
BRANCH   1   3
ATOM      3  C   UNL     1     135.101 140.502 136.588  1.00  0.00     0.031 C 
BRANCH   3   4
ATOM      4  C   UNL     1     134.733 139.588 137.774  1.00  0.00     0.009 C 
BRANCH   4   5
ATOM      5  C   UNL     1     135.575 138.306 137.911  1.00  0.00     0.030 C 
BRANCH   5   6
ATOM      6  C   UNL     1     137.041 138.581 138.203  1.00  0.00    -0.077 C 
ATOM      7  C   UNL     1     137.420 138.992 139.604  1.00  0.00     0.039 C 
ATOM      8  C   UNL     1     138.029 138.483 137.281  1.00  0.00    -0.027 CG0
ATOM      9  G   UNL     1     137.857 137.985 135.854  1.00  0.00     0.000 G0
ENDBRANCH   5   6
ENDBRANCH   4   5
ENDBRANCH   3   4
ENDBRANCH   1   3
BRANCH   1  10
ATOM     10  C   UNL     1     135.735 139.963 134.123  1.00  0.00     0.057 C 
BRANCH  10  11
ATOM     11  C   UNL     1     136.993 140.738 134.436  1.00  0.00    -0.026 C 
ATOM     12  C   UNL     1     138.229 140.239 134.658  1.00  0.00    -0.024 C 
BRANCH  12  13
ATOM     13  C   UNL     1     138.658 138.767 134.709  1.00  0.00    -0.014 C 
ATOM     14  C   UNL     1     138.275 138.135 133.348  1.00  0.00     0.016 C 
ATOM     15  C   UNL     1     140.203 138.697 134.805  1.00  0.00     0.016 C 
BRANCH  13  16
ATOM     16  C   UNL     1     137.881 137.982 135.833  1.00  0.00     0.038 CG0
ATOM     17  G   UNL     1     138.052 138.485 137.258  1.00  0.00     0.000 G0
ENDBRANCH  13  16
ENDBRANCH  12  13
ENDBRANCH  10  11
ENDBRANCH   1  10
TORSDOF 0
ENDMDL
MODEL 2
REMARK VINA RESULT:    -3.289      3.093      4.633
REMARK INTER + INTRA:          -4.482
REMARK INTER:                  -4.966
REMARK INTRA:                   0.484
REMARK UNBOUND:                 0.346
REMARK SMILES C=C1CC=CC(C)(C)CC=C(C)CCC1
REMARK SMILES IDX 2 1 1 2 15 3 14 4 13 5 11 6 12 7 10 8 3 10 4 11 5 12 6 13
REMARK SMILES IDX 7 14 8 15 9 16
REMARK H PARENT
REMARK Flexibility Score: 60.00
ROOT
ATOM      1  C   UNL     1     132.467 135.571 134.837  1.00  0.00    -0.074 C 
ATOM      2  C   UNL     1     133.100 134.911 133.849  1.00  0.00     0.008 C 
ENDROOT
BRANCH   1   3
ATOM      3  C   UNL     1     131.790 134.782 135.940  1.00  0.00     0.031 C 
BRANCH   3   4
ATOM      4  C   UNL     1     132.352 135.041 137.352  1.00  0.00     0.009 C 
BRANCH   4   5
ATOM      5  C   UNL     1     133.849 135.398 137.416  1.00  0.00     0.030 C 
BRANCH   5   6
ATOM      6  C   UNL     1     134.156 136.514 138.402  1.00  0.00    -0.077 C 
ATOM      7  C   UNL     1     133.816 136.291 139.854  1.00  0.00     0.039 C 
ATOM      8  C   UNL     1     134.714 137.700 138.055  1.00  0.00    -0.027 CG0
ATOM      9  G   UNL     1     135.218 138.065 136.667  1.00  0.00     0.000 G0
ENDBRANCH   5   6
ENDBRANCH   4   5
ENDBRANCH   3   4
ENDBRANCH   1   3
BRANCH   1  10
ATOM     10  C   UNL     1     132.183 137.065 134.755  1.00  0.00     0.057 C 
BRANCH  10  11
ATOM     11  C   UNL     1     133.187 137.857 133.950  1.00  0.00    -0.026 C 
ATOM     12  C   UNL     1     134.118 138.717 134.419  1.00  0.00    -0.024 C 
BRANCH  12  13
ATOM     13  C   UNL     1     134.355 139.153 135.871  1.00  0.00    -0.014 C 
ATOM     14  C   UNL     1     135.179 140.465 135.821  1.00  0.00     0.016 C 
ATOM     15  C   UNL     1     132.994 139.514 136.516  1.00  0.00     0.016 C 
BRANCH  13  16
ATOM     16  C   UNL     1     135.208 138.086 136.657  1.00  0.00     0.038 CG0
ATOM     17  G   UNL     1     134.703 137.694 138.037  1.00  0.00     0.000 G0
ENDBRANCH  13  16
ENDBRANCH  12  13
ENDBRANCH  10  11
ENDBRANCH   1  10
TORSDOF 0
ENDMDL
MODEL 3
REMARK VINA RESULT:    -3.285      5.081      5.923
REMARK INTER + INTRA:          -4.475
REMARK INTER:                  -4.960
REMARK INTRA:                   0.485
REMARK UNBOUND:                 0.346
REMARK SMILES C=C1CC=CC(C)(C)CC=C(C)CCC1
REMARK SMILES IDX 2 1 1 2 15 3 14 4 13 5 11 6 12 7 10 8 3 10 4 11 5 12 6 13
REMARK SMILES IDX 7 14 8 15 9 16
REMARK H PARENT
REMARK Flexibility Score: 60.00
ROOT
ATOM      1  C   UNL     1     133.119 134.472 133.985  1.00  0.00    -0.074 C 
ATOM      2  C   UNL     1     132.546 135.601 133.528  1.00  0.00     0.008 C 
ENDROOT
BRANCH   1   3
ATOM      3  C   UNL     1     132.629 133.866 135.286  1.00  0.00     0.031 C 
BRANCH   3   4
ATOM      4  C   UNL     1     132.320 134.891 136.395  1.00  0.00     0.009 C 
BRANCH   4   5
ATOM      5  C   UNL     1     133.544 135.427 137.163  1.00  0.00     0.030 C 
BRANCH   5   6
ATOM      6  C   UNL     1     134.337 134.334 137.860  1.00  0.00    -0.077 C 
ATOM      7  C   UNL     1     133.757 133.726 139.113  1.00  0.00     0.039 C 
ATOM      8  C   UNL     1     135.536 133.873 137.427  1.00  0.00    -0.027 CG0
ATOM      9  G   UNL     1     136.225 134.287 136.136  1.00  0.00     0.000 G0
ENDBRANCH   5   6
ENDBRANCH   4   5
ENDBRANCH   3   4
ENDBRANCH   1   3
BRANCH   1  10
ATOM     10  C   UNL     1     134.405 133.921 133.387  1.00  0.00     0.057 C 
BRANCH  10  11
ATOM     11  C   UNL     1     134.781 132.535 133.858  1.00  0.00    -0.026 C 
ATOM     12  C   UNL     1     135.808 132.196 134.668  1.00  0.00    -0.024 C 
BRANCH  12  13
ATOM     13  C   UNL     1     136.884 133.113 135.264  1.00  0.00    -0.014 C 
ATOM     14  C   UNL     1     137.741 132.244 136.220  1.00  0.00     0.016 C 
ATOM     15  C   UNL     1     137.831 133.580 134.130  1.00  0.00     0.016 C 
BRANCH  13  16
ATOM     16  C   UNL     1     136.241 134.269 136.121  1.00  0.00     0.038 CG0
ATOM     17  G   UNL     1     135.558 133.858 137.415  1.00  0.00     0.000 G0
ENDBRANCH  13  16
ENDBRANCH  12  13
ENDBRANCH  10  11
ENDBRANCH   1  10
TORSDOF 0
ENDMDL
MODEL 4
REMARK VINA RESULT:    -3.207      4.987      6.708
REMARK INTER + INTRA:          -4.362
REMARK INTER:                  -4.728
REMARK INTRA:                   0.366
REMARK UNBOUND:                 0.346
REMARK SMILES C=C1CC=CC(C)(C)CC=C(C)CCC1
REMARK SMILES IDX 2 1 1 2 15 3 14 4 13 5 11 6 12 7 10 8 3 10 4 11 5 12 6 13
REMARK SMILES IDX 7 14 8 15 9 16
REMARK H PARENT
REMARK Flexibility Score: 60.00
ROOT
ATOM      1  C   UNL     1     137.014 132.719 134.600  1.00  0.00    -0.074 C 
ATOM      2  C   UNL     1     138.115 132.919 133.853  1.00  0.00     0.008 C 
ENDROOT
BRANCH   1   3
ATOM      3  C   UNL     1     137.154 132.097 135.976  1.00  0.00     0.031 C 
BRANCH   3   4
ATOM      4  C   UNL     1     138.050 132.889 136.949  1.00  0.00     0.009 C 
BRANCH   4   5
ATOM      5  C   UNL     1     137.603 134.334 137.238  1.00  0.00     0.030 C 
BRANCH   5   6
ATOM      6  C   UNL     1     136.399 134.413 138.164  1.00  0.00    -0.077 C 
ATOM      7  C   UNL     1     136.604 134.086 139.622  1.00  0.00     0.039 C 
ATOM      8  C   UNL     1     135.153 134.758 137.759  1.00  0.00    -0.027 CG0
ATOM      9  G   UNL     1     134.776 135.220 136.360  1.00  0.00     0.000 G0
ENDBRANCH   5   6
ENDBRANCH   4   5
ENDBRANCH   3   4
ENDBRANCH   1   3
BRANCH   1  10
ATOM     10  C   UNL     1     135.612 132.853 134.022  1.00  0.00     0.057 C 
BRANCH  10  11
ATOM     11  C   UNL     1     134.507 132.331 134.912  1.00  0.00    -0.026 C 
ATOM     12  C   UNL     1     133.597 133.056 135.599  1.00  0.00    -0.024 C 
BRANCH  12  13
ATOM     13  C   UNL     1     133.489 134.583 135.703  1.00  0.00    -0.014 C 
ATOM     14  C   UNL     1     133.365 135.128 134.258  1.00  0.00     0.016 C 
ATOM     15  C   UNL     1     132.166 134.945 136.424  1.00  0.00     0.016 C 
BRANCH  13  16
ATOM     16  C   UNL     1     134.791 135.208 136.337  1.00  0.00     0.038 CG0
ATOM     17  G   UNL     1     135.140 134.764 137.749  1.00  0.00     0.000 G0
ENDBRANCH  13  16
ENDBRANCH  12  13
ENDBRANCH  10  11
ENDBRANCH   1  10
TORSDOF 0
ENDMDL
MODEL 5
REMARK VINA RESULT:    -3.129      3.732      5.815
REMARK INTER + INTRA:          -4.247
REMARK INTER:                  -4.727
REMARK INTRA:                   0.480
REMARK UNBOUND:                 0.346
REMARK SMILES C=C1CC=CC(C)(C)CC=C(C)CCC1
REMARK SMILES IDX 2 1 1 2 15 3 14 4 13 5 11 6 12 7 10 8 3 10 4 11 5 12 6 13
REMARK SMILES IDX 7 14 8 15 9 16
REMARK H PARENT
REMARK Flexibility Score: 60.00
ROOT
ATOM      1  C   UNL     1     138.368 132.840 135.579  1.00  0.00    -0.074 C 
ATOM      2  C   UNL     1     137.893 131.894 136.411  1.00  0.00     0.008 C 
ENDROOT
BRANCH   1   3
ATOM      3  C   UNL     1     138.000 132.788 134.109  1.00  0.00     0.031 C 
BRANCH   3   4
ATOM      4  C   UNL     1     136.548 133.202 133.796  1.00  0.00     0.009 C 
BRANCH   4   5
ATOM      5  C   UNL     1     135.971 134.320 134.684  1.00  0.00     0.030 C 
BRANCH   5   6
ATOM      6  C   UNL     1     136.059 135.697 134.045  1.00  0.00    -0.077 C 
ATOM      7  C   UNL     1     135.041 136.057 132.992  1.00  0.00     0.039 C 
ATOM      8  C   UNL     1     137.000 136.620 134.361  1.00  0.00    -0.027 CG0
ATOM      9  G   UNL     1     138.037 136.480 135.464  1.00  0.00     0.000 G0
ENDBRANCH   5   6
ENDBRANCH   4   5
ENDBRANCH   3   4
ENDBRANCH   1   3
BRANCH   1  10
ATOM     10  C   UNL     1     139.463 133.809 136.002  1.00  0.00     0.057 C 
BRANCH  10  11
ATOM     11  C   UNL     1     140.254 134.409 134.862  1.00  0.00    -0.026 C 
ATOM     12  C   UNL     1     140.306 135.708 134.496  1.00  0.00    -0.024 C 
BRANCH  12  13
ATOM     13  C   UNL     1     139.536 136.891 135.098  1.00  0.00    -0.014 C 
ATOM     14  C   UNL     1     140.252 137.273 136.418  1.00  0.00     0.016 C 
ATOM     15  C   UNL     1     139.675 138.113 134.155  1.00  0.00     0.016 C 
BRANCH  13  16
ATOM     16  C   UNL     1     138.056 136.488 135.459  1.00  0.00     0.038 CG0
ATOM     17  G   UNL     1     137.024 136.625 134.351  1.00  0.00     0.000 G0
ENDBRANCH  13  16
ENDBRANCH  12  13
ENDBRANCH  10  11
ENDBRANCH   1  10
TORSDOF 0
ENDMDL
MODEL 6
REMARK VINA RESULT:    -3.124      2.927      5.396
REMARK INTER + INTRA:          -4.240
REMARK INTER:                  -4.660
REMARK INTRA:                   0.420
REMARK UNBOUND:                 0.346
REMARK SMILES C=C1CC=CC(C)(C)CC=C(C)CCC1
REMARK SMILES IDX 2 1 1 2 15 3 14 4 13 5 11 6 12 7 10 8 3 10 4 11 5 12 6 13
REMARK SMILES IDX 7 14 8 15 9 16
REMARK H PARENT
REMARK Flexibility Score: 60.00
ROOT
ATOM      1  C   UNL     1     140.440 135.707 134.042  1.00  0.00    -0.074 C 
ATOM      2  C   UNL     1     140.942 135.664 132.794  1.00  0.00     0.008 C 
ENDROOT
BRANCH   1   3
ATOM      3  C   UNL     1     140.156 134.409 134.772  1.00  0.00     0.031 C 
BRANCH   3   4
ATOM      4  C   UNL     1     138.726 133.865 134.581  1.00  0.00     0.009 C 
BRANCH   4   5
ATOM      5  C   UNL     1     137.901 133.698 135.871  1.00  0.00     0.030 C 
BRANCH   5   6
ATOM      6  C   UNL     1     136.840 134.773 136.045  1.00  0.00    -0.077 C 
ATOM      7  C   UNL     1     135.509 134.573 135.365  1.00  0.00     0.039 C 
ATOM      8  C   UNL     1     137.018 135.902 136.773  1.00  0.00    -0.027 CG0
ATOM      9  G   UNL     1     138.245 136.227 137.610  1.00  0.00     0.000 G0
ENDBRANCH   5   6
ENDBRANCH   4   5
ENDBRANCH   3   4
ENDBRANCH   1   3
BRANCH   1  10
ATOM     10  C   UNL     1     139.906 136.996 134.652  1.00  0.00     0.057 C 
BRANCH  10  11
ATOM     11  C   UNL     1     140.690 137.507 135.839  1.00  0.00    -0.026 C 
ATOM     12  C   UNL     1     140.219 137.783 137.075  1.00  0.00    -0.024 C 
BRANCH  12  13
ATOM     13  C   UNL     1     138.769 137.709 137.571  1.00  0.00    -0.014 C 
ATOM     14  C   UNL     1     138.758 138.252 139.022  1.00  0.00     0.016 C 
ATOM     15  C   UNL     1     137.900 138.679 136.733  1.00  0.00     0.016 C 
BRANCH  13  16
ATOM     16  C   UNL     1     138.255 136.219 137.618  1.00  0.00     0.038 CG0
ATOM     17  G   UNL     1     137.028 135.896 136.780  1.00  0.00     0.000 G0
ENDBRANCH  13  16
ENDBRANCH  12  13
ENDBRANCH  10  11
ENDBRANCH   1  10
TORSDOF 0
ENDMDL
MODEL 7
REMARK VINA RESULT:    -3.064      4.628      6.906
REMARK INTER + INTRA:          -4.152
REMARK INTER:                  -4.364
REMARK INTRA:                   0.212
REMARK UNBOUND:                 0.346
REMARK SMILES C=C1CC=CC(C)(C)CC=C(C)CCC1
REMARK SMILES IDX 2 1 1 2 15 3 14 4 13 5 11 6 12 7 10 8 3 10 4 11 5 12 6 13
REMARK SMILES IDX 7 14 8 15 9 16
REMARK H PARENT
REMARK Flexibility Score: 60.00
ROOT
ATOM      1  C   UNL     1     137.318 134.478 138.329  1.00  0.00    -0.074 C 
ATOM      2  C   UNL     1     138.519 135.077 138.431  1.00  0.00     0.008 C 
ENDROOT
BRANCH   1   3
ATOM      3  C   UNL     1     137.253 132.983 138.089  1.00  0.00     0.031 C 
BRANCH   3   4
ATOM      4  C   UNL     1     137.765 132.531 136.707  1.00  0.00     0.009 C 
BRANCH   4   5
ATOM      5  C   UNL     1     136.692 132.411 135.608  1.00  0.00     0.030 C 
BRANCH   5   6
ATOM      6  C   UNL     1     136.472 133.707 134.844  1.00  0.00    -0.077 C 
ATOM      7  C   UNL     1     137.637 134.288 134.083  1.00  0.00     0.039 C 
ATOM      8  C   UNL     1     135.293 134.374 134.807  1.00  0.00    -0.027 CG0
ATOM      9  G   UNL     1     133.988 133.892 135.422  1.00  0.00     0.000 G0
ENDBRANCH   5   6
ENDBRANCH   4   5
ENDBRANCH   3   4
ENDBRANCH   1   3
BRANCH   1  10
ATOM     10  C   UNL     1     136.029 135.276 138.186  1.00  0.00     0.057 C 
BRANCH  10  11
ATOM     11  C   UNL     1     134.782 134.552 138.641  1.00  0.00    -0.026 C 
ATOM     12  C   UNL     1     133.651 134.344 137.931  1.00  0.00    -0.024 C 
BRANCH  12  13
ATOM     13  C   UNL     1     133.319 134.836 136.516  1.00  0.00    -0.014 C 
ATOM     14  C   UNL     1     131.782 134.744 136.353  1.00  0.00     0.016 C 
ATOM     15  C   UNL     1     133.682 136.339 136.409  1.00  0.00     0.016 C 
BRANCH  13  16
ATOM     16  C   UNL     1     133.971 133.910 135.420  1.00  0.00     0.038 CG0
ATOM     17  G   UNL     1     135.288 134.382 134.825  1.00  0.00     0.000 G0
ENDBRANCH  13  16
ENDBRANCH  12  13
ENDBRANCH  10  11
ENDBRANCH   1  10
TORSDOF 0
ENDMDL
MODEL 8
REMARK VINA RESULT:    -3.023      3.303      5.450
REMARK INTER + INTRA:          -4.091
REMARK INTER:                  -4.407
REMARK INTRA:                   0.316
REMARK UNBOUND:                 0.346
REMARK SMILES C=C1CC=CC(C)(C)CC=C(C)CCC1
REMARK SMILES IDX 2 1 1 2 15 3 14 4 13 5 11 6 12 7 10 8 3 10 4 11 5 12 6 13
REMARK SMILES IDX 7 14 8 15 9 16
REMARK H PARENT
REMARK Flexibility Score: 60.00
ROOT
ATOM      1  C   UNL     1     134.107 139.243 137.123  1.00  0.00    -0.074 C 
ATOM      2  C   UNL     1     135.204 140.022 137.121  1.00  0.00     0.008 C 
ENDROOT
BRANCH   1   3
ATOM      3  C   UNL     1     132.985 139.539 136.147  1.00  0.00     0.031 C 
BRANCH   3   4
ATOM      4  C   UNL     1     133.423 139.608 134.670  1.00  0.00     0.009 C 
BRANCH   4   5
ATOM      5  C   UNL     1     133.848 138.268 134.040  1.00  0.00     0.030 C 
BRANCH   5   6
ATOM      6  C   UNL     1     132.871 137.138 134.323  1.00  0.00    -0.077 C 
ATOM      7  C   UNL     1     131.504 137.207 133.688  1.00  0.00     0.039 C 
ATOM      8  C   UNL     1     133.152 136.073 135.112  1.00  0.00    -0.027 CG0
ATOM      9  G   UNL     1     134.501 135.779 135.748  1.00  0.00     0.000 G0
ENDBRANCH   5   6
ENDBRANCH   4   5
ENDBRANCH   3   4
ENDBRANCH   1   3
BRANCH   1  10
ATOM     10  C   UNL     1     133.833 138.239 138.234  1.00  0.00     0.057 C 
BRANCH  10  11
ATOM     11  C   UNL     1     135.014 137.377 138.615  1.00  0.00    -0.026 C 
ATOM     12  C   UNL     1     135.288 136.126 138.184  1.00  0.00    -0.024 C 
BRANCH  12  13
ATOM     13  C   UNL     1     134.448 135.242 137.254  1.00  0.00    -0.014 C 
ATOM     14  C   UNL     1     135.083 133.829 137.275  1.00  0.00     0.016 C 
ATOM     15  C   UNL     1     133.026 135.092 137.852  1.00  0.00     0.016 C 
BRANCH  13  16
ATOM     16  C   UNL     1     134.498 135.763 135.767  1.00  0.00     0.038 CG0
ATOM     17  G   UNL     1     133.162 136.069 135.108  1.00  0.00     0.000 G0
ENDBRANCH  13  16
ENDBRANCH  12  13
ENDBRANCH  10  11
ENDBRANCH   1  10
TORSDOF 0
ENDMDL
MODEL 9
REMARK VINA RESULT:    -2.970      3.475      5.930
REMARK INTER + INTRA:          -4.014
REMARK INTER:                  -4.397
REMARK INTRA:                   0.383
REMARK UNBOUND:                 0.346
REMARK SMILES C=C1CC=CC(C)(C)CC=C(C)CCC1
REMARK SMILES IDX 2 1 1 2 15 3 14 4 13 5 11 6 12 7 10 8 3 10 4 11 5 12 6 13
REMARK SMILES IDX 7 14 8 15 9 16
REMARK H PARENT
REMARK Flexibility Score: 60.00
ROOT
ATOM      1  C   UNL     1     139.836 138.138 136.095  1.00  0.00    -0.074 C 
ATOM      2  C   UNL     1     139.782 139.252 135.340  1.00  0.00     0.008 C 
ENDROOT
BRANCH   1   3
ATOM      3  C   UNL     1     140.841 137.057 135.750  1.00  0.00     0.031 C 
BRANCH   3   4
ATOM      4  C   UNL     1     140.635 136.406 134.367  1.00  0.00     0.009 C 
BRANCH   4   5
ATOM      5  C   UNL     1     140.354 134.892 134.381  1.00  0.00     0.030 C 
BRANCH   5   6
ATOM      6  C   UNL     1     138.876 134.559 134.509  1.00  0.00    -0.077 C 
ATOM      7  C   UNL     1     138.045 134.529 133.250  1.00  0.00     0.039 C 
ATOM      8  C   UNL     1     138.259 134.290 135.685  1.00  0.00    -0.027 CG0
ATOM      9  G   UNL     1     138.948 134.171 137.035  1.00  0.00     0.000 G0
ENDBRANCH   5   6
ENDBRANCH   4   5
ENDBRANCH   3   4
ENDBRANCH   1   3
BRANCH   1  10
ATOM     10  C   UNL     1     138.760 137.806 137.120  1.00  0.00     0.057 C 
BRANCH  10  11
ATOM     11  C   UNL     1     139.277 137.218 138.412  1.00  0.00    -0.026 C 
ATOM     12  C   UNL     1     139.070 135.969 138.884  1.00  0.00    -0.024 C 
BRANCH  12  13
ATOM     13  C   UNL     1     138.214 134.855 138.266  1.00  0.00    -0.014 C 
ATOM     14  C   UNL     1     138.035 133.765 139.353  1.00  0.00     0.016 C 
ATOM     15  C   UNL     1     136.800 135.414 137.968  1.00  0.00     0.016 C 
BRANCH  13  16
ATOM     16  C   UNL     1     138.944 134.187 137.039  1.00  0.00     0.038 CG0
ATOM     17  G   UNL     1     138.248 134.298 135.691  1.00  0.00     0.000 G0
ENDBRANCH  13  16
ENDBRANCH  12  13
ENDBRANCH  10  11
ENDBRANCH   1  10
TORSDOF 0
ENDMDL
