MODEL 1
REMARK VINA RESULT:    -3.357      0.000      0.000
REMARK INTER + INTRA:          -3.570
REMARK INTER:                  -3.553
REMARK INTRA:                  -0.017
REMARK UNBOUND:                -0.017
REMARK SMILES O=C([O-])c1cccnc1
REMARK SMILES IDX 4 1 5 2 9 3 6 4 8 5 7 6 2 7 1 8 3 9
REMARK H PARENT
REMARK Flexibility Score: inf
ROOT
ATOM      1  C   UNL     1      41.523 182.680 172.509  1.00  0.00     0.016 A 
ATOM      2  C   UNL     1      41.403 183.997 172.984  1.00  0.00     0.013 A 
ATOM      3  C   UNL     1      40.481 182.154 171.726  1.00  0.00     0.120 A 
ATOM      4  C   UNL     1      40.271 184.753 172.674  1.00  0.00     0.021 A 
ATOM      5  N   UNL     1      39.389 182.913 171.440  1.00  0.00    -0.264 NA
ATOM      6  C   UNL     1      39.264 184.188 171.892  1.00  0.00     0.111 A 
ENDROOT
BRANCH   1   7
ATOM      7  C   UNL     1      42.713 181.862 172.826  1.00  0.00     0.073 C 
ATOM      8  O   UNL     1      42.957 181.519 174.013  1.00  0.00    -0.545 OA
ATOM      9  O   UNL     1      43.581 181.460 171.816  1.00  0.00    -0.545 OA
ENDBRANCH   1   7
TORSDOF 1
ENDMDL
MODEL 2
REMARK VINA RESULT:    -3.316      0.881      1.606
REMARK INTER + INTRA:          -3.527
REMARK INTER:                  -3.510
REMARK INTRA:                  -0.018
REMARK UNBOUND:                -0.017
REMARK SMILES O=C([O-])c1cccnc1
REMARK SMILES IDX 4 1 5 2 9 3 6 4 8 5 7 6 2 7 1 8 3 9
REMARK H PARENT
REMARK Flexibility Score: inf
ROOT
ATOM      1  C   UNL     1      41.538 182.655 172.362  1.00  0.00     0.016 A 
ATOM      2  C   UNL     1      40.573 182.122 171.491  1.00  0.00     0.013 A 
ATOM      3  C   UNL     1      41.312 183.928 172.912  1.00  0.00     0.120 A 
ATOM      4  C   UNL     1      39.422 182.853 171.190  1.00  0.00     0.021 A 
ATOM      5  N   UNL     1      40.182 184.618 172.602  1.00  0.00    -0.264 NA
ATOM      6  C   UNL     1      39.241 184.112 171.761  1.00  0.00     0.111 A 
ENDROOT
BRANCH   1   7
ATOM      7  C   UNL     1      42.765 181.898 172.694  1.00  0.00     0.073 C 
ATOM      8  O   UNL     1      43.030 181.599 173.888  1.00  0.00    -0.545 OA
ATOM      9  O   UNL     1      43.644 181.506 171.690  1.00  0.00    -0.545 OA
ENDBRANCH   1   7
TORSDOF 1
ENDMDL
MODEL 3
REMARK VINA RESULT:    -3.276      3.000      3.909
REMARK INTER + INTRA:          -3.485
REMARK INTER:                  -3.469
REMARK INTRA:                  -0.017
REMARK UNBOUND:                -0.017
REMARK SMILES O=C([O-])c1cccnc1
REMARK SMILES IDX 4 1 5 2 9 3 6 4 8 5 7 6 2 7 1 8 3 9
REMARK H PARENT
REMARK Flexibility Score: inf
ROOT
ATOM      1  C   UNL     1      40.162 182.756 171.650  1.00  0.00     0.016 A 
ATOM      2  C   UNL     1      40.801 181.505 171.615  1.00  0.00     0.013 A 
ATOM      3  C   UNL     1      40.637 183.724 172.550  1.00  0.00     0.120 A 
ATOM      4  C   UNL     1      41.881 181.247 172.461  1.00  0.00     0.021 A 
ATOM      5  N   UNL     1      41.692 183.447 173.362  1.00  0.00    -0.264 NA
ATOM      6  C   UNL     1      42.318 182.240 173.337  1.00  0.00     0.111 A 
ENDROOT
BRANCH   1   7
ATOM      7  C   UNL     1      39.015 183.050 170.763  1.00  0.00     0.073 C 
ATOM      8  O   UNL     1      37.848 183.125 171.229  1.00  0.00    -0.545 OA
ATOM      9  O   UNL     1      39.211 183.246 169.400  1.00  0.00    -0.545 OA
ENDBRANCH   1   7
TORSDOF 1
ENDMDL
MODEL 4
REMARK VINA RESULT:    -3.221      4.233      5.081
REMARK INTER + INTRA:          -3.426
REMARK INTER:                  -3.406
REMARK INTRA:                  -0.021
REMARK UNBOUND:                -0.017
REMARK SMILES O=C([O-])c1cccnc1
REMARK SMILES IDX 4 1 5 2 9 3 6 4 8 5 7 6 2 7 1 8 3 9
REMARK H PARENT
REMARK Flexibility Score: inf
ROOT
ATOM      1  C   UNL     1      37.874 183.300 170.880  1.00  0.00     0.016 A 
ATOM      2  C   UNL     1      39.210 183.242 170.448  1.00  0.00     0.013 A 
ATOM      3  C   UNL     1      37.559 182.782 172.148  1.00  0.00     0.120 A 
ATOM      4  C   UNL     1      40.188 182.680 171.269  1.00  0.00     0.021 A 
ATOM      5  N   UNL     1      38.532 182.240 172.928  1.00  0.00    -0.264 NA
ATOM      6  C   UNL     1      39.827 182.179 172.520  1.00  0.00     0.111 A 
ENDROOT
BRANCH   1   7
ATOM      7  C   UNL     1      36.822 183.891 170.025  1.00  0.00     0.073 C 
ATOM      8  O   UNL     1      35.655 183.418 170.027  1.00  0.00    -0.545 OA
ATOM      9  O   UNL     1      37.108 184.978 169.206  1.00  0.00    -0.545 OA
ENDBRANCH   1   7
TORSDOF 1
ENDMDL
MODEL 5
REMARK VINA RESULT:    -3.217      3.048      3.799
REMARK INTER + INTRA:          -3.422
REMARK INTER:                  -3.405
REMARK INTRA:                  -0.017
REMARK UNBOUND:                -0.017
REMARK SMILES O=C([O-])c1cccnc1
REMARK SMILES IDX 4 1 5 2 9 3 6 4 8 5 7 6 2 7 1 8 3 9
REMARK H PARENT
REMARK Flexibility Score: inf
ROOT
ATOM      1  C   UNL     1      39.974 183.080 171.543  1.00  0.00     0.016 A 
ATOM      2  C   UNL     1      40.427 184.130 172.360  1.00  0.00     0.013 A 
ATOM      3  C   UNL     1      40.586 181.822 171.672  1.00  0.00     0.120 A 
ATOM      4  C   UNL     1      41.461 183.912 173.272  1.00  0.00     0.021 A 
ATOM      5  N   UNL     1      41.591 181.637 172.570  1.00  0.00    -0.264 NA
ATOM      6  C   UNL     1      42.037 182.645 173.365  1.00  0.00     0.111 A 
ENDROOT
BRANCH   1   7
ATOM      7  C   UNL     1      38.881 183.290 170.570  1.00  0.00     0.073 C 
ATOM      8  O   UNL     1      39.107 183.237 169.332  1.00  0.00    -0.545 OA
ATOM      9  O   UNL     1      37.587 183.550 171.008  1.00  0.00    -0.545 OA
ENDBRANCH   1   7
TORSDOF 1
ENDMDL
MODEL 6
REMARK VINA RESULT:    -3.139      2.269      2.951
REMARK INTER + INTRA:          -3.340
REMARK INTER:                  -3.324
REMARK INTRA:                  -0.016
REMARK UNBOUND:                -0.017
REMARK SMILES O=C([O-])c1cccnc1
REMARK SMILES IDX 4 1 5 2 9 3 6 4 8 5 7 6 2 7 1 8 3 9
REMARK H PARENT
REMARK Flexibility Score: inf
ROOT
ATOM      1  C   UNL     1      39.303 182.878 171.287  1.00  0.00     0.016 A 
ATOM      2  C   UNL     1      39.154 183.356 169.974  1.00  0.00     0.013 A 
ATOM      3  C   UNL     1      38.178 182.875 172.129  1.00  0.00     0.120 A 
ATOM      4  C   UNL     1      37.912 183.813 169.531  1.00  0.00     0.021 A 
ATOM      5  N   UNL     1      36.978 183.325 171.671  1.00  0.00    -0.264 NA
ATOM      6  C   UNL     1      36.823 183.789 170.403  1.00  0.00     0.111 A 
ENDROOT
BRANCH   1   7
ATOM      7  C   UNL     1      40.611 182.391 171.777  1.00  0.00     0.073 C 
ATOM      8  O   UNL     1      41.413 183.175 172.348  1.00  0.00    -0.545 OA
ATOM      9  O   UNL     1      40.973 181.058 171.611  1.00  0.00    -0.545 OA
ENDBRANCH   1   7
TORSDOF 1
ENDMDL
MODEL 7
REMARK VINA RESULT:    -3.080      4.046      4.926
REMARK INTER + INTRA:          -3.277
REMARK INTER:                  -3.261
REMARK INTRA:                  -0.016
REMARK UNBOUND:                -0.017
REMARK SMILES O=C([O-])c1cccnc1
REMARK SMILES IDX 4 1 5 2 9 3 6 4 8 5 7 6 2 7 1 8 3 9
REMARK H PARENT
REMARK Flexibility Score: inf
ROOT
ATOM      1  C   UNL     1      38.243 184.051 170.930  1.00  0.00     0.016 A 
ATOM      2  C   UNL     1      39.354 183.218 170.711  1.00  0.00     0.013 A 
ATOM      3  C   UNL     1      38.342 185.051 171.912  1.00  0.00     0.120 A 
ATOM      4  C   UNL     1      40.520 183.395 171.458  1.00  0.00     0.021 A 
ATOM      5  N   UNL     1      39.490 185.202 172.625  1.00  0.00    -0.264 NA
ATOM      6  C   UNL     1      40.570 184.402 172.421  1.00  0.00     0.111 A 
ENDROOT
BRANCH   1   7
ATOM      7  C   UNL     1      36.998 183.880 170.150  1.00  0.00     0.073 C 
ATOM      8  O   UNL     1      35.981 183.356 170.675  1.00  0.00    -0.545 OA
ATOM      9  O   UNL     1      36.935 184.296 168.825  1.00  0.00    -0.545 OA
ENDBRANCH   1   7
TORSDOF 1
ENDMDL
MODEL 8
REMARK VINA RESULT:    -3.030     23.077     23.632
REMARK INTER + INTRA:          -3.224
REMARK INTER:                  -3.201
REMARK INTRA:                  -0.024
REMARK UNBOUND:                -0.017
REMARK SMILES O=C([O-])c1cccnc1
REMARK SMILES IDX 4 1 5 2 9 3 6 4 8 5 7 6 2 7 1 8 3 9
REMARK H PARENT
REMARK Flexibility Score: inf
ROOT
ATOM      1  C   UNL     1      32.623 168.588 155.920  1.00  0.00     0.016 A 
ATOM      2  C   UNL     1      33.164 169.159 154.756  1.00  0.00     0.013 A 
ATOM      3  C   UNL     1      31.249 168.748 156.167  1.00  0.00     0.120 A 
ATOM      4  C   UNL     1      32.342 169.864 153.875  1.00  0.00     0.021 A 
ATOM      5  N   UNL     1      30.471 169.440 155.292  1.00  0.00    -0.264 NA
ATOM      6  C   UNL     1      30.984 169.996 154.162  1.00  0.00     0.111 A 
ENDROOT
BRANCH   1   7
ATOM      7  C   UNL     1      33.476 167.837 156.867  1.00  0.00     0.073 C 
ATOM      8  O   UNL     1      34.624 167.449 156.524  1.00  0.00    -0.545 OA
ATOM      9  O   UNL     1      33.021 167.549 158.149  1.00  0.00    -0.545 OA
ENDBRANCH   1   7
TORSDOF 1
ENDMDL
MODEL 9
REMARK VINA RESULT:    -2.999      2.890      3.959
REMARK INTER + INTRA:          -3.192
REMARK INTER:                  -3.173
REMARK INTRA:                  -0.019
REMARK UNBOUND:                -0.017
REMARK SMILES O=C([O-])c1cccnc1
REMARK SMILES IDX 4 1 5 2 9 3 6 4 8 5 7 6 2 7 1 8 3 9
REMARK H PARENT
REMARK Flexibility Score: inf
ROOT
ATOM      1  C   UNL     1      40.820 181.888 172.247  1.00  0.00     0.016 A 
ATOM      2  C   UNL     1      42.135 182.235 171.896  1.00  0.00     0.013 A 
ATOM      3  C   UNL     1      40.621 180.762 173.063  1.00  0.00     0.120 A 
ATOM      4  C   UNL     1      43.208 181.469 172.355  1.00  0.00     0.021 A 
ATOM      5  N   UNL     1      41.684 180.033 173.496  1.00  0.00    -0.264 NA
ATOM      6  C   UNL     1      42.961 180.360 173.163  1.00  0.00     0.111 A 
ENDROOT
BRANCH   1   7
ATOM      7  C   UNL     1      39.669 182.687 171.771  1.00  0.00     0.073 C 
ATOM      8  O   UNL     1      39.559 182.987 170.553  1.00  0.00    -0.545 OA
ATOM      9  O   UNL     1      38.693 183.117 172.663  1.00  0.00    -0.545 OA
ENDBRANCH   1   7
TORSDOF 1
ENDMDL
