MODEL 1
REMARK VINA RESULT:    -3.968      0.000      0.000
REMARK INTER + INTRA:          -5.674
REMARK INTER:                  -6.056
REMARK INTRA:                   0.382
REMARK UNBOUND:                 0.382
REMARK SMILES CC1=CCC[C@@H](C)C(=O)C[C@H](C(C)C)C(=O)C1
REMARK SMILES IDX 8 1 9 2 6 3 7 4 5 5 4 6 3 7 2 8 1 9 10 11 11 12 15 13 16 14
REMARK SMILES IDX 17 15 12 17 13 18 14 19
REMARK H PARENT
REMARK Flexibility Score: 70.00
ROOT
ATOM      1  C   UNL     1     -15.170  11.318 -28.405  1.00  0.00     0.136 C 
ATOM      2  O   UNL     1     -14.287  10.594 -28.841  1.00  0.00    -0.299 OA
ENDROOT
BRANCH   1   3
ATOM      3  C   UNL     1     -16.052  10.788 -27.283  1.00  0.00     0.053 C 
ATOM      4  C   UNL     1     -15.250  10.117 -26.157  1.00  0.00     0.016 C 
BRANCH   3   5
ATOM      5  C   UNL     1     -17.236   9.934 -27.799  1.00  0.00     0.015 C 
BRANCH   5   6
ATOM      6  C   UNL     1     -17.448   9.943 -29.328  1.00  0.00     0.028 C 
BRANCH   6   7
ATOM      7  C   UNL     1     -18.816  10.467 -29.681  1.00  0.00    -0.028 C 
ATOM      8  C   UNL     1     -19.112  11.775 -29.870  1.00  0.00    -0.070 CG0
ATOM      9  C   UNL     1     -20.547  12.143 -30.151  1.00  0.00     0.039 C 
ATOM     10  G   UNL     1     -18.062  12.878 -29.823  1.00  0.00     0.000 G0
ENDBRANCH   6   7
ENDBRANCH   5   6
ENDBRANCH   3   5
ENDBRANCH   1   3
BRANCH   1  11
ATOM     11  C   UNL     1     -15.349  12.689 -29.022  1.00  0.00     0.087 C 
BRANCH  11  12
ATOM     12  C   UNL     1     -15.541  12.678 -30.564  1.00  0.00     0.066 C 
BRANCH  12  13
ATOM     13  C   UNL     1     -17.020  12.754 -30.916  1.00  0.00     0.140 C 
ATOM     14  O   UNL     1     -17.374  12.649 -32.083  1.00  0.00    -0.299 OA
BRANCH  13  15
ATOM     15  C   UNL     1     -18.060  12.889 -29.833  1.00  0.00     0.106 CG0
ATOM     16  G   UNL     1     -19.109  11.786 -29.891  1.00  0.00     0.000 G0
ENDBRANCH  13  15
ENDBRANCH  12  13
BRANCH  12  17
ATOM     17  C   UNL     1     -14.708  13.753 -31.338  1.00  0.00    -0.006 C 
ATOM     18  C   UNL     1     -15.030  15.190 -30.891  1.00  0.00     0.008 C 
ATOM     19  C   UNL     1     -13.198  13.507 -31.161  1.00  0.00     0.008 C 
ENDBRANCH  12  17
ENDBRANCH  11  12
ENDBRANCH   1  11
TORSDOF 1
ENDMDL
MODEL 2
REMARK VINA RESULT:    -3.791      1.941      3.893
REMARK INTER + INTRA:          -5.404
REMARK INTER:                  -6.178
REMARK INTRA:                   0.775
REMARK UNBOUND:                 0.382
REMARK SMILES CC1=CCC[C@@H](C)C(=O)C[C@H](C(C)C)C(=O)C1
REMARK SMILES IDX 8 1 9 2 6 3 7 4 5 5 4 6 3 7 2 8 1 9 10 11 11 12 15 13 16 14
REMARK SMILES IDX 17 15 12 17 13 18 14 19
REMARK H PARENT
REMARK Flexibility Score: 70.00
ROOT
ATOM      1  C   UNL     1     -17.244  12.763 -30.767  1.00  0.00     0.136 C 
ATOM      2  O   UNL     1     -17.272  13.286 -31.871  1.00  0.00    -0.299 OA
ENDROOT
BRANCH   1   3
ATOM      3  C   UNL     1     -18.239  11.650 -30.467  1.00  0.00     0.053 C 
ATOM      4  C   UNL     1     -19.699  12.088 -30.651  1.00  0.00     0.016 C 
BRANCH   3   5
ATOM      5  C   UNL     1     -17.964  10.944 -29.117  1.00  0.00     0.015 C 
BRANCH   5   6
ATOM      6  C   UNL     1     -16.847   9.880 -29.135  1.00  0.00     0.028 C 
BRANCH   6   7
ATOM      7  C   UNL     1     -15.845  10.128 -28.036  1.00  0.00    -0.028 C 
ATOM      8  C   UNL     1     -14.531  10.386 -28.238  1.00  0.00    -0.070 CG0
ATOM      9  C   UNL     1     -13.647  10.544 -27.027  1.00  0.00     0.039 C 
ATOM     10  G   UNL     1     -13.920  10.535 -29.625  1.00  0.00     0.000 G0
ENDBRANCH   6   7
ENDBRANCH   5   6
ENDBRANCH   3   5
ENDBRANCH   1   3
BRANCH   1  11
ATOM     11  C   UNL     1     -16.237  13.270 -29.755  1.00  0.00     0.087 C 
BRANCH  11  12
ATOM     12  C   UNL     1     -14.756  12.982 -30.125  1.00  0.00     0.066 C 
BRANCH  12  13
ATOM     13  C   UNL     1     -14.583  11.526 -30.530  1.00  0.00     0.140 C 
ATOM     14  O   UNL     1     -14.965  11.151 -31.631  1.00  0.00    -0.299 OA
BRANCH  13  15
ATOM     15  C   UNL     1     -13.882  10.553 -29.616  1.00  0.00     0.106 CG0
ATOM     16  G   UNL     1     -14.573  10.420 -28.265  1.00  0.00     0.000 G0
ENDBRANCH  13  15
ENDBRANCH  12  13
BRANCH  12  17
ATOM     17  C   UNL     1     -14.145  13.953 -31.190  1.00  0.00    -0.006 C 
ATOM     18  C   UNL     1     -14.472  15.430 -30.906  1.00  0.00     0.008 C 
ATOM     19  C   UNL     1     -12.615  13.790 -31.264  1.00  0.00     0.008 C 
ENDBRANCH  12  17
ENDBRANCH  11  12
ENDBRANCH   1  11
TORSDOF 1
ENDMDL
MODEL 3
REMARK VINA RESULT:    -3.537      1.950      4.843
REMARK INTER + INTRA:          -5.015
REMARK INTER:                  -6.012
REMARK INTRA:                   0.997
REMARK UNBOUND:                 0.382
REMARK SMILES CC1=CCC[C@@H](C)C(=O)C[C@H](C(C)C)C(=O)C1
REMARK SMILES IDX 8 1 9 2 6 3 7 4 5 5 4 6 3 7 2 8 1 9 10 11 11 12 15 13 16 14
REMARK SMILES IDX 17 15 12 17 13 18 14 19
REMARK H PARENT
REMARK Flexibility Score: 70.00
ROOT
ATOM      1  C   UNL     1     -16.205  13.557 -31.079  1.00  0.00     0.136 C 
ATOM      2  O   UNL     1     -16.057  14.379 -30.187  1.00  0.00    -0.299 OA
ENDROOT
BRANCH   1   3
ATOM      3  C   UNL     1     -14.981  13.125 -31.875  1.00  0.00     0.053 C 
ATOM      4  C   UNL     1     -15.330  12.206 -33.056  1.00  0.00     0.016 C 
BRANCH   3   5
ATOM      5  C   UNL     1     -13.840  12.584 -30.980  1.00  0.00     0.015 C 
BRANCH   5   6
ATOM      6  C   UNL     1     -13.977  11.111 -30.539  1.00  0.00     0.028 C 
BRANCH   6   7
ATOM      7  C   UNL     1     -13.987  10.995 -29.036  1.00  0.00    -0.028 C 
ATOM      8  C   UNL     1     -15.087  10.722 -28.295  1.00  0.00    -0.070 CG0
ATOM      9  C   UNL     1     -14.943  10.708 -26.794  1.00  0.00     0.039 C 
ATOM     10  G   UNL     1     -16.447  10.415 -28.910  1.00  0.00     0.000 G0
ENDBRANCH   6   7
ENDBRANCH   5   6
ENDBRANCH   3   5
ENDBRANCH   1   3
BRANCH   1  11
ATOM     11  C   UNL     1     -17.599  13.034 -31.353  1.00  0.00     0.087 C 
BRANCH  11  12
ATOM     12  C   UNL     1     -17.932  11.692 -30.644  1.00  0.00     0.066 C 
BRANCH  12  13
ATOM     13  C   UNL     1     -17.232  11.617 -29.295  1.00  0.00     0.140 C 
ATOM     14  O   UNL     1     -17.345  12.540 -28.499  1.00  0.00    -0.299 OA
BRANCH  13  15
ATOM     15  C   UNL     1     -16.458  10.385 -28.899  1.00  0.00     0.106 CG0
ATOM     16  G   UNL     1     -15.103  10.719 -28.289  1.00  0.00     0.000 G0
ENDBRANCH  13  15
ENDBRANCH  12  13
BRANCH  12  17
ATOM     17  C   UNL     1     -19.460  11.376 -30.520  1.00  0.00    -0.006 C 
ATOM     18  C   UNL     1     -19.769  10.366 -29.400  1.00  0.00     0.008 C 
ATOM     19  C   UNL     1     -20.265  12.663 -30.261  1.00  0.00     0.008 C 
ENDBRANCH  12  17
ENDBRANCH  11  12
ENDBRANCH   1  11
TORSDOF 1
ENDMDL
MODEL 4
REMARK VINA RESULT:    -3.233      1.618      3.826
REMARK INTER + INTRA:          -4.551
REMARK INTER:                  -4.648
REMARK INTRA:                   0.097
REMARK UNBOUND:                 0.382
REMARK SMILES CC1=CCC[C@@H](C)C(=O)C[C@H](C(C)C)C(=O)C1
REMARK SMILES IDX 8 1 9 2 6 3 7 4 5 5 4 6 3 7 2 8 1 9 10 11 11 12 15 13 16 14
REMARK SMILES IDX 17 15 12 17 13 18 14 19
REMARK H PARENT
REMARK Flexibility Score: 70.00
ROOT
ATOM      1  C   UNL     1     -14.974  12.636 -31.965  1.00  0.00     0.136 C 
ATOM      2  O   UNL     1     -15.632  12.564 -32.993  1.00  0.00    -0.299 OA
ENDROOT
BRANCH   1   3
ATOM      3  C   UNL     1     -14.660  14.016 -31.403  1.00  0.00     0.053 C 
ATOM      4  C   UNL     1     -13.412  14.027 -30.507  1.00  0.00     0.016 C 
BRANCH   3   5
ATOM      5  C   UNL     1     -15.893  14.700 -30.764  1.00  0.00     0.015 C 
BRANCH   5   6
ATOM      6  C   UNL     1     -16.461  14.012 -29.505  1.00  0.00     0.028 C 
BRANCH   6   7
ATOM      7  C   UNL     1     -17.888  13.576 -29.725  1.00  0.00    -0.028 C 
ATOM      8  C   UNL     1     -18.350  12.322 -29.508  1.00  0.00    -0.070 CG0
ATOM      9  C   UNL     1     -19.791  12.031 -29.843  1.00  0.00     0.039 C 
ATOM     10  G   UNL     1     -17.486  11.208 -28.931  1.00  0.00     0.000 G0
ENDBRANCH   6   7
ENDBRANCH   5   6
ENDBRANCH   3   5
ENDBRANCH   1   3
BRANCH   1  11
ATOM     11  C   UNL     1     -14.491  11.351 -31.326  1.00  0.00     0.087 C 
BRANCH  11  12
ATOM     12  C   UNL     1     -15.048  11.096 -29.899  1.00  0.00     0.066 C 
BRANCH  12  13
ATOM     13  C   UNL     1     -16.510  10.682 -29.965  1.00  0.00     0.140 C 
ATOM     14  O   UNL     1     -16.877   9.877 -30.812  1.00  0.00    -0.299 OA
BRANCH  13  15
ATOM     15  C   UNL     1     -17.502  11.200 -28.954  1.00  0.00     0.106 CG0
ATOM     16  G   UNL     1     -18.368  12.324 -29.509  1.00  0.00     0.000 G0
ENDBRANCH  13  15
ENDBRANCH  12  13
BRANCH  12  17
ATOM     17  C   UNL     1     -14.206  10.100 -29.033  1.00  0.00    -0.006 C 
ATOM     18  C   UNL     1     -12.790   9.875 -29.593  1.00  0.00     0.008 C 
ATOM     19  C   UNL     1     -14.090  10.602 -27.581  1.00  0.00     0.008 C 
ENDBRANCH  12  17
ENDBRANCH  11  12
ENDBRANCH   1  11
TORSDOF 1
ENDMDL
MODEL 5
REMARK VINA RESULT:    -3.075      8.314     11.141
REMARK INTER + INTRA:          -4.311
REMARK INTER:                  -5.187
REMARK INTRA:                   0.876
REMARK UNBOUND:                 0.382
REMARK SMILES CC1=CCC[C@@H](C)C(=O)C[C@H](C(C)C)C(=O)C1
REMARK SMILES IDX 8 1 9 2 6 3 7 4 5 5 4 6 3 7 2 8 1 9 10 11 11 12 15 13 16 14
REMARK SMILES IDX 17 15 12 17 13 18 14 19
REMARK H PARENT
REMARK Flexibility Score: 70.00
ROOT
ATOM      1  C   UNL     1     -27.060  14.171 -30.610  1.00  0.00     0.136 C 
ATOM      2  O   UNL     1     -27.721  14.360 -31.620  1.00  0.00    -0.299 OA
ENDROOT
BRANCH   1   3
ATOM      3  C   UNL     1     -25.803  15.005 -30.401  1.00  0.00     0.053 C 
ATOM      4  C   UNL     1     -25.941  16.438 -30.935  1.00  0.00     0.016 C 
BRANCH   3   5
ATOM      5  C   UNL     1     -24.518  14.284 -30.873  1.00  0.00     0.015 C 
BRANCH   5   6
ATOM      6  C   UNL     1     -24.665  12.774 -31.160  1.00  0.00     0.028 C 
BRANCH   6   7
ATOM      7  C   UNL     1     -24.138  11.952 -30.012  1.00  0.00    -0.028 C 
ATOM      8  C   UNL     1     -24.693  10.795 -29.577  1.00  0.00    -0.070 CG0
ATOM      9  C   UNL     1     -24.084  10.128 -28.369  1.00  0.00     0.039 C 
ATOM     10  G   UNL     1     -25.887  10.140 -30.260  1.00  0.00     0.000 G0
ENDBRANCH   6   7
ENDBRANCH   5   6
ENDBRANCH   3   5
ENDBRANCH   1   3
BRANCH   1  11
ATOM     11  C   UNL     1     -27.518  13.104 -29.637  1.00  0.00     0.087 C 
BRANCH  11  12
ATOM     12  C   UNL     1     -27.955  11.772 -30.307  1.00  0.00     0.066 C 
BRANCH  12  13
ATOM     13  C   UNL     1     -27.213  10.597 -29.686  1.00  0.00     0.140 C 
ATOM     14  O   UNL     1     -27.713   9.988 -28.750  1.00  0.00    -0.299 OA
BRANCH  13  15
ATOM     15  C   UNL     1     -25.898  10.132 -30.257  1.00  0.00     0.106 CG0
ATOM     16  G   UNL     1     -24.702  10.796 -29.587  1.00  0.00     0.000 G0
ENDBRANCH  13  15
ENDBRANCH  12  13
BRANCH  12  17
ATOM     17  C   UNL     1     -29.501  11.527 -30.335  1.00  0.00    -0.006 C 
ATOM     18  C   UNL     1     -29.869  10.105 -30.795  1.00  0.00     0.008 C 
ATOM     19  C   UNL     1     -30.119  11.773 -28.947  1.00  0.00     0.008 C 
ENDBRANCH  12  17
ENDBRANCH  11  12
ENDBRANCH   1  11
TORSDOF 1
ENDMDL
MODEL 6
REMARK VINA RESULT:    -2.643      8.386     10.944
REMARK INTER + INTRA:          -3.651
REMARK INTER:                  -4.105
REMARK INTRA:                   0.454
REMARK UNBOUND:                 0.382
REMARK SMILES CC1=CCC[C@@H](C)C(=O)C[C@H](C(C)C)C(=O)C1
REMARK SMILES IDX 8 1 9 2 6 3 7 4 5 5 4 6 3 7 2 8 1 9 10 11 11 12 15 13 16 14
REMARK SMILES IDX 17 15 12 17 13 18 14 19
REMARK H PARENT
REMARK Flexibility Score: 70.00
ROOT
ATOM      1  C   UNL     1     -25.420  13.429 -30.392  1.00  0.00     0.136 C 
ATOM      2  O   UNL     1     -24.493  13.704 -29.644  1.00  0.00    -0.299 OA
ENDROOT
BRANCH   1   3
ATOM      3  C   UNL     1     -26.020  14.542 -31.239  1.00  0.00     0.053 C 
ATOM      4  C   UNL     1     -26.008  15.906 -30.532  1.00  0.00     0.016 C 
BRANCH   3   5
ATOM      5  C   UNL     1     -27.395  14.165 -31.843  1.00  0.00     0.015 C 
BRANCH   5   6
ATOM      6  C   UNL     1     -28.569  14.102 -30.842  1.00  0.00     0.028 C 
BRANCH   6   7
ATOM      7  C   UNL     1     -29.272  12.771 -30.917  1.00  0.00    -0.028 C 
ATOM      8  C   UNL     1     -29.175  11.798 -29.981  1.00  0.00    -0.070 CG0
ATOM      9  C   UNL     1     -29.889  10.494 -30.239  1.00  0.00     0.039 C 
ATOM     10  G   UNL     1     -28.395  11.969 -28.684  1.00  0.00     0.000 G0
ENDBRANCH   6   7
ENDBRANCH   5   6
ENDBRANCH   3   5
ENDBRANCH   1   3
BRANCH   1  11
ATOM     11  C   UNL     1     -25.931  12.004 -30.413  1.00  0.00     0.087 C 
BRANCH  11  12
ATOM     12  C   UNL     1     -25.871  11.281 -29.039  1.00  0.00     0.066 C 
BRANCH  12  13
ATOM     13  C   UNL     1     -27.274  10.952 -28.551  1.00  0.00     0.140 C 
ATOM     14  O   UNL     1     -27.488   9.887 -27.986  1.00  0.00    -0.299 OA
BRANCH  13  15
ATOM     15  C   UNL     1     -28.392  11.954 -28.694  1.00  0.00     0.106 CG0
ATOM     16  G   UNL     1     -29.166  11.783 -29.994  1.00  0.00     0.000 G0
ENDBRANCH  13  15
ENDBRANCH  12  13
BRANCH  12  17
ATOM     17  C   UNL     1     -24.937  10.025 -28.997  1.00  0.00    -0.006 C 
ATOM     18  C   UNL     1     -23.830  10.071 -30.066  1.00  0.00     0.008 C 
ATOM     19  C   UNL     1     -24.281   9.878 -27.612  1.00  0.00     0.008 C 
ENDBRANCH  12  17
ENDBRANCH  11  12
ENDBRANCH   1  11
TORSDOF 1
ENDMDL
MODEL 7
REMARK VINA RESULT:    -2.622      2.030      3.045
REMARK INTER + INTRA:          -3.620
REMARK INTER:                  -5.164
REMARK INTRA:                   1.544
REMARK UNBOUND:                 0.382
REMARK SMILES CC1=CCC[C@@H](C)C(=O)C[C@H](C(C)C)C(=O)C1
REMARK SMILES IDX 8 1 9 2 6 3 7 4 5 5 4 6 3 7 2 8 1 9 10 11 11 12 15 13 16 14
REMARK SMILES IDX 17 15 12 17 13 18 14 19
REMARK H PARENT
REMARK Flexibility Score: 70.00
ROOT
ATOM      1  C   UNL     1     -15.442  12.115 -28.381  1.00  0.00     0.136 C 
ATOM      2  O   UNL     1     -14.570  11.653 -27.661  1.00  0.00    -0.299 OA
ENDROOT
BRANCH   1   3
ATOM      3  C   UNL     1     -16.849  11.543 -28.271  1.00  0.00     0.053 C 
ATOM      4  C   UNL     1     -16.882  10.011 -28.364  1.00  0.00     0.016 C 
BRANCH   3   5
ATOM      5  C   UNL     1     -17.860  12.247 -29.208  1.00  0.00     0.015 C 
BRANCH   5   6
ATOM      6  C   UNL     1     -18.129  11.538 -30.553  1.00  0.00     0.028 C 
BRANCH   6   7
ATOM      7  C   UNL     1     -17.491  12.286 -31.696  1.00  0.00    -0.028 C 
ATOM      8  C   UNL     1     -16.188  12.181 -32.050  1.00  0.00    -0.070 CG0
ATOM      9  C   UNL     1     -15.689  13.051 -33.176  1.00  0.00     0.039 C 
ATOM     10  G   UNL     1     -15.220  11.219 -31.374  1.00  0.00     0.000 G0
ENDBRANCH   6   7
ENDBRANCH   5   6
ENDBRANCH   3   5
ENDBRANCH   1   3
BRANCH   1  11
ATOM     11  C   UNL     1     -15.067  13.211 -29.356  1.00  0.00     0.087 C 
BRANCH  11  12
ATOM     12  C   UNL     1     -13.720  12.978 -30.094  1.00  0.00     0.066 C 
BRANCH  12  13
ATOM     13  C   UNL     1     -13.856  11.848 -31.104  1.00  0.00     0.140 C 
ATOM     14  O   UNL     1     -12.859  11.405 -31.659  1.00  0.00    -0.299 OA
BRANCH  13  15
ATOM     15  C   UNL     1     -15.199  11.220 -31.378  1.00  0.00     0.106 CG0
ATOM     16  G   UNL     1     -16.165  12.182 -32.058  1.00  0.00     0.000 G0
ENDBRANCH  13  15
ENDBRANCH  12  13
BRANCH  12  17
ATOM     17  C   UNL     1     -13.096  14.259 -30.743  1.00  0.00    -0.006 C 
ATOM     18  C   UNL     1     -12.340  13.957 -32.049  1.00  0.00     0.008 C 
ATOM     19  C   UNL     1     -14.185  15.310 -31.034  1.00  0.00     0.008 C 
ENDBRANCH  12  17
ENDBRANCH  11  12
ENDBRANCH   1  11
TORSDOF 1
ENDMDL
MODEL 8
REMARK VINA RESULT:    -2.353      7.742     10.173
REMARK INTER + INTRA:          -3.209
REMARK INTER:                  -5.339
REMARK INTRA:                   2.130
REMARK UNBOUND:                 0.382
REMARK SMILES CC1=CCC[C@@H](C)C(=O)C[C@H](C(C)C)C(=O)C1
REMARK SMILES IDX 8 1 9 2 6 3 7 4 5 5 4 6 3 7 2 8 1 9 10 11 11 12 15 13 16 14
REMARK SMILES IDX 17 15 12 17 13 18 14 19
REMARK H PARENT
REMARK Flexibility Score: 70.00
ROOT
ATOM      1  C   UNL     1     -27.653  13.207 -30.405  1.00  0.00     0.136 C 
ATOM      2  O   UNL     1     -27.691  13.986 -31.345  1.00  0.00    -0.299 OA
ENDROOT
BRANCH   1   3
ATOM      3  C   UNL     1     -28.685  12.089 -30.348  1.00  0.00     0.053 C 
ATOM      4  C   UNL     1     -30.071  12.529 -30.842  1.00  0.00     0.016 C 
BRANCH   3   5
ATOM      5  C   UNL     1     -28.711  11.362 -28.982  1.00  0.00     0.015 C 
BRANCH   5   6
ATOM      6  C   UNL     1     -28.111   9.940 -28.970  1.00  0.00     0.028 C 
BRANCH   6   7
ATOM      7  C   UNL     1     -26.806   9.910 -28.218  1.00  0.00    -0.028 C 
ATOM      8  C   UNL     1     -25.617  10.315 -28.726  1.00  0.00    -0.070 CG0
ATOM      9  C   UNL     1     -24.389  10.156 -27.866  1.00  0.00     0.039 C 
ATOM     10  G   UNL     1     -25.475  10.932 -30.112  1.00  0.00     0.000 G0
ENDBRANCH   6   7
ENDBRANCH   5   6
ENDBRANCH   3   5
ENDBRANCH   1   3
BRANCH   1  11
ATOM     11  C   UNL     1     -26.596  13.413 -29.340  1.00  0.00     0.087 C 
BRANCH  11  12
ATOM     12  C   UNL     1     -25.146  13.523 -29.889  1.00  0.00     0.066 C 
BRANCH  12  13
ATOM     13  C   UNL     1     -24.565  12.138 -30.134  1.00  0.00     0.140 C 
ATOM     14  O   UNL     1     -23.359  12.005 -30.294  1.00  0.00    -0.299 OA
BRANCH  13  15
ATOM     15  C   UNL     1     -25.451  10.919 -30.112  1.00  0.00     0.106 CG0
ATOM     16  G   UNL     1     -25.611  10.340 -28.712  1.00  0.00     0.000 G0
ENDBRANCH  13  15
ENDBRANCH  12  13
BRANCH  12  17
ATOM     17  C   UNL     1     -24.987  14.445 -31.144  1.00  0.00    -0.006 C 
ATOM     18  C   UNL     1     -25.354  15.912 -30.854  1.00  0.00     0.008 C 
ATOM     19  C   UNL     1     -23.545  14.393 -31.681  1.00  0.00     0.008 C 
ENDBRANCH  12  17
ENDBRANCH  11  12
ENDBRANCH   1  11
TORSDOF 1
ENDMDL
MODEL 9
REMARK VINA RESULT:    -2.236      7.318     10.075
REMARK INTER + INTRA:          -3.030
REMARK INTER:                  -4.529
REMARK INTRA:                   1.500
REMARK UNBOUND:                 0.382
REMARK SMILES CC1=CCC[C@@H](C)C(=O)C[C@H](C(C)C)C(=O)C1
REMARK SMILES IDX 8 1 9 2 6 3 7 4 5 5 4 6 3 7 2 8 1 9 10 11 11 12 15 13 16 14
REMARK SMILES IDX 17 15 12 17 13 18 14 19
REMARK H PARENT
REMARK Flexibility Score: 70.00
ROOT
ATOM      1  C   UNL     1     -25.889  11.084 -29.660  1.00  0.00     0.136 C 
ATOM      2  O   UNL     1     -25.634  10.270 -30.535  1.00  0.00    -0.299 OA
ENDROOT
BRANCH   1   3
ATOM      3  C   UNL     1     -27.170  10.906 -28.856  1.00  0.00     0.053 C 
ATOM      4  C   UNL     1     -27.026   9.879 -27.722  1.00  0.00     0.016 C 
BRANCH   3   5
ATOM      5  C   UNL     1     -28.415  10.680 -29.748  1.00  0.00     0.015 C 
BRANCH   5   6
ATOM      6  C   UNL     1     -29.504  11.770 -29.662  1.00  0.00     0.028 C 
BRANCH   6   7
ATOM      7  C   UNL     1     -29.381  12.749 -30.802  1.00  0.00    -0.028 C 
ATOM      8  C   UNL     1     -28.441  13.720 -30.882  1.00  0.00    -0.070 CG0
ATOM      9  C   UNL     1     -28.496  14.664 -32.057  1.00  0.00     0.039 C 
ATOM     10  G   UNL     1     -27.333  13.888 -29.850  1.00  0.00     0.000 G0
ENDBRANCH   6   7
ENDBRANCH   5   6
ENDBRANCH   3   5
ENDBRANCH   1   3
BRANCH   1  11
ATOM     11  C   UNL     1     -24.929  12.235 -29.444  1.00  0.00     0.087 C 
BRANCH  11  12
ATOM     12  C   UNL     1     -24.893  13.267 -30.605  1.00  0.00     0.066 C 
BRANCH  12  13
ATOM     13  C   UNL     1     -26.005  14.292 -30.439  1.00  0.00     0.140 C 
ATOM     14  O   UNL     1     -25.844  15.436 -30.845  1.00  0.00    -0.299 OA
BRANCH  13  15
ATOM     15  C   UNL     1     -27.332  13.896 -29.842  1.00  0.00     0.106 CG0
ATOM     16  G   UNL     1     -28.418  13.723 -30.896  1.00  0.00     0.000 G0
ENDBRANCH  13  15
ENDBRANCH  12  13
BRANCH  12  17
ATOM     17  C   UNL     1     -23.505  13.954 -30.832  1.00  0.00    -0.006 C 
ATOM     18  C   UNL     1     -22.322  13.003 -30.579  1.00  0.00     0.008 C 
ATOM     19  C   UNL     1     -23.397  14.508 -32.265  1.00  0.00     0.008 C 
ENDBRANCH  12  17
ENDBRANCH  11  12
ENDBRANCH   1  11
TORSDOF 1
ENDMDL
