MODEL 1
REMARK VINA RESULT:    -5.031      0.000      0.000
REMARK INTER + INTRA:          -5.811
REMARK INTER:                  -5.619
REMARK INTRA:                  -0.191
REMARK UNBOUND:                -0.191
REMARK SMILES O=C([O-])c1ccccc1C(=O)[O-]
REMARK SMILES IDX 4 1 9 2 5 3 8 4 6 5 7 6 2 7 1 8 3 9 10 10 11 11 12 12
REMARK H PARENT
REMARK Flexibility Score: inf
ROOT
ATOM      1  C   UNL     1      20.169  36.548   5.950  1.00  0.00     0.006 A 
ATOM      2  C   UNL     1      19.715  36.126   7.229  1.00  0.00     0.006 A 
ATOM      3  C   UNL     1      19.223  36.837   4.949  1.00  0.00     0.010 A 
ATOM      4  C   UNL     1      18.331  36.068   7.480  1.00  0.00     0.010 A 
ATOM      5  C   UNL     1      17.855  36.753   5.213  1.00  0.00     0.001 A 
ATOM      6  C   UNL     1      17.411  36.380   6.480  1.00  0.00     0.001 A 
ENDROOT
BRANCH   1   7
ATOM      7  C   UNL     1      21.601  36.771   5.645  1.00  0.00     0.072 C 
ATOM      8  O   UNL     1      22.316  35.822   5.228  1.00  0.00    -0.545 OA
ATOM      9  O   UNL     1      22.159  38.040   5.751  1.00  0.00    -0.545 OA
ENDBRANCH   1   7
BRANCH   2  10
ATOM     10  C   UNL     1      20.638  35.667   8.293  1.00  0.00     0.072 C 
ATOM     11  O   UNL     1      20.820  36.372   9.322  1.00  0.00    -0.545 OA
ATOM     12  O   UNL     1      21.265  34.430   8.204  1.00  0.00    -0.545 OA
ENDBRANCH   2  10
TORSDOF 2
ENDMDL
MODEL 2
REMARK VINA RESULT:    -5.031      1.993      2.765
REMARK INTER + INTRA:          -5.811
REMARK INTER:                  -5.598
REMARK INTRA:                  -0.213
REMARK UNBOUND:                -0.191
REMARK SMILES O=C([O-])c1ccccc1C(=O)[O-]
REMARK SMILES IDX 4 1 9 2 5 3 8 4 6 5 7 6 2 7 1 8 3 9 10 10 11 11 12 12
REMARK H PARENT
REMARK Flexibility Score: inf
ROOT
ATOM      1  C   UNL     1      21.026  35.921   5.738  1.00  0.00     0.006 A 
ATOM      2  C   UNL     1      20.371  35.311   6.842  1.00  0.00     0.006 A 
ATOM      3  C   UNL     1      21.652  35.105   4.777  1.00  0.00     0.010 A 
ATOM      4  C   UNL     1      20.310  33.907   6.913  1.00  0.00     0.010 A 
ATOM      5  C   UNL     1      21.599  33.714   4.878  1.00  0.00     0.001 A 
ATOM      6  C   UNL     1      20.919  33.116   5.937  1.00  0.00     0.001 A 
ENDROOT
BRANCH   1   7
ATOM      7  C   UNL     1      21.016  37.385   5.512  1.00  0.00     0.072 C 
ATOM      8  O   UNL     1      22.058  38.065   5.710  1.00  0.00    -0.545 OA
ATOM      9  O   UNL     1      19.882  38.018   5.018  1.00  0.00    -0.545 OA
ENDBRANCH   1   7
BRANCH   2  10
ATOM     10  C   UNL     1      19.810  36.093   7.969  1.00  0.00     0.072 C 
ATOM     11  O   UNL     1      20.566  36.519   8.883  1.00  0.00    -0.545 OA
ATOM     12  O   UNL     1      18.460  36.420   8.003  1.00  0.00    -0.545 OA
ENDBRANCH   2  10
TORSDOF 2
ENDMDL
MODEL 3
REMARK VINA RESULT:    -5.022      1.981      3.998
REMARK INTER + INTRA:          -5.800
REMARK INTER:                  -5.590
REMARK INTRA:                  -0.210
REMARK UNBOUND:                -0.191
REMARK SMILES O=C([O-])c1ccccc1C(=O)[O-]
REMARK SMILES IDX 4 1 9 2 5 3 8 4 6 5 7 6 2 7 1 8 3 9 10 10 11 11 12 12
REMARK H PARENT
REMARK Flexibility Score: inf
ROOT
ATOM      1  C   UNL     1      20.432  35.319   6.841  1.00  0.00     0.006 A 
ATOM      2  C   UNL     1      21.096  35.916   5.735  1.00  0.00     0.006 A 
ATOM      3  C   UNL     1      20.378  33.916   6.930  1.00  0.00     0.010 A 
ATOM      4  C   UNL     1      21.737  35.089   4.792  1.00  0.00     0.010 A 
ATOM      5  C   UNL     1      21.001  33.114   5.973  1.00  0.00     0.001 A 
ATOM      6  C   UNL     1      21.689  33.700   4.912  1.00  0.00     0.001 A 
ENDROOT
BRANCH   1   7
ATOM      7  C   UNL     1      19.856  36.114   7.949  1.00  0.00     0.072 C 
ATOM      8  O   UNL     1      20.597  36.550   8.870  1.00  0.00    -0.545 OA
ATOM      9  O   UNL     1      18.506  36.445   7.957  1.00  0.00    -0.545 OA
ENDBRANCH   1   7
BRANCH   2  10
ATOM     10  C   UNL     1      21.081  37.376   5.487  1.00  0.00     0.072 C 
ATOM     11  O   UNL     1      22.125  38.060   5.659  1.00  0.00    -0.545 OA
ATOM     12  O   UNL     1      19.938  38.002   5.003  1.00  0.00    -0.545 OA
ENDBRANCH   2  10
TORSDOF 2
ENDMDL
MODEL 4
REMARK VINA RESULT:    -5.013      2.323      3.598
REMARK INTER + INTRA:          -5.791
REMARK INTER:                  -5.655
REMARK INTRA:                  -0.136
REMARK UNBOUND:                -0.191
REMARK SMILES O=C([O-])c1ccccc1C(=O)[O-]
REMARK SMILES IDX 4 1 9 2 5 3 8 4 6 5 7 6 2 7 1 8 3 9 10 10 11 11 12 12
REMARK H PARENT
REMARK Flexibility Score: inf
ROOT
ATOM      1  C   UNL     1      19.754  36.536   5.813  1.00  0.00     0.006 A 
ATOM      2  C   UNL     1      20.597  35.392   5.841  1.00  0.00     0.006 A 
ATOM      3  C   UNL     1      20.303  37.780   5.449  1.00  0.00     0.010 A 
ATOM      4  C   UNL     1      21.941  35.520   5.444  1.00  0.00     0.010 A 
ATOM      5  C   UNL     1      21.644  37.890   5.079  1.00  0.00     0.001 A 
ATOM      6  C   UNL     1      22.458  36.759   5.065  1.00  0.00     0.001 A 
ENDROOT
BRANCH   1   7
ATOM      7  C   UNL     1      18.300  36.464   6.078  1.00  0.00     0.072 C 
ATOM      8  O   UNL     1      17.475  36.590   5.134  1.00  0.00    -0.545 OA
ATOM      9  O   UNL     1      17.825  36.191   7.356  1.00  0.00    -0.545 OA
ENDBRANCH   1   7
BRANCH   2  10
ATOM     10  C   UNL     1      20.140  34.076   6.345  1.00  0.00     0.072 C 
ATOM     11  O   UNL     1      20.342  33.752   7.546  1.00  0.00    -0.545 OA
ATOM     12  O   UNL     1      19.428  33.209   5.524  1.00  0.00    -0.545 OA
ENDBRANCH   2  10
TORSDOF 2
ENDMDL
MODEL 5
REMARK VINA RESULT:    -4.988      2.341      3.782
REMARK INTER + INTRA:          -5.763
REMARK INTER:                  -5.667
REMARK INTRA:                  -0.096
REMARK UNBOUND:                -0.191
REMARK SMILES O=C([O-])c1ccccc1C(=O)[O-]
REMARK SMILES IDX 4 1 9 2 5 3 8 4 6 5 7 6 2 7 1 8 3 9 10 10 11 11 12 12
REMARK H PARENT
REMARK Flexibility Score: inf
ROOT
ATOM      1  C   UNL     1      20.595  35.376   5.836  1.00  0.00     0.006 A 
ATOM      2  C   UNL     1      19.738  36.510   5.840  1.00  0.00     0.006 A 
ATOM      3  C   UNL     1      21.940  35.537   5.455  1.00  0.00     0.010 A 
ATOM      4  C   UNL     1      20.270  37.773   5.523  1.00  0.00     0.010 A 
ATOM      5  C   UNL     1      22.444  36.796   5.123  1.00  0.00     0.001 A 
ATOM      6  C   UNL     1      21.612  37.914   5.169  1.00  0.00     0.001 A 
ENDROOT
BRANCH   1   7
ATOM      7  C   UNL     1      20.153  34.039   6.291  1.00  0.00     0.072 C 
ATOM      8  O   UNL     1      19.531  33.275   5.506  1.00  0.00    -0.545 OA
ATOM      9  O   UNL     1      20.472  33.580   7.564  1.00  0.00    -0.545 OA
ENDBRANCH   1   7
BRANCH   2  10
ATOM     10  C   UNL     1      18.281  36.408   6.090  1.00  0.00     0.072 C 
ATOM     11  O   UNL     1      17.462  36.589   5.150  1.00  0.00    -0.545 OA
ATOM     12  O   UNL     1      17.800  36.052   7.344  1.00  0.00    -0.545 OA
ENDBRANCH   2  10
TORSDOF 2
ENDMDL
MODEL 6
REMARK VINA RESULT:    -4.818      1.263      3.339
REMARK INTER + INTRA:          -5.573
REMARK INTER:                  -5.393
REMARK INTRA:                  -0.180
REMARK UNBOUND:                -0.191
REMARK SMILES O=C([O-])c1ccccc1C(=O)[O-]
REMARK SMILES IDX 4 1 9 2 5 3 8 4 6 5 7 6 2 7 1 8 3 9 10 10 11 11 12 12
REMARK H PARENT
REMARK Flexibility Score: inf
ROOT
ATOM      1  C   UNL     1      20.165  34.925   7.282  1.00  0.00     0.006 A 
ATOM      2  C   UNL     1      20.233  35.539   6.002  1.00  0.00     0.006 A 
ATOM      3  C   UNL     1      19.032  35.144   8.086  1.00  0.00     0.010 A 
ATOM      4  C   UNL     1      19.139  36.298   5.547  1.00  0.00     0.010 A 
ATOM      5  C   UNL     1      17.966  35.918   7.625  1.00  0.00     0.001 A 
ATOM      6  C   UNL     1      18.015  36.485   6.353  1.00  0.00     0.001 A 
ENDROOT
BRANCH   1   7
ATOM      7  C   UNL     1      21.207  33.998   7.779  1.00  0.00     0.072 C 
ATOM      8  O   UNL     1      22.058  34.391   8.621  1.00  0.00    -0.545 OA
ATOM      9  O   UNL     1      21.223  32.667   7.377  1.00  0.00    -0.545 OA
ENDBRANCH   1   7
BRANCH   2  10
ATOM     10  C   UNL     1      21.444  35.478   5.150  1.00  0.00     0.072 C 
ATOM     11  O   UNL     1      22.230  36.462   5.094  1.00  0.00    -0.545 OA
ATOM     12  O   UNL     1      21.764  34.319   4.454  1.00  0.00    -0.545 OA
ENDBRANCH   2  10
TORSDOF 2
ENDMDL
MODEL 7
REMARK VINA RESULT:    -4.810      1.310      1.866
REMARK INTER + INTRA:          -5.563
REMARK INTER:                  -5.380
REMARK INTRA:                  -0.183
REMARK UNBOUND:                -0.191
REMARK SMILES O=C([O-])c1ccccc1C(=O)[O-]
REMARK SMILES IDX 4 1 9 2 5 3 8 4 6 5 7 6 2 7 1 8 3 9 10 10 11 11 12 12
REMARK H PARENT
REMARK Flexibility Score: inf
ROOT
ATOM      1  C   UNL     1      20.204  35.453   6.000  1.00  0.00     0.006 A 
ATOM      2  C   UNL     1      20.167  34.884   7.302  1.00  0.00     0.006 A 
ATOM      3  C   UNL     1      19.100  36.200   5.548  1.00  0.00     0.010 A 
ATOM      4  C   UNL     1      19.055  35.134   8.128  1.00  0.00     0.010 A 
ATOM      5  C   UNL     1      17.998  36.418   6.375  1.00  0.00     0.001 A 
ATOM      6  C   UNL     1      17.981  35.896   7.667  1.00  0.00     0.001 A 
ENDROOT
BRANCH   1   7
ATOM      7  C   UNL     1      21.391  35.357   5.121  1.00  0.00     0.072 C 
ATOM      8  O   UNL     1      22.195  36.323   5.032  1.00  0.00    -0.545 OA
ATOM      9  O   UNL     1      21.673  34.182   4.434  1.00  0.00    -0.545 OA
ENDBRANCH   1   7
BRANCH   2  10
ATOM     10  C   UNL     1      21.219  33.970   7.804  1.00  0.00     0.072 C 
ATOM     11  O   UNL     1      22.066  34.378   8.644  1.00  0.00    -0.545 OA
ATOM     12  O   UNL     1      21.250  32.638   7.409  1.00  0.00    -0.545 OA
ENDBRANCH   2  10
TORSDOF 2
ENDMDL
MODEL 8
REMARK VINA RESULT:    -4.790      2.381      3.733
REMARK INTER + INTRA:          -5.541
REMARK INTER:                  -5.340
REMARK INTRA:                  -0.202
REMARK UNBOUND:                -0.191
REMARK SMILES O=C([O-])c1ccccc1C(=O)[O-]
REMARK SMILES IDX 4 1 9 2 5 3 8 4 6 5 7 6 2 7 1 8 3 9 10 10 11 11 12 12
REMARK H PARENT
REMARK Flexibility Score: inf
ROOT
ATOM      1  C   UNL     1      20.211  36.054   6.762  1.00  0.00     0.006 A 
ATOM      2  C   UNL     1      20.751  34.985   5.996  1.00  0.00     0.006 A 
ATOM      3  C   UNL     1      20.671  37.363   6.528  1.00  0.00     0.010 A 
ATOM      4  C   UNL     1      21.684  35.272   4.982  1.00  0.00     0.010 A 
ATOM      5  C   UNL     1      21.613  37.623   5.532  1.00  0.00     0.001 A 
ATOM      6  C   UNL     1      22.109  36.580   4.753  1.00  0.00     0.001 A 
ENDROOT
BRANCH   1   7
ATOM      7  C   UNL     1      19.126  35.859   7.750  1.00  0.00     0.072 C 
ATOM      8  O   UNL     1      19.400  35.620   8.956  1.00  0.00    -0.545 OA
ATOM      9  O   UNL     1      17.794  36.002   7.377  1.00  0.00    -0.545 OA
ENDBRANCH   1   7
BRANCH   2  10
ATOM     10  C   UNL     1      20.431  33.565   6.270  1.00  0.00     0.072 C 
ATOM     11  O   UNL     1      19.711  32.911   5.469  1.00  0.00    -0.545 OA
ATOM     12  O   UNL     1      20.969  32.916   7.375  1.00  0.00    -0.545 OA
ENDBRANCH   2  10
TORSDOF 2
ENDMDL
MODEL 9
REMARK VINA RESULT:    -4.464      2.304      3.830
REMARK INTER + INTRA:          -5.177
REMARK INTER:                  -4.966
REMARK INTRA:                  -0.211
REMARK UNBOUND:                -0.191
REMARK SMILES O=C([O-])c1ccccc1C(=O)[O-]
REMARK SMILES IDX 4 1 9 2 5 3 8 4 6 5 7 6 2 7 1 8 3 9 10 10 11 11 12 12
REMARK H PARENT
REMARK Flexibility Score: inf
ROOT
ATOM      1  C   UNL     1      20.604  34.682   6.551  1.00  0.00     0.006 A 
ATOM      2  C   UNL     1      19.874  35.892   6.706  1.00  0.00     0.006 A 
ATOM      3  C   UNL     1      21.322  34.172   7.649  1.00  0.00     0.010 A 
ATOM      4  C   UNL     1      19.836  36.514   7.968  1.00  0.00     0.010 A 
ATOM      5  C   UNL     1      21.289  34.816   8.887  1.00  0.00     0.001 A 
ATOM      6  C   UNL     1      20.538  35.978   9.048  1.00  0.00     0.001 A 
ENDROOT
BRANCH   1   7
ATOM      7  C   UNL     1      20.582  33.890   5.301  1.00  0.00     0.072 C 
ATOM      8  O   UNL     1      21.486  34.044   4.437  1.00  0.00    -0.545 OA
ATOM      9  O   UNL     1      19.607  32.923   5.090  1.00  0.00    -0.545 OA
ENDBRANCH   1   7
BRANCH   2  10
ATOM     10  C   UNL     1      19.208  36.573   5.571  1.00  0.00     0.072 C 
ATOM     11  O   UNL     1      18.010  36.306   5.286  1.00  0.00    -0.545 OA
ATOM     12  O   UNL     1      19.870  37.558   4.847  1.00  0.00    -0.545 OA
ENDBRANCH   2  10
TORSDOF 2
ENDMDL
