MODEL 1
REMARK VINA RESULT:    -5.167      0.000      0.000
REMARK INTER + INTRA:         -18.459
REMARK INTER:                 -13.624
REMARK INTRA:                  -4.835
REMARK UNBOUND:                -4.835
REMARK SMILES CCCCCCCCCCCCCCCCCCCCCCCCCCCCCC(=O)[O-]
REMARK SMILES IDX 16 1 17 2 18 3 19 4 20 5 21 6 22 7 23 8 24 9 25 10 26 11
REMARK SMILES IDX 27 12 28 13 29 14 30 15 31 16 32 17 15 18 14 19 13 20 12 21
REMARK SMILES IDX 11 22 10 23 9 24 8 25 7 26 6 27 5 28 4 29 3 30 2 31 1 32
REMARK H PARENT
REMARK Flexibility Score: inf
ROOT
ATOM      1  C   UNL     1      28.494  55.917  -4.459  1.00  0.00     0.000 C 
ENDROOT
BRANCH   1   2
ATOM      2  C   UNL     1      29.234  56.601  -5.622  1.00  0.00     0.000 C 
BRANCH   2   3
ATOM      3  C   UNL     1      30.594  57.177  -5.196  1.00  0.00     0.000 C 
BRANCH   3   4
ATOM      4  C   UNL     1      30.850  58.583  -5.762  1.00  0.00     0.000 C 
BRANCH   4   5
ATOM      5  C   UNL     1      31.169  59.576  -4.634  1.00  0.00     0.000 C 
BRANCH   5   6
ATOM      6  C   UNL     1      31.417  58.888  -3.279  1.00  0.00     0.000 C 
BRANCH   6   7
ATOM      7  C   UNL     1      31.944  59.809  -2.164  1.00  0.00     0.000 C 
BRANCH   7   8
ATOM      8  C   UNL     1      30.832  60.643  -1.504  1.00  0.00     0.000 C 
BRANCH   8   9
ATOM      9  C   UNL     1      30.642  60.317  -0.012  1.00  0.00     0.000 C 
BRANCH   9  10
ATOM     10  C   UNL     1      29.712  59.125   0.292  1.00  0.00     0.000 C 
BRANCH  10  11
ATOM     11  C   UNL     1      30.327  57.735   0.048  1.00  0.00     0.000 C 
BRANCH  11  12
ATOM     12  C   UNL     1      30.785  57.049   1.346  1.00  0.00     0.000 C 
BRANCH  12  13
ATOM     13  C   UNL     1      32.292  57.229   1.619  1.00  0.00     0.006 C 
BRANCH  13  14
ATOM     14  C   UNL     1      33.103  57.653   0.382  1.00  0.00     0.053 C 
BRANCH  14  15
ATOM     15  C   UNL     1      33.774  56.494  -0.287  1.00  0.00     0.041 C 
ATOM     16  O   UNL     1      34.410  56.666  -1.362  1.00  0.00    -0.550 OA
ATOM     17  O   UNL     1      33.717  55.230   0.283  1.00  0.00    -0.550 OA
ENDBRANCH  14  15
ENDBRANCH  13  14
ENDBRANCH  12  13
ENDBRANCH  11  12
ENDBRANCH  10  11
ENDBRANCH   9  10
ENDBRANCH   8   9
ENDBRANCH   7   8
ENDBRANCH   6   7
ENDBRANCH   5   6
ENDBRANCH   4   5
ENDBRANCH   3   4
ENDBRANCH   2   3
ENDBRANCH   1   2
BRANCH   1  18
ATOM     18  C   UNL     1      28.570  56.716  -3.145  1.00  0.00     0.000 C 
BRANCH  18  19
ATOM     19  C   UNL     1      27.646  56.216  -2.018  1.00  0.00     0.000 C 
BRANCH  19  20
ATOM     20  C   UNL     1      26.970  57.320  -1.180  1.00  0.00     0.000 C 
BRANCH  20  21
ATOM     21  C   UNL     1      26.209  56.827   0.065  1.00  0.00     0.000 C 
BRANCH  21  22
ATOM     22  C   UNL     1      26.365  57.764   1.274  1.00  0.00     0.000 C 
BRANCH  22  23
ATOM     23  C   UNL     1      26.539  56.995   2.597  1.00  0.00     0.000 C 
BRANCH  23  24
ATOM     24  C   UNL     1      27.255  55.640   2.462  1.00  0.00    -0.000 C 
BRANCH  24  25
ATOM     25  C   UNL     1      26.938  54.678   3.621  1.00  0.00    -0.000 C 
BRANCH  25  26
ATOM     26  C   UNL     1      28.044  54.676   4.696  1.00  0.00    -0.000 C 
BRANCH  26  27
ATOM     27  C   UNL     1      27.729  55.565   5.912  1.00  0.00    -0.000 C 
BRANCH  27  28
ATOM     28  C   UNL     1      28.919  56.431   6.344  1.00  0.00    -0.000 C 
BRANCH  28  29
ATOM     29  C   UNL     1      29.931  56.600   5.203  1.00  0.00    -0.000 C 
BRANCH  29  30
ATOM     30  C   UNL     1      30.282  58.074   4.937  1.00  0.00    -0.000 C 
BRANCH  30  31
ATOM     31  C   UNL     1      29.203  58.835   4.137  1.00  0.00    -0.003 C 
ATOM     32  C   UNL     1      29.585  60.293   3.876  1.00  0.00     0.004 C 
ENDBRANCH  30  31
ENDBRANCH  29  30
ENDBRANCH  28  29
ENDBRANCH  27  28
ENDBRANCH  26  27
ENDBRANCH  25  26
ENDBRANCH  24  25
ENDBRANCH  23  24
ENDBRANCH  22  23
ENDBRANCH  21  22
ENDBRANCH  20  21
ENDBRANCH  19  20
ENDBRANCH  18  19
ENDBRANCH   1  18
TORSDOF 28
ENDMDL
MODEL 2
REMARK VINA RESULT:    -5.075     10.987     14.618
REMARK INTER + INTRA:         -18.217
REMARK INTER:                 -12.039
REMARK INTRA:                  -6.177
REMARK UNBOUND:                -4.835
REMARK SMILES CCCCCCCCCCCCCCCCCCCCCCCCCCCCCC(=O)[O-]
REMARK SMILES IDX 16 1 17 2 18 3 19 4 20 5 21 6 22 7 23 8 24 9 25 10 26 11
REMARK SMILES IDX 27 12 28 13 29 14 30 15 31 16 32 17 15 18 14 19 13 20 12 21
REMARK SMILES IDX 11 22 10 23 9 24 8 25 7 26 6 27 5 28 4 29 3 30 2 31 1 32
REMARK H PARENT
REMARK Flexibility Score: inf
ROOT
ATOM      1  C   UNL     1      39.371  63.475   9.047  1.00  0.00     0.000 C 
ENDROOT
BRANCH   1   2
ATOM      2  C   UNL     1      39.807  62.231   8.252  1.00  0.00     0.000 C 
BRANCH   2   3
ATOM      3  C   UNL     1      41.325  61.999   8.311  1.00  0.00     0.000 C 
BRANCH   3   4
ATOM      4  C   UNL     1      41.720  60.550   7.983  1.00  0.00     0.000 C 
BRANCH   4   5
ATOM      5  C   UNL     1      40.604  59.574   8.386  1.00  0.00     0.000 C 
BRANCH   5   6
ATOM      6  C   UNL     1      41.097  58.121   8.519  1.00  0.00     0.000 C 
BRANCH   6   7
ATOM      7  C   UNL     1      42.183  57.704   7.511  1.00  0.00     0.000 C 
BRANCH   7   8
ATOM      8  C   UNL     1      41.984  56.274   6.979  1.00  0.00     0.000 C 
BRANCH   8   9
ATOM      9  C   UNL     1      42.495  56.092   5.538  1.00  0.00     0.000 C 
BRANCH   9  10
ATOM     10  C   UNL     1      43.228  57.309   4.937  1.00  0.00     0.000 C 
BRANCH  10  11
ATOM     11  C   UNL     1      43.397  57.282   3.407  1.00  0.00     0.000 C 
BRANCH  11  12
ATOM     12  C   UNL     1      42.122  56.833   2.673  1.00  0.00     0.000 C 
BRANCH  12  13
ATOM     13  C   UNL     1      41.977  57.474   1.278  1.00  0.00     0.006 C 
BRANCH  13  14
ATOM     14  C   UNL     1      43.163  58.369   0.878  1.00  0.00     0.053 C 
BRANCH  14  15
ATOM     15  C   UNL     1      42.830  59.287  -0.258  1.00  0.00     0.041 C 
ATOM     16  O   UNL     1      41.708  59.859  -0.301  1.00  0.00    -0.550 OA
ATOM     17  O   UNL     1      43.763  59.526  -1.257  1.00  0.00    -0.550 OA
ENDBRANCH  14  15
ENDBRANCH  13  14
ENDBRANCH  12  13
ENDBRANCH  11  12
ENDBRANCH  10  11
ENDBRANCH   9  10
ENDBRANCH   8   9
ENDBRANCH   7   8
ENDBRANCH   6   7
ENDBRANCH   5   6
ENDBRANCH   4   5
ENDBRANCH   3   4
ENDBRANCH   2   3
ENDBRANCH   1   2
BRANCH   1  18
ATOM     18  C   UNL     1      39.543  64.784   8.255  1.00  0.00     0.000 C 
BRANCH  18  19
ATOM     19  C   UNL     1      39.084  64.727   6.784  1.00  0.00     0.000 C 
BRANCH  19  20
ATOM     20  C   UNL     1      40.148  65.133   5.744  1.00  0.00     0.000 C 
BRANCH  20  21
ATOM     21  C   UNL     1      41.021  63.980   5.214  1.00  0.00     0.000 C 
BRANCH  21  22
ATOM     22  C   UNL     1      42.504  64.127   5.596  1.00  0.00     0.000 C 
BRANCH  22  23
ATOM     23  C   UNL     1      43.436  63.355   4.644  1.00  0.00     0.000 C 
BRANCH  23  24
ATOM     24  C   UNL     1      43.694  61.892   5.044  1.00  0.00    -0.000 C 
BRANCH  24  25
ATOM     25  C   UNL     1      43.446  60.904   3.890  1.00  0.00    -0.000 C 
BRANCH  25  26
ATOM     26  C   UNL     1      42.282  61.350   2.982  1.00  0.00    -0.000 C 
BRANCH  26  27
ATOM     27  C   UNL     1      40.996  60.527   3.173  1.00  0.00    -0.000 C 
BRANCH  27  28
ATOM     28  C   UNL     1      40.702  60.209   4.644  1.00  0.00    -0.000 C 
BRANCH  28  29
ATOM     29  C   UNL     1      39.313  59.578   4.813  1.00  0.00    -0.000 C 
BRANCH  29  30
ATOM     30  C   UNL     1      39.323  58.057   4.590  1.00  0.00    -0.000 C 
BRANCH  30  31
ATOM     31  C   UNL     1      38.623  57.260   5.712  1.00  0.00    -0.003 C 
ATOM     32  C   UNL     1      37.857  58.162   6.682  1.00  0.00     0.004 C 
ENDBRANCH  30  31
ENDBRANCH  29  30
ENDBRANCH  28  29
ENDBRANCH  27  28
ENDBRANCH  26  27
ENDBRANCH  25  26
ENDBRANCH  24  25
ENDBRANCH  23  24
ENDBRANCH  22  23
ENDBRANCH  21  22
ENDBRANCH  20  21
ENDBRANCH  19  20
ENDBRANCH  18  19
ENDBRANCH   1  18
TORSDOF 28
ENDMDL
MODEL 3
REMARK VINA RESULT:    -4.976      9.825     13.827
REMARK INTER + INTRA:         -17.956
REMARK INTER:                 -11.702
REMARK INTRA:                  -6.254
REMARK UNBOUND:                -4.835
REMARK SMILES CCCCCCCCCCCCCCCCCCCCCCCCCCCCCC(=O)[O-]
REMARK SMILES IDX 16 1 17 2 18 3 19 4 20 5 21 6 22 7 23 8 24 9 25 10 26 11
REMARK SMILES IDX 27 12 28 13 29 14 30 15 31 16 32 17 15 18 14 19 13 20 12 21
REMARK SMILES IDX 11 22 10 23 9 24 8 25 7 26 6 27 5 28 4 29 3 30 2 31 1 32
REMARK H PARENT
REMARK Flexibility Score: inf
ROOT
ATOM      1  C   UNL     1      39.087  60.528   6.680  1.00  0.00     0.000 C 
ENDROOT
BRANCH   1   2
ATOM      2  C   UNL     1      40.579  60.256   6.937  1.00  0.00     0.000 C 
BRANCH   2   3
ATOM      3  C   UNL     1      41.209  61.286   7.890  1.00  0.00     0.000 C 
BRANCH   3   4
ATOM      4  C   UNL     1      40.162  62.075   8.690  1.00  0.00     0.000 C 
BRANCH   4   5
ATOM      5  C   UNL     1      40.541  63.562   8.769  1.00  0.00     0.000 C 
BRANCH   5   6
ATOM      6  C   UNL     1      39.537  64.477   8.044  1.00  0.00     0.000 C 
BRANCH   6   7
ATOM      7  C   UNL     1      39.936  64.882   6.613  1.00  0.00     0.000 C 
BRANCH   7   8
ATOM      8  C   UNL     1      41.458  64.994   6.428  1.00  0.00     0.000 C 
BRANCH   8   9
ATOM      9  C   UNL     1      41.983  64.166   5.241  1.00  0.00     0.000 C 
BRANCH   9  10
ATOM     10  C   UNL     1      40.972  63.176   4.626  1.00  0.00     0.000 C 
BRANCH  10  11
ATOM     11  C   UNL     1      41.594  61.984   3.878  1.00  0.00     0.000 C 
BRANCH  11  12
ATOM     12  C   UNL     1      40.693  61.450   2.752  1.00  0.00     0.000 C 
BRANCH  12  13
ATOM     13  C   UNL     1      40.099  60.062   3.069  1.00  0.00     0.006 C 
BRANCH  13  14
ATOM     14  C   UNL     1      39.439  59.377   1.860  1.00  0.00     0.053 C 
BRANCH  14  15
ATOM     15  C   UNL     1      37.944  59.383   1.944  1.00  0.00     0.041 C 
ATOM     16  O   UNL     1      37.250  59.230   0.903  1.00  0.00    -0.550 OA
ATOM     17  O   UNL     1      37.315  59.537   3.172  1.00  0.00    -0.550 OA
ENDBRANCH  14  15
ENDBRANCH  13  14
ENDBRANCH  12  13
ENDBRANCH  11  12
ENDBRANCH  10  11
ENDBRANCH   9  10
ENDBRANCH   8   9
ENDBRANCH   7   8
ENDBRANCH   6   7
ENDBRANCH   5   6
ENDBRANCH   4   5
ENDBRANCH   3   4
ENDBRANCH   2   3
ENDBRANCH   1   2
BRANCH   1  18
ATOM     18  C   UNL     1      38.263  59.239   6.501  1.00  0.00     0.000 C 
BRANCH  18  19
ATOM     19  C   UNL     1      39.091  57.946   6.359  1.00  0.00     0.000 C 
BRANCH  19  20
ATOM     20  C   UNL     1      38.762  57.085   5.123  1.00  0.00     0.000 C 
BRANCH  20  21
ATOM     21  C   UNL     1      39.983  56.560   4.345  1.00  0.00     0.000 C 
BRANCH  21  22
ATOM     22  C   UNL     1      40.543  55.248   4.920  1.00  0.00     0.000 C 
BRANCH  22  23
ATOM     23  C   UNL     1      41.986  55.399   5.436  1.00  0.00     0.000 C 
BRANCH  23  24
ATOM     24  C   UNL     1      42.105  56.037   6.831  1.00  0.00    -0.000 C 
BRANCH  24  25
ATOM     25  C   UNL     1      42.913  57.346   6.821  1.00  0.00    -0.000 C 
BRANCH  25  26
ATOM     26  C   UNL     1      43.665  57.558   5.491  1.00  0.00    -0.000 C 
BRANCH  26  27
ATOM     27  C   UNL     1      43.674  59.020   5.010  1.00  0.00    -0.000 C 
BRANCH  27  28
ATOM     28  C   UNL     1      43.643  59.147   3.481  1.00  0.00    -0.000 C 
BRANCH  28  29
ATOM     29  C   UNL     1      43.121  57.862   2.825  1.00  0.00    -0.000 C 
BRANCH  29  30
ATOM     30  C   UNL     1      43.117  57.942   1.289  1.00  0.00    -0.000 C 
BRANCH  30  31
ATOM     31  C   UNL     1      43.052  59.384   0.742  1.00  0.00    -0.003 C 
ATOM     32  C   UNL     1      42.273  59.479  -0.571  1.00  0.00     0.004 C 
ENDBRANCH  30  31
ENDBRANCH  29  30
ENDBRANCH  28  29
ENDBRANCH  27  28
ENDBRANCH  26  27
ENDBRANCH  25  26
ENDBRANCH  24  25
ENDBRANCH  23  24
ENDBRANCH  22  23
ENDBRANCH  21  22
ENDBRANCH  20  21
ENDBRANCH  19  20
ENDBRANCH  18  19
ENDBRANCH   1  18
TORSDOF 28
ENDMDL
MODEL 4
REMARK VINA RESULT:    -4.974     11.558     15.225
REMARK INTER + INTRA:         -17.952
REMARK INTER:                 -12.250
REMARK INTRA:                  -5.702
REMARK UNBOUND:                -4.835
REMARK SMILES CCCCCCCCCCCCCCCCCCCCCCCCCCCCCC(=O)[O-]
REMARK SMILES IDX 16 1 17 2 18 3 19 4 20 5 21 6 22 7 23 8 24 9 25 10 26 11
REMARK SMILES IDX 27 12 28 13 29 14 30 15 31 16 32 17 15 18 14 19 13 20 12 21
REMARK SMILES IDX 11 22 10 23 9 24 8 25 7 26 6 27 5 28 4 29 3 30 2 31 1 32
REMARK H PARENT
REMARK Flexibility Score: inf
ROOT
ATOM      1  C   UNL     1      39.656  57.555   4.368  1.00  0.00     0.000 C 
ENDROOT
BRANCH   1   2
ATOM      2  C   UNL     1      38.884  58.385   5.409  1.00  0.00     0.000 C 
BRANCH   2   3
ATOM      3  C   UNL     1      38.798  59.872   5.029  1.00  0.00     0.000 C 
BRANCH   3   4
ATOM      4  C   UNL     1      39.353  60.800   6.121  1.00  0.00     0.000 C 
BRANCH   4   5
ATOM      5  C   UNL     1      39.203  60.162   7.510  1.00  0.00     0.000 C 
BRANCH   5   6
ATOM      6  C   UNL     1      40.232  60.688   8.527  1.00  0.00     0.000 C 
BRANCH   6   7
ATOM      7  C   UNL     1      41.125  61.835   8.020  1.00  0.00     0.000 C 
BRANCH   7   8
ATOM      8  C   UNL     1      40.897  63.150   8.784  1.00  0.00     0.000 C 
BRANCH   8   9
ATOM      9  C   UNL     1      39.416  63.567   8.836  1.00  0.00     0.000 C 
BRANCH   9  10
ATOM     10  C   UNL     1      39.078  64.900   8.139  1.00  0.00     0.000 C 
BRANCH  10  11
ATOM     11  C   UNL     1      38.819  64.802   6.625  1.00  0.00     0.000 C 
BRANCH  11  12
ATOM     12  C   UNL     1      39.949  65.418   5.784  1.00  0.00     0.000 C 
BRANCH  12  13
ATOM     13  C   UNL     1      40.914  64.360   5.211  1.00  0.00     0.006 C 
BRANCH  13  14
ATOM     14  C   UNL     1      42.338  64.439   5.786  1.00  0.00     0.053 C 
BRANCH  14  15
ATOM     15  C   UNL     1      42.672  65.804   6.304  1.00  0.00     0.041 C 
ATOM     16  O   UNL     1      42.703  66.020   7.545  1.00  0.00    -0.550 OA
ATOM     17  O   UNL     1      42.968  66.832   5.420  1.00  0.00    -0.550 OA
ENDBRANCH  14  15
ENDBRANCH  13  14
ENDBRANCH  12  13
ENDBRANCH  11  12
ENDBRANCH  10  11
ENDBRANCH   9  10
ENDBRANCH   8   9
ENDBRANCH   7   8
ENDBRANCH   6   7
ENDBRANCH   5   6
ENDBRANCH   4   5
ENDBRANCH   3   4
ENDBRANCH   2   3
ENDBRANCH   1   2
BRANCH   1  18
ATOM     18  C   UNL     1      41.010  57.043   4.892  1.00  0.00     0.000 C 
BRANCH  18  19
ATOM     19  C   UNL     1      41.316  57.385   6.364  1.00  0.00     0.000 C 
BRANCH  19  20
ATOM     20  C   UNL     1      42.418  58.441   6.581  1.00  0.00     0.000 C 
BRANCH  20  21
ATOM     21  C   UNL     1      42.817  59.241   5.327  1.00  0.00     0.000 C 
BRANCH  21  22
ATOM     22  C   UNL     1      44.141  58.763   4.707  1.00  0.00     0.000 C 
BRANCH  22  23
ATOM     23  C   UNL     1      44.938  59.912   4.061  1.00  0.00     0.000 C 
BRANCH  23  24
ATOM     24  C   UNL     1      44.203  61.264   4.031  1.00  0.00    -0.000 C 
BRANCH  24  25
ATOM     25  C   UNL     1      44.619  62.143   2.838  1.00  0.00    -0.000 C 
BRANCH  25  26
ATOM     26  C   UNL     1      45.432  61.356   1.789  1.00  0.00    -0.000 C 
BRANCH  26  27
ATOM     27  C   UNL     1      44.661  61.080   0.486  1.00  0.00    -0.000 C 
BRANCH  27  28
ATOM     28  C   UNL     1      44.029  59.683   0.449  1.00  0.00    -0.000 C 
BRANCH  28  29
ATOM     29  C   UNL     1      42.804  59.648  -0.474  1.00  0.00    -0.000 C 
BRANCH  29  30
ATOM     30  C   UNL     1      41.485  59.482   0.299  1.00  0.00    -0.000 C 
BRANCH  30  31
ATOM     31  C   UNL     1      41.615  59.750   1.814  1.00  0.00    -0.003 C 
ATOM     32  C   UNL     1      40.975  61.075   2.233  1.00  0.00     0.004 C 
ENDBRANCH  30  31
ENDBRANCH  29  30
ENDBRANCH  28  29
ENDBRANCH  27  28
ENDBRANCH  26  27
ENDBRANCH  25  26
ENDBRANCH  24  25
ENDBRANCH  23  24
ENDBRANCH  22  23
ENDBRANCH  21  22
ENDBRANCH  20  21
ENDBRANCH  19  20
ENDBRANCH  18  19
ENDBRANCH   1  18
TORSDOF 28
ENDMDL
MODEL 5
REMARK VINA RESULT:    -4.950     11.114     13.405
REMARK INTER + INTRA:         -17.888
REMARK INTER:                 -12.691
REMARK INTRA:                  -5.198
REMARK UNBOUND:                -4.835
REMARK SMILES CCCCCCCCCCCCCCCCCCCCCCCCCCCCCC(=O)[O-]
REMARK SMILES IDX 16 1 17 2 18 3 19 4 20 5 21 6 22 7 23 8 24 9 25 10 26 11
REMARK SMILES IDX 27 12 28 13 29 14 30 15 31 16 32 17 15 18 14 19 13 20 12 21
REMARK SMILES IDX 11 22 10 23 9 24 8 25 7 26 6 27 5 28 4 29 3 30 2 31 1 32
REMARK H PARENT
REMARK Flexibility Score: inf
ROOT
ATOM      1  C   UNL     1      42.402  57.594   1.723  1.00  0.00     0.000 C 
ENDROOT
BRANCH   1   2
ATOM      2  C   UNL     1      41.981  58.529   0.575  1.00  0.00     0.000 C 
BRANCH   2   3
ATOM      3  C   UNL     1      40.658  59.257   0.865  1.00  0.00     0.000 C 
BRANCH   3   4
ATOM      4  C   UNL     1      40.403  59.453   2.367  1.00  0.00     0.000 C 
BRANCH   4   5
ATOM      5  C   UNL     1      40.120  60.929   2.686  1.00  0.00     0.000 C 
BRANCH   5   6
ATOM      6  C   UNL     1      41.314  61.640   3.349  1.00  0.00     0.000 C 
BRANCH   6   7
ATOM      7  C   UNL     1      40.942  62.747   4.352  1.00  0.00     0.000 C 
BRANCH   7   8
ATOM      8  C   UNL     1      42.078  63.064   5.338  1.00  0.00     0.000 C 
BRANCH   8   9
ATOM      9  C   UNL     1      41.621  63.044   6.808  1.00  0.00     0.000 C 
BRANCH   9  10
ATOM     10  C   UNL     1      40.119  62.779   7.031  1.00  0.00     0.000 C 
BRANCH  10  11
ATOM     11  C   UNL     1      39.544  63.328   8.349  1.00  0.00     0.000 C 
BRANCH  11  12
ATOM     12  C   UNL     1      39.069  64.786   8.233  1.00  0.00     0.000 C 
BRANCH  12  13
ATOM     13  C   UNL     1      38.815  65.217   6.774  1.00  0.00     0.006 C 
BRANCH  13  14
ATOM     14  C   UNL     1      37.466  65.925   6.559  1.00  0.00     0.053 C 
BRANCH  14  15
ATOM     15  C   UNL     1      37.549  67.018   5.539  1.00  0.00     0.041 C 
ATOM     16  O   UNL     1      36.972  68.120   5.744  1.00  0.00    -0.550 OA
ATOM     17  O   UNL     1      38.279  66.830   4.373  1.00  0.00    -0.550 OA
ENDBRANCH  14  15
ENDBRANCH  13  14
ENDBRANCH  12  13
ENDBRANCH  11  12
ENDBRANCH  10  11
ENDBRANCH   9  10
ENDBRANCH   8   9
ENDBRANCH   7   8
ENDBRANCH   6   7
ENDBRANCH   5   6
ENDBRANCH   4   5
ENDBRANCH   3   4
ENDBRANCH   2   3
ENDBRANCH   1   2
BRANCH   1  18
ATOM     18  C   UNL     1      42.312  56.103   1.347  1.00  0.00     0.000 C 
BRANCH  18  19
ATOM     19  C   UNL     1      41.245  55.297   2.114  1.00  0.00     0.000 C 
BRANCH  19  20
ATOM     20  C   UNL     1      40.715  55.960   3.401  1.00  0.00     0.000 C 
BRANCH  20  21
ATOM     21  C   UNL     1      40.761  55.078   4.662  1.00  0.00     0.000 C 
BRANCH  21  22
ATOM     22  C   UNL     1      41.455  55.764   5.850  1.00  0.00     0.000 C 
BRANCH  22  23
ATOM     23  C   UNL     1      42.972  55.920   5.638  1.00  0.00     0.000 C 
BRANCH  23  24
ATOM     24  C   UNL     1      43.532  57.306   6.002  1.00  0.00    -0.000 C 
BRANCH  24  25
ATOM     25  C   UNL     1      42.879  58.444   5.198  1.00  0.00    -0.000 C 
BRANCH  25  26
ATOM     26  C   UNL     1      42.197  59.485   6.111  1.00  0.00    -0.000 C 
BRANCH  26  27
ATOM     27  C   UNL     1      42.354  59.189   7.613  1.00  0.00    -0.000 C 
BRANCH  27  28
ATOM     28  C   UNL     1      41.052  59.385   8.401  1.00  0.00    -0.000 C 
BRANCH  28  29
ATOM     29  C   UNL     1      40.189  58.116   8.376  1.00  0.00    -0.000 C 
BRANCH  29  30
ATOM     30  C   UNL     1      39.141  58.136   7.250  1.00  0.00    -0.000 C 
BRANCH  30  31
ATOM     31  C   UNL     1      38.453  59.505   7.065  1.00  0.00    -0.003 C 
ATOM     32  C   UNL     1      38.272  59.876   5.592  1.00  0.00     0.004 C 
ENDBRANCH  30  31
ENDBRANCH  29  30
ENDBRANCH  28  29
ENDBRANCH  27  28
ENDBRANCH  26  27
ENDBRANCH  25  26
ENDBRANCH  24  25
ENDBRANCH  23  24
ENDBRANCH  22  23
ENDBRANCH  21  22
ENDBRANCH  20  21
ENDBRANCH  19  20
ENDBRANCH  18  19
ENDBRANCH   1  18
TORSDOF 28
ENDMDL
MODEL 6
REMARK VINA RESULT:    -4.940     11.289     14.758
REMARK INTER + INTRA:         -17.861
REMARK INTER:                 -12.469
REMARK INTRA:                  -5.392
REMARK UNBOUND:                -4.835
REMARK SMILES CCCCCCCCCCCCCCCCCCCCCCCCCCCCCC(=O)[O-]
REMARK SMILES IDX 16 1 17 2 18 3 19 4 20 5 21 6 22 7 23 8 24 9 25 10 26 11
REMARK SMILES IDX 27 12 28 13 29 14 30 15 31 16 32 17 15 18 14 19 13 20 12 21
REMARK SMILES IDX 11 22 10 23 9 24 8 25 7 26 6 27 5 28 4 29 3 30 2 31 1 32
REMARK H PARENT
REMARK Flexibility Score: inf
ROOT
ATOM      1  C   UNL     1      41.330  60.365   8.004  1.00  0.00     0.000 C 
ENDROOT
BRANCH   1   2
ATOM      2  C   UNL     1      41.186  61.851   8.376  1.00  0.00     0.000 C 
BRANCH   2   3
ATOM      3  C   UNL     1      39.759  62.377   8.153  1.00  0.00     0.000 C 
BRANCH   3   4
ATOM      4  C   UNL     1      39.453  63.638   8.977  1.00  0.00     0.000 C 
BRANCH   4   5
ATOM      5  C   UNL     1      39.350  64.873   8.069  1.00  0.00     0.000 C 
BRANCH   5   6
ATOM      6  C   UNL     1      39.356  64.519   6.571  1.00  0.00     0.000 C 
BRANCH   6   7
ATOM      7  C   UNL     1      40.470  65.188   5.745  1.00  0.00     0.000 C 
BRANCH   7   8
ATOM      8  C   UNL     1      41.878  64.871   6.275  1.00  0.00     0.000 C 
BRANCH   8   9
ATOM      9  C   UNL     1      42.771  64.175   5.232  1.00  0.00     0.000 C 
BRANCH   9  10
ATOM     10  C   UNL     1      42.775  62.634   5.287  1.00  0.00     0.000 C 
BRANCH  10  11
ATOM     11  C   UNL     1      42.075  61.935   4.108  1.00  0.00     0.000 C 
BRANCH  11  12
ATOM     12  C   UNL     1      40.691  61.377   4.480  1.00  0.00     0.000 C 
BRANCH  12  13
ATOM     13  C   UNL     1      40.286  60.161   3.624  1.00  0.00     0.006 C 
BRANCH  13  14
ATOM     14  C   UNL     1      40.631  58.805   4.263  1.00  0.00     0.053 C 
BRANCH  14  15
ATOM     15  C   UNL     1      39.411  58.020   4.634  1.00  0.00     0.041 C 
ATOM     16  O   UNL     1      39.507  56.793   4.907  1.00  0.00    -0.550 OA
ATOM     17  O   UNL     1      38.172  58.644   4.699  1.00  0.00    -0.550 OA
ENDBRANCH  14  15
ENDBRANCH  13  14
ENDBRANCH  12  13
ENDBRANCH  11  12
ENDBRANCH  10  11
ENDBRANCH   9  10
ENDBRANCH   8   9
ENDBRANCH   7   8
ENDBRANCH   6   7
ENDBRANCH   5   6
ENDBRANCH   4   5
ENDBRANCH   3   4
ENDBRANCH   2   3
ENDBRANCH   1   2
BRANCH   1  18
ATOM     18  C   UNL     1      39.976  59.665   7.789  1.00  0.00     0.000 C 
BRANCH  18  19
ATOM     19  C   UNL     1      39.876  58.238   8.362  1.00  0.00     0.000 C 
BRANCH  19  20
ATOM     20  C   UNL     1      41.221  57.575   8.720  1.00  0.00     0.000 C 
BRANCH  20  21
ATOM     21  C   UNL     1      41.857  56.732   7.599  1.00  0.00     0.000 C 
BRANCH  21  22
ATOM     22  C   UNL     1      42.997  57.464   6.870  1.00  0.00     0.000 C 
BRANCH  22  23
ATOM     23  C   UNL     1      43.652  56.596   5.780  1.00  0.00     0.000 C 
BRANCH  23  24
ATOM     24  C   UNL     1      42.737  55.509   5.189  1.00  0.00    -0.000 C 
BRANCH  24  25
ATOM     25  C   UNL     1      42.644  55.576   3.654  1.00  0.00    -0.000 C 
BRANCH  25  26
ATOM     26  C   UNL     1      43.925  55.056   2.970  1.00  0.00    -0.000 C 
BRANCH  26  27
ATOM     27  C   UNL     1      44.481  56.005   1.893  1.00  0.00    -0.000 C 
BRANCH  27  28
ATOM     28  C   UNL     1      45.274  57.179   2.482  1.00  0.00    -0.000 C 
BRANCH  28  29
ATOM     29  C   UNL     1      44.440  58.467   2.495  1.00  0.00    -0.000 C 
BRANCH  29  30
ATOM     30  C   UNL     1      43.324  58.459   1.437  1.00  0.00    -0.000 C 
BRANCH  30  31
ATOM     31  C   UNL     1      42.865  59.869   1.008  1.00  0.00    -0.003 C 
ATOM     32  C   UNL     1      41.619  59.837   0.121  1.00  0.00     0.004 C 
ENDBRANCH  30  31
ENDBRANCH  29  30
ENDBRANCH  28  29
ENDBRANCH  27  28
ENDBRANCH  26  27
ENDBRANCH  25  26
ENDBRANCH  24  25
ENDBRANCH  23  24
ENDBRANCH  22  23
ENDBRANCH  21  22
ENDBRANCH  20  21
ENDBRANCH  19  20
ENDBRANCH  18  19
ENDBRANCH   1  18
TORSDOF 28
ENDMDL
MODEL 7
REMARK VINA RESULT:    -4.900     11.331     14.734
REMARK INTER + INTRA:         -17.756
REMARK INTER:                 -11.673
REMARK INTRA:                  -6.083
REMARK UNBOUND:                -4.835
REMARK SMILES CCCCCCCCCCCCCCCCCCCCCCCCCCCCCC(=O)[O-]
REMARK SMILES IDX 16 1 17 2 18 3 19 4 20 5 21 6 22 7 23 8 24 9 25 10 26 11
REMARK SMILES IDX 27 12 28 13 29 14 30 15 31 16 32 17 15 18 14 19 13 20 12 21
REMARK SMILES IDX 11 22 10 23 9 24 8 25 7 26 6 27 5 28 4 29 3 30 2 31 1 32
REMARK H PARENT
REMARK Flexibility Score: inf
ROOT
ATOM      1  C   UNL     1      39.530  60.216   3.895  1.00  0.00     0.000 C 
ENDROOT
BRANCH   1   2
ATOM      2  C   UNL     1      39.265  58.964   4.751  1.00  0.00     0.000 C 
BRANCH   2   3
ATOM      3  C   UNL     1      40.265  57.833   4.464  1.00  0.00     0.000 C 
BRANCH   3   4
ATOM      4  C   UNL     1      39.672  56.436   4.707  1.00  0.00     0.000 C 
BRANCH   4   5
ATOM      5  C   UNL     1      40.778  55.420   5.029  1.00  0.00     0.000 C 
BRANCH   5   6
ATOM      6  C   UNL     1      42.013  56.065   5.686  1.00  0.00     0.000 C 
BRANCH   6   7
ATOM      7  C   UNL     1      41.998  56.089   7.225  1.00  0.00     0.000 C 
BRANCH   7   8
ATOM      8  C   UNL     1      41.947  57.515   7.798  1.00  0.00     0.000 C 
BRANCH   8   9
ATOM      9  C   UNL     1      40.533  57.939   8.233  1.00  0.00     0.000 C 
BRANCH   9  10
ATOM     10  C   UNL     1      40.275  59.460   8.258  1.00  0.00     0.000 C 
BRANCH  10  11
ATOM     11  C   UNL     1      41.509  60.338   7.985  1.00  0.00     0.000 C 
BRANCH  11  12
ATOM     12  C   UNL     1      41.248  61.831   8.245  1.00  0.00     0.000 C 
BRANCH  12  13
ATOM     13  C   UNL     1      39.759  62.209   8.115  1.00  0.00     0.006 C 
BRANCH  13  14
ATOM     14  C   UNL     1      39.423  63.612   8.650  1.00  0.00     0.053 C 
BRANCH  14  15
ATOM     15  C   UNL     1      39.502  64.664   7.588  1.00  0.00     0.041 C 
ATOM     16  O   UNL     1      40.623  65.087   7.197  1.00  0.00    -0.550 OA
ATOM     17  O   UNL     1      38.340  65.164   7.014  1.00  0.00    -0.550 OA
ENDBRANCH  14  15
ENDBRANCH  13  14
ENDBRANCH  12  13
ENDBRANCH  11  12
ENDBRANCH  10  11
ENDBRANCH   9  10
ENDBRANCH   8   9
ENDBRANCH   7   8
ENDBRANCH   6   7
ENDBRANCH   5   6
ENDBRANCH   4   5
ENDBRANCH   3   4
ENDBRANCH   2   3
ENDBRANCH   1   2
BRANCH   1  18
ATOM     18  C   UNL     1      40.547  61.177   4.536  1.00  0.00     0.000 C 
BRANCH  18  19
ATOM     19  C   UNL     1      41.924  61.234   3.844  1.00  0.00     0.000 C 
BRANCH  19  20
ATOM     20  C   UNL     1      43.132  60.931   4.752  1.00  0.00     0.000 C 
BRANCH  20  21
ATOM     21  C   UNL     1      43.502  59.441   4.879  1.00  0.00     0.000 C 
BRANCH  21  22
ATOM     22  C   UNL     1      44.547  58.992   3.843  1.00  0.00     0.000 C 
BRANCH  22  23
ATOM     23  C   UNL     1      44.612  57.460   3.699  1.00  0.00     0.000 C 
BRANCH  23  24
ATOM     24  C   UNL     1      44.893  56.962   2.270  1.00  0.00    -0.000 C 
BRANCH  24  25
ATOM     25  C   UNL     1      43.821  55.985   1.757  1.00  0.00    -0.000 C 
BRANCH  25  26
ATOM     26  C   UNL     1      42.393  56.542   1.932  1.00  0.00    -0.000 C 
BRANCH  26  27
ATOM     27  C   UNL     1      41.718  56.944   0.609  1.00  0.00    -0.000 C 
BRANCH  27  28
ATOM     28  C   UNL     1      40.630  58.010   0.792  1.00  0.00    -0.000 C 
BRANCH  28  29
ATOM     29  C   UNL     1      41.216  59.425   0.707  1.00  0.00    -0.000 C 
BRANCH  29  30
ATOM     30  C   UNL     1      42.396  59.519  -0.275  1.00  0.00    -0.000 C 
BRANCH  30  31
ATOM     31  C   UNL     1      43.710  59.997   0.378  1.00  0.00    -0.003 C 
ATOM     32  C   UNL     1      44.950  59.507  -0.372  1.00  0.00     0.004 C 
ENDBRANCH  30  31
ENDBRANCH  29  30
ENDBRANCH  28  29
ENDBRANCH  27  28
ENDBRANCH  26  27
ENDBRANCH  25  26
ENDBRANCH  24  25
ENDBRANCH  23  24
ENDBRANCH  22  23
ENDBRANCH  21  22
ENDBRANCH  20  21
ENDBRANCH  19  20
ENDBRANCH  18  19
ENDBRANCH   1  18
TORSDOF 28
ENDMDL
MODEL 8
REMARK VINA RESULT:    -4.881     10.254     14.099
REMARK INTER + INTRA:         -17.706
REMARK INTER:                 -11.364
REMARK INTRA:                  -6.341
REMARK UNBOUND:                -4.835
REMARK SMILES CCCCCCCCCCCCCCCCCCCCCCCCCCCCCC(=O)[O-]
REMARK SMILES IDX 16 1 17 2 18 3 19 4 20 5 21 6 22 7 23 8 24 9 25 10 26 11
REMARK SMILES IDX 27 12 28 13 29 14 30 15 31 16 32 17 15 18 14 19 13 20 12 21
REMARK SMILES IDX 11 22 10 23 9 24 8 25 7 26 6 27 5 28 4 29 3 30 2 31 1 32
REMARK H PARENT
REMARK Flexibility Score: inf
ROOT
ATOM      1  C   UNL     1      42.655  63.557   5.047  1.00  0.00     0.000 C 
ENDROOT
BRANCH   1   2
ATOM      2  C   UNL     1      43.146  62.176   4.578  1.00  0.00     0.000 C 
BRANCH   2   3
ATOM      3  C   UNL     1      43.231  61.160   5.728  1.00  0.00     0.000 C 
BRANCH   3   4
ATOM      4  C   UNL     1      43.736  59.782   5.271  1.00  0.00     0.000 C 
BRANCH   4   5
ATOM      5  C   UNL     1      42.674  58.701   5.517  1.00  0.00     0.000 C 
BRANCH   5   6
ATOM      6  C   UNL     1      43.180  57.554   6.412  1.00  0.00     0.000 C 
BRANCH   6   7
ATOM      7  C   UNL     1      42.104  56.547   6.857  1.00  0.00     0.000 C 
BRANCH   7   8
ATOM      8  C   UNL     1      41.932  55.382   5.869  1.00  0.00     0.000 C 
BRANCH   8   9
ATOM      9  C   UNL     1      40.904  55.679   4.762  1.00  0.00     0.000 C 
BRANCH   9  10
ATOM     10  C   UNL     1      41.493  55.913   3.356  1.00  0.00     0.000 C 
BRANCH  10  11
ATOM     11  C   UNL     1      42.935  55.413   3.158  1.00  0.00     0.000 C 
BRANCH  11  12
ATOM     12  C   UNL     1      43.911  56.542   2.788  1.00  0.00     0.000 C 
BRANCH  12  13
ATOM     13  C   UNL     1      43.406  57.411   1.618  1.00  0.00     0.006 C 
BRANCH  13  14
ATOM     14  C   UNL     1      43.920  58.861   1.652  1.00  0.00     0.053 C 
BRANCH  14  15
ATOM     15  C   UNL     1      43.668  59.588   0.368  1.00  0.00     0.041 C 
ATOM     16  O   UNL     1      42.574  59.439  -0.240  1.00  0.00    -0.550 OA
ATOM     17  O   UNL     1      44.631  60.444  -0.150  1.00  0.00    -0.550 OA
ENDBRANCH  14  15
ENDBRANCH  13  14
ENDBRANCH  12  13
ENDBRANCH  11  12
ENDBRANCH  10  11
ENDBRANCH   9  10
ENDBRANCH   8   9
ENDBRANCH   7   8
ENDBRANCH   6   7
ENDBRANCH   5   6
ENDBRANCH   4   5
ENDBRANCH   3   4
ENDBRANCH   2   3
ENDBRANCH   1   2
BRANCH   1  18
ATOM     18  C   UNL     1      41.132  63.732   4.910  1.00  0.00     0.000 C 
BRANCH  18  19
ATOM     19  C   UNL     1      40.411  64.229   6.179  1.00  0.00     0.000 C 
BRANCH  19  20
ATOM     20  C   UNL     1      41.299  64.362   7.432  1.00  0.00     0.000 C 
BRANCH  20  21
ATOM     21  C   UNL     1      40.813  63.583   8.669  1.00  0.00     0.000 C 
BRANCH  21  22
ATOM     22  C   UNL     1      40.182  62.226   8.314  1.00  0.00     0.000 C 
BRANCH  22  23
ATOM     23  C   UNL     1      41.177  61.059   8.455  1.00  0.00     0.000 C 
BRANCH  23  24
ATOM     24  C   UNL     1      40.548  59.661   8.324  1.00  0.00    -0.000 C 
BRANCH  24  25
ATOM     25  C   UNL     1      39.153  59.691   7.677  1.00  0.00    -0.000 C 
BRANCH  25  26
ATOM     26  C   UNL     1      38.937  58.517   6.700  1.00  0.00    -0.000 C 
BRANCH  26  27
ATOM     27  C   UNL     1      38.921  58.937   5.220  1.00  0.00    -0.000 C 
BRANCH  27  28
ATOM     28  C   UNL     1      39.625  60.277   4.970  1.00  0.00    -0.000 C 
BRANCH  28  29
ATOM     29  C   UNL     1      39.734  60.579   3.470  1.00  0.00    -0.000 C 
BRANCH  29  30
ATOM     30  C   UNL     1      40.480  59.478   2.697  1.00  0.00    -0.000 C 
BRANCH  30  31
ATOM     31  C   UNL     1      39.611  58.762   1.642  1.00  0.00    -0.003 C 
ATOM     32  C   UNL     1      38.166  59.263   1.633  1.00  0.00     0.004 C 
ENDBRANCH  30  31
ENDBRANCH  29  30
ENDBRANCH  28  29
ENDBRANCH  27  28
ENDBRANCH  26  27
ENDBRANCH  25  26
ENDBRANCH  24  25
ENDBRANCH  23  24
ENDBRANCH  22  23
ENDBRANCH  21  22
ENDBRANCH  20  21
ENDBRANCH  19  20
ENDBRANCH  18  19
ENDBRANCH   1  18
TORSDOF 28
ENDMDL
MODEL 9
REMARK VINA RESULT:    -4.847     10.444     13.970
REMARK INTER + INTRA:         -17.615
REMARK INTER:                 -11.860
REMARK INTRA:                  -5.755
REMARK UNBOUND:                -4.835
REMARK SMILES CCCCCCCCCCCCCCCCCCCCCCCCCCCCCC(=O)[O-]
REMARK SMILES IDX 16 1 17 2 18 3 19 4 20 5 21 6 22 7 23 8 24 9 25 10 26 11
REMARK SMILES IDX 27 12 28 13 29 14 30 15 31 16 32 17 15 18 14 19 13 20 12 21
REMARK SMILES IDX 11 22 10 23 9 24 8 25 7 26 6 27 5 28 4 29 3 30 2 31 1 32
REMARK H PARENT
REMARK Flexibility Score: inf
ROOT
ATOM      1  C   UNL     1      42.752  61.817   4.828  1.00  0.00     0.000 C 
ENDROOT
BRANCH   1   2
ATOM      2  C   UNL     1      42.944  60.702   5.872  1.00  0.00     0.000 C 
BRANCH   2   3
ATOM      3  C   UNL     1      42.612  59.309   5.311  1.00  0.00     0.000 C 
BRANCH   3   4
ATOM      4  C   UNL     1      42.716  58.200   6.369  1.00  0.00     0.000 C 
BRANCH   4   5
ATOM      5  C   UNL     1      43.670  57.089   5.905  1.00  0.00     0.000 C 
BRANCH   5   6
ATOM      6  C   UNL     1      42.936  55.790   5.522  1.00  0.00     0.000 C 
BRANCH   6   7
ATOM      7  C   UNL     1      41.404  55.839   5.657  1.00  0.00     0.000 C 
BRANCH   7   8
ATOM      8  C   UNL     1      40.681  55.127   4.501  1.00  0.00     0.000 C 
BRANCH   8   9
ATOM      9  C   UNL     1      40.786  55.887   3.167  1.00  0.00     0.000 C 
BRANCH   9  10
ATOM     10  C   UNL     1      41.875  55.379   2.200  1.00  0.00     0.000 C 
BRANCH  10  11
ATOM     11  C   UNL     1      42.523  56.459   1.316  1.00  0.00     0.000 C 
BRANCH  11  12
ATOM     12  C   UNL     1      42.363  57.876   1.892  1.00  0.00     0.000 C 
BRANCH  12  13
ATOM     13  C   UNL     1      43.706  58.620   2.035  1.00  0.00     0.006 C 
BRANCH  13  14
ATOM     14  C   UNL     1      43.684  60.057   1.485  1.00  0.00     0.053 C 
BRANCH  14  15
ATOM     15  C   UNL     1      44.630  60.246   0.340  1.00  0.00     0.041 C 
ATOM     16  O   UNL     1      45.106  61.387   0.093  1.00  0.00    -0.550 OA
ATOM     17  O   UNL     1      45.004  59.162  -0.443  1.00  0.00    -0.550 OA
ENDBRANCH  14  15
ENDBRANCH  13  14
ENDBRANCH  12  13
ENDBRANCH  11  12
ENDBRANCH  10  11
ENDBRANCH   9  10
ENDBRANCH   8   9
ENDBRANCH   7   8
ENDBRANCH   6   7
ENDBRANCH   5   6
ENDBRANCH   4   5
ENDBRANCH   3   4
ENDBRANCH   2   3
ENDBRANCH   1   2
BRANCH   1  18
ATOM     18  C   UNL     1      41.289  62.279   4.704  1.00  0.00     0.000 C 
BRANCH  18  19
ATOM     19  C   UNL     1      41.029  63.748   5.094  1.00  0.00     0.000 C 
BRANCH  19  20
ATOM     20  C   UNL     1      42.083  64.380   6.025  1.00  0.00     0.000 C 
BRANCH  20  21
ATOM     21  C   UNL     1      41.654  64.530   7.496  1.00  0.00     0.000 C 
BRANCH  21  22
ATOM     22  C   UNL     1      40.129  64.471   7.686  1.00  0.00     0.000 C 
BRANCH  22  23
ATOM     23  C   UNL     1      39.692  63.305   8.593  1.00  0.00     0.000 C 
BRANCH  23  24
ATOM     24  C   UNL     1      40.531  62.025   8.441  1.00  0.00    -0.000 C 
BRANCH  24  25
ATOM     25  C   UNL     1      39.769  60.892   7.730  1.00  0.00    -0.000 C 
BRANCH  25  26
ATOM     26  C   UNL     1      40.130  59.503   8.296  1.00  0.00    -0.000 C 
BRANCH  26  27
ATOM     27  C   UNL     1      39.106  58.407   7.948  1.00  0.00    -0.000 C 
BRANCH  27  28
ATOM     28  C   UNL     1      38.200  58.788   6.770  1.00  0.00    -0.000 C 
BRANCH  28  29
ATOM     29  C   UNL     1      38.151  57.671   5.719  1.00  0.00    -0.000 C 
BRANCH  29  30
ATOM     30  C   UNL     1      38.163  58.212   4.280  1.00  0.00    -0.000 C 
BRANCH  30  31
ATOM     31  C   UNL     1      39.289  59.233   4.009  1.00  0.00    -0.003 C 
ATOM     32  C   UNL     1      39.075  60.011   2.709  1.00  0.00     0.004 C 
ENDBRANCH  30  31
ENDBRANCH  29  30
ENDBRANCH  28  29
ENDBRANCH  27  28
ENDBRANCH  26  27
ENDBRANCH  25  26
ENDBRANCH  24  25
ENDBRANCH  23  24
ENDBRANCH  22  23
ENDBRANCH  21  22
ENDBRANCH  20  21
ENDBRANCH  19  20
ENDBRANCH  18  19
ENDBRANCH   1  18
TORSDOF 28
ENDMDL
