MODEL 1
REMARK VINA RESULT:    -2.660      0.000      0.000
REMARK INTER + INTRA:          -3.499
REMARK INTER:                  -3.205
REMARK INTRA:                  -0.294
REMARK UNBOUND:                -0.294
REMARK SMILES NC(=O)C[C@@H]([NH3+])C(=O)[O-]
REMARK SMILES IDX 4 1 5 2 6 3 7 7 8 8 9 9 2 10 3 11 1 12
REMARK H PARENT 6 4 6 5 6 6 1 13 1 14
REMARK Flexibility Score: inf
ROOT
ATOM      1  C   UNL     1      -3.993   5.201   0.298  1.00  0.00     0.171 C 
ENDROOT
BRANCH   1   2
ATOM      2  C   UNL     1      -4.243   3.687   0.449  1.00  0.00     0.237 C 
BRANCH   2   3
ATOM      3  N   UNL     1      -5.156   3.187  -0.587  1.00  0.00    -0.350 N 
ATOM      4  H   UNL     1      -4.925   2.192  -0.815  1.00  0.00     0.345 HD
ATOM      5  H   UNL     1      -6.142   3.215  -0.240  1.00  0.00     0.345 HD
ATOM      6  H   UNL     1      -5.082   3.764  -1.457  1.00  0.00     0.345 HD
ENDBRANCH   2   3
BRANCH   2   7
ATOM      7  C   UNL     1      -2.932   2.948   0.383  1.00  0.00     0.100 C 
ATOM      8  O   UNL     1      -1.898   3.531  -0.036  1.00  0.00    -0.544 OA
ATOM      9  O   UNL     1      -2.860   1.614   0.766  1.00  0.00    -0.544 OA
ENDBRANCH   2   7
ENDBRANCH   1   2
BRANCH   1  10
ATOM     10  C   UNL     1      -5.250   5.937  -0.063  1.00  0.00     0.223 C 
ATOM     11  O   UNL     1      -5.517   6.167  -1.273  1.00  0.00    -0.275 OA
ATOM     12  N   UNL     1      -6.159   6.354   0.955  1.00  0.00    -0.369 N 
ATOM     13  H   UNL     1      -5.956   6.162   1.961  1.00  0.00     0.159 HD
ATOM     14  H   UNL     1      -7.039   6.856   0.702  1.00  0.00     0.159 HD
ENDBRANCH   1  10
TORSDOF 4
ENDMDL
MODEL 2
REMARK VINA RESULT:    -2.645     11.208     12.190
REMARK INTER + INTRA:          -3.480
REMARK INTER:                  -3.056
REMARK INTRA:                  -0.424
REMARK UNBOUND:                -0.294
REMARK SMILES NC(=O)C[C@@H]([NH3+])C(=O)[O-]
REMARK SMILES IDX 4 1 5 2 6 3 7 7 8 8 9 9 2 10 3 11 1 12
REMARK H PARENT 6 4 6 5 6 6 1 13 1 14
REMARK Flexibility Score: inf
ROOT
ATOM      1  C   UNL     1       5.040  -3.277  -1.879  1.00  0.00     0.171 C 
ENDROOT
BRANCH   1   2
ATOM      2  C   UNL     1       4.886  -1.775  -1.562  1.00  0.00     0.237 C 
BRANCH   2   3
ATOM      3  N   UNL     1       3.770  -1.533  -0.637  1.00  0.00    -0.350 N 
ATOM      4  H   UNL     1       3.755  -2.270   0.104  1.00  0.00     0.345 HD
ATOM      5  H   UNL     1       3.890  -0.607  -0.166  1.00  0.00     0.345 HD
ATOM      6  H   UNL     1       2.856  -1.542  -1.148  1.00  0.00     0.345 HD
ENDBRANCH   2   3
BRANCH   2   7
ATOM      7  C   UNL     1       6.168  -1.248  -0.972  1.00  0.00     0.100 C 
ATOM      8  O   UNL     1       6.929  -0.521  -1.662  1.00  0.00    -0.544 OA
ATOM      9  O   UNL     1       6.527  -1.577   0.329  1.00  0.00    -0.544 OA
ENDBRANCH   2   7
ENDBRANCH   1   2
BRANCH   1  10
ATOM     10  C   UNL     1       4.752  -4.129  -0.677  1.00  0.00     0.223 C 
ATOM     11  O   UNL     1       3.559  -4.383  -0.359  1.00  0.00    -0.275 OA
ATOM     12  N   UNL     1       5.821  -4.678   0.091  1.00  0.00    -0.369 N 
ATOM     13  H   UNL     1       6.815  -4.485  -0.166  1.00  0.00     0.159 HD
ATOM     14  H   UNL     1       5.620  -5.281   0.920  1.00  0.00     0.159 HD
ENDBRANCH   1  10
TORSDOF 4
ENDMDL
MODEL 3
REMARK VINA RESULT:    -2.616      9.174     10.959
REMARK INTER + INTRA:          -3.446
REMARK INTER:                  -3.175
REMARK INTRA:                  -0.271
REMARK UNBOUND:                -0.294
REMARK SMILES NC(=O)C[C@@H]([NH3+])C(=O)[O-]
REMARK SMILES IDX 4 1 5 2 6 3 7 7 8 8 9 9 2 10 3 11 1 12
REMARK H PARENT 6 4 6 5 6 6 1 13 1 14
REMARK Flexibility Score: inf
ROOT
ATOM      1  C   UNL     1       5.317  -0.940  -1.673  1.00  0.00     0.171 C 
ENDROOT
BRANCH   1   2
ATOM      2  C   UNL     1       3.826  -1.246  -1.922  1.00  0.00     0.237 C 
BRANCH   2   3
ATOM      3  N   UNL     1       3.133  -1.593  -0.674  1.00  0.00    -0.350 N 
ATOM      4  H   UNL     1       3.711  -1.301   0.147  1.00  0.00     0.345 HD
ATOM      5  H   UNL     1       2.219  -1.087  -0.618  1.00  0.00     0.345 HD
ATOM      6  H   UNL     1       2.958  -2.624  -0.620  1.00  0.00     0.345 HD
ENDBRANCH   2   3
BRANCH   2   7
ATOM      7  C   UNL     1       3.165  -0.054  -2.564  1.00  0.00     0.100 C 
ATOM      8  O   UNL     1       2.031  -0.170  -3.097  1.00  0.00    -0.544 OA
ATOM      9  O   UNL     1       3.811   1.176  -2.589  1.00  0.00    -0.544 OA
ENDBRANCH   2   7
ENDBRANCH   1   2
BRANCH   1  10
ATOM     10  C   UNL     1       5.881  -1.791  -0.573  1.00  0.00     0.223 C 
ATOM     11  O   UNL     1       5.618  -3.023  -0.535  1.00  0.00    -0.275 OA
ATOM     12  N   UNL     1       6.736  -1.218   0.415  1.00  0.00    -0.369 N 
ATOM     13  H   UNL     1       6.972  -0.202   0.390  1.00  0.00     0.159 HD
ATOM     14  H   UNL     1       7.138  -1.813   1.174  1.00  0.00     0.159 HD
ENDBRANCH   1  10
TORSDOF 4
ENDMDL
MODEL 4
REMARK VINA RESULT:    -2.611      9.983     11.582
REMARK INTER + INTRA:          -3.440
REMARK INTER:                  -2.971
REMARK INTRA:                  -0.469
REMARK UNBOUND:                -0.294
REMARK SMILES NC(=O)C[C@@H]([NH3+])C(=O)[O-]
REMARK SMILES IDX 4 1 5 2 6 3 7 7 8 8 9 9 2 10 3 11 1 12
REMARK H PARENT 6 4 6 5 6 6 1 13 1 14
REMARK Flexibility Score: inf
ROOT
ATOM      1  C   UNL     1       4.449  -2.789  -2.047  1.00  0.00     0.171 C 
ENDROOT
BRANCH   1   2
ATOM      2  C   UNL     1       5.501  -3.359  -1.074  1.00  0.00     0.237 C 
BRANCH   2   3
ATOM      3  N   UNL     1       5.931  -2.350  -0.097  1.00  0.00    -0.350 N 
ATOM      4  H   UNL     1       6.465  -1.592  -0.580  1.00  0.00     0.345 HD
ATOM      5  H   UNL     1       5.097  -1.914   0.359  1.00  0.00     0.345 HD
ATOM      6  H   UNL     1       6.538  -2.781   0.640  1.00  0.00     0.345 HD
ENDBRANCH   2   3
BRANCH   2   7
ATOM      7  C   UNL     1       4.933  -4.559  -0.361  1.00  0.00     0.100 C 
ATOM      8  O   UNL     1       3.694  -4.645  -0.158  1.00  0.00    -0.544 OA
ATOM      9  O   UNL     1       5.775  -5.567   0.092  1.00  0.00    -0.544 OA
ENDBRANCH   2   7
ENDBRANCH   1   2
BRANCH   1  10
ATOM     10  C   UNL     1       3.750  -1.593  -1.470  1.00  0.00     0.223 C 
ATOM     11  O   UNL     1       4.189  -0.436  -1.705  1.00  0.00    -0.275 OA
ATOM     12  N   UNL     1       2.574  -1.757  -0.679  1.00  0.00    -0.369 N 
ATOM     13  H   UNL     1       2.192  -2.709  -0.485  1.00  0.00     0.159 HD
ATOM     14  H   UNL     1       2.081  -0.924  -0.287  1.00  0.00     0.159 HD
ENDBRANCH   1  10
TORSDOF 4
ENDMDL
MODEL 5
REMARK VINA RESULT:    -2.595     11.591     12.796
REMARK INTER + INTRA:          -3.420
REMARK INTER:                  -2.938
REMARK INTRA:                  -0.482
REMARK UNBOUND:                -0.294
REMARK SMILES NC(=O)C[C@@H]([NH3+])C(=O)[O-]
REMARK SMILES IDX 4 1 5 2 6 3 7 7 8 8 9 9 2 10 3 11 1 12
REMARK H PARENT 6 4 6 5 6 6 1 13 1 14
REMARK Flexibility Score: inf
ROOT
ATOM      1  C   UNL     1       6.021  -3.051  -1.864  1.00  0.00     0.171 C 
ENDROOT
BRANCH   1   2
ATOM      2  C   UNL     1       6.636  -3.983  -0.801  1.00  0.00     0.237 C 
BRANCH   2   3
ATOM      3  N   UNL     1       7.125  -3.226   0.359  1.00  0.00    -0.350 N 
ATOM      4  H   UNL     1       6.668  -3.576   1.232  1.00  0.00     0.345 HD
ATOM      5  H   UNL     1       8.157  -3.357   0.464  1.00  0.00     0.345 HD
ATOM      6  H   UNL     1       6.918  -2.205   0.250  1.00  0.00     0.345 HD
ENDBRANCH   2   3
BRANCH   2   7
ATOM      7  C   UNL     1       5.611  -4.996  -0.361  1.00  0.00     0.100 C 
ATOM      8  O   UNL     1       5.972  -6.151  -0.013  1.00  0.00    -0.544 OA
ATOM      9  O   UNL     1       4.261  -4.668  -0.354  1.00  0.00    -0.544 OA
ENDBRANCH   2   7
ENDBRANCH   1   2
BRANCH   1  10
ATOM     10  C   UNL     1       5.632  -1.724  -1.281  1.00  0.00     0.223 C 
ATOM     11  O   UNL     1       6.492  -0.809  -1.176  1.00  0.00    -0.275 OA
ATOM     12  N   UNL     1       4.287  -1.483  -0.870  1.00  0.00    -0.369 N 
ATOM     13  H   UNL     1       3.561  -2.228  -0.960  1.00  0.00     0.159 HD
ATOM     14  H   UNL     1       4.015  -0.555  -0.474  1.00  0.00     0.159 HD
ENDBRANCH   1  10
TORSDOF 4
ENDMDL
MODEL 6
REMARK VINA RESULT:    -2.549     12.037     13.207
REMARK INTER + INTRA:          -3.364
REMARK INTER:                  -2.876
REMARK INTRA:                  -0.488
REMARK UNBOUND:                -0.294
REMARK SMILES NC(=O)C[C@@H]([NH3+])C(=O)[O-]
REMARK SMILES IDX 4 1 5 2 6 3 7 7 8 8 9 9 2 10 3 11 1 12
REMARK H PARENT 6 4 6 5 6 6 1 13 1 14
REMARK Flexibility Score: inf
ROOT
ATOM      1  C   UNL     1       6.793  -4.269  -0.375  1.00  0.00     0.171 C 
ENDROOT
BRANCH   1   2
ATOM      2  C   UNL     1       6.919  -2.978  -1.209  1.00  0.00     0.237 C 
BRANCH   2   3
ATOM      3  N   UNL     1       6.229  -3.103  -2.500  1.00  0.00    -0.350 N 
ATOM      4  H   UNL     1       6.092  -2.157  -2.924  1.00  0.00     0.345 HD
ATOM      5  H   UNL     1       6.807  -3.670  -3.162  1.00  0.00     0.345 HD
ATOM      6  H   UNL     1       5.296  -3.563  -2.380  1.00  0.00     0.345 HD
ENDBRANCH   2   3
BRANCH   2   7
ATOM      7  C   UNL     1       6.355  -1.817  -0.433  1.00  0.00     0.100 C 
ATOM      8  O   UNL     1       7.124  -1.049   0.203  1.00  0.00    -0.544 OA
ATOM      9  O   UNL     1       4.984  -1.597  -0.399  1.00  0.00    -0.544 OA
ENDBRANCH   2   7
ENDBRANCH   1   2
BRANCH   1  10
ATOM     10  C   UNL     1       5.503  -4.985  -0.653  1.00  0.00     0.223 C 
ATOM     11  O   UNL     1       5.483  -5.947  -1.467  1.00  0.00    -0.275 OA
ATOM     12  N   UNL     1       4.305  -4.601   0.019  1.00  0.00    -0.369 N 
ATOM     13  H   UNL     1       4.308  -3.813   0.704  1.00  0.00     0.159 HD
ATOM     14  H   UNL     1       3.410  -5.108  -0.166  1.00  0.00     0.159 HD
ENDBRANCH   1  10
TORSDOF 4
ENDMDL
MODEL 7
REMARK VINA RESULT:    -2.507     11.994     13.423
REMARK INTER + INTRA:          -3.314
REMARK INTER:                  -3.034
REMARK INTRA:                  -0.281
REMARK UNBOUND:                -0.294
REMARK SMILES NC(=O)C[C@@H]([NH3+])C(=O)[O-]
REMARK SMILES IDX 4 1 5 2 6 3 7 7 8 8 9 9 2 10 3 11 1 12
REMARK H PARENT 6 4 6 5 6 6 1 13 1 14
REMARK Flexibility Score: inf
ROOT
ATOM      1  C   UNL     1       6.586  -3.148  -1.146  1.00  0.00     0.171 C 
ENDROOT
BRANCH   1   2
ATOM      2  C   UNL     1       6.351  -4.473  -0.393  1.00  0.00     0.237 C 
BRANCH   2   3
ATOM      3  N   UNL     1       4.944  -4.624   0.000  1.00  0.00    -0.350 N 
ATOM      4  H   UNL     1       4.504  -3.683   0.119  1.00  0.00     0.345 HD
ATOM      5  H   UNL     1       4.416  -5.132  -0.747  1.00  0.00     0.345 HD
ATOM      6  H   UNL     1       4.864  -5.156   0.898  1.00  0.00     0.345 HD
ENDBRANCH   2   3
BRANCH   2   7
ATOM      7  C   UNL     1       6.772  -5.630  -1.260  1.00  0.00     0.100 C 
ATOM      8  O   UNL     1       7.104  -5.434  -2.459  1.00  0.00    -0.544 OA
ATOM      9  O   UNL     1       6.780  -6.922  -0.749  1.00  0.00    -0.544 OA
ENDBRANCH   2   7
ENDBRANCH   1   2
BRANCH   1  10
ATOM     10  C   UNL     1       6.070  -1.970  -0.372  1.00  0.00     0.223 C 
ATOM     11  O   UNL     1       4.861  -1.631  -0.478  1.00  0.00    -0.275 OA
ATOM     12  N   UNL     1       6.933  -1.250   0.507  1.00  0.00    -0.369 N 
ATOM     13  H   UNL     1       7.934  -1.526   0.614  1.00  0.00     0.159 HD
ATOM     14  H   UNL     1       6.570  -0.438   1.054  1.00  0.00     0.159 HD
ENDBRANCH   1  10
TORSDOF 4
ENDMDL
MODEL 8
REMARK VINA RESULT:    -2.504     10.461     11.959
REMARK INTER + INTRA:          -3.311
REMARK INTER:                  -2.849
REMARK INTRA:                  -0.462
REMARK UNBOUND:                -0.294
REMARK SMILES NC(=O)C[C@@H]([NH3+])C(=O)[O-]
REMARK SMILES IDX 4 1 5 2 6 3 7 7 8 8 9 9 2 10 3 11 1 12
REMARK H PARENT 6 4 6 5 6 6 1 13 1 14
REMARK Flexibility Score: inf
ROOT
ATOM      1  C   UNL     1       5.512  -2.920  -1.613  1.00  0.00     0.171 C 
ENDROOT
BRANCH   1   2
ATOM      2  C   UNL     1       4.082  -3.375  -1.255  1.00  0.00     0.237 C 
BRANCH   2   3
ATOM      3  N   UNL     1       4.078  -4.263  -0.085  1.00  0.00    -0.350 N 
ATOM      4  H   UNL     1       3.100  -4.563   0.131  1.00  0.00     0.345 HD
ATOM      5  H   UNL     1       4.640  -5.123  -0.285  1.00  0.00     0.345 HD
ATOM      6  H   UNL     1       4.481  -3.778   0.751  1.00  0.00     0.345 HD
ENDBRANCH   2   3
BRANCH   2   7
ATOM      7  C   UNL     1       3.219  -2.169  -0.990  1.00  0.00     0.100 C 
ATOM      8  O   UNL     1       2.055  -2.313  -0.531  1.00  0.00    -0.544 OA
ATOM      9  O   UNL     1       3.694  -0.893  -1.268  1.00  0.00    -0.544 OA
ENDBRANCH   2   7
ENDBRANCH   1   2
BRANCH   1  10
ATOM     10  C   UNL     1       6.385  -2.828  -0.396  1.00  0.00     0.223 C 
ATOM     11  O   UNL     1       7.124  -3.798  -0.079  1.00  0.00    -0.275 OA
ATOM     12  N   UNL     1       6.405  -1.637   0.390  1.00  0.00    -0.369 N 
ATOM     13  H   UNL     1       5.807  -0.821   0.134  1.00  0.00     0.159 HD
ATOM     14  H   UNL     1       7.022  -1.570   1.230  1.00  0.00     0.159 HD
ENDBRANCH   1  10
TORSDOF 4
ENDMDL
