MODEL 1
REMARK VINA RESULT:     2.686      0.000      0.000
REMARK INTER + INTRA:           4.814
REMARK INTER:                   3.628
REMARK INTRA:                   1.186
REMARK UNBOUND:                 1.186
REMARK SMILES COc1ccc(-c2cc(=O)c3c(OC)c(OC)c(OC)c(OC)c3o2)cc1
REMARK SMILES IDX 7 1 8 2 9 3 10 4 11 5 24 6 25 7 21 8 18 9 15 10 12 11 6 12
REMARK SMILES IDX 3 13 4 14 27 15 5 16 26 17 2 18 1 19 22 20 23 21 13 22 14 23
REMARK SMILES IDX 19 24 20 25 16 26 17 27
REMARK H PARENT
REMARK Flexibility Score: inf
ROOT
ATOM      1  C   UNL     1      -0.880   5.487  34.246  1.00  0.00     0.138 A 
ATOM      2  C   UNL     1      -1.712   6.401  33.591  1.00  0.00     0.100 A 
ATOM      3  C   UNL     1      -1.361   7.748  33.566  1.00  0.00     0.197 A 
ATOM      4  O   UNL     1      -2.125   8.557  32.974  1.00  0.00    -0.289 OA
ATOM      5  C   UNL     1      -0.170   8.176  34.197  1.00  0.00     0.115 A 
ATOM      6  C   UNL     1       0.633   7.189  34.822  1.00  0.00     0.188 A 
ATOM      7  O   UNL     1       0.243   5.916  34.812  1.00  0.00    -0.452 OA
ATOM      8  C   UNL     1       1.838   7.555  35.459  1.00  0.00     0.209 A 
ATOM      9  C   UNL     1       2.238   8.901  35.470  1.00  0.00     0.211 A 
ATOM     10  C   UNL     1       1.417   9.906  34.906  1.00  0.00     0.208 A 
ATOM     11  C   UNL     1       0.234   9.536  34.221  1.00  0.00     0.179 A 
ENDROOT
BRANCH   1  12
ATOM     12  C   UNL     1      -1.219   4.045  34.318  1.00  0.00     0.018 A 
ATOM     13  C   UNL     1      -1.825   1.288  34.415  1.00  0.00     0.118 A 
ATOM     14  C   UNL     1      -1.769   1.962  33.181  1.00  0.00     0.047 A 
ATOM     15  C   UNL     1      -1.573   2.000  35.591  1.00  0.00     0.047 A 
ATOM     16  C   UNL     1      -1.467   3.327  33.137  1.00  0.00     0.016 A 
ATOM     17  C   UNL     1      -1.270   3.363  35.548  1.00  0.00     0.016 A 
BRANCH  13  18
ATOM     18  O   UNL     1      -2.124  -0.079  34.514  1.00  0.00    -0.497 OA
ATOM     19  C   UNL     1      -1.808  -0.891  35.640  1.00  0.00     0.278 C 
ENDBRANCH  13  18
ENDBRANCH   1  12
BRANCH   8  20
ATOM     20  O   UNL     1       2.675   6.639  36.125  1.00  0.00    -0.490 OA
ATOM     21  C   UNL     1       2.823   5.254  35.839  1.00  0.00     0.278 C 
ENDBRANCH   8  20
BRANCH  11  22
ATOM     22  O   UNL     1      -0.577  10.482  33.560  1.00  0.00    -0.492 OA
ATOM     23  C   UNL     1      -0.225  11.241  32.406  1.00  0.00     0.278 C 
ENDBRANCH  11  22
BRANCH   9  24
ATOM     24  O   UNL     1       3.463   9.232  36.055  1.00  0.00    -0.490 OA
ATOM     25  C   UNL     1       4.306  10.243  35.512  1.00  0.00     0.279 C 
ENDBRANCH   9  24
BRANCH  10  26
ATOM     26  O   UNL     1       1.723  11.276  35.013  1.00  0.00    -0.490 OA
ATOM     27  C   UNL     1       2.389  12.088  34.052  1.00  0.00     0.278 C 
ENDBRANCH  10  26
TORSDOF 6
ENDMDL
