MODEL 1
REMARK VINA RESULT:    -3.535      0.000      0.000
REMARK INTER + INTRA:          -3.836
REMARK INTER:                  -3.741
REMARK INTRA:                  -0.095
REMARK UNBOUND:                -0.095
REMARK SMILES C=C(C)[C@@H]1CC=C(C)C(=O)C1
REMARK SMILES IDX 8 1 7 2 6 3 5 4 4 5 11 6 9 7 10 8 2 9 1 10 3 11
REMARK H PARENT
REMARK Flexibility Score: inf
ROOT
ATOM      1  C   UNL     1      -1.015  -9.220 -15.124  1.00  0.00     0.048 C 
ATOM      2  C   UNL     1      -1.895  -8.026 -15.373  1.00  0.00    -0.012 C 
ATOM      3  C   UNL     1      -2.758  -8.034 -16.402  1.00  0.00    -0.019 C 
ATOM      4  C   UNL     1      -3.675  -6.874 -16.685  1.00  0.00     0.036 C 
ATOM      5  C   UNL     1      -3.017  -5.538 -16.291  1.00  0.00     0.025 C 
ATOM      6  C   UNL     1      -2.566  -5.580 -14.819  1.00  0.00     0.089 C 
ATOM      7  C   UNL     1      -1.722  -6.796 -14.559  1.00  0.00     0.158 C 
ATOM      8  O   UNL     1      -0.886  -6.774 -13.615  1.00  0.00    -0.295 OA
ENDROOT
BRANCH   5   9
ATOM      9  C   UNL     1      -3.938  -4.355 -16.563  1.00  0.00    -0.077 C 
ATOM     10  C   UNL     1      -4.654  -4.272 -17.698  1.00  0.00     0.008 C 
ATOM     11  C   UNL     1      -4.060  -3.245 -15.551  1.00  0.00     0.039 C 
ENDBRANCH   5   9
TORSDOF 1
ENDMDL
MODEL 2
REMARK VINA RESULT:    -3.529      1.941      4.639
REMARK INTER + INTRA:          -3.830
REMARK INTER:                  -3.734
REMARK INTRA:                  -0.096
REMARK UNBOUND:                -0.095
REMARK SMILES C=C(C)[C@@H]1CC=C(C)C(=O)C1
REMARK SMILES IDX 8 1 7 2 6 3 5 4 4 5 11 6 9 7 10 8 2 9 1 10 3 11
REMARK H PARENT
REMARK Flexibility Score: inf
ROOT
ATOM      1  C   UNL     1      -3.359  -2.875 -15.127  1.00  0.00     0.048 C 
ATOM      2  C   UNL     1      -3.088  -4.342 -15.320  1.00  0.00    -0.012 C 
ATOM      3  C   UNL     1      -2.377  -5.017 -14.402  1.00  0.00    -0.019 C 
ATOM      4  C   UNL     1      -2.093  -6.490 -14.537  1.00  0.00     0.036 C 
ATOM      5  C   UNL     1      -1.953  -6.895 -16.016  1.00  0.00     0.025 C 
ATOM      6  C   UNL     1      -3.204  -6.467 -16.807  1.00  0.00     0.089 C 
ATOM      7  C   UNL     1      -3.500  -5.011 -16.580  1.00  0.00     0.158 C 
ATOM      8  O   UNL     1      -4.137  -4.369 -17.459  1.00  0.00    -0.295 OA
ENDROOT
BRANCH   5   9
ATOM      9  C   UNL     1      -1.676  -8.385 -16.168  1.00  0.00    -0.077 C 
ATOM     10  C   UNL     1      -1.272  -9.132 -15.125  1.00  0.00     0.008 C 
ATOM     11  C   UNL     1      -1.850  -9.053 -17.508  1.00  0.00     0.039 C 
ENDBRANCH   5   9
TORSDOF 1
ENDMDL
MODEL 3
REMARK VINA RESULT:    -3.522      1.774      4.429
REMARK INTER + INTRA:          -3.822
REMARK INTER:                  -3.725
REMARK INTRA:                  -0.097
REMARK UNBOUND:                -0.095
REMARK SMILES C=C(C)[C@@H]1CC=C(C)C(=O)C1
REMARK SMILES IDX 8 1 7 2 6 3 5 4 4 5 11 6 9 7 10 8 2 9 1 10 3 11
REMARK H PARENT
REMARK Flexibility Score: inf
ROOT
ATOM      1  C   UNL     1      -5.245  -3.406 -17.509  1.00  0.00     0.048 C 
ATOM      2  C   UNL     1      -4.225  -4.340 -16.919  1.00  0.00    -0.012 C 
ATOM      3  C   UNL     1      -4.011  -5.541 -17.484  1.00  0.00    -0.019 C 
ATOM      4  C   UNL     1      -2.989  -6.506 -16.945  1.00  0.00     0.036 C 
ATOM      5  C   UNL     1      -2.861  -6.382 -15.415  1.00  0.00     0.025 C 
ATOM      6  C   UNL     1      -2.552  -4.925 -15.022  1.00  0.00     0.089 C 
ATOM      7  C   UNL     1      -3.546  -3.987 -15.646  1.00  0.00     0.158 C 
ATOM      8  O   UNL     1      -3.773  -2.875 -15.095  1.00  0.00    -0.295 OA
ENDROOT
BRANCH   5   9
ATOM      9  C   UNL     1      -1.823  -7.347 -14.856  1.00  0.00    -0.077 C 
ATOM     10  C   UNL     1      -0.879  -6.935 -13.991  1.00  0.00     0.008 C 
ATOM     11  C   UNL     1      -1.836  -8.795 -15.272  1.00  0.00     0.039 C 
ENDBRANCH   5   9
TORSDOF 1
ENDMDL
MODEL 4
REMARK VINA RESULT:    -3.492      1.537      2.361
REMARK INTER + INTRA:          -3.791
REMARK INTER:                  -3.695
REMARK INTRA:                  -0.096
REMARK UNBOUND:                -0.095
REMARK SMILES C=C(C)[C@@H]1CC=C(C)C(=O)C1
REMARK SMILES IDX 8 1 7 2 6 3 5 4 4 5 11 6 9 7 10 8 2 9 1 10 3 11
REMARK H PARENT
REMARK Flexibility Score: inf
ROOT
ATOM      1  C   UNL     1      -1.310  -9.271 -14.760  1.00  0.00     0.048 C 
ATOM      2  C   UNL     1      -1.732  -7.862 -15.073  1.00  0.00    -0.012 C 
ATOM      3  C   UNL     1      -1.388  -6.861 -14.245  1.00  0.00    -0.019 C 
ATOM      4  C   UNL     1      -1.769  -5.431 -14.521  1.00  0.00     0.036 C 
ATOM      5  C   UNL     1      -3.124  -5.348 -15.248  1.00  0.00     0.025 C 
ATOM      6  C   UNL     1      -3.095  -6.201 -16.530  1.00  0.00     0.089 C 
ATOM      7  C   UNL     1      -2.631  -7.598 -16.225  1.00  0.00     0.158 C 
ATOM      8  O   UNL     1      -2.985  -8.542 -16.983  1.00  0.00    -0.295 OA
ENDROOT
BRANCH   5   9
ATOM      9  C   UNL     1      -3.518  -3.906 -15.542  1.00  0.00    -0.077 C 
ATOM     10  C   UNL     1      -2.763  -2.875 -15.125  1.00  0.00     0.008 C 
ATOM     11  C   UNL     1      -4.779  -3.609 -16.314  1.00  0.00     0.039 C 
ENDBRANCH   5   9
TORSDOF 1
ENDMDL
MODEL 5
REMARK VINA RESULT:    -3.445      1.385      3.925
REMARK INTER + INTRA:          -3.741
REMARK INTER:                  -3.646
REMARK INTRA:                  -0.095
REMARK UNBOUND:                -0.095
REMARK SMILES C=C(C)[C@@H]1CC=C(C)C(=O)C1
REMARK SMILES IDX 8 1 7 2 6 3 5 4 4 5 11 6 9 7 10 8 2 9 1 10 3 11
REMARK H PARENT
REMARK Flexibility Score: inf
ROOT
ATOM      1  C   UNL     1      -3.140  -2.955 -15.057  1.00  0.00     0.048 C 
ATOM      2  C   UNL     1      -3.017  -4.293 -15.732  1.00  0.00    -0.012 C 
ATOM      3  C   UNL     1      -3.517  -4.468 -16.966  1.00  0.00    -0.019 C 
ATOM      4  C   UNL     1      -3.405  -5.781 -17.695  1.00  0.00     0.036 C 
ATOM      5  C   UNL     1      -3.446  -6.967 -16.712  1.00  0.00     0.025 C 
ATOM      6  C   UNL     1      -2.359  -6.803 -15.633  1.00  0.00     0.089 C 
ATOM      7  C   UNL     1      -2.454  -5.449 -14.988  1.00  0.00     0.158 C 
ATOM      8  O   UNL     1      -2.017  -5.295 -13.815  1.00  0.00    -0.295 OA
ENDROOT
BRANCH   5   9
ATOM      9  C   UNL     1      -3.323  -8.302 -17.434  1.00  0.00    -0.077 C 
ATOM     10  C   UNL     1      -2.152  -8.961 -17.494  1.00  0.00     0.008 C 
ATOM     11  C   UNL     1      -4.527  -8.912 -18.104  1.00  0.00     0.039 C 
ENDBRANCH   5   9
TORSDOF 1
ENDMDL
MODEL 6
REMARK VINA RESULT:    -3.354     16.600     17.348
REMARK INTER + INTRA:          -3.644
REMARK INTER:                  -3.547
REMARK INTRA:                  -0.097
REMARK UNBOUND:                -0.095
REMARK SMILES C=C(C)[C@@H]1CC=C(C)C(=O)C1
REMARK SMILES IDX 8 1 7 2 6 3 5 4 4 5 11 6 9 7 10 8 2 9 1 10 3 11
REMARK H PARENT
REMARK Flexibility Score: inf
ROOT
ATOM      1  C   UNL     1      -1.678  -3.906   1.719  1.00  0.00     0.048 C 
ATOM      2  C   UNL     1      -1.999  -5.369   1.589  1.00  0.00    -0.012 C 
ATOM      3  C   UNL     1      -1.035  -6.285   1.783  1.00  0.00    -0.019 C 
ATOM      4  C   UNL     1      -1.307  -7.763   1.684  1.00  0.00     0.036 C 
ATOM      5  C   UNL     1      -2.399  -8.057   0.638  1.00  0.00     0.025 C 
ATOM      6  C   UNL     1      -3.672  -7.250   0.954  1.00  0.00     0.089 C 
ATOM      7  C   UNL     1      -3.345  -5.793   1.127  1.00  0.00     0.158 C 
ATOM      8  O   UNL     1      -4.240  -4.932   0.909  1.00  0.00    -0.295 OA
ENDROOT
BRANCH   5   9
ATOM      9  C   UNL     1      -2.691  -9.549   0.534  1.00  0.00    -0.077 C 
ATOM     10  C   UNL     1      -3.943 -10.026   0.649  1.00  0.00     0.008 C 
ATOM     11  C   UNL     1      -1.566 -10.524   0.299  1.00  0.00     0.039 C 
ENDBRANCH   5   9
TORSDOF 1
ENDMDL
MODEL 7
REMARK VINA RESULT:    -3.222     16.074     16.847
REMARK INTER + INTRA:          -3.504
REMARK INTER:                  -3.411
REMARK INTRA:                  -0.093
REMARK UNBOUND:                -0.095
REMARK SMILES C=C(C)[C@@H]1CC=C(C)C(=O)C1
REMARK SMILES IDX 8 1 7 2 6 3 5 4 4 5 11 6 9 7 10 8 2 9 1 10 3 11
REMARK H PARENT
REMARK Flexibility Score: inf
ROOT
ATOM      1  C   UNL     1      -0.979 -10.363   1.155  1.00  0.00     0.048 C 
ATOM      2  C   UNL     1      -1.737  -9.074   0.997  1.00  0.00    -0.012 C 
ATOM      3  C   UNL     1      -1.244  -7.939   1.520  1.00  0.00    -0.019 C 
ATOM      4  C   UNL     1      -1.953  -6.618   1.375  1.00  0.00     0.036 C 
ATOM      5  C   UNL     1      -3.482  -6.810   1.346  1.00  0.00     0.025 C 
ATOM      6  C   UNL     1      -3.873  -7.807   0.240  1.00  0.00     0.089 C 
ATOM      7  C   UNL     1      -3.084  -9.080   0.372  1.00  0.00     0.158 C 
ATOM      8  O   UNL     1      -3.564 -10.152  -0.088  1.00  0.00    -0.295 OA
ENDROOT
BRANCH   5   9
ATOM      9  C   UNL     1      -4.212  -5.482   1.189  1.00  0.00    -0.077 C 
ATOM     10  C   UNL     1      -3.873  -4.606   0.227  1.00  0.00     0.008 C 
ATOM     11  C   UNL     1      -5.340  -5.126   2.123  1.00  0.00     0.039 C 
ENDBRANCH   5   9
TORSDOF 1
ENDMDL
MODEL 8
REMARK VINA RESULT:    -3.126      1.891      3.715
REMARK INTER + INTRA:          -3.403
REMARK INTER:                  -3.312
REMARK INTRA:                  -0.091
REMARK UNBOUND:                -0.095
REMARK SMILES C=C(C)[C@@H]1CC=C(C)C(=O)C1
REMARK SMILES IDX 8 1 7 2 6 3 5 4 4 5 11 6 9 7 10 8 2 9 1 10 3 11
REMARK H PARENT
REMARK Flexibility Score: inf
ROOT
ATOM      1  C   UNL     1      -1.250  -5.427 -12.895  1.00  0.00     0.048 C 
ATOM      2  C   UNL     1      -1.807  -6.296 -13.989  1.00  0.00    -0.012 C 
ATOM      3  C   UNL     1      -1.446  -7.588 -14.064  1.00  0.00    -0.019 C 
ATOM      4  C   UNL     1      -1.987  -8.508 -15.127  1.00  0.00     0.036 C 
ATOM      5  C   UNL     1      -2.257  -7.743 -16.437  1.00  0.00     0.025 C 
ATOM      6  C   UNL     1      -3.187  -6.544 -16.173  1.00  0.00     0.089 C 
ATOM      7  C   UNL     1      -2.654  -5.698 -15.051  1.00  0.00     0.158 C 
ATOM      8  O   UNL     1      -2.964  -4.477 -15.002  1.00  0.00    -0.295 OA
ENDROOT
BRANCH   5   9
ATOM      9  C   UNL     1      -2.815  -8.659 -17.519  1.00  0.00    -0.077 C 
ATOM     10  C   UNL     1      -2.042  -9.578 -18.125  1.00  0.00     0.008 C 
ATOM     11  C   UNL     1      -4.259  -8.547 -17.933  1.00  0.00     0.039 C 
ENDBRANCH   5   9
TORSDOF 1
ENDMDL
MODEL 9
REMARK VINA RESULT:    -2.991     17.022     17.291
REMARK INTER + INTRA:          -3.261
REMARK INTER:                  -3.167
REMARK INTRA:                  -0.094
REMARK UNBOUND:                -0.095
REMARK SMILES C=C(C)[C@@H]1CC=C(C)C(=O)C1
REMARK SMILES IDX 8 1 7 2 6 3 5 4 4 5 11 6 9 7 10 8 2 9 1 10 3 11
REMARK H PARENT
REMARK Flexibility Score: inf
ROOT
ATOM      1  C   UNL     1      -2.972 -10.455   1.066  1.00  0.00     0.048 C 
ATOM      2  C   UNL     1      -3.147  -8.996   1.387  1.00  0.00    -0.012 C 
ATOM      3  C   UNL     1      -4.359  -8.526   1.726  1.00  0.00    -0.019 C 
ATOM      4  C   UNL     1      -4.585  -7.078   2.074  1.00  0.00     0.036 C 
ATOM      5  C   UNL     1      -3.639  -6.161   1.277  1.00  0.00     0.025 C 
ATOM      6  C   UNL     1      -2.175  -6.590   1.489  1.00  0.00     0.089 C 
ATOM      7  C   UNL     1      -2.009  -8.058   1.210  1.00  0.00     0.158 C 
ATOM      8  O   UNL     1      -0.879  -8.493   0.856  1.00  0.00    -0.295 OA
ENDROOT
BRANCH   5   9
ATOM      9  C   UNL     1      -3.850  -4.693   1.627  1.00  0.00    -0.077 C 
ATOM     10  C   UNL     1      -5.073  -4.136   1.596  1.00  0.00     0.008 C 
ATOM     11  C   UNL     1      -2.676  -3.833   2.016  1.00  0.00     0.039 C 
ENDBRANCH   5   9
TORSDOF 1
ENDMDL
