MODEL 1
REMARK VINA RESULT:    -5.459      0.000      0.000
REMARK INTER + INTRA:          -6.020
REMARK INTER:                  -5.938
REMARK INTRA:                  -0.082
REMARK UNBOUND:                -0.082
REMARK SMILES CC(=O)[C@@H]1CC[C@H]2[C@@H]3CC=C4C[C@H](O)CC[C@]4(C)[C@H]3CC[C@@]12C
REMARK SMILES IDX 4 1 5 2 6 3 7 4 22 5 21 6 20 7 19 8 8 9 9 10 10 11 11 12
REMARK SMILES IDX 17 13 16 14 15 15 13 16 12 17 18 18 23 19 2 20 1 21 3 22
REMARK SMILES IDX 14 23
REMARK H PARENT 14 24
REMARK Flexibility Score: inf
ROOT
ATOM      1  C   UNL     1      -5.929  29.057  44.835  1.00  0.00     0.062 C 
ATOM      2  C   UNL     1      -6.338  30.290  44.020  1.00  0.00     0.012 C 
ATOM      3  C   UNL     1      -7.813  30.110  43.649  1.00  0.00     0.005 C 
ATOM      4  C   UNL     1      -8.277  28.774  44.259  1.00  0.00    -0.001 C 
ATOM      5  C   UNL     1      -6.974  27.957  44.464  1.00  0.00    -0.020 C 
ATOM      6  C   UNL     1      -6.509  27.222  43.146  1.00  0.00     0.008 C 
ATOM      7  C   UNL     1      -7.579  27.076  42.050  1.00  0.00     0.005 C 
ATOM      8  C   UNL     1      -8.965  26.829  42.660  1.00  0.00     0.003 C 
ATOM      9  C   UNL     1      -9.416  28.092  43.425  1.00  0.00     0.000 C 
ATOM     10  C   UNL     1     -10.623  27.720  44.293  1.00  0.00     0.031 C 
ATOM     11  C   UNL     1     -11.694  27.030  43.489  1.00  0.00    -0.027 C 
ATOM     12  C   UNL     1     -11.450  26.344  42.346  1.00  0.00    -0.065 C 
ATOM     13  C   UNL     1     -10.074  26.342  41.652  1.00  0.00    -0.008 C 
ATOM     14  C   UNL     1      -9.750  24.880  41.204  1.00  0.00     0.014 C 
ATOM     15  C   UNL     1     -10.909  24.178  40.473  1.00  0.00     0.033 C 
ATOM     16  C   UNL     1     -12.198  24.188  41.304  1.00  0.00     0.118 C 
ATOM     17  C   UNL     1     -12.598  25.623  41.668  1.00  0.00     0.063 C 
ATOM     18  C   UNL     1     -10.140  27.258  40.400  1.00  0.00     0.016 C 
ATOM     19  C   UNL     1      -7.141  26.916  45.606  1.00  0.00     0.012 C 
ENDROOT
BRANCH   1  20
ATOM     20  C   UNL     1      -5.809  29.365  46.327  1.00  0.00     0.133 C 
ATOM     21  C   UNL     1      -6.777  30.241  47.079  1.00  0.00     0.088 C 
ATOM     22  O   UNL     1      -4.899  28.848  46.959  1.00  0.00    -0.300 OA
ENDBRANCH   1  20
BRANCH  16  23
ATOM     23  O   UNL     1     -12.016  23.421  42.467  1.00  0.00    -0.393 OA
ATOM     24  H   UNL     1     -12.747  23.668  43.092  1.00  0.00     0.210 HD
ENDBRANCH  16  23
TORSDOF 2
ENDMDL
MODEL 2
REMARK VINA RESULT:    -5.350      1.989      6.754
REMARK INTER + INTRA:          -5.901
REMARK INTER:                  -5.818
REMARK INTRA:                  -0.084
REMARK UNBOUND:                -0.082
REMARK SMILES CC(=O)[C@@H]1CC[C@H]2[C@@H]3CC=C4C[C@H](O)CC[C@]4(C)[C@H]3CC[C@@]12C
REMARK SMILES IDX 4 1 5 2 6 3 7 4 22 5 21 6 20 7 19 8 8 9 9 10 10 11 11 12
REMARK SMILES IDX 17 13 16 14 15 15 13 16 12 17 18 18 23 19 2 20 1 21 3 22
REMARK SMILES IDX 14 23
REMARK H PARENT 14 24
REMARK Flexibility Score: inf
ROOT
ATOM      1  C   UNL     1     -10.830  27.615  41.168  1.00  0.00     0.062 C 
ATOM      2  C   UNL     1     -11.483  26.695  42.207  1.00  0.00     0.012 C 
ATOM      3  C   UNL     1     -11.029  27.185  43.584  1.00  0.00     0.005 C 
ATOM      4  C   UNL     1     -10.118  28.406  43.356  1.00  0.00    -0.001 C 
ATOM      5  C   UNL     1      -9.607  28.255  41.899  1.00  0.00    -0.020 C 
ATOM      6  C   UNL     1      -8.370  27.280  41.792  1.00  0.00     0.008 C 
ATOM      7  C   UNL     1      -7.630  26.991  43.110  1.00  0.00     0.005 C 
ATOM      8  C   UNL     1      -7.596  28.235  44.007  1.00  0.00     0.003 C 
ATOM      9  C   UNL     1      -9.030  28.565  44.474  1.00  0.00     0.000 C 
ATOM     10  C   UNL     1      -9.025  29.974  45.078  1.00  0.00     0.031 C 
ATOM     11  C   UNL     1      -7.949  30.127  46.123  1.00  0.00    -0.027 C 
ATOM     12  C   UNL     1      -6.821  29.377  46.154  1.00  0.00    -0.065 C 
ATOM     13  C   UNL     1      -6.597  28.168  45.224  1.00  0.00    -0.008 C 
ATOM     14  C   UNL     1      -5.131  28.226  44.685  1.00  0.00     0.014 C 
ATOM     15  C   UNL     1      -4.074  28.483  45.775  1.00  0.00     0.033 C 
ATOM     16  C   UNL     1      -4.377  29.754  46.577  1.00  0.00     0.118 C 
ATOM     17  C   UNL     1      -5.773  29.678  47.207  1.00  0.00     0.063 C 
ATOM     18  C   UNL     1      -6.791  26.862  46.041  1.00  0.00     0.016 C 
ATOM     19  C   UNL     1      -9.232  29.635  41.292  1.00  0.00     0.012 C 
ENDROOT
BRANCH   1  20
ATOM     20  C   UNL     1     -11.825  28.610  40.571  1.00  0.00     0.133 C 
ATOM     21  C   UNL     1     -11.878  28.963  39.108  1.00  0.00     0.088 C 
ATOM     22  O   UNL     1     -12.650  29.125  41.312  1.00  0.00    -0.300 OA
ENDBRANCH   1  20
BRANCH  16  23
ATOM     23  O   UNL     1      -4.281  30.877  45.737  1.00  0.00    -0.393 OA
ATOM     24  H   UNL     1      -4.498  30.568  44.819  1.00  0.00     0.210 HD
ENDBRANCH  16  23
TORSDOF 2
ENDMDL
MODEL 3
REMARK VINA RESULT:    -5.275      1.273      6.874
REMARK INTER + INTRA:          -5.820
REMARK INTER:                  -5.778
REMARK INTRA:                  -0.042
REMARK UNBOUND:                -0.082
REMARK SMILES CC(=O)[C@@H]1CC[C@H]2[C@@H]3CC=C4C[C@H](O)CC[C@]4(C)[C@H]3CC[C@@]12C
REMARK SMILES IDX 4 1 5 2 6 3 7 4 22 5 21 6 20 7 19 8 8 9 9 10 10 11 11 12
REMARK SMILES IDX 17 13 16 14 15 15 13 16 12 17 18 18 23 19 2 20 1 21 3 22
REMARK SMILES IDX 14 23
REMARK H PARENT 14 24
REMARK Flexibility Score: inf
ROOT
ATOM      1  C   UNL     1     -10.424  26.873  41.501  1.00  0.00     0.062 C 
ATOM      2  C   UNL     1      -9.204  26.423  40.687  1.00  0.00     0.012 C 
ATOM      3  C   UNL     1      -8.004  26.442  41.637  1.00  0.00     0.005 C 
ATOM      4  C   UNL     1      -8.521  26.890  43.017  1.00  0.00    -0.001 C 
ATOM      5  C   UNL     1      -9.838  27.653  42.720  1.00  0.00    -0.020 C 
ATOM      6  C   UNL     1      -9.584  29.154  42.301  1.00  0.00     0.008 C 
ATOM      7  C   UNL     1      -8.197  29.721  42.654  1.00  0.00     0.005 C 
ATOM      8  C   UNL     1      -7.699  29.166  43.995  1.00  0.00     0.003 C 
ATOM      9  C   UNL     1      -7.434  27.652  43.852  1.00  0.00     0.000 C 
ATOM     10  C   UNL     1      -7.266  27.061  45.257  1.00  0.00     0.031 C 
ATOM     11  C   UNL     1      -6.248  27.826  46.063  1.00  0.00    -0.027 C 
ATOM     12  C   UNL     1      -5.933  29.125  45.837  1.00  0.00    -0.065 C 
ATOM     13  C   UNL     1      -6.457  29.910  44.618  1.00  0.00    -0.008 C 
ATOM     14  C   UNL     1      -6.901  31.329  45.100  1.00  0.00     0.014 C 
ATOM     15  C   UNL     1      -5.872  32.033  46.003  1.00  0.00     0.033 C 
ATOM     16  C   UNL     1      -5.493  31.174  47.215  1.00  0.00     0.118 C 
ATOM     17  C   UNL     1      -4.952  29.811  46.767  1.00  0.00     0.063 C 
ATOM     18  C   UNL     1      -5.310  30.057  43.582  1.00  0.00     0.016 C 
ATOM     19  C   UNL     1     -10.796  27.613  43.943  1.00  0.00     0.012 C 
ENDROOT
BRANCH   1  20
ATOM     20  C   UNL     1     -11.342  25.703  41.857  1.00  0.00     0.133 C 
ATOM     21  C   UNL     1     -12.836  25.828  41.997  1.00  0.00     0.088 C 
ATOM     22  O   UNL     1     -10.846  24.596  42.003  1.00  0.00    -0.300 OA
ENDBRANCH   1  20
BRANCH  16  23
ATOM     23  O   UNL     1      -6.615  31.006  48.045  1.00  0.00    -0.393 OA
ATOM     24  H   UNL     1      -6.876  31.910  48.362  1.00  0.00     0.210 HD
ENDBRANCH  16  23
TORSDOF 2
ENDMDL
MODEL 4
REMARK VINA RESULT:    -5.254      3.419      7.721
REMARK INTER + INTRA:          -5.797
REMARK INTER:                  -5.715
REMARK INTRA:                  -0.082
REMARK UNBOUND:                -0.082
REMARK SMILES CC(=O)[C@@H]1CC[C@H]2[C@@H]3CC=C4C[C@H](O)CC[C@]4(C)[C@H]3CC[C@@]12C
REMARK SMILES IDX 4 1 5 2 6 3 7 4 22 5 21 6 20 7 19 8 8 9 9 10 10 11 11 12
REMARK SMILES IDX 17 13 16 14 15 15 13 16 12 17 18 18 23 19 2 20 1 21 3 22
REMARK SMILES IDX 14 23
REMARK H PARENT 14 24
REMARK Flexibility Score: inf
ROOT
ATOM      1  C   UNL     1      -6.519  26.505  43.682  1.00  0.00     0.062 C 
ATOM      2  C   UNL     1      -7.433  27.199  42.664  1.00  0.00     0.012 C 
ATOM      3  C   UNL     1      -7.033  28.677  42.641  1.00  0.00     0.005 C 
ATOM      4  C   UNL     1      -5.872  28.851  43.638  1.00  0.00    -0.001 C 
ATOM      5  C   UNL     1      -5.998  27.649  44.610  1.00  0.00    -0.020 C 
ATOM      6  C   UNL     1      -7.053  27.908  45.756  1.00  0.00     0.008 C 
ATOM      7  C   UNL     1      -7.447  29.379  45.981  1.00  0.00     0.005 C 
ATOM      8  C   UNL     1      -6.247  30.310  45.769  1.00  0.00     0.003 C 
ATOM      9  C   UNL     1      -5.836  30.280  44.281  1.00  0.00     0.000 C 
ATOM     10  C   UNL     1      -4.457  30.937  44.152  1.00  0.00     0.031 C 
ATOM     11  C   UNL     1      -4.424  32.293  44.808  1.00  0.00    -0.027 C 
ATOM     12  C   UNL     1      -5.253  32.660  45.817  1.00  0.00    -0.065 C 
ATOM     13  C   UNL     1      -6.435  31.788  46.283  1.00  0.00    -0.008 C 
ATOM     14  C   UNL     1      -6.458  31.786  47.845  1.00  0.00     0.014 C 
ATOM     15  C   UNL     1      -6.322  33.185  48.475  1.00  0.00     0.033 C 
ATOM     16  C   UNL     1      -5.067  33.914  47.981  1.00  0.00     0.118 C 
ATOM     17  C   UNL     1      -5.070  34.024  46.452  1.00  0.00     0.063 C 
ATOM     18  C   UNL     1      -7.757  32.406  45.752  1.00  0.00     0.016 C 
ATOM     19  C   UNL     1      -4.624  27.294  45.243  1.00  0.00     0.012 C 
ENDROOT
BRANCH   1  20
ATOM     20  C   UNL     1      -5.433  25.669  43.006  1.00  0.00     0.133 C 
ATOM     21  C   UNL     1      -4.671  26.118  41.787  1.00  0.00     0.088 C 
ATOM     22  O   UNL     1      -5.137  24.590  43.498  1.00  0.00    -0.300 OA
ENDBRANCH   1  20
BRANCH  16  23
ATOM     23  O   UNL     1      -3.920  33.230  48.419  1.00  0.00    -0.393 OA
ATOM     24  H   UNL     1      -3.402  32.987  47.608  1.00  0.00     0.210 HD
ENDBRANCH  16  23
TORSDOF 2
ENDMDL
MODEL 5
REMARK VINA RESULT:    -5.192      3.866      5.372
REMARK INTER + INTRA:          -5.729
REMARK INTER:                  -5.934
REMARK INTRA:                   0.205
REMARK UNBOUND:                -0.082
REMARK SMILES CC(=O)[C@@H]1CC[C@H]2[C@@H]3CC=C4C[C@H](O)CC[C@]4(C)[C@H]3CC[C@@]12C
REMARK SMILES IDX 4 1 5 2 6 3 7 4 22 5 21 6 20 7 19 8 8 9 9 10 10 11 11 12
REMARK SMILES IDX 17 13 16 14 15 15 13 16 12 17 18 18 23 19 2 20 1 21 3 22
REMARK SMILES IDX 14 23
REMARK H PARENT 14 24
REMARK Flexibility Score: inf
ROOT
ATOM      1  C   UNL     1      -5.623  33.376  46.899  1.00  0.00     0.062 C 
ATOM      2  C   UNL     1      -7.149  33.432  46.754  1.00  0.00     0.012 C 
ATOM      3  C   UNL     1      -7.636  31.989  46.597  1.00  0.00     0.005 C 
ATOM      4  C   UNL     1      -6.394  31.079  46.663  1.00  0.00    -0.001 C 
ATOM      5  C   UNL     1      -5.205  32.001  46.287  1.00  0.00    -0.020 C 
ATOM      6  C   UNL     1      -5.036  32.159  44.725  1.00  0.00     0.008 C 
ATOM      7  C   UNL     1      -5.747  31.100  43.865  1.00  0.00     0.005 C 
ATOM      8  C   UNL     1      -5.709  29.723  44.541  1.00  0.00     0.003 C 
ATOM      9  C   UNL     1      -6.563  29.764  45.827  1.00  0.00     0.000 C 
ATOM     10  C   UNL     1      -6.247  28.511  46.651  1.00  0.00     0.031 C 
ATOM     11  C   UNL     1      -6.374  27.257  45.826  1.00  0.00    -0.027 C 
ATOM     12  C   UNL     1      -6.237  27.228  44.477  1.00  0.00    -0.065 C 
ATOM     13  C   UNL     1      -6.109  28.505  43.625  1.00  0.00    -0.008 C 
ATOM     14  C   UNL     1      -4.986  28.277  42.562  1.00  0.00     0.014 C 
ATOM     15  C   UNL     1      -5.099  26.936  41.812  1.00  0.00     0.033 C 
ATOM     16  C   UNL     1      -5.144  25.744  42.775  1.00  0.00     0.118 C 
ATOM     17  C   UNL     1      -6.306  25.891  43.766  1.00  0.00     0.063 C 
ATOM     18  C   UNL     1      -7.457  28.764  42.899  1.00  0.00     0.016 C 
ATOM     19  C   UNL     1      -3.877  31.479  46.901  1.00  0.00     0.012 C 
ENDROOT
BRANCH   1  20
ATOM     20  C   UNL     1      -5.172  33.611  48.341  1.00  0.00     0.133 C 
ATOM     21  C   UNL     1      -6.107  33.595  49.521  1.00  0.00     0.088 C 
ATOM     22  O   UNL     1      -3.983  33.788  48.559  1.00  0.00    -0.300 OA
ENDBRANCH   1  20
BRANCH  16  23
ATOM     23  O   UNL     1      -3.924  25.647  43.465  1.00  0.00    -0.393 OA
ATOM     24  H   UNL     1      -3.996  24.861  44.068  1.00  0.00     0.210 HD
ENDBRANCH  16  23
TORSDOF 2
ENDMDL
MODEL 6
REMARK VINA RESULT:    -5.172      3.072      8.285
REMARK INTER + INTRA:          -5.708
REMARK INTER:                  -5.637
REMARK INTRA:                  -0.071
REMARK UNBOUND:                -0.082
REMARK SMILES CC(=O)[C@@H]1CC[C@H]2[C@@H]3CC=C4C[C@H](O)CC[C@]4(C)[C@H]3CC[C@@]12C
REMARK SMILES IDX 4 1 5 2 6 3 7 4 22 5 21 6 20 7 19 8 8 9 9 10 10 11 11 12
REMARK SMILES IDX 17 13 16 14 15 15 13 16 12 17 18 18 23 19 2 20 1 21 3 22
REMARK SMILES IDX 14 23
REMARK H PARENT 14 24
REMARK Flexibility Score: inf
ROOT
ATOM      1  C   UNL     1      -8.246  29.145  42.883  1.00  0.00     0.062 C 
ATOM      2  C   UNL     1      -7.249  29.744  41.883  1.00  0.00     0.012 C 
ATOM      3  C   UNL     1      -6.078  30.299  42.698  1.00  0.00     0.005 C 
ATOM      4  C   UNL     1      -6.380  30.014  44.182  1.00  0.00    -0.001 C 
ATOM      5  C   UNL     1      -7.919  29.833  44.247  1.00  0.00    -0.020 C 
ATOM      6  C   UNL     1      -8.685  31.210  44.330  1.00  0.00     0.008 C 
ATOM      7  C   UNL     1      -7.836  32.423  44.751  1.00  0.00     0.005 C 
ATOM      8  C   UNL     1      -6.785  32.025  45.795  1.00  0.00     0.003 C 
ATOM      9  C   UNL     1      -5.751  31.082  45.142  1.00  0.00     0.000 C 
ATOM     10  C   UNL     1      -4.920  30.438  46.257  1.00  0.00     0.031 C 
ATOM     11  C   UNL     1      -4.355  31.472  47.197  1.00  0.00    -0.027 C 
ATOM     12  C   UNL     1      -4.909  32.693  47.391  1.00  0.00    -0.065 C 
ATOM     13  C   UNL     1      -6.080  33.222  46.540  1.00  0.00    -0.008 C 
ATOM     14  C   UNL     1      -7.111  33.908  47.493  1.00  0.00     0.014 C 
ATOM     15  C   UNL     1      -6.477  34.882  48.503  1.00  0.00     0.033 C 
ATOM     16  C   UNL     1      -5.378  34.209  49.334  1.00  0.00     0.118 C 
ATOM     17  C   UNL     1      -4.295  33.618  48.423  1.00  0.00     0.063 C 
ATOM     18  C   UNL     1      -5.538  34.271  45.532  1.00  0.00     0.016 C 
ATOM     19  C   UNL     1      -8.326  28.940  45.452  1.00  0.00     0.012 C 
ENDROOT
BRANCH   1  20
ATOM     20  C   UNL     1      -8.202  27.617  42.897  1.00  0.00     0.133 C 
ATOM     21  C   UNL     1      -6.927  26.820  42.976  1.00  0.00     0.088 C 
ATOM     22  O   UNL     1      -9.258  27.003  42.878  1.00  0.00    -0.300 OA
ENDBRANCH   1  20
BRANCH  16  23
ATOM     23  O   UNL     1      -5.942  33.204  50.138  1.00  0.00    -0.393 OA
ATOM     24  H   UNL     1      -6.306  33.652  50.946  1.00  0.00     0.210 HD
ENDBRANCH  16  23
TORSDOF 2
ENDMDL
MODEL 7
REMARK VINA RESULT:    -5.127      2.384      4.237
REMARK INTER + INTRA:          -5.659
REMARK INTER:                  -5.582
REMARK INTRA:                  -0.077
REMARK UNBOUND:                -0.082
REMARK SMILES CC(=O)[C@@H]1CC[C@H]2[C@@H]3CC=C4C[C@H](O)CC[C@]4(C)[C@H]3CC[C@@]12C
REMARK SMILES IDX 4 1 5 2 6 3 7 4 22 5 21 6 20 7 19 8 8 9 9 10 10 11 11 12
REMARK SMILES IDX 17 13 16 14 15 15 13 16 12 17 18 18 23 19 2 20 1 21 3 22
REMARK SMILES IDX 14 23
REMARK H PARENT 14 24
REMARK Flexibility Score: inf
ROOT
ATOM      1  C   UNL     1      -5.405  31.741  47.254  1.00  0.00     0.062 C 
ATOM      2  C   UNL     1      -4.214  30.859  46.860  1.00  0.00     0.012 C 
ATOM      3  C   UNL     1      -4.480  30.360  45.437  1.00  0.00     0.005 C 
ATOM      4  C   UNL     1      -5.824  30.962  44.987  1.00  0.00    -0.001 C 
ATOM      5  C   UNL     1      -6.567  31.308  46.304  1.00  0.00    -0.020 C 
ATOM      6  C   UNL     1      -7.307  30.059  46.925  1.00  0.00     0.008 C 
ATOM      7  C   UNL     1      -7.534  28.874  45.969  1.00  0.00     0.005 C 
ATOM      8  C   UNL     1      -7.839  29.362  44.547  1.00  0.00     0.003 C 
ATOM      9  C   UNL     1      -6.584  30.048  43.965  1.00  0.00     0.000 C 
ATOM     10  C   UNL     1      -6.999  30.813  42.703  1.00  0.00     0.031 C 
ATOM     11  C   UNL     1      -7.763  29.933  41.746  1.00  0.00    -0.027 C 
ATOM     12  C   UNL     1      -8.462  28.837  42.129  1.00  0.00    -0.065 C 
ATOM     13  C   UNL     1      -8.407  28.272  43.562  1.00  0.00    -0.008 C 
ATOM     14  C   UNL     1      -9.860  27.897  43.999  1.00  0.00     0.014 C 
ATOM     15  C   UNL     1     -10.639  27.082  42.949  1.00  0.00     0.033 C 
ATOM     16  C   UNL     1     -10.678  27.792  41.590  1.00  0.00     0.118 C 
ATOM     17  C   UNL     1      -9.258  28.078  41.086  1.00  0.00     0.063 C 
ATOM     18  C   UNL     1      -7.525  26.994  43.566  1.00  0.00     0.016 C 
ATOM     19  C   UNL     1      -7.588  32.458  46.084  1.00  0.00     0.012 C 
ENDROOT
BRANCH   1  20
ATOM     20  C   UNL     1      -5.056  33.229  47.220  1.00  0.00     0.133 C 
ATOM     21  C   UNL     1      -5.405  34.194  48.322  1.00  0.00     0.088 C 
ATOM     22  O   UNL     1      -4.429  33.659  46.263  1.00  0.00    -0.300 OA
ENDBRANCH   1  20
BRANCH  16  23
ATOM     23  O   UNL     1     -11.407  28.988  41.702  1.00  0.00    -0.393 OA
ATOM     24  H   UNL     1     -12.008  28.886  42.486  1.00  0.00     0.210 HD
ENDBRANCH  16  23
TORSDOF 2
ENDMDL
MODEL 8
REMARK VINA RESULT:    -5.079      4.090      7.137
REMARK INTER + INTRA:          -5.606
REMARK INTER:                  -5.554
REMARK INTRA:                  -0.052
REMARK UNBOUND:                -0.082
REMARK SMILES CC(=O)[C@@H]1CC[C@H]2[C@@H]3CC=C4C[C@H](O)CC[C@]4(C)[C@H]3CC[C@@]12C
REMARK SMILES IDX 4 1 5 2 6 3 7 4 22 5 21 6 20 7 19 8 8 9 9 10 10 11 11 12
REMARK SMILES IDX 17 13 16 14 15 15 13 16 12 17 18 18 23 19 2 20 1 21 3 22
REMARK SMILES IDX 14 23
REMARK H PARENT 14 24
REMARK Flexibility Score: inf
ROOT
ATOM      1  C   UNL     1      -4.934  26.253  44.753  1.00  0.00     0.062 C 
ATOM      2  C   UNL     1      -5.782  25.874  45.974  1.00  0.00     0.012 C 
ATOM      3  C   UNL     1      -6.877  26.936  46.104  1.00  0.00     0.005 C 
ATOM      4  C   UNL     1      -6.682  27.935  44.947  1.00  0.00    -0.001 C 
ATOM      5  C   UNL     1      -5.197  27.776  44.530  1.00  0.00    -0.020 C 
ATOM      6  C   UNL     1      -4.220  28.611  45.448  1.00  0.00     0.008 C 
ATOM      7  C   UNL     1      -4.876  29.726  46.281  1.00  0.00     0.005 C 
ATOM      8  C   UNL     1      -6.017  30.397  45.505  1.00  0.00     0.003 C 
ATOM      9  C   UNL     1      -7.164  29.382  45.311  1.00  0.00     0.000 C 
ATOM     10  C   UNL     1      -8.131  29.948  44.264  1.00  0.00     0.031 C 
ATOM     11  C   UNL     1      -8.556  31.354  44.604  1.00  0.00    -0.027 C 
ATOM     12  C   UNL     1      -7.818  32.198  45.366  1.00  0.00    -0.065 C 
ATOM     13  C   UNL     1      -6.545  31.752  46.111  1.00  0.00    -0.008 C 
ATOM     14  C   UNL     1      -5.454  32.854  45.924  1.00  0.00     0.014 C 
ATOM     15  C   UNL     1      -5.958  34.286  46.185  1.00  0.00     0.033 C 
ATOM     16  C   UNL     1      -7.183  34.625  45.327  1.00  0.00     0.118 C 
ATOM     17  C   UNL     1      -8.313  33.616  45.571  1.00  0.00     0.063 C 
ATOM     18  C   UNL     1      -6.871  31.605  47.622  1.00  0.00     0.016 C 
ATOM     19  C   UNL     1      -4.986  28.184  43.046  1.00  0.00     0.012 C 
ENDROOT
BRANCH   1  20
ATOM     20  C   UNL     1      -5.227  25.358  43.549  1.00  0.00     0.133 C 
ATOM     21  C   UNL     1      -4.160  24.648  42.758  1.00  0.00     0.088 C 
ATOM     22  O   UNL     1      -6.391  25.178  43.225  1.00  0.00    -0.300 OA
ENDBRANCH   1  20
BRANCH  16  23
ATOM     23  O   UNL     1      -6.822  34.634  43.969  1.00  0.00    -0.393 OA
ATOM     24  H   UNL     1      -6.500  33.720  43.751  1.00  0.00     0.210 HD
ENDBRANCH  16  23
TORSDOF 2
ENDMDL
MODEL 9
REMARK VINA RESULT:    -4.941      2.591      7.596
REMARK INTER + INTRA:          -5.457
REMARK INTER:                  -5.375
REMARK INTRA:                  -0.082
REMARK UNBOUND:                -0.082
REMARK SMILES CC(=O)[C@@H]1CC[C@H]2[C@@H]3CC=C4C[C@H](O)CC[C@]4(C)[C@H]3CC[C@@]12C
REMARK SMILES IDX 4 1 5 2 6 3 7 4 22 5 21 6 20 7 19 8 8 9 9 10 10 11 11 12
REMARK SMILES IDX 17 13 16 14 15 15 13 16 12 17 18 18 23 19 2 20 1 21 3 22
REMARK SMILES IDX 14 23
REMARK H PARENT 14 24
REMARK Flexibility Score: inf
ROOT
ATOM      1  C   UNL     1      -7.325  27.274  42.136  1.00  0.00     0.062 C 
ATOM      2  C   UNL     1      -6.875  26.195  43.130  1.00  0.00     0.012 C 
ATOM      3  C   UNL     1      -6.937  26.822  44.525  1.00  0.00     0.005 C 
ATOM      4  C   UNL     1      -7.439  28.268  44.354  1.00  0.00    -0.001 C 
ATOM      5  C   UNL     1      -7.115  28.630  42.881  1.00  0.00    -0.020 C 
ATOM      6  C   UNL     1      -5.620  29.101  42.691  1.00  0.00     0.008 C 
ATOM      7  C   UNL     1      -4.884  29.524  43.974  1.00  0.00     0.005 C 
ATOM      8  C   UNL     1      -5.833  30.239  44.945  1.00  0.00     0.003 C 
ATOM      9  C   UNL     1      -6.886  29.234  45.459  1.00  0.00     0.000 C 
ATOM     10  C   UNL     1      -8.005  30.024  46.147  1.00  0.00     0.031 C 
ATOM     11  C   UNL     1      -7.459  30.977  47.178  1.00  0.00    -0.027 C 
ATOM     12  C   UNL     1      -6.202  31.484  47.141  1.00  0.00    -0.065 C 
ATOM     13  C   UNL     1      -5.138  31.001  46.136  1.00  0.00    -0.008 C 
ATOM     14  C   UNL     1      -4.390  32.253  45.573  1.00  0.00     0.014 C 
ATOM     15  C   UNL     1      -3.936  33.250  46.655  1.00  0.00     0.033 C 
ATOM     16  C   UNL     1      -5.104  33.704  47.539  1.00  0.00     0.118 C 
ATOM     17  C   UNL     1      -5.793  32.498  48.191  1.00  0.00     0.063 C 
ATOM     18  C   UNL     1      -4.123  30.087  46.875  1.00  0.00     0.016 C 
ATOM     19  C   UNL     1      -8.075  29.731  42.352  1.00  0.00     0.012 C 
ENDROOT
BRANCH   1  20
ATOM     20  C   UNL     1      -8.743  27.026  41.620  1.00  0.00     0.133 C 
ATOM     21  C   UNL     1      -9.152  27.207  40.182  1.00  0.00     0.088 C 
ATOM     22  O   UNL     1      -9.588  26.627  42.407  1.00  0.00    -0.300 OA
ENDBRANCH   1  20
BRANCH  16  23
ATOM     23  O   UNL     1      -6.025  34.434  46.768  1.00  0.00    -0.393 OA
ATOM     24  H   UNL     1      -6.844  33.877  46.694  1.00  0.00     0.210 HD
ENDBRANCH  16  23
TORSDOF 2
ENDMDL
