MODEL 1
REMARK VINA RESULT:    -5.129      0.000      0.000
REMARK INTER + INTRA:          -6.467
REMARK INTER:                  -6.328
REMARK INTRA:                  -0.139
REMARK UNBOUND:                -0.139
REMARK SMILES CCCCCC(=O)[O-]
REMARK SMILES IDX 4 1 5 2 6 3 7 4 8 5 3 6 2 7 1 8
REMARK H PARENT
REMARK Flexibility Score: inf
ROOT
ATOM      1  C   UNL     1      28.265  -0.718  43.198  1.00  0.00     0.006 C 
ENDROOT
BRANCH   1   2
ATOM      2  C   UNL     1      28.338  -1.388  41.820  1.00  0.00     0.053 C 
BRANCH   2   3
ATOM      3  C   UNL     1      29.434  -0.782  41.002  1.00  0.00     0.041 C 
ATOM      4  O   UNL     1      29.157  -0.004  40.051  1.00  0.00    -0.550 OA
ATOM      5  O   UNL     1      30.758  -1.115  41.257  1.00  0.00    -0.550 OA
ENDBRANCH   2   3
ENDBRANCH   1   2
BRANCH   1   6
ATOM      6  C   UNL     1      28.902  -1.574  44.306  1.00  0.00     0.000 C 
BRANCH   6   7
ATOM      7  C   UNL     1      30.233  -0.996  44.808  1.00  0.00    -0.003 C 
ATOM      8  C   UNL     1      30.499  -1.404  46.253  1.00  0.00     0.004 C 
ENDBRANCH   6   7
ENDBRANCH   1   6
TORSDOF 4
ENDMDL
MODEL 2
REMARK VINA RESULT:    -5.105      0.177      1.157
REMARK INTER + INTRA:          -6.437
REMARK INTER:                  -6.312
REMARK INTRA:                  -0.125
REMARK UNBOUND:                -0.139
REMARK SMILES CCCCCC(=O)[O-]
REMARK SMILES IDX 4 1 5 2 6 3 7 4 8 5 3 6 2 7 1 8
REMARK H PARENT
REMARK Flexibility Score: inf
ROOT
ATOM      1  C   UNL     1      28.334  -0.775  43.330  1.00  0.00     0.006 C 
ENDROOT
BRANCH   1   2
ATOM      2  C   UNL     1      28.410  -1.422  41.941  1.00  0.00     0.053 C 
BRANCH   2   3
ATOM      3  C   UNL     1      29.535  -0.830  41.151  1.00  0.00     0.041 C 
ATOM      4  O   UNL     1      30.729  -1.075  41.469  1.00  0.00    -0.550 OA
ATOM      5  O   UNL     1      29.265   0.031  40.096  1.00  0.00    -0.550 OA
ENDBRANCH   2   3
ENDBRANCH   1   2
BRANCH   1   6
ATOM      6  C   UNL     1      28.956  -1.655  44.427  1.00  0.00     0.000 C 
BRANCH   6   7
ATOM      7  C   UNL     1      30.257  -1.064  44.991  1.00  0.00    -0.003 C 
ATOM      8  C   UNL     1      30.462  -1.476  46.445  1.00  0.00     0.004 C 
ENDBRANCH   6   7
ENDBRANCH   1   6
TORSDOF 4
ENDMDL
MODEL 3
REMARK VINA RESULT:    -4.971      0.908      1.443
REMARK INTER + INTRA:          -6.272
REMARK INTER:                  -6.171
REMARK INTRA:                  -0.102
REMARK UNBOUND:                -0.139
REMARK SMILES CCCCCC(=O)[O-]
REMARK SMILES IDX 4 1 5 2 6 3 7 4 8 5 3 6 2 7 1 8
REMARK H PARENT
REMARK Flexibility Score: inf
ROOT
ATOM      1  C   UNL     1      28.909  -1.171  42.723  1.00  0.00     0.006 C 
ENDROOT
BRANCH   1   2
ATOM      2  C   UNL     1      30.284  -0.724  42.211  1.00  0.00     0.053 C 
BRANCH   2   3
ATOM      3  C   UNL     1      30.348  -0.836  40.721  1.00  0.00     0.041 C 
ATOM      4  O   UNL     1      31.463  -0.893  40.137  1.00  0.00    -0.550 OA
ATOM      5  O   UNL     1      29.178  -0.825  39.972  1.00  0.00    -0.550 OA
ENDBRANCH   2   3
ENDBRANCH   1   2
BRANCH   1   6
ATOM      6  C   UNL     1      28.916  -1.501  44.224  1.00  0.00     0.000 C 
BRANCH   6   7
ATOM      7  C   UNL     1      30.237  -1.119  44.908  1.00  0.00    -0.003 C 
ATOM      8  C   UNL     1      30.316  -1.702  46.315  1.00  0.00     0.004 C 
ENDBRANCH   6   7
ENDBRANCH   1   6
TORSDOF 4
ENDMDL
MODEL 4
REMARK VINA RESULT:    -4.884      2.271      3.981
REMARK INTER + INTRA:          -6.165
REMARK INTER:                  -5.975
REMARK INTRA:                  -0.190
REMARK UNBOUND:                -0.139
REMARK SMILES CCCCCC(=O)[O-]
REMARK SMILES IDX 4 1 5 2 6 3 7 4 8 5 3 6 2 7 1 8
REMARK H PARENT
REMARK Flexibility Score: inf
ROOT
ATOM      1  C   UNL     1      28.366  -0.759  43.373  1.00  0.00     0.006 C 
ENDROOT
BRANCH   1   2
ATOM      2  C   UNL     1      28.684  -1.792  44.461  1.00  0.00     0.053 C 
BRANCH   2   3
ATOM      3  C   UNL     1      29.952  -1.431  45.169  1.00  0.00     0.041 C 
ATOM      4  O   UNL     1      30.834  -0.752  44.581  1.00  0.00    -0.550 OA
ATOM      5  O   UNL     1      30.181  -1.889  46.460  1.00  0.00    -0.550 OA
ENDBRANCH   2   3
ENDBRANCH   1   2
BRANCH   1   6
ATOM      6  C   UNL     1      28.270  -1.385  41.973  1.00  0.00     0.000 C 
BRANCH   6   7
ATOM      7  C   UNL     1      29.092  -0.621  40.925  1.00  0.00    -0.003 C 
ATOM      8  C   UNL     1      30.581  -0.925  41.065  1.00  0.00     0.004 C 
ENDBRANCH   6   7
ENDBRANCH   1   6
TORSDOF 4
ENDMDL
MODEL 5
REMARK VINA RESULT:    -4.821      2.207      4.514
REMARK INTER + INTRA:          -6.088
REMARK INTER:                  -6.035
REMARK INTRA:                  -0.052
REMARK UNBOUND:                -0.139
REMARK SMILES CCCCCC(=O)[O-]
REMARK SMILES IDX 4 1 5 2 6 3 7 4 8 5 3 6 2 7 1 8
REMARK H PARENT
REMARK Flexibility Score: inf
ROOT
ATOM      1  C   UNL     1      28.410  -1.327  41.826  1.00  0.00     0.006 C 
ENDROOT
BRANCH   1   2
ATOM      2  C   UNL     1      28.226  -0.728  43.226  1.00  0.00     0.053 C 
BRANCH   2   3
ATOM      3  C   UNL     1      29.251  -1.278  44.167  1.00  0.00     0.041 C 
ATOM      4  O   UNL     1      30.471  -1.013  44.000  1.00  0.00    -0.550 OA
ATOM      5  O   UNL     1      28.865  -2.125  45.198  1.00  0.00    -0.550 OA
ENDBRANCH   2   3
ENDBRANCH   1   2
BRANCH   1   6
ATOM      6  C   UNL     1      29.160  -0.382  40.873  1.00  0.00     0.000 C 
BRANCH   6   7
ATOM      7  C   UNL     1      28.896  -0.702  39.395  1.00  0.00    -0.003 C 
ATOM      8  C   UNL     1      29.277   0.474  38.501  1.00  0.00     0.004 C 
ENDBRANCH   6   7
ENDBRANCH   1   6
TORSDOF 4
ENDMDL
MODEL 6
REMARK VINA RESULT:    -4.599      1.392      2.099
REMARK INTER + INTRA:          -5.814
REMARK INTER:                  -5.691
REMARK INTRA:                  -0.123
REMARK UNBOUND:                -0.139
REMARK SMILES CCCCCC(=O)[O-]
REMARK SMILES IDX 4 1 5 2 6 3 7 4 8 5 3 6 2 7 1 8
REMARK H PARENT
REMARK Flexibility Score: inf
ROOT
ATOM      1  C   UNL     1      30.219  -0.621  42.085  1.00  0.00     0.006 C 
ENDROOT
BRANCH   1   2
ATOM      2  C   UNL     1      30.527  -0.983  40.627  1.00  0.00     0.053 C 
BRANCH   2   3
ATOM      3  C   UNL     1      29.958   0.047  39.702  1.00  0.00     0.041 C 
ATOM      4  O   UNL     1      30.454   1.204  39.662  1.00  0.00    -0.550 OA
ATOM      5  O   UNL     1      28.849  -0.256  38.923  1.00  0.00    -0.550 OA
ENDBRANCH   2   3
ENDBRANCH   1   2
BRANCH   1   6
ATOM      6  C   UNL     1      28.922  -1.271  42.594  1.00  0.00     0.000 C 
BRANCH   6   7
ATOM      7  C   UNL     1      28.875  -1.376  44.125  1.00  0.00    -0.003 C 
ATOM      8  C   UNL     1      30.210  -0.977  44.745  1.00  0.00     0.004 C 
ENDBRANCH   6   7
ENDBRANCH   1   6
TORSDOF 4
ENDMDL
MODEL 7
REMARK VINA RESULT:    -4.493      2.183      3.905
REMARK INTER + INTRA:          -5.683
REMARK INTER:                  -5.447
REMARK INTRA:                  -0.236
REMARK UNBOUND:                -0.139
REMARK SMILES CCCCCC(=O)[O-]
REMARK SMILES IDX 4 1 5 2 6 3 7 4 8 5 3 6 2 7 1 8
REMARK H PARENT
REMARK Flexibility Score: inf
ROOT
ATOM      1  C   UNL     1      28.857  -1.171  41.068  1.00  0.00     0.006 C 
ENDROOT
BRANCH   1   2
ATOM      2  C   UNL     1      28.050  -0.712  42.289  1.00  0.00     0.053 C 
BRANCH   2   3
ATOM      3  C   UNL     1      28.868  -0.840  43.534  1.00  0.00     0.041 C 
ATOM      4  O   UNL     1      29.903  -0.138  43.687  1.00  0.00    -0.550 OA
ATOM      5  O   UNL     1      28.518  -1.771  44.504  1.00  0.00    -0.550 OA
ENDBRANCH   2   3
ENDBRANCH   1   2
BRANCH   1   6
ATOM      6  C   UNL     1      29.123  -0.031  40.072  1.00  0.00     0.000 C 
BRANCH   6   7
ATOM      7  C   UNL     1      30.612   0.331  39.973  1.00  0.00    -0.003 C 
ATOM      8  C   UNL     1      31.488  -0.781  40.542  1.00  0.00     0.004 C 
ENDBRANCH   6   7
ENDBRANCH   1   6
TORSDOF 4
ENDMDL
MODEL 8
REMARK VINA RESULT:    -4.477      1.737      2.769
REMARK INTER + INTRA:          -5.663
REMARK INTER:                  -5.564
REMARK INTRA:                  -0.099
REMARK UNBOUND:                -0.139
REMARK SMILES CCCCCC(=O)[O-]
REMARK SMILES IDX 4 1 5 2 6 3 7 4 8 5 3 6 2 7 1 8
REMARK H PARENT
REMARK Flexibility Score: inf
ROOT
ATOM      1  C   UNL     1      30.055  -1.006  41.548  1.00  0.00     0.006 C 
ENDROOT
BRANCH   1   2
ATOM      2  C   UNL     1      31.162  -0.476  40.628  1.00  0.00     0.053 C 
BRANCH   2   3
ATOM      3  C   UNL     1      30.727   0.793  39.966  1.00  0.00     0.041 C 
ATOM      4  O   UNL     1      31.411   1.843  40.099  1.00  0.00    -0.550 OA
ATOM      5  O   UNL     1      29.540   0.831  39.246  1.00  0.00    -0.550 OA
ENDBRANCH   2   3
ENDBRANCH   1   2
BRANCH   1   6
ATOM      6  C   UNL     1      30.470  -1.015  43.028  1.00  0.00     0.000 C 
BRANCH   6   7
ATOM      7  C   UNL     1      29.307  -0.673  43.971  1.00  0.00    -0.003 C 
ATOM      8  C   UNL     1      27.972  -0.713  43.233  1.00  0.00     0.004 C 
ENDBRANCH   6   7
ENDBRANCH   1   6
TORSDOF 4
ENDMDL
MODEL 9
REMARK VINA RESULT:    -4.476      2.630      4.391
REMARK INTER + INTRA:          -5.662
REMARK INTER:                  -5.563
REMARK INTRA:                  -0.099
REMARK UNBOUND:                -0.139
REMARK SMILES CCCCCC(=O)[O-]
REMARK SMILES IDX 4 1 5 2 6 3 7 4 8 5 3 6 2 7 1 8
REMARK H PARENT
REMARK Flexibility Score: inf
ROOT
ATOM      1  C   UNL     1      30.367  -0.294  40.738  1.00  0.00     0.006 C 
ENDROOT
BRANCH   1   2
ATOM      2  C   UNL     1      30.281  -0.951  42.121  1.00  0.00     0.053 C 
BRANCH   2   3
ATOM      3  C   UNL     1      28.855  -1.224  42.482  1.00  0.00     0.041 C 
ATOM      4  O   UNL     1      28.051  -1.646  41.609  1.00  0.00    -0.550 OA
ATOM      5  O   UNL     1      28.401  -0.965  43.769  1.00  0.00    -0.550 OA
ENDBRANCH   2   3
ENDBRANCH   1   2
BRANCH   1   6
ATOM      6  C   UNL     1      31.783  -0.351  40.143  1.00  0.00     0.000 C 
BRANCH   6   7
ATOM      7  C   UNL     1      32.125   0.893  39.310  1.00  0.00    -0.003 C 
ATOM      8  C   UNL     1      31.445   2.136  39.875  1.00  0.00     0.004 C 
ENDBRANCH   6   7
ENDBRANCH   1   6
TORSDOF 4
ENDMDL
