MODEL 1
REMARK VINA RESULT:    -4.946      0.000      0.000
REMARK INTER + INTRA:          -6.854
REMARK INTER:                  -6.536
REMARK INTRA:                  -0.317
REMARK UNBOUND:                -0.317
REMARK SMILES CCCCC=CC=CCO
REMARK SMILES IDX 5 1 6 2 4 3 3 4 2 5 1 6 7 7 8 8 9 9 10 10
REMARK H PARENT 10 11
REMARK Flexibility Score: inf
ROOT
ATOM      1  C   UNL     1      28.578  -0.687 -15.263  1.00  0.00    -0.027 C 
ATOM      2  C   UNL     1      29.636   0.027 -14.853  1.00  0.00    -0.005 C 
ENDROOT
BRANCH   1   3
ATOM      3  C   UNL     1      28.310  -1.140 -16.677  1.00  0.00     0.027 C 
BRANCH   3   4
ATOM      4  C   UNL     1      26.809  -1.355 -16.932  1.00  0.00     0.004 C 
BRANCH   4   5
ATOM      5  C   UNL     1      25.901  -0.371 -16.176  1.00  0.00    -0.003 C 
ATOM      6  C   UNL     1      24.768  -1.074 -15.428  1.00  0.00     0.004 C 
ENDBRANCH   4   5
ENDBRANCH   3   4
ENDBRANCH   1   3
BRANCH   2   7
ATOM      7  C   UNL     1      30.741   0.476 -15.725  1.00  0.00    -0.002 C 
ATOM      8  C   UNL     1      31.926  -0.138 -15.695  1.00  0.00     0.001 C 
BRANCH   8   9
ATOM      9  C   UNL     1      33.056   0.313 -16.568  1.00  0.00     0.183 C 
BRANCH   9  10
ATOM     10  O   UNL     1      33.889  -0.774 -16.860  1.00  0.00    -0.392 OA
ATOM     11  H   UNL     1      34.694  -0.665 -16.290  1.00  0.00     0.210 HD
ENDBRANCH   9  10
ENDBRANCH   8   9
ENDBRANCH   2   7
TORSDOF 6
ENDMDL
MODEL 2
REMARK VINA RESULT:    -4.945     11.539     13.145
REMARK INTER + INTRA:          -6.852
REMARK INTER:                  -6.597
REMARK INTRA:                  -0.255
REMARK UNBOUND:                -0.317
REMARK SMILES CCCCC=CC=CCO
REMARK SMILES IDX 5 1 6 2 4 3 3 4 2 5 1 6 7 7 8 8 9 9 10 10
REMARK H PARENT 10 11
REMARK Flexibility Score: inf
ROOT
ATOM      1  C   UNL     1      31.449   5.902 -26.324  1.00  0.00    -0.027 C 
ATOM      2  C   UNL     1      30.832   5.334 -27.370  1.00  0.00    -0.005 C 
ENDROOT
BRANCH   1   3
ATOM      3  C   UNL     1      31.188   5.596 -24.870  1.00  0.00     0.027 C 
BRANCH   3   4
ATOM      4  C   UNL     1      32.193   6.308 -23.948  1.00  0.00     0.004 C 
BRANCH   4   5
ATOM      5  C   UNL     1      32.907   7.500 -24.607  1.00  0.00    -0.003 C 
ATOM      6  C   UNL     1      33.932   8.154 -23.680  1.00  0.00     0.004 C 
ENDBRANCH   4   5
ENDBRANCH   3   4
ENDBRANCH   1   3
BRANCH   2   7
ATOM      7  C   UNL     1      29.795   4.286 -27.271  1.00  0.00    -0.002 C 
ATOM      8  C   UNL     1      28.685   4.354 -28.010  1.00  0.00     0.001 C 
BRANCH   8   9
ATOM      9  C   UNL     1      27.623   3.303 -27.913  1.00  0.00     0.183 C 
BRANCH   9  10
ATOM     10  O   UNL     1      26.403   3.894 -27.561  1.00  0.00    -0.392 OA
ATOM     11  H   UNL     1      26.196   3.572 -26.646  1.00  0.00     0.210 HD
ENDBRANCH   9  10
ENDBRANCH   8   9
ENDBRANCH   2   7
TORSDOF 6
ENDMDL
MODEL 3
REMARK VINA RESULT:    -4.893     12.555     14.363
REMARK INTER + INTRA:          -6.784
REMARK INTER:                  -6.557
REMARK INTRA:                  -0.227
REMARK UNBOUND:                -0.317
REMARK SMILES CCCCC=CC=CCO
REMARK SMILES IDX 5 1 6 2 4 3 3 4 2 5 1 6 7 7 8 8 9 9 10 10
REMARK H PARENT 10 11
REMARK Flexibility Score: inf
ROOT
ATOM      1  C   UNL     1      19.594  -3.459 -27.729  1.00  0.00    -0.027 C 
ATOM      2  C   UNL     1      20.932  -3.412 -27.804  1.00  0.00    -0.005 C 
ENDROOT
BRANCH   1   3
ATOM      3  C   UNL     1      18.780  -3.501 -26.459  1.00  0.00     0.027 C 
BRANCH   3   4
ATOM      4  C   UNL     1      17.360  -4.034 -26.710  1.00  0.00     0.004 C 
BRANCH   4   5
ATOM      5  C   UNL     1      17.305  -5.538 -27.027  1.00  0.00    -0.003 C 
ATOM      6  C   UNL     1      16.462  -6.320 -26.019  1.00  0.00     0.004 C 
ENDBRANCH   4   5
ENDBRANCH   3   4
ENDBRANCH   1   3
BRANCH   2   7
ATOM      7  C   UNL     1      21.842  -3.371 -26.640  1.00  0.00    -0.002 C 
ATOM      8  C   UNL     1      22.890  -2.543 -26.623  1.00  0.00     0.001 C 
BRANCH   8   9
ATOM      9  C   UNL     1      23.824  -2.498 -25.454  1.00  0.00     0.183 C 
BRANCH   9  10
ATOM     10  O   UNL     1      25.118  -2.196 -25.895  1.00  0.00    -0.392 OA
ATOM     11  H   UNL     1      25.563  -3.067 -26.061  1.00  0.00     0.210 HD
ENDBRANCH   9  10
ENDBRANCH   8   9
ENDBRANCH   2   7
TORSDOF 6
ENDMDL
MODEL 4
REMARK VINA RESULT:    -4.891     12.494     14.307
REMARK INTER + INTRA:          -6.782
REMARK INTER:                  -6.154
REMARK INTRA:                  -0.628
REMARK UNBOUND:                -0.317
REMARK SMILES CCCCC=CC=CCO
REMARK SMILES IDX 5 1 6 2 4 3 3 4 2 5 1 6 7 7 8 8 9 9 10 10
REMARK H PARENT 10 11
REMARK Flexibility Score: inf
ROOT
ATOM      1  C   UNL     1      18.516  -4.251 -27.363  1.00  0.00    -0.027 C 
ATOM      2  C   UNL     1      19.670  -4.078 -28.024  1.00  0.00    -0.005 C 
ENDROOT
BRANCH   1   3
ATOM      3  C   UNL     1      18.026  -3.418 -26.205  1.00  0.00     0.027 C 
BRANCH   3   4
ATOM      4  C   UNL     1      18.121  -4.181 -24.873  1.00  0.00     0.004 C 
BRANCH   4   5
ATOM      5  C   UNL     1      19.561  -4.514 -24.447  1.00  0.00    -0.003 C 
ATOM      6  C   UNL     1      20.259  -3.336 -23.767  1.00  0.00     0.004 C 
ENDBRANCH   4   5
ENDBRANCH   3   4
ENDBRANCH   1   3
BRANCH   2   7
ATOM      7  C   UNL     1      20.656  -3.016 -27.738  1.00  0.00    -0.002 C 
ATOM      8  C   UNL     1      21.794  -3.297 -27.099  1.00  0.00     0.001 C 
BRANCH   8   9
ATOM      9  C   UNL     1      22.798  -2.228 -26.795  1.00  0.00     0.183 C 
BRANCH   9  10
ATOM     10  O   UNL     1      24.032  -2.562 -27.366  1.00  0.00    -0.392 OA
ATOM     11  H   UNL     1      24.724  -2.228 -26.739  1.00  0.00     0.210 HD
ENDBRANCH   9  10
ENDBRANCH   8   9
ENDBRANCH   2   7
TORSDOF 6
ENDMDL
MODEL 5
REMARK VINA RESULT:    -4.882      3.465      6.204
REMARK INTER + INTRA:          -6.769
REMARK INTER:                  -6.491
REMARK INTRA:                  -0.279
REMARK UNBOUND:                -0.317
REMARK SMILES CCCCC=CC=CCO
REMARK SMILES IDX 5 1 6 2 4 3 3 4 2 5 1 6 7 7 8 8 9 9 10 10
REMARK H PARENT 10 11
REMARK Flexibility Score: inf
ROOT
ATOM      1  C   UNL     1      29.034  -1.057 -16.254  1.00  0.00    -0.027 C 
ATOM      2  C   UNL     1      27.813  -1.352 -16.726  1.00  0.00    -0.005 C 
ENDROOT
BRANCH   1   3
ATOM      3  C   UNL     1      29.334  -0.361 -14.950  1.00  0.00     0.027 C 
BRANCH   3   4
ATOM      4  C   UNL     1      30.824  -0.006 -14.823  1.00  0.00     0.004 C 
BRANCH   4   5
ATOM      5  C   UNL     1      31.351   0.889 -15.957  1.00  0.00    -0.003 C 
ATOM      6  C   UNL     1      32.625   0.337 -16.597  1.00  0.00     0.004 C 
ENDBRANCH   4   5
ENDBRANCH   3   4
ENDBRANCH   1   3
BRANCH   2   7
ATOM      7  C   UNL     1      26.545  -1.060 -16.027  1.00  0.00    -0.002 C 
ATOM      8  C   UNL     1      25.607  -0.306 -16.605  1.00  0.00     0.001 C 
BRANCH   8   9
ATOM      9  C   UNL     1      24.321   0.004 -15.904  1.00  0.00     0.183 C 
BRANCH   9  10
ATOM     10  O   UNL     1      23.241  -0.278 -16.750  1.00  0.00    -0.392 OA
ATOM     11  H   UNL     1      22.725   0.566 -16.829  1.00  0.00     0.210 HD
ENDBRANCH   9  10
ENDBRANCH   8   9
ENDBRANCH   2   7
TORSDOF 6
ENDMDL
MODEL 6
REMARK VINA RESULT:    -4.877     11.810     13.322
REMARK INTER + INTRA:          -6.762
REMARK INTER:                  -6.601
REMARK INTRA:                  -0.161
REMARK UNBOUND:                -0.317
REMARK SMILES CCCCC=CC=CCO
REMARK SMILES IDX 5 1 6 2 4 3 3 4 2 5 1 6 7 7 8 8 9 9 10 10
REMARK H PARENT 10 11
REMARK Flexibility Score: inf
ROOT
ATOM      1  C   UNL     1      28.752   3.937 -28.066  1.00  0.00    -0.027 C 
ATOM      2  C   UNL     1      27.516   3.415 -28.084  1.00  0.00    -0.005 C 
ENDROOT
BRANCH   1   3
ATOM      3  C   UNL     1      29.363   4.728 -26.936  1.00  0.00     0.027 C 
BRANCH   3   4
ATOM      4  C   UNL     1      30.893   4.809 -27.059  1.00  0.00     0.004 C 
BRANCH   4   5
ATOM      5  C   UNL     1      31.458   6.229 -26.885  1.00  0.00    -0.003 C 
ATOM      6  C   UNL     1      31.861   6.527 -25.440  1.00  0.00     0.004 C 
ENDBRANCH   4   5
ENDBRANCH   3   4
ENDBRANCH   1   3
BRANCH   2   7
ATOM      7  C   UNL     1      26.544   3.512 -26.975  1.00  0.00    -0.002 C 
ATOM      8  C   UNL     1      25.495   2.688 -26.916  1.00  0.00     0.001 C 
BRANCH   8   9
ATOM      9  C   UNL     1      24.498   2.780 -25.803  1.00  0.00     0.183 C 
BRANCH   9  10
ATOM     10  O   UNL     1      23.269   2.256 -26.224  1.00  0.00    -0.392 OA
ATOM     11  H   UNL     1      22.920   1.727 -25.460  1.00  0.00     0.210 HD
ENDBRANCH   9  10
ENDBRANCH   8   9
ENDBRANCH   2   7
TORSDOF 6
ENDMDL
MODEL 7
REMARK VINA RESULT:    -4.833     11.514     12.050
REMARK INTER + INTRA:          -6.705
REMARK INTER:                  -6.381
REMARK INTRA:                  -0.324
REMARK UNBOUND:                -0.317
REMARK SMILES CCCCC=CC=CCO
REMARK SMILES IDX 5 1 6 2 4 3 3 4 2 5 1 6 7 7 8 8 9 9 10 10
REMARK H PARENT 10 11
REMARK Flexibility Score: inf
ROOT
ATOM      1  C   UNL     1      27.070   3.468 -27.739  1.00  0.00    -0.027 C 
ATOM      2  C   UNL     1      28.338   3.486 -28.178  1.00  0.00    -0.005 C 
ENDROOT
BRANCH   1   3
ATOM      3  C   UNL     1      26.613   3.805 -26.342  1.00  0.00     0.027 C 
BRANCH   3   4
ATOM      4  C   UNL     1      25.307   3.078 -25.978  1.00  0.00     0.004 C 
BRANCH   4   5
ATOM      5  C   UNL     1      24.773   2.161 -27.093  1.00  0.00    -0.003 C 
ATOM      6  C   UNL     1      24.640   0.706 -26.642  1.00  0.00     0.004 C 
ENDBRANCH   4   5
ENDBRANCH   3   4
ENDBRANCH   1   3
BRANCH   2   7
ATOM      7  C   UNL     1      29.509   3.865 -27.359  1.00  0.00    -0.002 C 
ATOM      8  C   UNL     1      30.042   5.085 -27.456  1.00  0.00     0.001 C 
BRANCH   8   9
ATOM      9  C   UNL     1      31.233   5.479 -26.639  1.00  0.00     0.183 C 
BRANCH   9  10
ATOM     10  O   UNL     1      31.201   6.856 -26.391  1.00  0.00    -0.392 OA
ATOM     11  H   UNL     1      31.765   7.004 -25.588  1.00  0.00     0.210 HD
ENDBRANCH   9  10
ENDBRANCH   8   9
ENDBRANCH   2   7
TORSDOF 6
ENDMDL
MODEL 8
REMARK VINA RESULT:    -4.813     11.407     12.508
REMARK INTER + INTRA:          -6.678
REMARK INTER:                  -6.135
REMARK INTRA:                  -0.544
REMARK UNBOUND:                -0.317
REMARK SMILES CCCCC=CC=CCO
REMARK SMILES IDX 5 1 6 2 4 3 3 4 2 5 1 6 7 7 8 8 9 9 10 10
REMARK H PARENT 10 11
REMARK Flexibility Score: inf
ROOT
ATOM      1  C   UNL     1      29.831   4.353 -27.769  1.00  0.00    -0.027 C 
ATOM      2  C   UNL     1      28.640   4.102 -28.332  1.00  0.00    -0.005 C 
ENDROOT
BRANCH   1   3
ATOM      3  C   UNL     1      30.274   3.902 -26.399  1.00  0.00     0.027 C 
BRANCH   3   4
ATOM      4  C   UNL     1      30.476   5.090 -25.445  1.00  0.00     0.004 C 
BRANCH   4   5
ATOM      5  C   UNL     1      29.960   4.839 -24.017  1.00  0.00    -0.003 C 
ATOM      6  C   UNL     1      28.529   4.301 -23.998  1.00  0.00     0.004 C 
ENDBRANCH   4   5
ENDBRANCH   3   4
ENDBRANCH   1   3
BRANCH   2   7
ATOM      7  C   UNL     1      27.559   3.313 -27.706  1.00  0.00    -0.002 C 
ATOM      8  C   UNL     1      26.581   3.917 -27.026  1.00  0.00     0.001 C 
BRANCH   8   9
ATOM      9  C   UNL     1      25.485   3.129 -26.380  1.00  0.00     0.183 C 
BRANCH   9  10
ATOM     10  O   UNL     1      24.412   2.994 -27.270  1.00  0.00    -0.392 OA
ATOM     11  H   UNL     1      23.589   3.101 -26.727  1.00  0.00     0.210 HD
ENDBRANCH   9  10
ENDBRANCH   8   9
ENDBRANCH   2   7
TORSDOF 6
ENDMDL
MODEL 9
REMARK VINA RESULT:    -4.800     13.390     15.755
REMARK INTER + INTRA:          -6.661
REMARK INTER:                  -6.369
REMARK INTRA:                  -0.292
REMARK UNBOUND:                -0.317
REMARK SMILES CCCCC=CC=CCO
REMARK SMILES IDX 5 1 6 2 4 3 3 4 2 5 1 6 7 7 8 8 9 9 10 10
REMARK H PARENT 10 11
REMARK Flexibility Score: inf
ROOT
ATOM      1  C   UNL     1      20.985  -3.034 -27.488  1.00  0.00    -0.027 C 
ATOM      2  C   UNL     1      19.822  -3.433 -28.023  1.00  0.00    -0.005 C 
ENDROOT
BRANCH   1   3
ATOM      3  C   UNL     1      21.691  -3.682 -26.322  1.00  0.00     0.027 C 
BRANCH   3   4
ATOM      4  C   UNL     1      22.917  -2.868 -25.875  1.00  0.00     0.004 C 
BRANCH   4   5
ATOM      5  C   UNL     1      23.491  -1.953 -26.969  1.00  0.00    -0.003 C 
ATOM      6  C   UNL     1      23.563  -0.489 -26.531  1.00  0.00     0.004 C 
ENDBRANCH   4   5
ENDBRANCH   3   4
ENDBRANCH   1   3
BRANCH   2   7
ATOM      7  C   UNL     1      19.040  -4.602 -27.568  1.00  0.00    -0.002 C 
ATOM      8  C   UNL     1      17.782  -4.457 -27.146  1.00  0.00     0.001 C 
BRANCH   8   9
ATOM      9  C   UNL     1      16.982  -5.632 -26.675  1.00  0.00     0.183 C 
BRANCH   9  10
ATOM     10  O   UNL     1      16.640  -6.439 -27.767  1.00  0.00    -0.392 OA
ATOM     11  H   UNL     1      15.947  -7.069 -27.437  1.00  0.00     0.210 HD
ENDBRANCH   9  10
ENDBRANCH   8   9
ENDBRANCH   2   7
TORSDOF 6
ENDMDL
