MODEL 1
REMARK VINA RESULT:    -4.752      0.000      0.000
REMARK INTER + INTRA:          -5.515
REMARK INTER:                  -5.307
REMARK INTRA:                  -0.208
REMARK UNBOUND:                -0.208
REMARK SMILES CC(C)c1ccc(C(=O)[O-])cc1
REMARK SMILES IDX 7 1 6 2 11 3 5 4 12 5 4 6 8 7 9 8 10 9 2 10 1 11 3 12
REMARK H PARENT
REMARK Flexibility Score: inf
ROOT
ATOM      1  C   UNL     1      35.267  -7.711  14.378  1.00  0.00    -0.003 A 
ATOM      2  C   UNL     1      36.103  -6.586  14.295  1.00  0.00     0.010 A 
ATOM      3  C   UNL     1      35.533  -8.820  13.556  1.00  0.00     0.010 A 
ATOM      4  C   UNL     1      37.184  -6.569  13.410  1.00  0.00     0.004 A 
ATOM      5  C   UNL     1      36.614  -8.803  12.670  1.00  0.00     0.004 A 
ATOM      6  C   UNL     1      37.452  -7.678  12.586  1.00  0.00    -0.045 A 
ENDROOT
BRANCH   1   7
ATOM      7  C   UNL     1      34.123  -7.725  15.317  1.00  0.00     0.071 C 
ATOM      8  O   UNL     1      34.263  -7.326  16.504  1.00  0.00    -0.545 OA
ATOM      9  O   UNL     1      32.876  -8.179  14.903  1.00  0.00    -0.545 OA
ENDBRANCH   1   7
BRANCH   6  10
ATOM     10  C   UNL     1      38.621  -7.672  11.620  1.00  0.00     0.013 C 
ATOM     11  C   UNL     1      39.199  -9.081  11.444  1.00  0.00     0.012 C 
ATOM     12  C   UNL     1      38.219  -7.068  10.269  1.00  0.00     0.012 C 
ENDBRANCH   6  10
TORSDOF 2
ENDMDL
MODEL 2
REMARK VINA RESULT:    -4.737      5.513      7.384
REMARK INTER + INTRA:          -5.498
REMARK INTER:                  -5.291
REMARK INTRA:                  -0.207
REMARK UNBOUND:                -0.208
REMARK SMILES CC(C)c1ccc(C(=O)[O-])cc1
REMARK SMILES IDX 7 1 6 2 11 3 5 4 12 5 4 6 8 7 9 8 10 9 2 10 1 11 3 12
REMARK H PARENT
REMARK Flexibility Score: inf
ROOT
ATOM      1  C   UNL     1      40.268  -7.552   7.947  1.00  0.00    -0.003 A 
ATOM      2  C   UNL     1      39.432  -6.449   8.190  1.00  0.00     0.010 A 
ATOM      3  C   UNL     1      40.081  -8.726   8.695  1.00  0.00     0.010 A 
ATOM      4  C   UNL     1      38.429  -6.520   9.161  1.00  0.00     0.004 A 
ATOM      5  C   UNL     1      39.078  -8.798   9.666  1.00  0.00     0.004 A 
ATOM      6  C   UNL     1      38.241  -7.696   9.910  1.00  0.00    -0.045 A 
ENDROOT
BRANCH   1   7
ATOM      7  C   UNL     1      41.329  -7.472   6.918  1.00  0.00     0.071 C 
ATOM      8  O   UNL     1      41.064  -7.066   5.755  1.00  0.00    -0.545 OA
ATOM      9  O   UNL     1      42.634  -7.843   7.221  1.00  0.00    -0.545 OA
ENDBRANCH   1   7
BRANCH   6  10
ATOM     10  C   UNL     1      37.157  -7.787  10.967  1.00  0.00     0.013 C 
ATOM     11  C   UNL     1      36.625  -9.219  11.093  1.00  0.00     0.012 C 
ATOM     12  C   UNL     1      37.657  -7.264  12.319  1.00  0.00     0.012 C 
ENDBRANCH   6  10
TORSDOF 2
ENDMDL
MODEL 3
REMARK VINA RESULT:    -4.725      5.493      7.459
REMARK INTER + INTRA:          -5.485
REMARK INTER:                  -5.279
REMARK INTRA:                  -0.205
REMARK UNBOUND:                -0.208
REMARK SMILES CC(C)c1ccc(C(=O)[O-])cc1
REMARK SMILES IDX 7 1 6 2 11 3 5 4 12 5 4 6 8 7 9 8 10 9 2 10 1 11 3 12
REMARK H PARENT
REMARK Flexibility Score: inf
ROOT
ATOM      1  C   UNL     1      40.258  -7.550   7.978  1.00  0.00    -0.003 A 
ATOM      2  C   UNL     1      40.083  -8.721   8.734  1.00  0.00     0.010 A 
ATOM      3  C   UNL     1      39.406  -6.457   8.208  1.00  0.00     0.010 A 
ATOM      4  C   UNL     1      39.076  -8.797   9.700  1.00  0.00     0.004 A 
ATOM      5  C   UNL     1      38.400  -6.533   9.175  1.00  0.00     0.004 A 
ATOM      6  C   UNL     1      38.222  -7.703   9.932  1.00  0.00    -0.045 A 
ENDROOT
BRANCH   1   7
ATOM      7  C   UNL     1      41.326  -7.474   6.955  1.00  0.00     0.071 C 
ATOM      8  O   UNL     1      41.073  -7.053   5.795  1.00  0.00    -0.545 OA
ATOM      9  O   UNL     1      42.625  -7.865   7.261  1.00  0.00    -0.545 OA
ENDBRANCH   1   7
BRANCH   6  10
ATOM     10  C   UNL     1      37.126  -7.772  10.977  1.00  0.00     0.013 C 
ATOM     11  C   UNL     1      36.595  -9.203  11.128  1.00  0.00     0.012 C 
ATOM     12  C   UNL     1      37.608  -7.218  12.322  1.00  0.00     0.012 C 
ENDBRANCH   6  10
TORSDOF 2
ENDMDL
MODEL 4
REMARK VINA RESULT:    -4.693      0.147      1.404
REMARK INTER + INTRA:          -5.449
REMARK INTER:                  -5.243
REMARK INTRA:                  -0.206
REMARK UNBOUND:                -0.208
REMARK SMILES CC(C)c1ccc(C(=O)[O-])cc1
REMARK SMILES IDX 7 1 6 2 11 3 5 4 12 5 4 6 8 7 9 8 10 9 2 10 1 11 3 12
REMARK H PARENT
REMARK Flexibility Score: inf
ROOT
ATOM      1  C   UNL     1      35.326  -7.768  14.360  1.00  0.00    -0.003 A 
ATOM      2  C   UNL     1      35.631  -8.919  13.614  1.00  0.00     0.010 A 
ATOM      3  C   UNL     1      36.146  -6.634  14.229  1.00  0.00     0.010 A 
ATOM      4  C   UNL     1      36.733  -8.936  12.754  1.00  0.00     0.004 A 
ATOM      5  C   UNL     1      37.248  -6.651  13.369  1.00  0.00     0.004 A 
ATOM      6  C   UNL     1      37.555  -7.801  12.623  1.00  0.00    -0.045 A 
ENDROOT
BRANCH   1   7
ATOM      7  C   UNL     1      34.158  -7.755  15.269  1.00  0.00     0.071 C 
ATOM      8  O   UNL     1      34.282  -7.382  16.466  1.00  0.00    -0.545 OA
ATOM      9  O   UNL     1      32.906  -8.154  14.813  1.00  0.00    -0.545 OA
ENDBRANCH   1   7
BRANCH   6  10
ATOM     10  C   UNL     1      38.755  -7.806  11.694  1.00  0.00     0.013 C 
ATOM     11  C   UNL     1      39.273  -9.231  11.468  1.00  0.00     0.012 C 
ATOM     12  C   UNL     1      38.426  -7.120  10.362  1.00  0.00     0.012 C 
ENDBRANCH   6  10
TORSDOF 2
ENDMDL
MODEL 5
REMARK VINA RESULT:    -4.583      3.729      5.688
REMARK INTER + INTRA:          -5.326
REMARK INTER:                  -5.119
REMARK INTRA:                  -0.207
REMARK UNBOUND:                -0.208
REMARK SMILES CC(C)c1ccc(C(=O)[O-])cc1
REMARK SMILES IDX 7 1 6 2 11 3 5 4 12 5 4 6 8 7 9 8 10 9 2 10 1 11 3 12
REMARK H PARENT
REMARK Flexibility Score: inf
ROOT
ATOM      1  C   UNL     1      38.519  -7.596  10.130  1.00  0.00    -0.003 A 
ATOM      2  C   UNL     1      39.387  -8.698  10.077  1.00  0.00     0.010 A 
ATOM      3  C   UNL     1      38.601  -6.615   9.127  1.00  0.00     0.010 A 
ATOM      4  C   UNL     1      40.319  -8.818   9.041  1.00  0.00     0.004 A 
ATOM      5  C   UNL     1      39.532  -6.735   8.091  1.00  0.00     0.004 A 
ATOM      6  C   UNL     1      40.402  -7.837   8.037  1.00  0.00    -0.045 A 
ENDROOT
BRANCH   1   7
ATOM      7  C   UNL     1      37.534  -7.472  11.228  1.00  0.00     0.071 C 
ATOM      8  O   UNL     1      36.304  -7.626  11.006  1.00  0.00    -0.545 OA
ATOM      9  O   UNL     1      37.954  -7.185  12.522  1.00  0.00    -0.545 OA
ENDBRANCH   1   7
BRANCH   6  10
ATOM     10  C   UNL     1      41.408  -7.955   6.908  1.00  0.00     0.013 C 
ATOM     11  C   UNL     1      41.089  -6.969   5.777  1.00  0.00     0.012 C 
ATOM     12  C   UNL     1      42.840  -7.761   7.421  1.00  0.00     0.012 C 
ENDBRANCH   6  10
TORSDOF 2
ENDMDL
MODEL 6
REMARK VINA RESULT:    -4.559      4.126      5.934
REMARK INTER + INTRA:          -5.300
REMARK INTER:                  -5.084
REMARK INTRA:                  -0.215
REMARK UNBOUND:                -0.208
REMARK SMILES CC(C)c1ccc(C(=O)[O-])cc1
REMARK SMILES IDX 7 1 6 2 11 3 5 4 12 5 4 6 8 7 9 8 10 9 2 10 1 11 3 12
REMARK H PARENT
REMARK Flexibility Score: inf
ROOT
ATOM      1  C   UNL     1      38.937  -7.478   9.844  1.00  0.00    -0.003 A 
ATOM      2  C   UNL     1      38.687  -6.590   8.784  1.00  0.00     0.010 A 
ATOM      3  C   UNL     1      40.046  -8.337   9.766  1.00  0.00     0.010 A 
ATOM      4  C   UNL     1      39.530  -6.561   7.670  1.00  0.00     0.004 A 
ATOM      5  C   UNL     1      40.889  -8.308   8.651  1.00  0.00     0.004 A 
ATOM      6  C   UNL     1      40.641  -7.420   7.591  1.00  0.00    -0.045 A 
ENDROOT
BRANCH   1   7
ATOM      7  C   UNL     1      38.041  -7.506  11.022  1.00  0.00     0.071 C 
ATOM      8  O   UNL     1      38.509  -7.390  12.186  1.00  0.00    -0.545 OA
ATOM      9  O   UNL     1      36.668  -7.660  10.861  1.00  0.00    -0.545 OA
ENDBRANCH   1   7
BRANCH   6  10
ATOM     10  C   UNL     1      41.564  -7.399   6.387  1.00  0.00     0.013 C 
ATOM     11  C   UNL     1      42.060  -8.809   6.045  1.00  0.00     0.012 C 
ATOM     12  C   UNL     1      40.882  -6.746   5.179  1.00  0.00     0.012 C 
ENDBRANCH   6  10
TORSDOF 2
ENDMDL
MODEL 7
REMARK VINA RESULT:    -4.533      2.871      5.181
REMARK INTER + INTRA:          -5.271
REMARK INTER:                  -5.066
REMARK INTRA:                  -0.205
REMARK UNBOUND:                -0.208
REMARK SMILES CC(C)c1ccc(C(=O)[O-])cc1
REMARK SMILES IDX 7 1 6 2 11 3 5 4 12 5 4 6 8 7 9 8 10 9 2 10 1 11 3 12
REMARK H PARENT
REMARK Flexibility Score: inf
ROOT
ATOM      1  C   UNL     1      37.014  -7.638  12.677  1.00  0.00    -0.003 A 
ATOM      2  C   UNL     1      36.284  -8.832  12.796  1.00  0.00     0.010 A 
ATOM      3  C   UNL     1      36.765  -6.594  13.585  1.00  0.00     0.010 A 
ATOM      4  C   UNL     1      35.325  -8.980  13.803  1.00  0.00     0.004 A 
ATOM      5  C   UNL     1      35.807  -6.743  14.591  1.00  0.00     0.004 A 
ATOM      6  C   UNL     1      35.076  -7.936  14.712  1.00  0.00    -0.045 A 
ENDROOT
BRANCH   1   7
ATOM      7  C   UNL     1      38.028  -7.486  11.610  1.00  0.00     0.071 C 
ATOM      8  O   UNL     1      39.257  -7.555  11.878  1.00  0.00    -0.545 OA
ATOM      9  O   UNL     1      37.638  -7.264  10.293  1.00  0.00    -0.545 OA
ENDBRANCH   1   7
BRANCH   6  10
ATOM     10  C   UNL     1      34.038  -8.083  15.808  1.00  0.00     0.013 C 
ATOM     11  C   UNL     1      34.295  -7.092  16.950  1.00  0.00     0.012 C 
ATOM     12  C   UNL     1      32.618  -7.926  15.251  1.00  0.00     0.012 C 
ENDBRANCH   6  10
TORSDOF 2
ENDMDL
MODEL 8
REMARK VINA RESULT:    -4.492      3.892      5.627
REMARK INTER + INTRA:          -5.225
REMARK INTER:                  -5.008
REMARK INTRA:                  -0.218
REMARK UNBOUND:                -0.208
REMARK SMILES CC(C)c1ccc(C(=O)[O-])cc1
REMARK SMILES IDX 7 1 6 2 11 3 5 4 12 5 4 6 8 7 9 8 10 9 2 10 1 11 3 12
REMARK H PARENT
REMARK Flexibility Score: inf
ROOT
ATOM      1  C   UNL     1      38.217  -8.658  10.426  1.00  0.00    -0.003 A 
ATOM      2  C   UNL     1      37.072  -9.379  10.803  1.00  0.00     0.010 A 
ATOM      3  C   UNL     1      38.656  -7.601  11.242  1.00  0.00     0.010 A 
ATOM      4  C   UNL     1      36.380  -9.051  11.972  1.00  0.00     0.004 A 
ATOM      5  C   UNL     1      37.963  -7.273  12.411  1.00  0.00     0.004 A 
ATOM      6  C   UNL     1      36.818  -7.993  12.789  1.00  0.00    -0.045 A 
ENDROOT
BRANCH   1   7
ATOM      7  C   UNL     1      38.947  -9.010   9.188  1.00  0.00     0.071 C 
ATOM      8  O   UNL     1      39.097 -10.214   8.852  1.00  0.00    -0.545 OA
ATOM      9  O   UNL     1      39.479  -8.013   8.376  1.00  0.00    -0.545 OA
ENDBRANCH   1   7
BRANCH   6  10
ATOM     10  C   UNL     1      36.075  -7.625  14.060  1.00  0.00     0.013 C 
ATOM     11  C   UNL     1      36.450  -6.215  14.532  1.00  0.00     0.012 C 
ATOM     12  C   UNL     1      34.559  -7.759  13.873  1.00  0.00     0.012 C 
ENDBRANCH   6  10
TORSDOF 2
ENDMDL
MODEL 9
REMARK VINA RESULT:    -4.450      1.521      1.992
REMARK INTER + INTRA:          -5.178
REMARK INTER:                  -4.961
REMARK INTRA:                  -0.216
REMARK UNBOUND:                -0.208
REMARK SMILES CC(C)c1ccc(C(=O)[O-])cc1
REMARK SMILES IDX 7 1 6 2 11 3 5 4 12 5 4 6 8 7 9 8 10 9 2 10 1 11 3 12
REMARK H PARENT
REMARK Flexibility Score: inf
ROOT
ATOM      1  C   UNL     1      36.405  -7.714  13.076  1.00  0.00    -0.003 A 
ATOM      2  C   UNL     1      37.609  -7.033  12.834  1.00  0.00     0.010 A 
ATOM      3  C   UNL     1      36.056  -8.795  12.248  1.00  0.00     0.010 A 
ATOM      4  C   UNL     1      38.448  -7.424  11.786  1.00  0.00     0.004 A 
ATOM      5  C   UNL     1      36.894  -9.186  11.201  1.00  0.00     0.004 A 
ATOM      6  C   UNL     1      38.099  -8.505  10.957  1.00  0.00    -0.045 A 
ENDROOT
BRANCH   1   7
ATOM      7  C   UNL     1      35.521  -7.297  14.187  1.00  0.00     0.071 C 
ATOM      8  O   UNL     1      35.966  -6.592  15.131  1.00  0.00    -0.545 OA
ATOM      9  O   UNL     1      34.183  -7.676  14.203  1.00  0.00    -0.545 OA
ENDBRANCH   1   7
BRANCH   6  10
ATOM     10  C   UNL     1      38.999  -8.940   9.816  1.00  0.00     0.013 C 
ATOM     11  C   UNL     1      38.467 -10.213   9.146  1.00  0.00     0.012 C 
ATOM     12  C   UNL     1      39.178  -7.812   8.793  1.00  0.00     0.012 C 
ENDBRANCH   6  10
TORSDOF 2
ENDMDL
