MODEL 1
REMARK VINA RESULT:    -2.667      0.000      0.000
REMARK INTER + INTRA:          -3.237
REMARK INTER:                  -3.135
REMARK INTRA:                  -0.101
REMARK UNBOUND:                -0.101
REMARK SMILES O=C([O-])CCC(=O)[O-]
REMARK SMILES IDX 4 1 2 2 1 3 3 4 5 5 6 6 7 7 8 8
REMARK H PARENT
REMARK Flexibility Score: inf
ROOT
ATOM      1  C   UNL     1      40.943  35.211  48.351  1.00  0.00     0.059 C 
ENDROOT
BRANCH   1   2
ATOM      2  C   UNL     1      40.805  34.948  46.882  1.00  0.00     0.042 C 
ATOM      3  O   UNL     1      41.194  33.853  46.396  1.00  0.00    -0.550 OA
ATOM      4  O   UNL     1      40.286  35.928  46.045  1.00  0.00    -0.550 OA
ENDBRANCH   1   2
BRANCH   1   5
ATOM      5  C   UNL     1      42.381  35.586  48.726  1.00  0.00     0.059 C 
BRANCH   5   6
ATOM      6  C   UNL     1      42.965  34.619  49.710  1.00  0.00     0.042 C 
ATOM      7  O   UNL     1      43.123  34.957  50.912  1.00  0.00    -0.550 OA
ATOM      8  O   UNL     1      43.373  33.360  49.290  1.00  0.00    -0.550 OA
ENDBRANCH   5   6
ENDBRANCH   1   5
TORSDOF 3
ENDMDL
MODEL 2
REMARK VINA RESULT:    -2.659      0.139      4.011
REMARK INTER + INTRA:          -3.227
REMARK INTER:                  -3.112
REMARK INTRA:                  -0.115
REMARK UNBOUND:                -0.101
REMARK SMILES O=C([O-])CCC(=O)[O-]
REMARK SMILES IDX 4 1 2 2 1 3 3 4 5 5 6 6 7 7 8 8
REMARK H PARENT
REMARK Flexibility Score: inf
ROOT
ATOM      1  C   UNL     1      42.515  35.520  48.594  1.00  0.00     0.059 C 
ENDROOT
BRANCH   1   2
ATOM      2  C   UNL     1      43.039  34.502  49.562  1.00  0.00     0.042 C 
ATOM      3  O   UNL     1      43.285  33.329  49.175  1.00  0.00    -0.550 OA
ATOM      4  O   UNL     1      43.216  34.837  50.898  1.00  0.00    -0.550 OA
ENDBRANCH   1   2
BRANCH   1   5
ATOM      5  C   UNL     1      41.032  35.294  48.284  1.00  0.00     0.059 C 
BRANCH   5   6
ATOM      6  C   UNL     1      40.812  34.977  46.836  1.00  0.00     0.042 C 
ATOM      7  O   UNL     1      41.187  33.872  46.366  1.00  0.00    -0.550 OA
ATOM      8  O   UNL     1      40.230  35.919  45.998  1.00  0.00    -0.550 OA
ENDBRANCH   5   6
ENDBRANCH   1   5
TORSDOF 3
ENDMDL
MODEL 3
REMARK VINA RESULT:    -2.600      2.336      4.299
REMARK INTER + INTRA:          -3.158
REMARK INTER:                  -3.120
REMARK INTRA:                  -0.037
REMARK UNBOUND:                -0.101
REMARK SMILES O=C([O-])CCC(=O)[O-]
REMARK SMILES IDX 4 1 2 2 1 3 3 4 5 5 6 6 7 7 8 8
REMARK H PARENT
REMARK Flexibility Score: inf
ROOT
ATOM      1  C   UNL     1      44.136  32.934  49.749  1.00  0.00     0.059 C 
ENDROOT
BRANCH   1   2
ATOM      2  C   UNL     1      44.846  31.813  49.052  1.00  0.00     0.042 C 
ATOM      3  O   UNL     1      44.942  31.808  47.797  1.00  0.00    -0.550 OA
ATOM      4  O   UNL     1      45.367  30.755  49.787  1.00  0.00    -0.550 OA
ENDBRANCH   1   2
BRANCH   1   5
ATOM      5  C   UNL     1      43.245  33.725  48.785  1.00  0.00     0.059 C 
BRANCH   5   6
ATOM      6  C   UNL     1      42.500  34.817  49.491  1.00  0.00     0.042 C 
ATOM      7  O   UNL     1      42.920  35.261  50.591  1.00  0.00    -0.550 OA
ATOM      8  O   UNL     1      41.321  35.314  48.953  1.00  0.00    -0.550 OA
ENDBRANCH   5   6
ENDBRANCH   1   5
TORSDOF 3
ENDMDL
MODEL 4
REMARK VINA RESULT:    -2.592      2.312      3.745
REMARK INTER + INTRA:          -3.148
REMARK INTER:                  -3.113
REMARK INTRA:                  -0.036
REMARK UNBOUND:                -0.101
REMARK SMILES O=C([O-])CCC(=O)[O-]
REMARK SMILES IDX 4 1 2 2 1 3 3 4 5 5 6 6 7 7 8 8
REMARK H PARENT
REMARK Flexibility Score: inf
ROOT
ATOM      1  C   UNL     1      43.265  33.754  48.790  1.00  0.00     0.059 C 
ENDROOT
BRANCH   1   2
ATOM      2  C   UNL     1      42.477  34.813  49.499  1.00  0.00     0.042 C 
ATOM      3  O   UNL     1      41.496  35.361  48.930  1.00  0.00    -0.550 OA
ATOM      4  O   UNL     1      42.852  35.225  50.773  1.00  0.00    -0.550 OA
ENDBRANCH   1   2
BRANCH   1   5
ATOM      5  C   UNL     1      44.115  32.933  49.765  1.00  0.00     0.059 C 
BRANCH   5   6
ATOM      6  C   UNL     1      44.834  31.818  49.069  1.00  0.00     0.042 C 
ATOM      7  O   UNL     1      44.899  31.795  47.812  1.00  0.00    -0.550 OA
ATOM      8  O   UNL     1      45.397  30.785  49.806  1.00  0.00    -0.550 OA
ENDBRANCH   5   6
ENDBRANCH   1   5
TORSDOF 3
ENDMDL
MODEL 5
REMARK VINA RESULT:    -2.572      2.292      3.634
REMARK INTER + INTRA:          -3.124
REMARK INTER:                  -3.091
REMARK INTRA:                  -0.033
REMARK UNBOUND:                -0.101
REMARK SMILES O=C([O-])CCC(=O)[O-]
REMARK SMILES IDX 4 1 2 2 1 3 3 4 5 5 6 6 7 7 8 8
REMARK H PARENT
REMARK Flexibility Score: inf
ROOT
ATOM      1  C   UNL     1      43.149  33.716  48.773  1.00  0.00     0.059 C 
ENDROOT
BRANCH   1   2
ATOM      2  C   UNL     1      42.425  34.840  49.451  1.00  0.00     0.042 C 
ATOM      3  O   UNL     1      41.497  35.447  48.854  1.00  0.00    -0.550 OA
ATOM      4  O   UNL     1      42.803  35.243  50.726  1.00  0.00    -0.550 OA
ENDBRANCH   1   2
BRANCH   1   5
ATOM      5  C   UNL     1      44.130  33.021  49.723  1.00  0.00     0.059 C 
BRANCH   5   6
ATOM      6  C   UNL     1      44.808  31.859  49.064  1.00  0.00     0.042 C 
ATOM      7  O   UNL     1      45.288  30.927  49.761  1.00  0.00    -0.550 OA
ATOM      8  O   UNL     1      44.947  31.827  47.682  1.00  0.00    -0.550 OA
ENDBRANCH   5   6
ENDBRANCH   1   5
TORSDOF 3
ENDMDL
MODEL 6
REMARK VINA RESULT:    -2.528     11.243     12.681
REMARK INTER + INTRA:          -3.073
REMARK INTER:                  -2.971
REMARK INTRA:                  -0.102
REMARK UNBOUND:                -0.101
REMARK SMILES O=C([O-])CCC(=O)[O-]
REMARK SMILES IDX 4 1 2 2 1 3 3 4 5 5 6 6 7 7 8 8
REMARK H PARENT
REMARK Flexibility Score: inf
ROOT
ATOM      1  C   UNL     1      49.817  31.509  56.076  1.00  0.00     0.059 C 
ENDROOT
BRANCH   1   2
ATOM      2  C   UNL     1      50.606  30.795  57.132  1.00  0.00     0.042 C 
ATOM      3  O   UNL     1      51.014  31.418  58.148  1.00  0.00    -0.550 OA
ATOM      4  O   UNL     1      50.925  29.452  56.974  1.00  0.00    -0.550 OA
ENDBRANCH   1   2
BRANCH   1   5
ATOM      5  C   UNL     1      50.705  32.432  55.235  1.00  0.00     0.059 C 
BRANCH   5   6
ATOM      6  C   UNL     1      50.631  33.851  55.708  1.00  0.00     0.042 C 
ATOM      7  O   UNL     1      49.618  34.553  55.450  1.00  0.00    -0.550 OA
ATOM      8  O   UNL     1      51.698  34.411  56.399  1.00  0.00    -0.550 OA
ENDBRANCH   5   6
ENDBRANCH   1   5
TORSDOF 3
ENDMDL
MODEL 7
REMARK VINA RESULT:    -2.523      0.927      4.085
REMARK INTER + INTRA:          -3.067
REMARK INTER:                  -3.035
REMARK INTRA:                  -0.032
REMARK UNBOUND:                -0.101
REMARK SMILES O=C([O-])CCC(=O)[O-]
REMARK SMILES IDX 4 1 2 2 1 3 3 4 5 5 6 6 7 7 8 8
REMARK H PARENT
REMARK Flexibility Score: inf
ROOT
ATOM      1  C   UNL     1      42.595  34.056  48.706  1.00  0.00     0.059 C 
ENDROOT
BRANCH   1   2
ATOM      2  C   UNL     1      43.466  34.633  49.781  1.00  0.00     0.042 C 
ATOM      3  O   UNL     1      42.967  34.977  50.885  1.00  0.00    -0.550 OA
ATOM      4  O   UNL     1      44.822  34.829  49.548  1.00  0.00    -0.550 OA
ENDBRANCH   1   2
BRANCH   1   5
ATOM      5  C   UNL     1      41.347  34.913  48.470  1.00  0.00     0.059 C 
BRANCH   5   6
ATOM      6  C   UNL     1      40.922  34.886  47.034  1.00  0.00     0.042 C 
ATOM      7  O   UNL     1      40.168  35.786  46.580  1.00  0.00    -0.550 OA
ATOM      8  O   UNL     1      41.325  33.845  46.208  1.00  0.00    -0.550 OA
ENDBRANCH   5   6
ENDBRANCH   1   5
TORSDOF 3
ENDMDL
MODEL 8
REMARK VINA RESULT:    -2.520     11.251     12.754
REMARK INTER + INTRA:          -3.063
REMARK INTER:                  -2.945
REMARK INTRA:                  -0.118
REMARK UNBOUND:                -0.101
REMARK SMILES O=C([O-])CCC(=O)[O-]
REMARK SMILES IDX 4 1 2 2 1 3 3 4 5 5 6 6 7 7 8 8
REMARK H PARENT
REMARK Flexibility Score: inf
ROOT
ATOM      1  C   UNL     1      49.801  31.459  56.126  1.00  0.00     0.059 C 
ENDROOT
BRANCH   1   2
ATOM      2  C   UNL     1      50.389  32.803  55.818  1.00  0.00     0.042 C 
ATOM      3  O   UNL     1      49.697  33.679  55.236  1.00  0.00    -0.550 OA
ATOM      4  O   UNL     1      51.715  33.073  56.137  1.00  0.00    -0.550 OA
ENDBRANCH   1   2
BRANCH   1   5
ATOM      5  C   UNL     1      50.644  30.695  57.153  1.00  0.00     0.059 C 
BRANCH   5   6
ATOM      6  C   UNL     1      51.264  29.469  56.556  1.00  0.00     0.042 C 
ATOM      7  O   UNL     1      51.888  29.541  55.465  1.00  0.00    -0.550 OA
ATOM      8  O   UNL     1      51.117  28.239  57.184  1.00  0.00    -0.550 OA
ENDBRANCH   5   6
ENDBRANCH   1   5
TORSDOF 3
ENDMDL
MODEL 9
REMARK VINA RESULT:    -2.451      1.885      2.316
REMARK INTER + INTRA:          -2.983
REMARK INTER:                  -2.877
REMARK INTRA:                  -0.105
REMARK UNBOUND:                -0.101
REMARK SMILES O=C([O-])CCC(=O)[O-]
REMARK SMILES IDX 4 1 2 2 1 3 3 4 5 5 6 6 7 7 8 8
REMARK H PARENT
REMARK Flexibility Score: inf
ROOT
ATOM      1  C   UNL     1      42.938  33.799  48.757  1.00  0.00     0.059 C 
ENDROOT
BRANCH   1   2
ATOM      2  C   UNL     1      41.714  34.433  48.167  1.00  0.00     0.042 C 
ATOM      3  O   UNL     1      41.060  35.282  48.829  1.00  0.00    -0.550 OA
ATOM      4  O   UNL     1      41.273  34.055  46.905  1.00  0.00    -0.550 OA
ENDBRANCH   1   2
BRANCH   1   5
ATOM      5  C   UNL     1      43.408  34.538  50.014  1.00  0.00     0.059 C 
BRANCH   5   6
ATOM      6  C   UNL     1      44.433  35.581  49.692  1.00  0.00     0.042 C 
ATOM      7  O   UNL     1      44.222  36.787  49.983  1.00  0.00    -0.550 OA
ATOM      8  O   UNL     1      45.603  35.227  49.034  1.00  0.00    -0.550 OA
ENDBRANCH   5   6
ENDBRANCH   1   5
TORSDOF 3
ENDMDL
