MODEL 1
REMARK VINA RESULT:    -4.739      0.000      0.000
REMARK INTER + INTRA:          -5.599
REMARK INTER:                  -5.431
REMARK INTRA:                  -0.168
REMARK UNBOUND:                -0.168
REMARK SMILES CC=Cc1ccc(O)c(OC)c1
REMARK SMILES IDX 4 1 12 2 9 3 7 4 6 5 5 6 3 7 1 8 2 9 10 10 11 11 8 12
REMARK H PARENT 8 13
REMARK Flexibility Score: inf
ROOT
ATOM      1  C   UNL     1      22.054  22.048  20.265  1.00  0.00    -0.022 A 
ATOM      2  C   UNL     1      21.143  22.370  21.285  1.00  0.00     0.058 A 
ATOM      3  C   UNL     1      20.284  23.479  21.162  1.00  0.00     0.161 A 
ATOM      4  C   UNL     1      20.334  24.262  20.000  1.00  0.00     0.157 A 
ATOM      5  C   UNL     1      21.228  23.936  18.974  1.00  0.00     0.051 A 
ATOM      6  C   UNL     1      22.080  22.837  19.100  1.00  0.00     0.012 A 
ENDROOT
BRANCH   1   7
ATOM      7  C   UNL     1      22.930  20.863  20.444  1.00  0.00     0.003 C 
ATOM      8  C   UNL     1      23.645  18.739  21.469  1.00  0.00     0.035 C 
ATOM      9  C   UNL     1      22.723  19.912  21.361  1.00  0.00    -0.030 C 
ENDBRANCH   1   7
BRANCH   3  10
ATOM     10  O   UNL     1      19.369  23.834  22.166  1.00  0.00    -0.493 OA
ATOM     11  C   UNL     1      18.349  22.976  22.667  1.00  0.00     0.278 C 
ENDBRANCH   3  10
BRANCH   4  12
ATOM     12  O   UNL     1      19.486  25.360  19.872  1.00  0.00    -0.504 OA
ATOM     13  H   UNL     1      18.521  25.255  19.583  1.00  0.00     0.293 HD
ENDBRANCH   4  12
TORSDOF 3
ENDMDL
MODEL 2
REMARK VINA RESULT:    -4.695      1.105      2.650
REMARK INTER + INTRA:          -5.549
REMARK INTER:                  -5.482
REMARK INTRA:                  -0.067
REMARK UNBOUND:                -0.168
REMARK SMILES CC=Cc1ccc(O)c(OC)c1
REMARK SMILES IDX 4 1 12 2 9 3 7 4 6 5 5 6 3 7 1 8 2 9 10 10 11 11 8 12
REMARK H PARENT 8 13
REMARK Flexibility Score: inf
ROOT
ATOM      1  C   UNL     1      22.038  22.046  20.360  1.00  0.00    -0.022 A 
ATOM      2  C   UNL     1      21.960  22.728  19.134  1.00  0.00     0.058 A 
ATOM      3  C   UNL     1      21.138  23.863  18.990  1.00  0.00     0.161 A 
ATOM      4  C   UNL     1      20.399  24.320  20.090  1.00  0.00     0.157 A 
ATOM      5  C   UNL     1      20.484  23.654  21.318  1.00  0.00     0.051 A 
ATOM      6  C   UNL     1      21.298  22.528  21.457  1.00  0.00     0.012 A 
ENDROOT
BRANCH   1   7
ATOM      7  C   UNL     1      22.926  20.861  20.458  1.00  0.00     0.003 C 
ATOM      8  C   UNL     1      23.699  18.710  21.379  1.00  0.00     0.035 C 
ATOM      9  C   UNL     1      22.768  19.880  21.354  1.00  0.00    -0.030 C 
ENDBRANCH   1   7
BRANCH   3  10
ATOM     10  O   UNL     1      21.031  24.562  17.777  1.00  0.00    -0.493 OA
ATOM     11  C   UNL     1      19.935  24.446  16.875  1.00  0.00     0.278 C 
ENDBRANCH   3  10
BRANCH   4  12
ATOM     12  O   UNL     1      19.584  25.442  19.954  1.00  0.00    -0.504 OA
ATOM     13  H   UNL     1      18.786  25.446  19.330  1.00  0.00     0.293 HD
ENDBRANCH   4  12
TORSDOF 3
ENDMDL
MODEL 3
REMARK VINA RESULT:    -4.582      1.018      1.018
REMARK INTER + INTRA:          -5.419
REMARK INTER:                  -5.266
REMARK INTRA:                  -0.153
REMARK UNBOUND:                -0.168
REMARK SMILES CC=Cc1ccc(O)c(OC)c1
REMARK SMILES IDX 4 1 12 2 9 3 7 4 6 5 5 6 3 7 1 8 2 9 10 10 11 11 8 12
REMARK H PARENT 8 13
REMARK Flexibility Score: inf
ROOT
ATOM      1  C   UNL     1      21.614  22.078  20.357  1.00  0.00    -0.022 A 
ATOM      2  C   UNL     1      20.323  21.954  20.898  1.00  0.00     0.058 A 
ATOM      3  C   UNL     1      19.291  22.832  20.513  1.00  0.00     0.161 A 
ATOM      4  C   UNL     1      19.558  23.833  19.570  1.00  0.00     0.157 A 
ATOM      5  C   UNL     1      20.837  23.952  19.015  1.00  0.00     0.051 A 
ATOM      6  C   UNL     1      21.858  23.081  19.401  1.00  0.00     0.012 A 
ENDROOT
BRANCH   1   7
ATOM      7  C   UNL     1      22.661  21.120  20.792  1.00  0.00     0.003 C 
ATOM      8  C   UNL     1      23.523  18.957  21.600  1.00  0.00     0.035 C 
ATOM      9  C   UNL     1      22.410  19.867  21.190  1.00  0.00    -0.030 C 
ENDBRANCH   1   7
BRANCH   3  10
ATOM     10  O   UNL     1      17.993  22.741  21.041  1.00  0.00    -0.493 OA
ATOM     11  C   UNL     1      17.662  22.072  22.254  1.00  0.00     0.278 C 
ENDBRANCH   3  10
BRANCH   4  12
ATOM     12  O   UNL     1      18.541  24.705  19.184  1.00  0.00    -0.504 OA
ATOM     13  H   UNL     1      18.473  25.642  19.563  1.00  0.00     0.293 HD
ENDBRANCH   4  12
TORSDOF 3
ENDMDL
MODEL 4
REMARK VINA RESULT:    -4.575      2.361      4.471
REMARK INTER + INTRA:          -5.412
REMARK INTER:                  -5.243
REMARK INTRA:                  -0.169
REMARK UNBOUND:                -0.168
REMARK SMILES CC=Cc1ccc(O)c(OC)c1
REMARK SMILES IDX 4 1 12 2 9 3 7 4 6 5 5 6 3 7 1 8 2 9 10 10 11 11 8 12
REMARK H PARENT 8 13
REMARK Flexibility Score: inf
ROOT
ATOM      1  C   UNL     1      19.735  22.956  21.124  1.00  0.00    -0.022 A 
ATOM      2  C   UNL     1      19.306  23.229  19.814  1.00  0.00     0.058 A 
ATOM      3  C   UNL     1      20.168  23.035  18.717  1.00  0.00     0.161 A 
ATOM      4  C   UNL     1      21.466  22.553  18.939  1.00  0.00     0.157 A 
ATOM      5  C   UNL     1      21.893  22.265  20.240  1.00  0.00     0.051 A 
ATOM      6  C   UNL     1      21.037  22.460  21.325  1.00  0.00     0.012 A 
ENDROOT
BRANCH   1   7
ATOM      7  C   UNL     1      18.782  23.170  22.242  1.00  0.00     0.003 C 
ATOM      8  C   UNL     1      16.913  22.582  23.737  1.00  0.00     0.035 C 
ATOM      9  C   UNL     1      17.826  22.299  22.587  1.00  0.00    -0.030 C 
ENDBRANCH   1   7
BRANCH   3  10
ATOM     10  O   UNL     1      19.774  23.307  17.397  1.00  0.00    -0.493 OA
ATOM     11  C   UNL     1      19.546  24.612  16.877  1.00  0.00     0.278 C 
ENDBRANCH   3  10
BRANCH   4  12
ATOM     12  O   UNL     1      22.323  22.359  17.858  1.00  0.00    -0.504 OA
ATOM     13  H   UNL     1      22.322  21.496  17.328  1.00  0.00     0.293 HD
ENDBRANCH   4  12
TORSDOF 3
ENDMDL
MODEL 5
REMARK VINA RESULT:    -4.426      3.123      3.782
REMARK INTER + INTRA:          -5.240
REMARK INTER:                  -5.087
REMARK INTRA:                  -0.153
REMARK UNBOUND:                -0.168
REMARK SMILES CC=Cc1ccc(O)c(OC)c1
REMARK SMILES IDX 4 1 12 2 9 3 7 4 6 5 5 6 3 7 1 8 2 9 10 10 11 11 8 12
REMARK H PARENT 8 13
REMARK Flexibility Score: inf
ROOT
ATOM      1  C   UNL     1      19.065  22.813  18.655  1.00  0.00    -0.022 A 
ATOM      2  C   UNL     1      18.781  22.662  20.023  1.00  0.00     0.058 A 
ATOM      3  C   UNL     1      19.265  23.587  20.968  1.00  0.00     0.161 A 
ATOM      4  C   UNL     1      20.031  24.677  20.532  1.00  0.00     0.157 A 
ATOM      5  C   UNL     1      20.304  24.842  19.169  1.00  0.00     0.051 A 
ATOM      6  C   UNL     1      19.824  23.922  18.235  1.00  0.00     0.012 A 
ENDROOT
BRANCH   1   7
ATOM      7  C   UNL     1      18.522  21.813  17.702  1.00  0.00     0.003 C 
ATOM      8  C   UNL     1      16.911  20.131  16.895  1.00  0.00     0.035 C 
ATOM      9  C   UNL     1      17.402  21.112  17.912  1.00  0.00    -0.030 C 
ENDBRANCH   1   7
BRANCH   3  10
ATOM     10  O   UNL     1      19.006  23.460  22.342  1.00  0.00    -0.493 OA
ATOM     11  C   UNL     1      17.990  22.632  22.897  1.00  0.00     0.278 C 
ENDBRANCH   3  10
BRANCH   4  12
ATOM     12  O   UNL     1      20.513  25.596  21.462  1.00  0.00    -0.504 OA
ATOM     13  H   UNL     1      20.399  26.595  21.330  1.00  0.00     0.293 HD
ENDBRANCH   4  12
TORSDOF 3
ENDMDL
MODEL 6
REMARK VINA RESULT:    -4.252      3.224      4.158
REMARK INTER + INTRA:          -5.041
REMARK INTER:                  -4.873
REMARK INTRA:                  -0.168
REMARK UNBOUND:                -0.168
REMARK SMILES CC=Cc1ccc(O)c(OC)c1
REMARK SMILES IDX 4 1 12 2 9 3 7 4 6 5 5 6 3 7 1 8 2 9 10 10 11 11 8 12
REMARK H PARENT 8 13
REMARK Flexibility Score: inf
ROOT
ATOM      1  C   UNL     1      18.541  22.647  20.950  1.00  0.00    -0.022 A 
ATOM      2  C   UNL     1      18.703  22.844  19.569  1.00  0.00     0.058 A 
ATOM      3  C   UNL     1      19.514  23.886  19.078  1.00  0.00     0.161 A 
ATOM      4  C   UNL     1      20.174  24.728  19.984  1.00  0.00     0.157 A 
ATOM      5  C   UNL     1      20.029  24.526  21.362  1.00  0.00     0.051 A 
ATOM      6  C   UNL     1      19.223  23.493  21.844  1.00  0.00     0.012 A 
ENDROOT
BRANCH   1   7
ATOM      7  C   UNL     1      17.682  21.527  21.412  1.00  0.00     0.003 C 
ATOM      8  C   UNL     1      17.077  19.164  21.759  1.00  0.00     0.035 C 
ATOM      9  C   UNL     1      17.989  20.235  21.253  1.00  0.00    -0.030 C 
ENDBRANCH   1   7
BRANCH   3  10
ATOM     10  O   UNL     1      19.689  24.116  17.704  1.00  0.00    -0.493 OA
ATOM     11  C   UNL     1      20.593  23.394  16.875  1.00  0.00     0.278 C 
ENDBRANCH   3  10
BRANCH   4  12
ATOM     12  O   UNL     1      20.977  25.761  19.505  1.00  0.00    -0.504 OA
ATOM     13  H   UNL     1      21.942  25.863  19.799  1.00  0.00     0.293 HD
ENDBRANCH   4  12
TORSDOF 3
ENDMDL
MODEL 7
REMARK VINA RESULT:    -4.229      6.394      7.764
REMARK INTER + INTRA:          -5.015
REMARK INTER:                  -4.841
REMARK INTRA:                  -0.174
REMARK UNBOUND:                -0.168
REMARK SMILES CC=Cc1ccc(O)c(OC)c1
REMARK SMILES IDX 4 1 12 2 9 3 7 4 6 5 5 6 3 7 1 8 2 9 10 10 11 11 8 12
REMARK H PARENT 8 13
REMARK Flexibility Score: inf
ROOT
ATOM      1  C   UNL     1      23.097  16.914  20.545  1.00  0.00    -0.022 A 
ATOM      2  C   UNL     1      23.830  16.434  19.446  1.00  0.00     0.058 A 
ATOM      3  C   UNL     1      25.110  16.945  19.153  1.00  0.00     0.161 A 
ATOM      4  C   UNL     1      25.659  17.936  19.977  1.00  0.00     0.157 A 
ATOM      5  C   UNL     1      24.941  18.407  21.082  1.00  0.00     0.051 A 
ATOM      6  C   UNL     1      23.672  17.900  21.369  1.00  0.00     0.012 A 
ENDROOT
BRANCH   1   7
ATOM      7  C   UNL     1      21.758  16.334  20.812  1.00  0.00     0.003 C 
ATOM      8  C   UNL     1      19.968  15.379  22.213  1.00  0.00     0.035 C 
ATOM      9  C   UNL     1      21.341  15.941  22.022  1.00  0.00    -0.030 C 
ENDBRANCH   1   7
BRANCH   3  10
ATOM     10  O   UNL     1      25.864  16.494  18.057  1.00  0.00    -0.493 OA
ATOM     11  C   UNL     1      26.668  15.319  18.061  1.00  0.00     0.278 C 
ENDBRANCH   3  10
BRANCH   4  12
ATOM     12  O   UNL     1      26.925  18.445  19.693  1.00  0.00    -0.504 OA
ATOM     13  H   UNL     1      27.117  18.940  18.829  1.00  0.00     0.293 HD
ENDBRANCH   4  12
TORSDOF 3
ENDMDL
MODEL 8
REMARK VINA RESULT:    -4.076      5.324      6.755
REMARK INTER + INTRA:          -4.839
REMARK INTER:                  -4.663
REMARK INTRA:                  -0.176
REMARK UNBOUND:                -0.168
REMARK SMILES CC=Cc1ccc(O)c(OC)c1
REMARK SMILES IDX 4 1 12 2 9 3 7 4 6 5 5 6 3 7 1 8 2 9 10 10 11 11 8 12
REMARK H PARENT 8 13
REMARK Flexibility Score: inf
ROOT
ATOM      1  C   UNL     1      24.727  16.754  19.298  1.00  0.00    -0.022 A 
ATOM      2  C   UNL     1      23.487  16.422  19.868  1.00  0.00     0.058 A 
ATOM      3  C   UNL     1      22.905  17.238  20.858  1.00  0.00     0.161 A 
ATOM      4  C   UNL     1      23.571  18.401  21.268  1.00  0.00     0.157 A 
ATOM      5  C   UNL     1      24.800  18.745  20.693  1.00  0.00     0.051 A 
ATOM      6  C   UNL     1      25.374  17.933  19.713  1.00  0.00     0.012 A 
ENDROOT
BRANCH   1   7
ATOM      7  C   UNL     1      25.290  15.863  18.253  1.00  0.00     0.003 C 
ATOM      8  C   UNL     1      27.079  14.876  16.875  1.00  0.00     0.035 C 
ATOM      9  C   UNL     1      26.588  15.813  17.932  1.00  0.00    -0.030 C 
ENDBRANCH   1   7
BRANCH   3  10
ATOM     10  O   UNL     1      21.672  16.929  21.454  1.00  0.00    -0.493 OA
ATOM     11  C   UNL     1      21.392  15.716  22.144  1.00  0.00     0.278 C 
ENDBRANCH   3  10
BRANCH   4  12
ATOM     12  O   UNL     1      23.001  19.212  22.247  1.00  0.00    -0.504 OA
ATOM     13  H   UNL     1      23.567  19.676  22.948  1.00  0.00     0.293 HD
ENDBRANCH   4  12
TORSDOF 3
ENDMDL
MODEL 9
REMARK VINA RESULT:    -4.013      2.837      4.030
REMARK INTER + INTRA:          -4.767
REMARK INTER:                  -4.614
REMARK INTRA:                  -0.154
REMARK UNBOUND:                -0.168
REMARK SMILES CC=Cc1ccc(O)c(OC)c1
REMARK SMILES IDX 4 1 12 2 9 3 7 4 6 5 5 6 3 7 1 8 2 9 10 10 11 11 8 12
REMARK H PARENT 8 13
REMARK Flexibility Score: inf
ROOT
ATOM      1  C   UNL     1      19.058  21.768  19.993  1.00  0.00    -0.022 A 
ATOM      2  C   UNL     1      19.654  22.603  19.034  1.00  0.00     0.058 A 
ATOM      3  C   UNL     1      20.035  23.920  19.359  1.00  0.00     0.161 A 
ATOM      4  C   UNL     1      19.824  24.395  20.660  1.00  0.00     0.157 A 
ATOM      5  C   UNL     1      19.244  23.562  21.625  1.00  0.00     0.051 A 
ATOM      6  C   UNL     1      18.867  22.258  21.299  1.00  0.00     0.012 A 
ENDROOT
BRANCH   1   7
ATOM      7  C   UNL     1      18.684  20.387  19.599  1.00  0.00     0.003 C 
ATOM      8  C   UNL     1      18.049  18.601  18.024  1.00  0.00     0.035 C 
ATOM      9  C   UNL     1      18.403  20.018  18.344  1.00  0.00    -0.030 C 
ENDBRANCH   1   7
BRANCH   3  10
ATOM     10  O   UNL     1      20.624  24.782  18.421  1.00  0.00    -0.493 OA
ATOM     11  C   UNL     1      20.442  24.687  17.012  1.00  0.00     0.278 C 
ENDBRANCH   3  10
BRANCH   4  12
ATOM     12  O   UNL     1      20.198  25.696  20.988  1.00  0.00    -0.504 OA
ATOM     13  H   UNL     1      20.877  25.886  21.716  1.00  0.00     0.293 HD
ENDBRANCH   4  12
TORSDOF 3
ENDMDL
