MODEL 1
REMARK VINA RESULT:    -3.864      0.000      0.000
REMARK INTER + INTRA:          -7.647
REMARK INTER:                  -6.122
REMARK INTRA:                  -1.524
REMARK UNBOUND:                -1.524
REMARK SMILES CCCCCCCCCCCC(=O)[O-]
REMARK SMILES IDX 7 1 8 2 9 3 10 4 11 5 12 6 13 7 14 8 6 9 5 10 4 11 3 12 2 13
REMARK SMILES IDX 1 14
REMARK H PARENT
REMARK Flexibility Score: inf
ROOT
ATOM      1  C   UNL     1       3.275  -5.642  -9.888  1.00  0.00     0.000 C 
ENDROOT
BRANCH   1   2
ATOM      2  C   UNL     1       3.987  -6.423  -8.762  1.00  0.00     0.000 C 
BRANCH   2   3
ATOM      3  C   UNL     1       3.028  -6.979  -7.693  1.00  0.00     0.000 C 
BRANCH   3   4
ATOM      4  C   UNL     1       3.117  -6.287  -6.322  1.00  0.00     0.006 C 
BRANCH   4   5
ATOM      5  C   UNL     1       4.530  -5.782  -6.003  1.00  0.00     0.053 C 
BRANCH   5   6
ATOM      6  C   UNL     1       5.110  -6.549  -4.857  1.00  0.00     0.041 C 
ATOM      7  O   UNL     1       6.299  -6.348  -4.499  1.00  0.00    -0.550 OA
ATOM      8  O   UNL     1       4.352  -7.523  -4.217  1.00  0.00    -0.550 OA
ENDBRANCH   5   6
ENDBRANCH   4   5
ENDBRANCH   3   4
ENDBRANCH   2   3
ENDBRANCH   1   2
BRANCH   1   9
ATOM      9  C   UNL     1       1.743  -5.703  -9.756  1.00  0.00     0.000 C 
BRANCH   9  10
ATOM     10  C   UNL     1       1.101  -4.309  -9.675  1.00  0.00    -0.000 C 
BRANCH  10  11
ATOM     11  C   UNL     1       1.129  -3.731  -8.253  1.00  0.00    -0.000 C 
BRANCH  11  12
ATOM     12  C   UNL     1       1.999  -2.467  -8.192  1.00  0.00    -0.000 C 
BRANCH  12  13
ATOM     13  C   UNL     1       3.425  -2.753  -7.694  1.00  0.00    -0.003 C 
ATOM     14  C   UNL     1       4.498  -2.307  -8.685  1.00  0.00     0.004 C 
ENDBRANCH  12  13
ENDBRANCH  11  12
ENDBRANCH  10  11
ENDBRANCH   9  10
ENDBRANCH   1   9
TORSDOF 10
ENDMDL
MODEL 2
REMARK VINA RESULT:    -3.674      1.988      3.209
REMARK INTER + INTRA:          -7.346
REMARK INTER:                  -6.824
REMARK INTRA:                  -0.522
REMARK UNBOUND:                -1.524
REMARK SMILES CCCCCCCCCCCC(=O)[O-]
REMARK SMILES IDX 7 1 8 2 9 3 10 4 11 5 12 6 13 7 14 8 6 9 5 10 4 11 3 12 2 13
REMARK SMILES IDX 1 14
REMARK H PARENT
REMARK Flexibility Score: inf
ROOT
ATOM      1  C   UNL     1       3.771  -5.265  -6.633  1.00  0.00     0.000 C 
ENDROOT
BRANCH   1   2
ATOM      2  C   UNL     1       3.354  -6.582  -5.943  1.00  0.00     0.000 C 
BRANCH   2   3
ATOM      3  C   UNL     1       3.875  -6.715  -4.498  1.00  0.00     0.000 C 
BRANCH   3   4
ATOM      4  C   UNL     1       5.151  -7.560  -4.347  1.00  0.00     0.006 C 
BRANCH   4   5
ATOM      5  C   UNL     1       6.431  -6.750  -4.589  1.00  0.00     0.053 C 
BRANCH   5   6
ATOM      6  C   UNL     1       7.167  -7.283  -5.778  1.00  0.00     0.041 C 
ATOM      7  O   UNL     1       8.411  -7.121  -5.875  1.00  0.00    -0.550 OA
ATOM      8  O   UNL     1       6.471  -7.913  -6.802  1.00  0.00    -0.550 OA
ENDBRANCH   5   6
ENDBRANCH   4   5
ENDBRANCH   3   4
ENDBRANCH   2   3
ENDBRANCH   1   2
BRANCH   1   9
ATOM      9  C   UNL     1       2.568  -4.524  -7.242  1.00  0.00     0.000 C 
BRANCH   9  10
ATOM     10  C   UNL     1       2.858  -3.036  -7.498  1.00  0.00    -0.000 C 
BRANCH  10  11
ATOM     11  C   UNL     1       1.716  -2.337  -8.251  1.00  0.00    -0.000 C 
BRANCH  11  12
ATOM     12  C   UNL     1       0.609  -3.336  -8.618  1.00  0.00    -0.000 C 
BRANCH  12  13
ATOM     13  C   UNL     1      -0.000  -3.062 -10.002  1.00  0.00    -0.003 C 
ATOM     14  C   UNL     1      -1.147  -2.053  -9.954  1.00  0.00     0.004 C 
ENDBRANCH  12  13
ENDBRANCH  11  12
ENDBRANCH  10  11
ENDBRANCH   9  10
ENDBRANCH   1   9
TORSDOF 10
ENDMDL
MODEL 3
REMARK VINA RESULT:    -3.648      0.994      2.156
REMARK INTER + INTRA:          -7.305
REMARK INTER:                  -5.706
REMARK INTRA:                  -1.599
REMARK UNBOUND:                -1.524
REMARK SMILES CCCCCCCCCCCC(=O)[O-]
REMARK SMILES IDX 7 1 8 2 9 3 10 4 11 5 12 6 13 7 14 8 6 9 5 10 4 11 3 12 2 13
REMARK SMILES IDX 1 14
REMARK H PARENT
REMARK Flexibility Score: inf
ROOT
ATOM      1  C   UNL     1       4.705  -6.067  -9.634  1.00  0.00     0.000 C 
ENDROOT
BRANCH   1   2
ATOM      2  C   UNL     1       4.431  -7.032  -8.460  1.00  0.00     0.000 C 
BRANCH   2   3
ATOM      3  C   UNL     1       3.067  -6.807  -7.780  1.00  0.00     0.000 C 
BRANCH   3   4
ATOM      4  C   UNL     1       3.143  -6.417  -6.293  1.00  0.00     0.006 C 
BRANCH   4   5
ATOM      5  C   UNL     1       4.491  -5.793  -5.913  1.00  0.00     0.053 C 
BRANCH   5   6
ATOM      6  C   UNL     1       5.127  -6.566  -4.801  1.00  0.00     0.041 C 
ATOM      7  O   UNL     1       6.324  -6.344  -4.480  1.00  0.00    -0.550 OA
ATOM      8  O   UNL     1       4.414  -7.567  -4.153  1.00  0.00    -0.550 OA
ENDBRANCH   5   6
ENDBRANCH   4   5
ENDBRANCH   3   4
ENDBRANCH   2   3
ENDBRANCH   1   2
BRANCH   1   9
ATOM      9  C   UNL     1       5.844  -5.082  -9.321  1.00  0.00     0.000 C 
BRANCH   9  10
ATOM     10  C   UNL     1       5.407  -3.614  -9.442  1.00  0.00    -0.000 C 
BRANCH  10  11
ATOM     11  C   UNL     1       3.890  -3.438  -9.277  1.00  0.00    -0.000 C 
BRANCH  11  12
ATOM     12  C   UNL     1       3.557  -2.784  -7.927  1.00  0.00    -0.000 C 
BRANCH  12  13
ATOM     13  C   UNL     1       2.102  -3.023  -7.496  1.00  0.00    -0.003 C 
ATOM     14  C   UNL     1       1.258  -3.667  -8.596  1.00  0.00     0.004 C 
ENDBRANCH  12  13
ENDBRANCH  11  12
ENDBRANCH  10  11
ENDBRANCH   9  10
ENDBRANCH   1   9
TORSDOF 10
ENDMDL
MODEL 4
REMARK VINA RESULT:    -3.629      2.261      3.868
REMARK INTER + INTRA:          -7.275
REMARK INTER:                  -6.166
REMARK INTRA:                  -1.109
REMARK UNBOUND:                -1.524
REMARK SMILES CCCCCCCCCCCC(=O)[O-]
REMARK SMILES IDX 7 1 8 2 9 3 10 4 11 5 12 6 13 7 14 8 6 9 5 10 4 11 3 12 2 13
REMARK SMILES IDX 1 14
REMARK H PARENT
REMARK Flexibility Score: inf
ROOT
ATOM      1  C   UNL     1       3.752  -6.422  -4.946  1.00  0.00     0.000 C 
ENDROOT
BRANCH   1   2
ATOM      2  C   UNL     1       5.294  -6.335  -4.973  1.00  0.00     0.000 C 
BRANCH   2   3
ATOM      3  C   UNL     1       5.994  -7.598  -4.436  1.00  0.00     0.000 C 
BRANCH   3   4
ATOM      4  C   UNL     1       5.361  -8.928  -4.884  1.00  0.00     0.006 C 
BRANCH   4   5
ATOM      5  C   UNL     1       5.942  -9.445  -6.206  1.00  0.00     0.053 C 
BRANCH   5   6
ATOM      6  C   UNL     1       4.926  -9.335  -7.299  1.00  0.00     0.041 C 
ATOM      7  O   UNL     1       3.710  -9.548  -7.055  1.00  0.00    -0.550 OA
ATOM      8  O   UNL     1       5.328  -9.048  -8.597  1.00  0.00    -0.550 OA
ENDBRANCH   5   6
ENDBRANCH   4   5
ENDBRANCH   3   4
ENDBRANCH   2   3
ENDBRANCH   1   2
BRANCH   1   9
ATOM      9  C   UNL     1       3.129  -6.108  -6.318  1.00  0.00     0.000 C 
BRANCH   9  10
ATOM     10  C   UNL     1       4.179  -5.708  -7.366  1.00  0.00    -0.000 C 
BRANCH  10  11
ATOM     11  C   UNL     1       3.920  -4.313  -7.954  1.00  0.00    -0.000 C 
BRANCH  11  12
ATOM     12  C   UNL     1       2.829  -3.577  -7.161  1.00  0.00    -0.000 C 
BRANCH  12  13
ATOM     13  C   UNL     1       2.001  -2.624  -8.036  1.00  0.00    -0.003 C 
ATOM     14  C   UNL     1       0.734  -3.276  -8.587  1.00  0.00     0.004 C 
ENDBRANCH  12  13
ENDBRANCH  11  12
ENDBRANCH  10  11
ENDBRANCH   9  10
ENDBRANCH   1   9
TORSDOF 10
ENDMDL
MODEL 5
REMARK VINA RESULT:    -3.624      1.761      2.961
REMARK INTER + INTRA:          -7.267
REMARK INTER:                  -6.610
REMARK INTRA:                  -0.657
REMARK UNBOUND:                -1.524
REMARK SMILES CCCCCCCCCCCC(=O)[O-]
REMARK SMILES IDX 7 1 8 2 9 3 10 4 11 5 12 6 13 7 14 8 6 9 5 10 4 11 3 12 2 13
REMARK SMILES IDX 1 14
REMARK H PARENT
REMARK Flexibility Score: inf
ROOT
ATOM      1  C   UNL     1       2.654  -4.245  -7.114  1.00  0.00     0.000 C 
ENDROOT
BRANCH   1   2
ATOM      2  C   UNL     1       3.109  -5.565  -7.774  1.00  0.00     0.000 C 
BRANCH   2   3
ATOM      3  C   UNL     1       3.611  -6.619  -6.768  1.00  0.00     0.000 C 
BRANCH   3   4
ATOM      4  C   UNL     1       4.049  -6.053  -5.405  1.00  0.00     0.006 C 
BRANCH   4   5
ATOM      5  C   UNL     1       5.484  -6.449  -5.033  1.00  0.00     0.053 C 
BRANCH   5   6
ATOM      6  C   UNL     1       5.524  -7.864  -4.548  1.00  0.00     0.041 C 
ATOM      7  O   UNL     1       4.599  -8.308  -3.819  1.00  0.00    -0.550 OA
ATOM      8  O   UNL     1       6.608  -8.675  -4.858  1.00  0.00    -0.550 OA
ENDBRANCH   5   6
ENDBRANCH   4   5
ENDBRANCH   3   4
ENDBRANCH   2   3
ENDBRANCH   1   2
BRANCH   1   9
ATOM      9  C   UNL     1       3.338  -3.018  -7.742  1.00  0.00     0.000 C 
BRANCH   9  10
ATOM     10  C   UNL     1       4.258  -3.389  -8.915  1.00  0.00    -0.000 C 
BRANCH  10  11
ATOM     11  C   UNL     1       5.270  -2.280  -9.241  1.00  0.00    -0.000 C 
BRANCH  11  12
ATOM     12  C   UNL     1       5.193  -1.146  -8.207  1.00  0.00    -0.000 C 
BRANCH  12  13
ATOM     13  C   UNL     1       6.441  -0.250  -8.218  1.00  0.00    -0.003 C 
ATOM     14  C   UNL     1       6.469   0.738  -7.053  1.00  0.00     0.004 C 
ENDBRANCH  12  13
ENDBRANCH  11  12
ENDBRANCH  10  11
ENDBRANCH   9  10
ENDBRANCH   1   9
TORSDOF 10
ENDMDL
MODEL 6
REMARK VINA RESULT:    -3.619      1.414      2.374
REMARK INTER + INTRA:          -7.259
REMARK INTER:                  -6.220
REMARK INTRA:                  -1.039
REMARK UNBOUND:                -1.524
REMARK SMILES CCCCCCCCCCCC(=O)[O-]
REMARK SMILES IDX 7 1 8 2 9 3 10 4 11 5 12 6 13 7 14 8 6 9 5 10 4 11 3 12 2 13
REMARK SMILES IDX 1 14
REMARK H PARENT
REMARK Flexibility Score: inf
ROOT
ATOM      1  C   UNL     1       4.239  -6.084  -7.574  1.00  0.00     0.000 C 
ENDROOT
BRANCH   1   2
ATOM      2  C   UNL     1       4.186  -5.630  -6.099  1.00  0.00     0.000 C 
BRANCH   2   3
ATOM      3  C   UNL     1       3.789  -6.752  -5.120  1.00  0.00     0.000 C 
BRANCH   3   4
ATOM      4  C   UNL     1       4.909  -7.206  -4.168  1.00  0.00     0.006 C 
BRANCH   4   5
ATOM      5  C   UNL     1       6.248  -6.517  -4.459  1.00  0.00     0.053 C 
BRANCH   5   6
ATOM      6  C   UNL     1       7.274  -7.526  -4.870  1.00  0.00     0.041 C 
ATOM      7  O   UNL     1       8.491  -7.208  -4.914  1.00  0.00    -0.550 OA
ATOM      8  O   UNL     1       6.880  -8.801  -5.255  1.00  0.00    -0.550 OA
ENDBRANCH   5   6
ENDBRANCH   4   5
ENDBRANCH   3   4
ENDBRANCH   2   3
ENDBRANCH   1   2
BRANCH   1   9
ATOM      9  C   UNL     1       3.019  -6.938  -7.961  1.00  0.00     0.000 C 
BRANCH   9  10
ATOM     10  C   UNL     1       2.234  -6.346  -9.143  1.00  0.00    -0.000 C 
BRANCH  10  11
ATOM     11  C   UNL     1       2.502  -4.846  -9.333  1.00  0.00    -0.000 C 
BRANCH  11  12
ATOM     12  C   UNL     1       1.467  -4.003  -8.573  1.00  0.00    -0.000 C 
BRANCH  12  13
ATOM     13  C   UNL     1       2.115  -2.987  -7.620  1.00  0.00    -0.003 C 
ATOM     14  C   UNL     1       3.494  -2.529  -8.093  1.00  0.00     0.004 C 
ENDBRANCH  12  13
ENDBRANCH  11  12
ENDBRANCH  10  11
ENDBRANCH   9  10
ENDBRANCH   1   9
TORSDOF 10
ENDMDL
MODEL 7
REMARK VINA RESULT:    -3.597      1.561      2.759
REMARK INTER + INTRA:          -7.223
REMARK INTER:                  -6.244
REMARK INTRA:                  -0.980
REMARK UNBOUND:                -1.524
REMARK SMILES CCCCCCCCCCCC(=O)[O-]
REMARK SMILES IDX 7 1 8 2 9 3 10 4 11 5 12 6 13 7 14 8 6 9 5 10 4 11 3 12 2 13
REMARK SMILES IDX 1 14
REMARK H PARENT
REMARK Flexibility Score: inf
ROOT
ATOM      1  C   UNL     1       4.997  -7.221  -8.340  1.00  0.00     0.000 C 
ENDROOT
BRANCH   1   2
ATOM      2  C   UNL     1       6.216  -6.709  -7.543  1.00  0.00     0.000 C 
BRANCH   2   3
ATOM      3  C   UNL     1       6.800  -7.752  -6.570  1.00  0.00     0.000 C 
BRANCH   3   4
ATOM      4  C   UNL     1       6.994  -7.253  -5.128  1.00  0.00     0.006 C 
BRANCH   4   5
ATOM      5  C   UNL     1       5.844  -6.355  -4.652  1.00  0.00     0.053 C 
BRANCH   5   6
ATOM      6  C   UNL     1       4.626  -7.176  -4.367  1.00  0.00     0.041 C 
ATOM      7  O   UNL     1       4.740  -8.309  -3.830  1.00  0.00    -0.550 OA
ATOM      8  O   UNL     1       3.371  -6.713  -4.740  1.00  0.00    -0.550 OA
ENDBRANCH   5   6
ENDBRANCH   4   5
ENDBRANCH   3   4
ENDBRANCH   2   3
ENDBRANCH   1   2
BRANCH   1   9
ATOM      9  C   UNL     1       3.877  -6.169  -8.426  1.00  0.00     0.000 C 
BRANCH   9  10
ATOM     10  C   UNL     1       4.235  -4.863  -7.699  1.00  0.00    -0.000 C 
BRANCH  10  11
ATOM     11  C   UNL     1       3.001  -4.154  -7.124  1.00  0.00    -0.000 C 
BRANCH  11  12
ATOM     12  C   UNL     1       2.926  -2.699  -7.613  1.00  0.00    -0.000 C 
BRANCH  12  13
ATOM     13  C   UNL     1       1.558  -2.348  -8.219  1.00  0.00    -0.003 C 
ATOM     14  C   UNL     1       0.885  -3.543  -8.892  1.00  0.00     0.004 C 
ENDBRANCH  12  13
ENDBRANCH  11  12
ENDBRANCH  10  11
ENDBRANCH   9  10
ENDBRANCH   1   9
TORSDOF 10
ENDMDL
MODEL 8
REMARK VINA RESULT:    -3.584      1.979      2.746
REMARK INTER + INTRA:          -7.204
REMARK INTER:                  -6.523
REMARK INTRA:                  -0.682
REMARK UNBOUND:                -1.524
REMARK SMILES CCCCCCCCCCCC(=O)[O-]
REMARK SMILES IDX 7 1 8 2 9 3 10 4 11 5 12 6 13 7 14 8 6 9 5 10 4 11 3 12 2 13
REMARK SMILES IDX 1 14
REMARK H PARENT
REMARK Flexibility Score: inf
ROOT
ATOM      1  C   UNL     1       3.640  -5.010  -6.585  1.00  0.00     0.000 C 
ENDROOT
BRANCH   1   2
ATOM      2  C   UNL     1       3.605  -6.490  -6.146  1.00  0.00     0.000 C 
BRANCH   2   3
ATOM      3  C   UNL     1       3.774  -6.689  -4.627  1.00  0.00     0.000 C 
BRANCH   3   4
ATOM      4  C   UNL     1       5.076  -7.395  -4.209  1.00  0.00     0.006 C 
BRANCH   4   5
ATOM      5  C   UNL     1       6.330  -6.588  -4.570  1.00  0.00     0.053 C 
BRANCH   5   6
ATOM      6  C   UNL     1       7.492  -7.504  -4.789  1.00  0.00     0.041 C 
ATOM      7  O   UNL     1       7.671  -8.492  -4.030  1.00  0.00    -0.550 OA
ATOM      8  O   UNL     1       8.406  -7.238  -5.801  1.00  0.00    -0.550 OA
ENDBRANCH   5   6
ENDBRANCH   4   5
ENDBRANCH   3   4
ENDBRANCH   2   3
ENDBRANCH   1   2
BRANCH   1   9
ATOM      9  C   UNL     1       2.284  -4.537  -7.138  1.00  0.00     0.000 C 
BRANCH   9  10
ATOM     10  C   UNL     1       2.286  -3.048  -7.516  1.00  0.00    -0.000 C 
BRANCH  10  11
ATOM     11  C   UNL     1       1.933  -2.816  -8.992  1.00  0.00    -0.000 C 
BRANCH  11  12
ATOM     12  C   UNL     1       3.170  -2.987  -9.886  1.00  0.00    -0.000 C 
BRANCH  12  13
ATOM     13  C   UNL     1       4.454  -2.458  -9.227  1.00  0.00    -0.003 C 
ATOM     14  C   UNL     1       5.667  -3.347  -9.497  1.00  0.00     0.004 C 
ENDBRANCH  12  13
ENDBRANCH  11  12
ENDBRANCH  10  11
ENDBRANCH   9  10
ENDBRANCH   1   9
TORSDOF 10
ENDMDL
MODEL 9
REMARK VINA RESULT:    -3.451      3.010      5.748
REMARK INTER + INTRA:          -6.992
REMARK INTER:                  -5.489
REMARK INTRA:                  -1.503
REMARK UNBOUND:                -1.524
REMARK SMILES CCCCCCCCCCCC(=O)[O-]
REMARK SMILES IDX 7 1 8 2 9 3 10 4 11 5 12 6 13 7 14 8 6 9 5 10 4 11 3 12 2 13
REMARK SMILES IDX 1 14
REMARK H PARENT
REMARK Flexibility Score: inf
ROOT
ATOM      1  C   UNL     1       5.649  -6.345  -4.875  1.00  0.00     0.000 C 
ENDROOT
BRANCH   1   2
ATOM      2  C   UNL     1       4.202  -6.773  -4.549  1.00  0.00     0.000 C 
BRANCH   2   3
ATOM      3  C   UNL     1       3.186  -6.407  -5.649  1.00  0.00     0.000 C 
BRANCH   3   4
ATOM      4  C   UNL     1       3.642  -5.290  -6.603  1.00  0.00     0.006 C 
BRANCH   4   5
ATOM      5  C   UNL     1       2.668  -5.071  -7.768  1.00  0.00     0.053 C 
BRANCH   5   6
ATOM      6  C   UNL     1       2.023  -3.725  -7.660  1.00  0.00     0.041 C 
ATOM      7  O   UNL     1       2.582  -2.806  -7.007  1.00  0.00    -0.550 OA
ATOM      8  O   UNL     1       0.779  -3.501  -8.238  1.00  0.00    -0.550 OA
ENDBRANCH   5   6
ENDBRANCH   4   5
ENDBRANCH   3   4
ENDBRANCH   2   3
ENDBRANCH   1   2
BRANCH   1   9
ATOM      9  C   UNL     1       6.593  -7.552  -5.017  1.00  0.00     0.000 C 
BRANCH   9  10
ATOM     10  C   UNL     1       7.173  -7.686  -6.433  1.00  0.00    -0.000 C 
BRANCH  10  11
ATOM     11  C   UNL     1       6.415  -8.715  -7.284  1.00  0.00    -0.000 C 
BRANCH  11  12
ATOM     12  C   UNL     1       5.492  -8.017  -8.295  1.00  0.00    -0.000 C 
BRANCH  12  13
ATOM     13  C   UNL     1       4.095  -8.655  -8.360  1.00  0.00    -0.003 C 
ATOM     14  C   UNL     1       3.853  -9.664  -7.238  1.00  0.00     0.004 C 
ENDBRANCH  12  13
ENDBRANCH  11  12
ENDBRANCH  10  11
ENDBRANCH   9  10
ENDBRANCH   1   9
TORSDOF 10
ENDMDL
