MODEL 1
REMARK VINA RESULT:    -3.396      0.000      0.000
REMARK INTER + INTRA:         -11.181
REMARK INTER:                  -7.764
REMARK INTRA:                  -3.417
REMARK UNBOUND:                -3.417
REMARK SMILES CCCCCCCCCCCCCCCCCCCCCCCC(=O)[O-]
REMARK SMILES IDX 13 1 14 2 15 3 16 4 17 5 18 6 19 7 20 8 21 9 22 10 23 11
REMARK SMILES IDX 24 12 25 13 26 14 12 15 11 16 10 17 9 18 8 19 7 20 6 21 5 22
REMARK SMILES IDX 4 23 3 24 2 25 1 26
REMARK H PARENT
REMARK Flexibility Score: inf
ROOT
ATOM      1  C   UNL     1       4.511  -2.281  -9.318  1.00  0.00     0.000 C 
ENDROOT
BRANCH   1   2
ATOM      2  C   UNL     1       3.511  -3.128 -10.125  1.00  0.00     0.000 C 
BRANCH   2   3
ATOM      3  C   UNL     1       2.990  -4.353  -9.349  1.00  0.00     0.000 C 
BRANCH   3   4
ATOM      4  C   UNL     1       3.667  -5.692  -9.699  1.00  0.00     0.000 C 
BRANCH   4   5
ATOM      5  C   UNL     1       3.901  -6.588  -8.473  1.00  0.00     0.000 C 
BRANCH   5   6
ATOM      6  C   UNL     1       5.000  -7.625  -8.747  1.00  0.00     0.000 C 
BRANCH   6   7
ATOM      7  C   UNL     1       6.418  -7.041  -8.616  1.00  0.00     0.000 C 
BRANCH   7   8
ATOM      8  C   UNL     1       7.353  -7.346  -9.800  1.00  0.00     0.000 C 
BRANCH   8   9
ATOM      9  C   UNL     1       8.512  -8.284  -9.417  1.00  0.00     0.000 C 
BRANCH   9  10
ATOM     10  C   UNL     1       8.840  -8.226  -7.916  1.00  0.00     0.006 C 
BRANCH  10  11
ATOM     11  C   UNL     1       8.603  -9.567  -7.212  1.00  0.00     0.053 C 
BRANCH  11  12
ATOM     12  C   UNL     1       8.002  -9.348  -5.860  1.00  0.00     0.041 C 
ATOM     13  O   UNL     1       8.715  -8.930  -4.910  1.00  0.00    -0.550 OA
ATOM     14  O   UNL     1       6.668  -9.667  -5.632  1.00  0.00    -0.550 OA
ENDBRANCH  11  12
ENDBRANCH  10  11
ENDBRANCH   9  10
ENDBRANCH   8   9
ENDBRANCH   7   8
ENDBRANCH   6   7
ENDBRANCH   5   6
ENDBRANCH   4   5
ENDBRANCH   3   4
ENDBRANCH   2   3
ENDBRANCH   1   2
BRANCH   1  15
ATOM     15  C   UNL     1       5.904  -2.223  -9.968  1.00  0.00     0.000 C 
BRANCH  15  16
ATOM     16  C   UNL     1       6.621  -3.578 -10.105  1.00  0.00     0.000 C 
BRANCH  16  17
ATOM     17  C   UNL     1       7.808  -3.728  -9.138  1.00  0.00     0.000 C 
BRANCH  17  18
ATOM     18  C   UNL     1       7.539  -3.070  -7.774  1.00  0.00    -0.000 C 
BRANCH  18  19
ATOM     19  C   UNL     1       7.939  -3.979  -6.598  1.00  0.00    -0.000 C 
BRANCH  19  20
ATOM     20  C   UNL     1       6.733  -4.679  -5.951  1.00  0.00    -0.000 C 
BRANCH  20  21
ATOM     21  C   UNL     1       5.387  -4.141  -6.469  1.00  0.00    -0.000 C 
BRANCH  21  22
ATOM     22  C   UNL     1       4.366  -3.929  -5.338  1.00  0.00    -0.000 C 
BRANCH  22  23
ATOM     23  C   UNL     1       3.034  -3.350  -5.848  1.00  0.00    -0.000 C 
BRANCH  23  24
ATOM     24  C   UNL     1       2.367  -2.402  -4.835  1.00  0.00    -0.000 C 
BRANCH  24  25
ATOM     25  C   UNL     1       1.872  -3.080  -3.544  1.00  0.00    -0.003 C 
ATOM     26  C   UNL     1       2.558  -2.546  -2.287  1.00  0.00     0.004 C 
ENDBRANCH  24  25
ENDBRANCH  23  24
ENDBRANCH  22  23
ENDBRANCH  21  22
ENDBRANCH  20  21
ENDBRANCH  19  20
ENDBRANCH  18  19
ENDBRANCH  17  18
ENDBRANCH  16  17
ENDBRANCH  15  16
ENDBRANCH   1  15
TORSDOF 22
ENDMDL
MODEL 2
REMARK VINA RESULT:    -3.102      1.728      3.953
REMARK INTER + INTRA:         -10.509
REMARK INTER:                  -7.297
REMARK INTRA:                  -3.212
REMARK UNBOUND:                -3.417
REMARK SMILES CCCCCCCCCCCCCCCCCCCCCCCC(=O)[O-]
REMARK SMILES IDX 13 1 14 2 15 3 16 4 17 5 18 6 19 7 20 8 21 9 22 10 23 11
REMARK SMILES IDX 24 12 25 13 26 14 12 15 11 16 10 17 9 18 8 19 7 20 6 21 5 22
REMARK SMILES IDX 4 23 3 24 2 25 1 26
REMARK H PARENT
REMARK Flexibility Score: inf
ROOT
ATOM      1  C   UNL     1       6.574  -2.931  -8.467  1.00  0.00     0.000 C 
ENDROOT
BRANCH   1   2
ATOM      2  C   UNL     1       7.798  -2.287  -7.791  1.00  0.00     0.000 C 
BRANCH   2   3
ATOM      3  C   UNL     1       9.121  -2.593  -8.519  1.00  0.00     0.000 C 
BRANCH   3   4
ATOM      4  C   UNL     1      10.121  -3.461  -7.731  1.00  0.00     0.000 C 
BRANCH   4   5
ATOM      5  C   UNL     1      10.122  -4.932  -8.176  1.00  0.00     0.000 C 
BRANCH   5   6
ATOM      6  C   UNL     1      10.008  -5.875  -6.969  1.00  0.00     0.000 C 
BRANCH   6   7
ATOM      7  C   UNL     1       8.758  -5.601  -6.113  1.00  0.00     0.000 C 
BRANCH   7   8
ATOM      8  C   UNL     1       8.054  -6.861  -5.577  1.00  0.00     0.000 C 
BRANCH   8   9
ATOM      9  C   UNL     1       9.039  -7.896  -5.007  1.00  0.00     0.000 C 
BRANCH   9  10
ATOM     10  C   UNL     1       8.569  -9.342  -5.241  1.00  0.00     0.006 C 
BRANCH  10  11
ATOM     11  C   UNL     1       7.476  -9.437  -6.312  1.00  0.00     0.053 C 
BRANCH  11  12
ATOM     12  C   UNL     1       8.065  -9.846  -7.624  1.00  0.00     0.041 C 
ATOM     13  O   UNL     1       7.321 -10.025  -8.625  1.00  0.00    -0.550 OA
ATOM     14  O   UNL     1       9.429 -10.094  -7.727  1.00  0.00    -0.550 OA
ENDBRANCH  11  12
ENDBRANCH  10  11
ENDBRANCH   9  10
ENDBRANCH   8   9
ENDBRANCH   7   8
ENDBRANCH   6   7
ENDBRANCH   5   6
ENDBRANCH   4   5
ENDBRANCH   3   4
ENDBRANCH   2   3
ENDBRANCH   1   2
BRANCH   1  15
ATOM     15  C   UNL     1       6.521  -4.457  -8.275  1.00  0.00     0.000 C 
BRANCH  15  16
ATOM     16  C   UNL     1       6.789  -5.286  -9.544  1.00  0.00     0.000 C 
BRANCH  16  17
ATOM     17  C   UNL     1       5.917  -6.551  -9.628  1.00  0.00     0.000 C 
BRANCH  17  18
ATOM     18  C   UNL     1       5.422  -7.014  -8.247  1.00  0.00    -0.000 C 
BRANCH  18  19
ATOM     19  C   UNL     1       3.893  -6.903  -8.106  1.00  0.00    -0.000 C 
BRANCH  19  20
ATOM     20  C   UNL     1       3.263  -5.994  -9.173  1.00  0.00    -0.000 C 
BRANCH  20  21
ATOM     21  C   UNL     1       3.041  -4.555  -8.671  1.00  0.00    -0.000 C 
BRANCH  21  22
ATOM     22  C   UNL     1       2.792  -4.496  -7.154  1.00  0.00    -0.000 C 
BRANCH  22  23
ATOM     23  C   UNL     1       3.702  -3.475  -6.447  1.00  0.00    -0.000 C 
BRANCH  23  24
ATOM     24  C   UNL     1       3.525  -3.473  -4.918  1.00  0.00    -0.000 C 
BRANCH  24  25
ATOM     25  C   UNL     1       2.266  -2.743  -4.414  1.00  0.00    -0.003 C 
ATOM     26  C   UNL     1       2.156  -2.724  -2.889  1.00  0.00     0.004 C 
ENDBRANCH  24  25
ENDBRANCH  23  24
ENDBRANCH  22  23
ENDBRANCH  21  22
ENDBRANCH  20  21
ENDBRANCH  19  20
ENDBRANCH  18  19
ENDBRANCH  17  18
ENDBRANCH  16  17
ENDBRANCH  15  16
ENDBRANCH   1  15
TORSDOF 22
ENDMDL
MODEL 3
REMARK VINA RESULT:    -3.093      1.361      3.227
REMARK INTER + INTRA:         -10.487
REMARK INTER:                  -6.856
REMARK INTRA:                  -3.631
REMARK UNBOUND:                -3.417
REMARK SMILES CCCCCCCCCCCCCCCCCCCCCCCC(=O)[O-]
REMARK SMILES IDX 13 1 14 2 15 3 16 4 17 5 18 6 19 7 20 8 21 9 22 10 23 11
REMARK SMILES IDX 24 12 25 13 26 14 12 15 11 16 10 17 9 18 8 19 7 20 6 21 5 22
REMARK SMILES IDX 4 23 3 24 2 25 1 26
REMARK H PARENT
REMARK Flexibility Score: inf
ROOT
ATOM      1  C   UNL     1       5.787  -3.998 -10.124  1.00  0.00     0.000 C 
ENDROOT
BRANCH   1   2
ATOM      2  C   UNL     1       6.486  -2.630 -10.030  1.00  0.00     0.000 C 
BRANCH   2   3
ATOM      3  C   UNL     1       7.158  -2.387  -8.665  1.00  0.00     0.000 C 
BRANCH   3   4
ATOM      4  C   UNL     1       8.532  -1.690  -8.723  1.00  0.00     0.000 C 
BRANCH   4   5
ATOM      5  C   UNL     1       9.690  -2.606  -8.300  1.00  0.00     0.000 C 
BRANCH   5   6
ATOM      6  C   UNL     1       9.207  -4.048  -8.088  1.00  0.00     0.000 C 
BRANCH   6   7
ATOM      7  C   UNL     1       9.724  -5.015  -9.168  1.00  0.00     0.000 C 
BRANCH   7   8
ATOM      8  C   UNL     1       8.781  -6.189  -9.489  1.00  0.00     0.000 C 
BRANCH   8   9
ATOM      9  C   UNL     1       9.520  -7.534  -9.598  1.00  0.00     0.000 C 
BRANCH   9  10
ATOM     10  C   UNL     1       9.899  -8.107  -8.222  1.00  0.00     0.006 C 
BRANCH  10  11
ATOM     11  C   UNL     1       8.674  -8.367  -7.337  1.00  0.00     0.053 C 
BRANCH  11  12
ATOM     12  C   UNL     1       8.924  -7.881  -5.945  1.00  0.00     0.041 C 
ATOM     13  O   UNL     1       9.217  -6.674  -5.738  1.00  0.00    -0.550 OA
ATOM     14  O   UNL     1       8.897  -8.776  -4.882  1.00  0.00    -0.550 OA
ENDBRANCH  11  12
ENDBRANCH  10  11
ENDBRANCH   9  10
ENDBRANCH   8   9
ENDBRANCH   7   8
ENDBRANCH   6   7
ENDBRANCH   5   6
ENDBRANCH   4   5
ENDBRANCH   3   4
ENDBRANCH   2   3
ENDBRANCH   1   2
BRANCH   1  15
ATOM     15  C   UNL     1       4.253  -3.887 -10.104  1.00  0.00     0.000 C 
BRANCH  15  16
ATOM     16  C   UNL     1       3.510  -5.150  -9.632  1.00  0.00     0.000 C 
BRANCH  16  17
ATOM     17  C   UNL     1       4.438  -6.368  -9.481  1.00  0.00     0.000 C 
BRANCH  17  18
ATOM     18  C   UNL     1       4.605  -6.799  -8.015  1.00  0.00    -0.000 C 
BRANCH  18  19
ATOM     19  C   UNL     1       5.837  -6.155  -7.352  1.00  0.00    -0.000 C 
BRANCH  19  20
ATOM     20  C   UNL     1       5.500  -5.457  -6.025  1.00  0.00    -0.000 C 
BRANCH  20  21
ATOM     21  C   UNL     1       5.607  -3.924  -6.117  1.00  0.00    -0.000 C 
BRANCH  21  22
ATOM     22  C   UNL     1       4.317  -3.278  -6.653  1.00  0.00    -0.000 C 
BRANCH  22  23
ATOM     23  C   UNL     1       3.060  -3.773  -5.915  1.00  0.00    -0.000 C 
BRANCH  23  24
ATOM     24  C   UNL     1       2.511  -2.743  -4.911  1.00  0.00    -0.000 C 
BRANCH  24  25
ATOM     25  C   UNL     1       2.862  -3.027  -3.439  1.00  0.00    -0.003 C 
ATOM     26  C   UNL     1       1.727  -2.677  -2.476  1.00  0.00     0.004 C 
ENDBRANCH  24  25
ENDBRANCH  23  24
ENDBRANCH  22  23
ENDBRANCH  21  22
ENDBRANCH  20  21
ENDBRANCH  19  20
ENDBRANCH  18  19
ENDBRANCH  17  18
ENDBRANCH  16  17
ENDBRANCH  15  16
ENDBRANCH   1  15
TORSDOF 22
ENDMDL
MODEL 4
REMARK VINA RESULT:    -3.040      2.948      6.363
REMARK INTER + INTRA:         -10.367
REMARK INTER:                  -7.022
REMARK INTRA:                  -3.345
REMARK UNBOUND:                -3.417
REMARK SMILES CCCCCCCCCCCCCCCCCCCCCCCC(=O)[O-]
REMARK SMILES IDX 13 1 14 2 15 3 16 4 17 5 18 6 19 7 20 8 21 9 22 10 23 11
REMARK SMILES IDX 24 12 25 13 26 14 12 15 11 16 10 17 9 18 8 19 7 20 6 21 5 22
REMARK SMILES IDX 4 23 3 24 2 25 1 26
REMARK H PARENT
REMARK Flexibility Score: inf
ROOT
ATOM      1  C   UNL     1       6.522  -2.794  -9.089  1.00  0.00     0.000 C 
ENDROOT
BRANCH   1   2
ATOM      2  C   UNL     1       6.079  -3.863 -10.103  1.00  0.00     0.000 C 
BRANCH   2   3
ATOM      3  C   UNL     1       6.882  -5.173  -9.990  1.00  0.00     0.000 C 
BRANCH   3   4
ATOM      4  C   UNL     1       6.208  -6.291  -9.171  1.00  0.00     0.000 C 
BRANCH   4   5
ATOM      5  C   UNL     1       5.116  -5.769  -8.223  1.00  0.00     0.000 C 
BRANCH   5   6
ATOM      6  C   UNL     1       5.627  -5.697  -6.777  1.00  0.00     0.000 C 
BRANCH   6   7
ATOM      7  C   UNL     1       5.275  -4.367  -6.085  1.00  0.00     0.000 C 
BRANCH   7   8
ATOM      8  C   UNL     1       4.199  -3.532  -6.801  1.00  0.00     0.000 C 
BRANCH   8   9
ATOM      9  C   UNL     1       2.847  -3.549  -6.068  1.00  0.00     0.000 C 
BRANCH   9  10
ATOM     10  C   UNL     1       2.868  -2.705  -4.782  1.00  0.00     0.006 C 
BRANCH  10  11
ATOM     11  C   UNL     1       1.781  -3.128  -3.786  1.00  0.00     0.053 C 
BRANCH  11  12
ATOM     12  C   UNL     1       2.176  -2.751  -2.393  1.00  0.00     0.041 C 
ATOM     13  O   UNL     1       1.784  -3.441  -1.415  1.00  0.00    -0.550 OA
ATOM     14  O   UNL     1       2.921  -1.600  -2.169  1.00  0.00    -0.550 OA
ENDBRANCH  11  12
ENDBRANCH  10  11
ENDBRANCH   9  10
ENDBRANCH   8   9
ENDBRANCH   7   8
ENDBRANCH   6   7
ENDBRANCH   5   6
ENDBRANCH   4   5
ENDBRANCH   3   4
ENDBRANCH   2   3
ENDBRANCH   1   2
BRANCH   1  15
ATOM     15  C   UNL     1       7.736  -1.981  -9.571  1.00  0.00     0.000 C 
BRANCH  15  16
ATOM     16  C   UNL     1       8.965  -2.027  -8.645  1.00  0.00     0.000 C 
BRANCH  16  17
ATOM     17  C   UNL     1       8.697  -2.784  -7.333  1.00  0.00     0.000 C 
BRANCH  17  18
ATOM     18  C   UNL     1       9.783  -3.829  -7.028  1.00  0.00    -0.000 C 
BRANCH  18  19
ATOM     19  C   UNL     1       9.906  -4.887  -8.139  1.00  0.00    -0.000 C 
BRANCH  19  20
ATOM     20  C   UNL     1       9.831  -6.325  -7.601  1.00  0.00    -0.000 C 
BRANCH  20  21
ATOM     21  C   UNL     1       9.012  -6.430  -6.302  1.00  0.00    -0.000 C 
BRANCH  21  22
ATOM     22  C   UNL     1       9.544  -7.523  -5.359  1.00  0.00    -0.000 C 
BRANCH  22  23
ATOM     23  C   UNL     1       8.783  -8.853  -5.509  1.00  0.00    -0.000 C 
BRANCH  23  24
ATOM     24  C   UNL     1       7.429  -8.691  -6.223  1.00  0.00    -0.000 C 
BRANCH  24  25
ATOM     25  C   UNL     1       7.296  -9.474  -7.542  1.00  0.00    -0.003 C 
ATOM     26  C   UNL     1       8.645  -9.899  -8.123  1.00  0.00     0.004 C 
ENDBRANCH  24  25
ENDBRANCH  23  24
ENDBRANCH  22  23
ENDBRANCH  21  22
ENDBRANCH  20  21
ENDBRANCH  19  20
ENDBRANCH  18  19
ENDBRANCH  17  18
ENDBRANCH  16  17
ENDBRANCH  15  16
ENDBRANCH   1  15
TORSDOF 22
ENDMDL
MODEL 5
REMARK VINA RESULT:    -3.027      1.715      3.157
REMARK INTER + INTRA:         -10.337
REMARK INTER:                  -7.276
REMARK INTRA:                  -3.062
REMARK UNBOUND:                -3.417
REMARK SMILES CCCCCCCCCCCCCCCCCCCCCCCC(=O)[O-]
REMARK SMILES IDX 13 1 14 2 15 3 16 4 17 5 18 6 19 7 20 8 21 9 22 10 23 11
REMARK SMILES IDX 24 12 25 13 26 14 12 15 11 16 10 17 9 18 8 19 7 20 6 21 5 22
REMARK SMILES IDX 4 23 3 24 2 25 1 26
REMARK H PARENT
REMARK Flexibility Score: inf
ROOT
ATOM      1  C   UNL     1       5.626  -6.379  -9.166  1.00  0.00     0.000 C 
ENDROOT
BRANCH   1   2
ATOM      2  C   UNL     1       5.317  -7.701  -9.891  1.00  0.00     0.000 C 
BRANCH   2   3
ATOM      3  C   UNL     1       6.321  -8.822  -9.561  1.00  0.00     0.000 C 
BRANCH   3   4
ATOM      4  C   UNL     1       7.789  -8.516  -9.914  1.00  0.00     0.000 C 
BRANCH   4   5
ATOM      5  C   UNL     1       8.771  -9.563  -9.364  1.00  0.00     0.000 C 
BRANCH   5   6
ATOM      6  C   UNL     1       9.934  -8.893  -8.618  1.00  0.00     0.000 C 
BRANCH   6   7
ATOM      7  C   UNL     1       9.865  -7.356  -8.662  1.00  0.00     0.000 C 
BRANCH   7   8
ATOM      8  C   UNL     1       9.234  -6.702  -7.420  1.00  0.00     0.000 C 
BRANCH   8   9
ATOM      9  C   UNL     1       9.816  -7.242  -6.102  1.00  0.00     0.000 C 
BRANCH   9  10
ATOM     10  C   UNL     1       8.754  -7.936  -5.233  1.00  0.00     0.006 C 
BRANCH  10  11
ATOM     11  C   UNL     1       7.475  -8.258  -6.016  1.00  0.00     0.053 C 
BRANCH  11  12
ATOM     12  C   UNL     1       6.400  -7.271  -5.687  1.00  0.00     0.041 C 
ATOM     13  O   UNL     1       6.672  -6.238  -5.019  1.00  0.00    -0.550 OA
ATOM     14  O   UNL     1       5.086  -7.524  -6.061  1.00  0.00    -0.550 OA
ENDBRANCH  11  12
ENDBRANCH  10  11
ENDBRANCH   9  10
ENDBRANCH   8   9
ENDBRANCH   7   8
ENDBRANCH   6   7
ENDBRANCH   5   6
ENDBRANCH   4   5
ENDBRANCH   3   4
ENDBRANCH   2   3
ENDBRANCH   1   2
BRANCH   1  15
ATOM     15  C   UNL     1       6.084  -5.266 -10.124  1.00  0.00     0.000 C 
BRANCH  15  16
ATOM     16  C   UNL     1       7.571  -4.882 -10.018  1.00  0.00     0.000 C 
BRANCH  16  17
ATOM     17  C   UNL     1       7.797  -3.361 -10.010  1.00  0.00     0.000 C 
BRANCH  17  18
ATOM     18  C   UNL     1       6.761  -2.618  -9.149  1.00  0.00    -0.000 C 
BRANCH  18  19
ATOM     19  C   UNL     1       7.105  -2.666  -7.650  1.00  0.00    -0.000 C 
BRANCH  19  20
ATOM     20  C   UNL     1       6.054  -3.424  -6.823  1.00  0.00    -0.000 C 
BRANCH  20  21
ATOM     21  C   UNL     1       4.613  -3.116  -7.268  1.00  0.00    -0.000 C 
BRANCH  21  22
ATOM     22  C   UNL     1       3.640  -4.261  -6.942  1.00  0.00    -0.000 C 
BRANCH  22  23
ATOM     23  C   UNL     1       2.475  -3.808  -6.044  1.00  0.00    -0.000 C 
BRANCH  23  24
ATOM     24  C   UNL     1       2.942  -3.003  -4.818  1.00  0.00    -0.000 C 
BRANCH  24  25
ATOM     25  C   UNL     1       1.969  -3.021  -3.625  1.00  0.00    -0.003 C 
ATOM     26  C   UNL     1       2.550  -2.370  -2.369  1.00  0.00     0.004 C 
ENDBRANCH  24  25
ENDBRANCH  23  24
ENDBRANCH  22  23
ENDBRANCH  21  22
ENDBRANCH  20  21
ENDBRANCH  19  20
ENDBRANCH  18  19
ENDBRANCH  17  18
ENDBRANCH  16  17
ENDBRANCH  15  16
ENDBRANCH   1  15
TORSDOF 22
ENDMDL
MODEL 6
REMARK VINA RESULT:    -3.008      1.399      2.973
REMARK INTER + INTRA:         -10.293
REMARK INTER:                  -7.258
REMARK INTRA:                  -3.034
REMARK UNBOUND:                -3.417
REMARK SMILES CCCCCCCCCCCCCCCCCCCCCCCC(=O)[O-]
REMARK SMILES IDX 13 1 14 2 15 3 16 4 17 5 18 6 19 7 20 8 21 9 22 10 23 11
REMARK SMILES IDX 24 12 25 13 26 14 12 15 11 16 10 17 9 18 8 19 7 20 6 21 5 22
REMARK SMILES IDX 4 23 3 24 2 25 1 26
REMARK H PARENT
REMARK Flexibility Score: inf
ROOT
ATOM      1  C   UNL     1       5.066  -2.533  -8.884  1.00  0.00     0.000 C 
ENDROOT
BRANCH   1   2
ATOM      2  C   UNL     1       6.604  -2.505  -8.849  1.00  0.00     0.000 C 
BRANCH   2   3
ATOM      3  C   UNL     1       7.249  -3.092 -10.119  1.00  0.00     0.000 C 
BRANCH   3   4
ATOM      4  C   UNL     1       8.367  -4.124  -9.874  1.00  0.00     0.000 C 
BRANCH   4   5
ATOM      5  C   UNL     1       7.912  -5.573 -10.104  1.00  0.00     0.000 C 
BRANCH   5   6
ATOM      6  C   UNL     1       8.801  -6.561  -9.336  1.00  0.00     0.000 C 
BRANCH   6   7
ATOM      7  C   UNL     1       9.825  -5.860  -8.426  1.00  0.00     0.000 C 
BRANCH   7   8
ATOM      8  C   UNL     1      10.103  -6.578  -7.093  1.00  0.00     0.000 C 
BRANCH   8   9
ATOM      9  C   UNL     1       9.007  -6.328  -6.042  1.00  0.00     0.000 C 
BRANCH   9  10
ATOM     10  C   UNL     1       8.705  -7.580  -5.202  1.00  0.00     0.006 C 
BRANCH  10  11
ATOM     11  C   UNL     1       8.787  -8.872  -6.025  1.00  0.00     0.053 C 
BRANCH  11  12
ATOM     12  C   UNL     1       7.424  -9.287  -6.480  1.00  0.00     0.041 C 
ATOM     13  O   UNL     1       6.404  -8.936  -5.829  1.00  0.00    -0.550 OA
ATOM     14  O   UNL     1       7.283 -10.117  -7.586  1.00  0.00    -0.550 OA
ENDBRANCH  11  12
ENDBRANCH  10  11
ENDBRANCH   9  10
ENDBRANCH   8   9
ENDBRANCH   7   8
ENDBRANCH   6   7
ENDBRANCH   5   6
ENDBRANCH   4   5
ENDBRANCH   3   4
ENDBRANCH   2   3
ENDBRANCH   1   2
BRANCH   1  15
ATOM     15  C   UNL     1       4.510  -3.254 -10.125  1.00  0.00     0.000 C 
BRANCH  15  16
ATOM     16  C   UNL     1       3.539  -4.411  -9.831  1.00  0.00     0.000 C 
BRANCH  16  17
ATOM     17  C   UNL     1       4.244  -5.774  -9.734  1.00  0.00     0.000 C 
BRANCH  17  18
ATOM     18  C   UNL     1       4.139  -6.390  -8.329  1.00  0.00    -0.000 C 
BRANCH  18  19
ATOM     19  C   UNL     1       5.394  -6.123  -7.478  1.00  0.00    -0.000 C 
BRANCH  19  20
ATOM     20  C   UNL     1       5.061  -5.800  -6.013  1.00  0.00    -0.000 C 
BRANCH  20  21
ATOM     21  C   UNL     1       5.166  -4.296  -5.698  1.00  0.00    -0.000 C 
BRANCH  21  22
ATOM     22  C   UNL     1       4.062  -3.475  -6.387  1.00  0.00    -0.000 C 
BRANCH  22  23
ATOM     23  C   UNL     1       2.712  -3.570  -5.655  1.00  0.00    -0.000 C 
BRANCH  23  24
ATOM     24  C   UNL     1       2.567  -2.530  -4.529  1.00  0.00    -0.000 C 
BRANCH  24  25
ATOM     25  C   UNL     1       1.988  -3.080  -3.213  1.00  0.00    -0.003 C 
ATOM     26  C   UNL     1       2.488  -2.328  -1.979  1.00  0.00     0.004 C 
ENDBRANCH  24  25
ENDBRANCH  23  24
ENDBRANCH  22  23
ENDBRANCH  21  22
ENDBRANCH  20  21
ENDBRANCH  19  20
ENDBRANCH  18  19
ENDBRANCH  17  18
ENDBRANCH  16  17
ENDBRANCH  15  16
ENDBRANCH   1  15
TORSDOF 22
ENDMDL
MODEL 7
REMARK VINA RESULT:    -2.294      2.298      5.032
REMARK INTER + INTRA:          -8.662
REMARK INTER:                  -5.100
REMARK INTRA:                  -3.562
REMARK UNBOUND:                -3.417
REMARK SMILES CCCCCCCCCCCCCCCCCCCCCCCC(=O)[O-]
REMARK SMILES IDX 13 1 14 2 15 3 16 4 17 5 18 6 19 7 20 8 21 9 22 10 23 11
REMARK SMILES IDX 24 12 25 13 26 14 12 15 11 16 10 17 9 18 8 19 7 20 6 21 5 22
REMARK SMILES IDX 4 23 3 24 2 25 1 26
REMARK H PARENT
REMARK Flexibility Score: inf
ROOT
ATOM      1  C   UNL     1       8.291  -6.963  -9.325  1.00  0.00     0.000 C 
ENDROOT
BRANCH   1   2
ATOM      2  C   UNL     1       8.902  -8.299  -9.783  1.00  0.00     0.000 C 
BRANCH   2   3
ATOM      3  C   UNL     1       8.309  -9.519  -9.053  1.00  0.00     0.000 C 
BRANCH   3   4
ATOM      4  C   UNL     1       9.181 -10.099  -7.923  1.00  0.00     0.000 C 
BRANCH   4   5
ATOM      5  C   UNL     1      10.095  -9.051  -7.269  1.00  0.00     0.000 C 
BRANCH   5   6
ATOM      6  C   UNL     1      10.031  -9.139  -5.737  1.00  0.00     0.000 C 
BRANCH   6   7
ATOM      7  C   UNL     1       9.234  -7.983  -5.106  1.00  0.00     0.000 C 
BRANCH   7   8
ATOM      8  C   UNL     1       7.774  -7.870  -5.581  1.00  0.00     0.000 C 
BRANCH   8   9
ATOM      9  C   UNL     1       7.280  -6.414  -5.647  1.00  0.00     0.000 C 
BRANCH   9  10
ATOM     10  C   UNL     1       6.178  -6.218  -6.701  1.00  0.00     0.006 C 
BRANCH  10  11
ATOM     11  C   UNL     1       5.542  -7.543  -7.139  1.00  0.00     0.053 C 
BRANCH  11  12
ATOM     12  C   UNL     1       4.554  -7.310  -8.237  1.00  0.00     0.041 C 
ATOM     13  O   UNL     1       4.741  -6.385  -9.071  1.00  0.00    -0.550 OA
ATOM     14  O   UNL     1       3.394  -8.072  -8.302  1.00  0.00    -0.550 OA
ENDBRANCH  11  12
ENDBRANCH  10  11
ENDBRANCH   9  10
ENDBRANCH   8   9
ENDBRANCH   7   8
ENDBRANCH   6   7
ENDBRANCH   5   6
ENDBRANCH   4   5
ENDBRANCH   3   4
ENDBRANCH   2   3
ENDBRANCH   1   2
BRANCH   1  15
ATOM     15  C   UNL     1       9.318  -5.818  -9.289  1.00  0.00     0.000 C 
BRANCH  15  16
ATOM     16  C   UNL     1       9.985  -5.579  -7.923  1.00  0.00     0.000 C 
BRANCH  16  17
ATOM     17  C   UNL     1      10.092  -4.088  -7.561  1.00  0.00     0.000 C 
BRANCH  17  18
ATOM     18  C   UNL     1       8.807  -3.549  -6.910  1.00  0.00    -0.000 C 
BRANCH  18  19
ATOM     19  C   UNL     1       8.302  -2.263  -7.590  1.00  0.00    -0.000 C 
BRANCH  19  20
ATOM     20  C   UNL     1       8.987  -1.995  -8.939  1.00  0.00    -0.000 C 
BRANCH  20  21
ATOM     21  C   UNL     1       8.008  -2.059 -10.125  1.00  0.00    -0.000 C 
BRANCH  21  22
ATOM     22  C   UNL     1       6.830  -3.013  -9.862  1.00  0.00    -0.000 C 
BRANCH  22  23
ATOM     23  C   UNL     1       5.644  -2.310  -9.178  1.00  0.00    -0.000 C 
BRANCH  23  24
ATOM     24  C   UNL     1       4.680  -3.294  -8.490  1.00  0.00    -0.000 C 
BRANCH  24  25
ATOM     25  C   UNL     1       4.501  -3.072  -6.977  1.00  0.00    -0.003 C 
ATOM     26  C   UNL     1       3.337  -3.871  -6.390  1.00  0.00     0.004 C 
ENDBRANCH  24  25
ENDBRANCH  23  24
ENDBRANCH  22  23
ENDBRANCH  21  22
ENDBRANCH  20  21
ENDBRANCH  19  20
ENDBRANCH  18  19
ENDBRANCH  17  18
ENDBRANCH  16  17
ENDBRANCH  15  16
ENDBRANCH   1  15
TORSDOF 22
ENDMDL
