MODEL 1
REMARK VINA RESULT:    -4.744      0.000      0.000
REMARK INTER + INTRA:          -8.050
REMARK INTER:                  -7.240
REMARK INTRA:                  -0.810
REMARK UNBOUND:                -0.810
REMARK SMILES OC[C@@H]1O[C@@](CO)(O[C@@H]2O[C@H](CO)[C@H](O)[C@H](O)[C@@H]2O)[C@@H](O)[C@@H]1O
REMARK SMILES IDX 8 1 9 2 11 3 14 4 10 5 16 6 18 7 12 8 13 9 15 11 17 13 19 15
REMARK SMILES IDX 5 17 20 18 4 19 22 20 3 21 6 22 7 23 21 25 23 27 2 29 1 30
REMARK H PARENT 13 10 15 12 17 14 19 16 7 24 21 26 23 28 1 31
REMARK Flexibility Score: inf
ROOT
ATOM      1  O   UNL     1      10.625 -16.822   7.496  1.00  0.00    -0.313 OA
ENDROOT
BRANCH   1   2
ATOM      2  C   UNL     1       9.732 -17.422   8.428  1.00  0.00     0.285 C 
ATOM      3  C   UNL     1       8.904 -19.125   6.953  1.00  0.00     0.178 C 
ATOM      4  C   UNL     1       7.522 -18.422   6.850  1.00  0.00     0.177 C 
ATOM      5  O   UNL     1       9.598 -18.813   8.160  1.00  0.00    -0.341 OA
ATOM      6  C   UNL     1       7.604 -16.910   7.118  1.00  0.00     0.179 C 
ATOM      7  C   UNL     1       8.366 -16.698   8.435  1.00  0.00     0.202 C 
BRANCH   3   8
ATOM      8  C   UNL     1       9.800 -18.998   5.700  1.00  0.00     0.191 C 
BRANCH   8   9
ATOM      9  O   UNL     1       9.025 -18.722   4.565  1.00  0.00    -0.394 OA
ATOM     10  H   UNL     1       9.640 -18.345   3.882  1.00  0.00     0.210 HD
ENDBRANCH   8   9
ENDBRANCH   3   8
BRANCH   4  11
ATOM     11  O   UNL     1       6.862 -18.714   5.641  1.00  0.00    -0.387 OA
ATOM     12  H   UNL     1       6.302 -17.934   5.392  1.00  0.00     0.211 HD
ENDBRANCH   4  11
BRANCH   6  13
ATOM     13  O   UNL     1       8.249 -16.251   6.055  1.00  0.00    -0.387 OA
ATOM     14  H   UNL     1       8.068 -16.771   5.230  1.00  0.00     0.211 HD
ENDBRANCH   6  13
BRANCH   7  15
ATOM     15  O   UNL     1       8.497 -15.332   8.747  1.00  0.00    -0.385 OA
ATOM     16  H   UNL     1       8.403 -14.813   7.906  1.00  0.00     0.211 HD
ENDBRANCH   7  15
ENDBRANCH   1   2
BRANCH   1  17
ATOM     17  C   UNL     1      11.924 -16.545   8.018  1.00  0.00     0.224 C 
ATOM     18  C   UNL     1      12.969 -17.355   7.213  1.00  0.00     0.208 C 
ATOM     19  O   UNL     1      12.237 -15.165   7.887  1.00  0.00    -0.337 OA
ATOM     20  C   UNL     1      14.108 -16.379   7.022  1.00  0.00     0.180 C 
ATOM     21  C   UNL     1      13.383 -15.036   7.073  1.00  0.00     0.179 C 
BRANCH  17  22
ATOM     22  C   UNL     1      12.003 -16.926   9.517  1.00  0.00     0.225 C 
BRANCH  22  23
ATOM     23  O   UNL     1      13.009 -16.191  10.157  1.00  0.00    -0.391 OA
ATOM     24  H   UNL     1      13.593 -15.829   9.440  1.00  0.00     0.210 HD
ENDBRANCH  22  23
ENDBRANCH  17  22
BRANCH  18  25
ATOM     25  O   UNL     1      12.468 -17.791   5.969  1.00  0.00    -0.385 OA
ATOM     26  H   UNL     1      13.234 -17.928   5.352  1.00  0.00     0.211 HD
ENDBRANCH  18  25
BRANCH  20  27
ATOM     27  O   UNL     1      15.032 -16.499   8.078  1.00  0.00    -0.387 OA
ATOM     28  H   UNL     1      15.930 -16.337   7.687  1.00  0.00     0.211 HD
ENDBRANCH  20  27
BRANCH  21  29
ATOM     29  C   UNL     1      14.248 -13.876   7.580  1.00  0.00     0.191 C 
BRANCH  29  30
ATOM     30  O   UNL     1      15.391 -13.740   6.783  1.00  0.00    -0.394 OA
ATOM     31  H   UNL     1      15.216 -12.971   6.180  1.00  0.00     0.210 HD
ENDBRANCH  29  30
ENDBRANCH  21  29
ENDBRANCH   1  17
TORSDOF 13
ENDMDL
MODEL 2
REMARK VINA RESULT:    -3.961      1.558      2.745
REMARK INTER + INTRA:          -6.855
REMARK INTER:                  -5.893
REMARK INTRA:                  -0.962
REMARK UNBOUND:                -0.810
REMARK SMILES OC[C@@H]1O[C@@](CO)(O[C@@H]2O[C@H](CO)[C@H](O)[C@H](O)[C@@H]2O)[C@@H](O)[C@@H]1O
REMARK SMILES IDX 8 1 9 2 11 3 14 4 10 5 16 6 18 7 12 8 13 9 15 11 17 13 19 15
REMARK SMILES IDX 5 17 20 18 4 19 22 20 3 21 6 22 7 23 21 25 23 27 2 29 1 30
REMARK H PARENT 13 10 15 12 17 14 19 16 7 24 21 26 23 28 1 31
REMARK Flexibility Score: inf
ROOT
ATOM      1  O   UNL     1      10.745 -17.259   7.345  1.00  0.00    -0.313 OA
ENDROOT
BRANCH   1   2
ATOM      2  C   UNL     1      10.473 -18.656   7.308  1.00  0.00     0.285 C 
ATOM      3  C   UNL     1       8.359 -18.491   6.183  1.00  0.00     0.178 C 
ATOM      4  C   UNL     1       7.593 -18.888   7.475  1.00  0.00     0.177 C 
ATOM      5  O   UNL     1       9.700 -18.979   6.158  1.00  0.00    -0.341 OA
ATOM      6  C   UNL     1       8.375 -18.552   8.755  1.00  0.00     0.179 C 
ATOM      7  C   UNL     1       9.793 -19.125   8.615  1.00  0.00     0.202 C 
BRANCH   3   8
ATOM      8  C   UNL     1       8.261 -16.998   5.794  1.00  0.00     0.191 C 
BRANCH   8   9
ATOM      9  O   UNL     1       7.821 -16.233   6.883  1.00  0.00    -0.394 OA
ATOM     10  H   UNL     1       7.177 -15.567   6.524  1.00  0.00     0.210 HD
ENDBRANCH   8   9
ENDBRANCH   3   8
BRANCH   4  11
ATOM     11  O   UNL     1       6.283 -18.374   7.499  1.00  0.00    -0.387 OA
ATOM     12  H   UNL     1       5.917 -18.489   8.414  1.00  0.00     0.211 HD
ENDBRANCH   4  11
BRANCH   6  13
ATOM     13  O   UNL     1       8.415 -17.160   8.961  1.00  0.00    -0.387 OA
ATOM     14  H   UNL     1       8.382 -17.003   9.940  1.00  0.00     0.211 HD
ENDBRANCH   6  13
BRANCH   7  15
ATOM     15  O   UNL     1      10.582 -18.845   9.746  1.00  0.00    -0.385 OA
ATOM     16  H   UNL     1      11.535 -18.944   9.490  1.00  0.00     0.211 HD
ENDBRANCH   7  15
ENDBRANCH   1   2
BRANCH   1  17
ATOM     17  C   UNL     1      12.133 -16.928   7.324  1.00  0.00     0.224 C 
ATOM     18  C   UNL     1      12.284 -15.435   6.940  1.00  0.00     0.208 C 
ATOM     19  O   UNL     1      12.717 -17.116   8.605  1.00  0.00    -0.337 OA
ATOM     20  C   UNL     1      13.368 -14.936   7.868  1.00  0.00     0.180 C 
ATOM     21  C   UNL     1      13.221 -15.879   9.060  1.00  0.00     0.179 C 
BRANCH  17  22
ATOM     22  C   UNL     1      12.891 -17.813   6.304  1.00  0.00     0.225 C 
BRANCH  22  23
ATOM     23  O   UNL     1      14.184 -18.092   6.762  1.00  0.00    -0.391 OA
ATOM     24  H   UNL     1      14.238 -19.078   6.869  1.00  0.00     0.210 HD
ENDBRANCH  22  23
ENDBRANCH  17  22
BRANCH  18  25
ATOM     25  O   UNL     1      11.090 -14.709   7.126  1.00  0.00    -0.385 OA
ATOM     26  H   UNL     1      11.303 -13.876   7.623  1.00  0.00     0.211 HD
ENDBRANCH  18  25
BRANCH  20  27
ATOM     27  O   UNL     1      14.631 -15.077   7.261  1.00  0.00    -0.387 OA
ATOM     28  H   UNL     1      15.202 -15.569   7.906  1.00  0.00     0.211 HD
ENDBRANCH  20  27
BRANCH  21  29
ATOM     29  C   UNL     1      14.519 -16.106   9.843  1.00  0.00     0.191 C 
BRANCH  29  30
ATOM     30  O   UNL     1      14.232 -16.457  11.167  1.00  0.00    -0.394 OA
ATOM     31  H   UNL     1      15.105 -16.497  11.638  1.00  0.00     0.210 HD
ENDBRANCH  29  30
ENDBRANCH  21  29
ENDBRANCH   1  17
TORSDOF 13
ENDMDL
MODEL 3
REMARK VINA RESULT:    -3.928      1.543      5.796
REMARK INTER + INTRA:          -6.804
REMARK INTER:                  -6.258
REMARK INTRA:                  -0.547
REMARK UNBOUND:                -0.810
REMARK SMILES OC[C@@H]1O[C@@](CO)(O[C@@H]2O[C@H](CO)[C@H](O)[C@H](O)[C@@H]2O)[C@@H](O)[C@@H]1O
REMARK SMILES IDX 8 1 9 2 11 3 14 4 10 5 16 6 18 7 12 8 13 9 15 11 17 13 19 15
REMARK SMILES IDX 5 17 20 18 4 19 22 20 3 21 6 22 7 23 21 25 23 27 2 29 1 30
REMARK H PARENT 13 10 15 12 17 14 19 16 7 24 21 26 23 28 1 31
REMARK Flexibility Score: inf
ROOT
ATOM      1  O   UNL     1      11.032 -17.922   7.618  1.00  0.00    -0.313 OA
ENDROOT
BRANCH   1   2
ATOM      2  C   UNL     1      11.613 -17.020   6.684  1.00  0.00     0.285 C 
ATOM      3  C   UNL     1      13.882 -17.748   6.977  1.00  0.00     0.178 C 
ATOM      4  C   UNL     1      14.253 -16.432   7.713  1.00  0.00     0.177 C 
ATOM      5  O   UNL     1      12.772 -17.598   6.092  1.00  0.00    -0.341 OA
ATOM      6  C   UNL     1      13.041 -15.765   8.384  1.00  0.00     0.179 C 
ATOM      7  C   UNL     1      11.917 -15.655   7.343  1.00  0.00     0.202 C 
BRANCH   3   8
ATOM      8  C   UNL     1      13.756 -18.995   7.883  1.00  0.00     0.191 C 
BRANCH   8   9
ATOM      9  O   UNL     1      13.103 -18.670   9.079  1.00  0.00    -0.394 OA
ATOM     10  H   UNL     1      12.447 -19.396   9.255  1.00  0.00     0.210 HD
ENDBRANCH   8   9
ENDBRANCH   3   8
BRANCH   4  11
ATOM     11  O   UNL     1      15.329 -16.603   8.604  1.00  0.00    -0.387 OA
ATOM     12  H   UNL     1      15.100 -16.162   9.463  1.00  0.00     0.211 HD
ENDBRANCH   4  11
BRANCH   6  13
ATOM     13  O   UNL     1      12.618 -16.511   9.500  1.00  0.00    -0.387 OA
ATOM     14  H   UNL     1      13.156 -16.213  10.278  1.00  0.00     0.211 HD
ENDBRANCH   6  13
BRANCH   7  15
ATOM     15  O   UNL     1      10.760 -15.065   7.885  1.00  0.00    -0.385 OA
ATOM     16  H   UNL     1      10.525 -15.554   8.716  1.00  0.00     0.211 HD
ENDBRANCH   7  15
ENDBRANCH   1   2
BRANCH   1  17
ATOM     17  C   UNL     1       9.645 -18.182   7.403  1.00  0.00     0.224 C 
ATOM     18  C   UNL     1       9.124 -19.088   8.546  1.00  0.00     0.208 C 
ATOM     19  O   UNL     1       8.896 -16.975   7.419  1.00  0.00    -0.337 OA
ATOM     20  C   UNL     1       7.772 -18.500   8.879  1.00  0.00     0.180 C 
ATOM     21  C   UNL     1       7.953 -17.041   8.467  1.00  0.00     0.179 C 
BRANCH  17  22
ATOM     22  C   UNL     1       9.426 -18.879   6.038  1.00  0.00     0.225 C 
BRANCH  22  23
ATOM     23  O   UNL     1       8.586 -18.109   5.223  1.00  0.00    -0.391 OA
ATOM     24  H   UNL     1       8.362 -17.292   5.743  1.00  0.00     0.210 HD
ENDBRANCH  22  23
ENDBRANCH  17  22
BRANCH  18  25
ATOM     25  O   UNL     1       9.971 -19.071   9.673  1.00  0.00    -0.385 OA
ATOM     26  H   UNL     1      10.556 -18.270   9.615  1.00  0.00     0.211 HD
ENDBRANCH  18  25
BRANCH  20  27
ATOM     27  O   UNL     1       6.769 -19.124   8.113  1.00  0.00    -0.387 OA
ATOM     28  H   UNL     1       7.229 -19.775   7.521  1.00  0.00     0.211 HD
ENDBRANCH  20  27
BRANCH  21  29
ATOM     29  C   UNL     1       6.655 -16.346   8.037  1.00  0.00     0.191 C 
BRANCH  29  30
ATOM     30  O   UNL     1       6.358 -15.294   8.912  1.00  0.00    -0.394 OA
ATOM     31  H   UNL     1       6.272 -15.701   9.813  1.00  0.00     0.210 HD
ENDBRANCH  29  30
ENDBRANCH  21  29
ENDBRANCH   1  17
TORSDOF 13
ENDMDL
MODEL 4
REMARK VINA RESULT:    -3.619      1.707      2.202
REMARK INTER + INTRA:          -6.332
REMARK INTER:                  -5.929
REMARK INTRA:                  -0.404
REMARK UNBOUND:                -0.810
REMARK SMILES OC[C@@H]1O[C@@](CO)(O[C@@H]2O[C@H](CO)[C@H](O)[C@H](O)[C@@H]2O)[C@@H](O)[C@@H]1O
REMARK SMILES IDX 8 1 9 2 11 3 14 4 10 5 16 6 18 7 12 8 13 9 15 11 17 13 19 15
REMARK SMILES IDX 5 17 20 18 4 19 22 20 3 21 6 22 7 23 21 25 23 27 2 29 1 30
REMARK H PARENT 13 10 15 12 17 14 19 16 7 24 21 26 23 28 1 31
REMARK Flexibility Score: inf
ROOT
ATOM      1  O   UNL     1      10.386 -18.253   7.390  1.00  0.00    -0.313 OA
ENDROOT
BRANCH   1   2
ATOM      2  C   UNL     1       9.703 -18.461   8.621  1.00  0.00     0.285 C 
ATOM      3  C   UNL     1       7.491 -18.070   7.774  1.00  0.00     0.178 C 
ATOM      4  C   UNL     1       7.396 -16.717   8.531  1.00  0.00     0.177 C 
ATOM      5  O   UNL     1       8.401 -18.986   8.382  1.00  0.00    -0.341 OA
ATOM      6  C   UNL     1       8.774 -16.093   8.808  1.00  0.00     0.179 C 
ATOM      7  C   UNL     1       9.661 -17.164   9.460  1.00  0.00     0.202 C 
BRANCH   3   8
ATOM      8  C   UNL     1       7.695 -17.955   6.245  1.00  0.00     0.191 C 
BRANCH   8   9
ATOM      9  O   UNL     1       8.231 -16.704   5.913  1.00  0.00    -0.394 OA
ATOM     10  H   UNL     1       7.471 -16.134   5.620  1.00  0.00     0.210 HD
ENDBRANCH   8   9
ENDBRANCH   3   8
BRANCH   4  11
ATOM     11  O   UNL     1       6.518 -15.814   7.902  1.00  0.00    -0.387 OA
ATOM     12  H   UNL     1       5.596 -16.176   7.964  1.00  0.00     0.211 HD
ENDBRANCH   4  11
BRANCH   6  13
ATOM     13  O   UNL     1       9.354 -15.621   7.616  1.00  0.00    -0.387 OA
ATOM     14  H   UNL     1       9.446 -14.637   7.700  1.00  0.00     0.211 HD
ENDBRANCH   6  13
BRANCH   7  15
ATOM     15  O   UNL     1      10.952 -16.674   9.734  1.00  0.00    -0.385 OA
ATOM     16  H   UNL     1      11.544 -16.926   8.978  1.00  0.00     0.211 HD
ENDBRANCH   7  15
ENDBRANCH   1   2
BRANCH   1  17
ATOM     17  C   UNL     1      11.809 -18.267   7.495  1.00  0.00     0.224 C 
ATOM     18  C   UNL     1      12.402 -18.847   6.187  1.00  0.00     0.208 C 
ATOM     19  O   UNL     1      12.316 -16.950   7.664  1.00  0.00    -0.337 OA
ATOM     20  C   UNL     1      13.590 -17.955   5.907  1.00  0.00     0.180 C 
ATOM     21  C   UNL     1      13.172 -16.651   6.582  1.00  0.00     0.179 C 
BRANCH  17  22
ATOM     22  C   UNL     1      12.260 -19.125   8.703  1.00  0.00     0.225 C 
BRANCH  22  23
ATOM     23  O   UNL     1      13.256 -18.462   9.431  1.00  0.00    -0.391 OA
ATOM     24  H   UNL     1      13.095 -17.490   9.308  1.00  0.00     0.210 HD
ENDBRANCH  22  23
ENDBRANCH  17  22
BRANCH  18  25
ATOM     25  O   UNL     1      11.483 -18.808   5.118  1.00  0.00    -0.385 OA
ATOM     26  H   UNL     1      11.941 -18.428   4.324  1.00  0.00     0.211 HD
ENDBRANCH  18  25
BRANCH  20  27
ATOM     27  O   UNL     1      14.748 -18.488   6.505  1.00  0.00    -0.387 OA
ATOM     28  H   UNL     1      15.334 -18.794   5.764  1.00  0.00     0.211 HD
ENDBRANCH  20  27
BRANCH  21  29
ATOM     29  C   UNL     1      14.345 -15.795   7.073  1.00  0.00     0.191 C 
BRANCH  29  30
ATOM     30  O   UNL     1      14.837 -16.297   8.283  1.00  0.00    -0.394 OA
ATOM     31  H   UNL     1      15.367 -15.563   8.691  1.00  0.00     0.210 HD
ENDBRANCH  29  30
ENDBRANCH  21  29
ENDBRANCH   1  17
TORSDOF 13
ENDMDL
MODEL 5
REMARK VINA RESULT:    -3.598      1.810      5.983
REMARK INTER + INTRA:          -6.301
REMARK INTER:                  -6.325
REMARK INTRA:                   0.024
REMARK UNBOUND:                -0.810
REMARK SMILES OC[C@@H]1O[C@@](CO)(O[C@@H]2O[C@H](CO)[C@H](O)[C@H](O)[C@@H]2O)[C@@H](O)[C@@H]1O
REMARK SMILES IDX 8 1 9 2 11 3 14 4 10 5 16 6 18 7 12 8 13 9 15 11 17 13 19 15
REMARK SMILES IDX 5 17 20 18 4 19 22 20 3 21 6 22 7 23 21 25 23 27 2 29 1 30
REMARK H PARENT 13 10 15 12 17 14 19 16 7 24 21 26 23 28 1 31
REMARK Flexibility Score: inf
ROOT
ATOM      1  O   UNL     1      10.498 -17.864   7.218  1.00  0.00    -0.313 OA
ENDROOT
BRANCH   1   2
ATOM      2  C   UNL     1      11.323 -19.022   7.280  1.00  0.00     0.285 C 
ATOM      3  C   UNL     1      13.028 -18.067   8.673  1.00  0.00     0.178 C 
ATOM      4  C   UNL     1      14.033 -18.032   7.490  1.00  0.00     0.177 C 
ATOM      5  O   UNL     1      12.021 -19.066   8.519  1.00  0.00    -0.341 OA
ATOM      6  C   UNL     1      13.337 -17.971   6.120  1.00  0.00     0.179 C 
ATOM      7  C   UNL     1      12.282 -19.087   6.070  1.00  0.00     0.202 C 
BRANCH   3   8
ATOM      8  C   UNL     1      12.447 -16.694   9.083  1.00  0.00     0.191 C 
BRANCH   8   9
ATOM      9  O   UNL     1      11.213 -16.854   9.729  1.00  0.00    -0.394 OA
ATOM     10  H   UNL     1      11.410 -16.998  10.692  1.00  0.00     0.210 HD
ENDBRANCH   8   9
ENDBRANCH   3   8
BRANCH   4  11
ATOM     11  O   UNL     1      15.002 -17.021   7.641  1.00  0.00    -0.387 OA
ATOM     12  H   UNL     1      14.682 -16.380   8.329  1.00  0.00     0.211 HD
ENDBRANCH   4  11
BRANCH   6  13
ATOM     13  O   UNL     1      12.742 -16.711   5.921  1.00  0.00    -0.387 OA
ATOM     14  H   UNL     1      12.407 -16.684   4.988  1.00  0.00     0.211 HD
ENDBRANCH   6  13
BRANCH   7  15
ATOM     15  O   UNL     1      11.585 -19.090   4.847  1.00  0.00    -0.385 OA
ATOM     16  H   UNL     1      10.687 -18.700   5.003  1.00  0.00     0.211 HD
ENDBRANCH   7  15
ENDBRANCH   1   2
BRANCH   1  17
ATOM     17  C   UNL     1       9.098 -18.139   7.161  1.00  0.00     0.224 C 
ATOM     18  C   UNL     1       8.723 -19.065   8.344  1.00  0.00     0.208 C 
ATOM     19  O   UNL     1       8.343 -16.941   7.280  1.00  0.00    -0.337 OA
ATOM     20  C   UNL     1       7.412 -18.498   8.839  1.00  0.00     0.180 C 
ATOM     21  C   UNL     1       7.528 -17.031   8.429  1.00  0.00     0.179 C 
BRANCH  17  22
ATOM     22  C   UNL     1       8.730 -18.821   5.821  1.00  0.00     0.225 C 
BRANCH  22  23
ATOM     23  O   UNL     1       8.266 -17.873   4.899  1.00  0.00    -0.391 OA
ATOM     24  H   UNL     1       9.065 -17.376   4.580  1.00  0.00     0.210 HD
ENDBRANCH  22  23
ENDBRANCH  17  22
BRANCH  18  25
ATOM     25  O   UNL     1       9.694 -19.052   9.366  1.00  0.00    -0.385 OA
ATOM     26  H   UNL     1       9.475 -18.318   9.998  1.00  0.00     0.211 HD
ENDBRANCH  18  25
BRANCH  20  27
ATOM     27  O   UNL     1       6.333 -19.125   8.186  1.00  0.00    -0.387 OA
ATOM     28  H   UNL     1       6.547 -20.094   8.153  1.00  0.00     0.211 HD
ENDBRANCH  20  27
BRANCH  21  29
ATOM     29  C   UNL     1       6.182 -16.347   8.163  1.00  0.00     0.191 C 
BRANCH  29  30
ATOM     30  O   UNL     1       6.117 -15.126   8.844  1.00  0.00    -0.394 OA
ATOM     31  H   UNL     1       6.914 -14.608   8.558  1.00  0.00     0.210 HD
ENDBRANCH  29  30
ENDBRANCH  21  29
ENDBRANCH   1  17
TORSDOF 13
ENDMDL
MODEL 6
REMARK VINA RESULT:    -3.510      1.624      3.357
REMARK INTER + INTRA:          -6.166
REMARK INTER:                  -6.310
REMARK INTRA:                   0.144
REMARK UNBOUND:                -0.810
REMARK SMILES OC[C@@H]1O[C@@](CO)(O[C@@H]2O[C@H](CO)[C@H](O)[C@H](O)[C@@H]2O)[C@@H](O)[C@@H]1O
REMARK SMILES IDX 8 1 9 2 11 3 14 4 10 5 16 6 18 7 12 8 13 9 15 11 17 13 19 15
REMARK SMILES IDX 5 17 20 18 4 19 22 20 3 21 6 22 7 23 21 25 23 27 2 29 1 30
REMARK H PARENT 13 10 15 12 17 14 19 16 7 24 21 26 23 28 1 31
REMARK Flexibility Score: inf
ROOT
ATOM      1  O   UNL     1      10.010 -16.488   7.845  1.00  0.00    -0.313 OA
ENDROOT
BRANCH   1   2
ATOM      2  C   UNL     1       9.415 -17.031   6.672  1.00  0.00     0.285 C 
ATOM      3  C   UNL     1       7.141 -16.876   7.425  1.00  0.00     0.178 C 
ATOM      4  C   UNL     1       7.043 -18.419   7.578  1.00  0.00     0.177 C 
ATOM      5  O   UNL     1       8.121 -16.472   6.470  1.00  0.00    -0.341 OA
ATOM      6  C   UNL     1       8.412 -19.080   7.811  1.00  0.00     0.179 C 
ATOM      7  C   UNL     1       9.378 -18.575   6.729  1.00  0.00     0.202 C 
BRANCH   3   8
ATOM      8  C   UNL     1       7.242 -16.090   8.752  1.00  0.00     0.191 C 
BRANCH   8   9
ATOM      9  O   UNL     1       6.164 -15.205   8.883  1.00  0.00    -0.394 OA
ATOM     10  H   UNL     1       5.448 -15.532   8.276  1.00  0.00     0.210 HD
ENDBRANCH   8   9
ENDBRANCH   3   8
BRANCH   4  11
ATOM     11  O   UNL     1       6.094 -18.802   8.545  1.00  0.00    -0.387 OA
ATOM     12  H   UNL     1       5.215 -18.908   8.097  1.00  0.00     0.211 HD
ENDBRANCH   4  11
BRANCH   6  13
ATOM     13  O   UNL     1       8.897 -18.778   9.097  1.00  0.00    -0.387 OA
ATOM     14  H   UNL     1       9.849 -18.518   9.002  1.00  0.00     0.211 HD
ENDBRANCH   6  13
BRANCH   7  15
ATOM     15  O   UNL     1      10.665 -19.125   6.882  1.00  0.00    -0.385 OA
ATOM     16  H   UNL     1      11.200 -18.886   6.081  1.00  0.00     0.211 HD
ENDBRANCH   7  15
ENDBRANCH   1   2
BRANCH   1  17
ATOM     17  C   UNL     1      11.393 -16.161   7.708  1.00  0.00     0.224 C 
ATOM     18  C   UNL     1      12.065 -16.240   9.101  1.00  0.00     0.208 C 
ATOM     19  O   UNL     1      12.048 -17.084   6.849  1.00  0.00    -0.337 OA
ATOM     20  C   UNL     1      13.390 -16.913   8.821  1.00  0.00     0.180 C 
ATOM     21  C   UNL     1      13.069 -17.735   7.575  1.00  0.00     0.179 C 
BRANCH  17  22
ATOM     22  C   UNL     1      11.563 -14.739   7.122  1.00  0.00     0.225 C 
BRANCH  22  23
ATOM     23  O   UNL     1      12.842 -14.242   7.402  1.00  0.00    -0.391 OA
ATOM     24  H   UNL     1      13.456 -15.022   7.387  1.00  0.00     0.210 HD
ENDBRANCH  22  23
ENDBRANCH  17  22
BRANCH  18  25
ATOM     25  O   UNL     1      11.306 -16.991  10.022  1.00  0.00    -0.385 OA
ATOM     26  H   UNL     1      11.792 -17.835  10.216  1.00  0.00     0.211 HD
ENDBRANCH  18  25
BRANCH  20  27
ATOM     27  O   UNL     1      14.378 -15.946   8.552  1.00  0.00    -0.387 OA
ATOM     28  H   UNL     1      13.972 -15.063   8.754  1.00  0.00     0.211 HD
ENDBRANCH  20  27
BRANCH  21  29
ATOM     29  C   UNL     1      14.274 -17.983   6.661  1.00  0.00     0.191 C 
BRANCH  29  30
ATOM     30  O   UNL     1      14.970 -19.124   7.078  1.00  0.00    -0.394 OA
ATOM     31  H   UNL     1      15.150 -19.652   6.256  1.00  0.00     0.210 HD
ENDBRANCH  29  30
ENDBRANCH  21  29
ENDBRANCH   1  17
TORSDOF 13
ENDMDL
MODEL 7
REMARK VINA RESULT:    -3.276      1.458      6.048
REMARK INTER + INTRA:          -5.810
REMARK INTER:                  -5.280
REMARK INTRA:                  -0.530
REMARK UNBOUND:                -0.810
REMARK SMILES OC[C@@H]1O[C@@](CO)(O[C@@H]2O[C@H](CO)[C@H](O)[C@H](O)[C@@H]2O)[C@@H](O)[C@@H]1O
REMARK SMILES IDX 8 1 9 2 11 3 14 4 10 5 16 6 18 7 12 8 13 9 15 11 17 13 19 15
REMARK SMILES IDX 5 17 20 18 4 19 22 20 3 21 6 22 7 23 21 25 23 27 2 29 1 30
REMARK H PARENT 13 10 15 12 17 14 19 16 7 24 21 26 23 28 1 31
REMARK Flexibility Score: inf
ROOT
ATOM      1  O   UNL     1      11.393 -17.112   7.641  1.00  0.00    -0.313 OA
ENDROOT
BRANCH   1   2
ATOM      2  C   UNL     1      12.513 -17.290   8.500  1.00  0.00     0.285 C 
ATOM      3  C   UNL     1      13.360 -15.052   8.309  1.00  0.00     0.178 C 
ATOM      4  C   UNL     1      14.570 -15.537   7.464  1.00  0.00     0.177 C 
ATOM      5  O   UNL     1      12.830 -16.069   9.159  1.00  0.00    -0.341 OA
ATOM      6  C   UNL     1      14.283 -16.850   6.716  1.00  0.00     0.179 C 
ATOM      7  C   UNL     1      13.723 -17.863   7.726  1.00  0.00     0.202 C 
BRANCH   3   8
ATOM      8  C   UNL     1      12.262 -14.306   7.517  1.00  0.00     0.191 C 
BRANCH   8   9
ATOM      9  O   UNL     1      12.831 -13.523   6.504  1.00  0.00    -0.394 OA
ATOM     10  H   UNL     1      12.730 -14.033   5.656  1.00  0.00     0.210 HD
ENDBRANCH   8   9
ENDBRANCH   3   8
BRANCH   4  11
ATOM     11  O   UNL     1      15.062 -14.532   6.609  1.00  0.00    -0.387 OA
ATOM     12  H   UNL     1      14.292 -14.006   6.268  1.00  0.00     0.211 HD
ENDBRANCH   4  11
BRANCH   6  13
ATOM     13  O   UNL     1      13.372 -16.634   5.665  1.00  0.00    -0.387 OA
ATOM     14  H   UNL     1      13.322 -17.473   5.139  1.00  0.00     0.211 HD
ENDBRANCH   6  13
BRANCH   7  15
ATOM     15  O   UNL     1      13.419 -19.094   7.114  1.00  0.00    -0.385 OA
ATOM     16  H   UNL     1      13.642 -19.819   7.753  1.00  0.00     0.211 HD
ENDBRANCH   7  15
ENDBRANCH   1   2
BRANCH   1  17
ATOM     17  C   UNL     1      10.272 -17.937   7.955  1.00  0.00     0.224 C 
ATOM     18  C   UNL     1       9.211 -17.080   8.690  1.00  0.00     0.208 C 
ATOM     19  O   UNL     1       9.678 -18.456   6.772  1.00  0.00    -0.337 OA
ATOM     20  C   UNL     1       7.903 -17.534   8.082  1.00  0.00     0.180 C 
ATOM     21  C   UNL     1       8.344 -18.003   6.697  1.00  0.00     0.179 C 
BRANCH  17  22
ATOM     22  C   UNL     1      10.701 -19.125   8.850  1.00  0.00     0.225 C 
BRANCH  22  23
ATOM     23  O   UNL     1      10.010 -19.096  10.068  1.00  0.00    -0.391 OA
ATOM     24  H   UNL     1       9.046 -19.012   9.843  1.00  0.00     0.210 HD
ENDBRANCH  22  23
ENDBRANCH  17  22
BRANCH  18  25
ATOM     25  O   UNL     1       9.405 -15.698   8.490  1.00  0.00    -0.385 OA
ATOM     26  H   UNL     1       8.649 -15.211   8.910  1.00  0.00     0.211 HD
ENDBRANCH  18  25
BRANCH  20  27
ATOM     27  O   UNL     1       7.362 -18.596   8.831  1.00  0.00    -0.387 OA
ATOM     28  H   UNL     1       7.852 -19.414   8.556  1.00  0.00     0.211 HD
ENDBRANCH  20  27
BRANCH  21  29
ATOM     29  C   UNL     1       7.459 -19.101   6.097  1.00  0.00     0.191 C 
BRANCH  29  30
ATOM     30  O   UNL     1       6.215 -19.124   6.738  1.00  0.00    -0.394 OA
ATOM     31  H   UNL     1       6.164 -19.997   7.210  1.00  0.00     0.210 HD
ENDBRANCH  29  30
ENDBRANCH  21  29
ENDBRANCH   1  17
TORSDOF 13
ENDMDL
MODEL 8
REMARK VINA RESULT:    -2.976      1.853      5.830
REMARK INTER + INTRA:          -5.351
REMARK INTER:                  -3.652
REMARK INTRA:                  -1.699
REMARK UNBOUND:                -0.810
REMARK SMILES OC[C@@H]1O[C@@](CO)(O[C@@H]2O[C@H](CO)[C@H](O)[C@H](O)[C@@H]2O)[C@@H](O)[C@@H]1O
REMARK SMILES IDX 8 1 9 2 11 3 14 4 10 5 16 6 18 7 12 8 13 9 15 11 17 13 19 15
REMARK SMILES IDX 5 17 20 18 4 19 22 20 3 21 6 22 7 23 21 25 23 27 2 29 1 30
REMARK H PARENT 13 10 15 12 17 14 19 16 7 24 21 26 23 28 1 31
REMARK Flexibility Score: inf
ROOT
ATOM      1  O   UNL     1      10.384 -17.580   7.416  1.00  0.00    -0.313 OA
ENDROOT
BRANCH   1   2
ATOM      2  C   UNL     1      11.166 -16.438   7.743  1.00  0.00     0.285 C 
ATOM      3  C   UNL     1      13.124 -17.090   6.517  1.00  0.00     0.178 C 
ATOM      4  C   UNL     1      13.903 -17.373   7.831  1.00  0.00     0.177 C 
ATOM      5  O   UNL     1      12.073 -16.140   6.687  1.00  0.00    -0.341 OA
ATOM      6  C   UNL     1      12.976 -17.713   9.009  1.00  0.00     0.179 C 
ATOM      7  C   UNL     1      11.892 -16.628   9.095  1.00  0.00     0.202 C 
BRANCH   3   8
ATOM      8  C   UNL     1      12.672 -18.346   5.737  1.00  0.00     0.191 C 
BRANCH   8   9
ATOM      9  O   UNL     1      13.779 -19.125   5.374  1.00  0.00    -0.394 OA
ATOM     10  H   UNL     1      14.577 -18.700   5.788  1.00  0.00     0.210 HD
ENDBRANCH   8   9
ENDBRANCH   3   8
BRANCH   4  11
ATOM     11  O   UNL     1      14.917 -18.334   7.655  1.00  0.00    -0.387 OA
ATOM     12  H   UNL     1      14.664 -18.922   6.896  1.00  0.00     0.211 HD
ENDBRANCH   4  11
BRANCH   6  13
ATOM     13  O   UNL     1      12.399 -18.985   8.835  1.00  0.00    -0.387 OA
ATOM     14  H   UNL     1      11.456 -18.927   9.139  1.00  0.00     0.211 HD
ENDBRANCH   6  13
BRANCH   7  15
ATOM     15  O   UNL     1      10.989 -16.876  10.145  1.00  0.00    -0.385 OA
ATOM     16  H   UNL     1      11.217 -16.271  10.898  1.00  0.00     0.211 HD
ENDBRANCH   7  15
ENDBRANCH   1   2
BRANCH   1  17
ATOM     17  C   UNL     1       8.989 -17.436   7.684  1.00  0.00     0.224 C 
ATOM     18  C   UNL     1       8.189 -18.143   6.562  1.00  0.00     0.208 C 
ATOM     19  O   UNL     1       8.647 -18.045   8.922  1.00  0.00    -0.337 OA
ATOM     20  C   UNL     1       7.076 -18.846   7.306  1.00  0.00     0.180 C 
ATOM     21  C   UNL     1       7.706 -19.068   8.679  1.00  0.00     0.179 C 
BRANCH  17  22
ATOM     22  C   UNL     1       8.596 -15.940   7.747  1.00  0.00     0.225 C 
BRANCH  22  23
ATOM     23  O   UNL     1       7.536 -15.748   8.642  1.00  0.00    -0.391 OA
ATOM     24  H   UNL     1       7.581 -16.495   9.296  1.00  0.00     0.210 HD
ENDBRANCH  22  23
ENDBRANCH  17  22
BRANCH  18  25
ATOM     25  O   UNL     1       8.975 -19.068   5.844  1.00  0.00    -0.385 OA
ATOM     26  H   UNL     1       9.827 -19.206   6.336  1.00  0.00     0.211 HD
ENDBRANCH  18  25
BRANCH  20  27
ATOM     27  O   UNL     1       5.947 -18.010   7.393  1.00  0.00    -0.387 OA
ATOM     28  H   UNL     1       5.784 -17.854   8.360  1.00  0.00     0.211 HD
ENDBRANCH  20  27
BRANCH  21  29
ATOM     29  C   UNL     1       6.695 -19.124   9.830  1.00  0.00     0.191 C 
BRANCH  29  30
ATOM     30  O   UNL     1       6.611 -17.877  10.461  1.00  0.00    -0.394 OA
ATOM     31  H   UNL     1       7.374 -17.838  11.096  1.00  0.00     0.210 HD
ENDBRANCH  29  30
ENDBRANCH  21  29
ENDBRANCH   1  17
TORSDOF 13
ENDMDL
