MODEL 1
REMARK VINA RESULT:     7.785      0.000      0.000
REMARK INTER + INTRA:          12.859
REMARK INTER:                  11.198
REMARK INTRA:                   1.662
REMARK UNBOUND:                 1.662
REMARK SMILES O=c1c(O[C@@H]2O[C@H](CO)[C@@H](O)[C@@H](O)[C@H]2O)c(-c2ccc(O)cc2)oc2cc(O)cc(O)c12
REMARK SMILES IDX 4 1 3 2 16 3 24 4 2 5 25 6 1 7 32 8 26 9 30 10 27 11 29 12
REMARK SMILES IDX 17 13 18 14 19 15 20 16 23 17 22 18 21 19 31 21 28 23 5 25
REMARK SMILES IDX 14 26 6 27 12 28 7 29 10 30 15 31 13 33 8 35 9 36 11 38
REMARK H PARENT 21 20 31 22 28 24 15 32 13 34 9 37 11 39
REMARK Flexibility Score: inf
ROOT
ATOM      1  O   UNL     1      16.273  -3.695  27.837  1.00  0.00    -0.454 OA
ENDROOT
BRANCH   1   2
ATOM      2  C   UNL     1      15.854  -4.211  26.603  1.00  0.00     0.214 A 
ATOM      3  C   UNL     1      15.361  -3.362  25.592  1.00  0.00     0.180 A 
ATOM      4  O   UNL     1      15.077  -3.854  24.390  1.00  0.00    -0.452 OA
ATOM      5  C   UNL     1      15.962  -5.580  26.350  1.00  0.00     0.239 A 
ATOM      6  C   UNL     1      15.186  -5.146  24.095  1.00  0.00     0.146 A 
ATOM      7  O   UNL     1      16.408  -6.340  27.255  1.00  0.00    -0.285 OA
ATOM      8  C   UNL     1      15.609  -6.080  25.078  1.00  0.00     0.111 A 
ATOM      9  C   UNL     1      14.874  -5.581  22.801  1.00  0.00     0.094 A 
ATOM     10  C   UNL     1      15.677  -7.453  24.740  1.00  0.00     0.134 A 
ATOM     11  C   UNL     1      14.954  -6.938  22.474  1.00  0.00     0.123 A 
ATOM     12  C   UNL     1      15.350  -7.866  23.440  1.00  0.00     0.093 A 
BRANCH   3  13
ATOM     13  C   UNL     1      15.157  -1.926  25.852  1.00  0.00     0.021 A 
ATOM     14  C   UNL     1      15.134  -1.009  24.787  1.00  0.00     0.016 A 
ATOM     15  C   UNL     1      15.048   0.360  25.044  1.00  0.00     0.047 A 
ATOM     16  C   UNL     1      14.951   0.826  26.364  1.00  0.00     0.115 A 
ATOM     17  C   UNL     1      15.050  -1.457  27.175  1.00  0.00     0.016 A 
ATOM     18  C   UNL     1      14.935  -0.087  27.427  1.00  0.00     0.047 A 
BRANCH  16  19
ATOM     19  O   UNL     1      14.877   2.189  26.637  1.00  0.00    -0.508 OA
ATOM     20  H   UNL     1      14.309   2.814  26.074  1.00  0.00     0.293 HD
ENDBRANCH  16  19
ENDBRANCH   3  13
BRANCH  10  21
ATOM     21  O   UNL     1      16.062  -8.401  25.685  1.00  0.00    -0.507 OA
ATOM     22  H   UNL     1      17.029  -8.512  25.977  1.00  0.00     0.293 HD
ENDBRANCH  10  21
BRANCH  11  23
ATOM     23  O   UNL     1      14.649  -7.381  21.187  1.00  0.00    -0.508 OA
ATOM     24  H   UNL     1      14.783  -6.788  20.378  1.00  0.00     0.293 HD
ENDBRANCH  11  23
ENDBRANCH   1   2
BRANCH   1  25
ATOM     25  C   UNL     1      17.358  -2.767  27.964  1.00  0.00     0.339 C 
ATOM     26  C   UNL     1      18.459  -3.396  28.861  1.00  0.00     0.214 C 
ATOM     27  O   UNL     1      17.876  -2.437  26.683  1.00  0.00    -0.332 OA
ATOM     28  C   UNL     1      19.865  -3.051  28.310  1.00  0.00     0.180 C 
ATOM     29  C   UNL     1      18.775  -1.342  26.772  1.00  0.00     0.179 C 
ATOM     30  C   UNL     1      19.925  -1.594  27.802  1.00  0.00     0.177 C 
BRANCH  26  31
ATOM     31  O   UNL     1      18.321  -2.919  30.175  1.00  0.00    -0.384 OA
ATOM     32  H   UNL     1      17.505  -2.350  30.191  1.00  0.00     0.211 HD
ENDBRANCH  26  31
BRANCH  28  33
ATOM     33  O   UNL     1      20.887  -3.341  29.233  1.00  0.00    -0.387 OA
ATOM     34  H   UNL     1      20.933  -2.603  29.895  1.00  0.00     0.211 HD
ENDBRANCH  28  33
BRANCH  29  35
ATOM     35  C   UNL     1      19.336  -1.063  25.369  1.00  0.00     0.191 C 
BRANCH  35  36
ATOM     36  O   UNL     1      18.405  -0.342  24.601  1.00  0.00    -0.394 OA
ATOM     37  H   UNL     1      18.650   0.615  24.679  1.00  0.00     0.210 HD
ENDBRANCH  35  36
ENDBRANCH  29  35
BRANCH  30  38
ATOM     38  O   UNL     1      19.774  -0.697  28.880  1.00  0.00    -0.387 OA
ATOM     39  H   UNL     1      18.871  -0.843  29.268  1.00  0.00     0.211 HD
ENDBRANCH  30  38
ENDBRANCH   1  25
TORSDOF 11
ENDMDL
MODEL 2
REMARK VINA RESULT:     9.026      1.311      2.007
REMARK INTER + INTRA:          14.646
REMARK INTER:                  14.478
REMARK INTRA:                   0.168
REMARK UNBOUND:                 1.662
REMARK SMILES O=c1c(O[C@@H]2O[C@H](CO)[C@@H](O)[C@@H](O)[C@H]2O)c(-c2ccc(O)cc2)oc2cc(O)cc(O)c12
REMARK SMILES IDX 4 1 3 2 16 3 24 4 2 5 25 6 1 7 32 8 26 9 30 10 27 11 29 12
REMARK SMILES IDX 17 13 18 14 19 15 20 16 23 17 22 18 21 19 31 21 28 23 5 25
REMARK SMILES IDX 14 26 6 27 12 28 7 29 10 30 15 31 13 33 8 35 9 36 11 38
REMARK H PARENT 21 20 31 22 28 24 15 32 13 34 9 37 11 39
REMARK Flexibility Score: inf
ROOT
ATOM      1  O   UNL     1      16.099  -4.131  27.640  1.00  0.00    -0.454 OA
ENDROOT
BRANCH   1   2
ATOM      2  C   UNL     1      15.764  -4.643  26.378  1.00  0.00     0.214 A 
ATOM      3  C   UNL     1      15.576  -3.786  25.276  1.00  0.00     0.180 A 
ATOM      4  O   UNL     1      15.373  -4.295  24.064  1.00  0.00    -0.452 OA
ATOM      5  C   UNL     1      15.654  -6.023  26.195  1.00  0.00     0.239 A 
ATOM      6  C   UNL     1      15.283  -5.602  23.836  1.00  0.00     0.146 A 
ATOM      7  O   UNL     1      15.826  -6.791  27.183  1.00  0.00    -0.285 OA
ATOM      8  C   UNL     1      15.391  -6.532  24.905  1.00  0.00     0.111 A 
ATOM      9  C   UNL     1      15.075  -6.057  22.529  1.00  0.00     0.094 A 
ATOM     10  C   UNL     1      15.252  -7.914  24.632  1.00  0.00     0.134 A 
ATOM     11  C   UNL     1      14.950  -7.424  22.267  1.00  0.00     0.123 A 
ATOM     12  C   UNL     1      15.036  -8.345  23.315  1.00  0.00     0.093 A 
BRANCH   3  13
ATOM     13  C   UNL     1      15.604  -2.322  25.449  1.00  0.00     0.021 A 
ATOM     14  C   UNL     1      14.413  -1.612  25.671  1.00  0.00     0.016 A 
ATOM     15  C   UNL     1      14.429  -0.217  25.727  1.00  0.00     0.047 A 
ATOM     16  C   UNL     1      15.639   0.480  25.595  1.00  0.00     0.115 A 
ATOM     17  C   UNL     1      16.819  -1.622  25.325  1.00  0.00     0.016 A 
ATOM     18  C   UNL     1      16.836  -0.227  25.411  1.00  0.00     0.047 A 
BRANCH  16  19
ATOM     19  O   UNL     1      15.671   1.871  25.635  1.00  0.00    -0.508 OA
ATOM     20  H   UNL     1      14.927   2.432  25.230  1.00  0.00     0.293 HD
ENDBRANCH  16  19
ENDBRANCH   3  13
BRANCH  10  21
ATOM     21  O   UNL     1      15.326  -8.853  25.658  1.00  0.00    -0.507 OA
ATOM     22  H   UNL     1      15.978  -8.760  26.431  1.00  0.00     0.293 HD
ENDBRANCH  10  21
BRANCH  11  23
ATOM     23  O   UNL     1      14.747  -7.887  20.967  1.00  0.00    -0.508 OA
ATOM     24  H   UNL     1      13.819  -8.093  20.619  1.00  0.00     0.293 HD
ENDBRANCH  11  23
ENDBRANCH   1   2
BRANCH   1  25
ATOM     25  C   UNL     1      16.977  -3.013  27.818  1.00  0.00     0.339 C 
ATOM     26  C   UNL     1      16.546  -2.228  29.086  1.00  0.00     0.214 C 
ATOM     27  O   UNL     1      18.322  -3.456  27.928  1.00  0.00    -0.332 OA
ATOM     28  C   UNL     1      17.793  -1.744  29.868  1.00  0.00     0.180 C 
ATOM     29  C   UNL     1      19.220  -2.359  27.855  1.00  0.00     0.179 C 
ATOM     30  C   UNL     1      18.898  -1.251  28.910  1.00  0.00     0.177 C 
BRANCH  26  31
ATOM     31  O   UNL     1      15.751  -1.133  28.711  1.00  0.00    -0.384 OA
ATOM     32  H   UNL     1      14.823  -1.334  29.010  1.00  0.00     0.211 HD
ENDBRANCH  26  31
BRANCH  28  33
ATOM     33  O   UNL     1      17.469  -0.790  30.852  1.00  0.00    -0.387 OA
ATOM     34  H   UNL     1      17.040  -0.012  30.408  1.00  0.00     0.211 HD
ENDBRANCH  28  33
BRANCH  29  35
ATOM     35  C   UNL     1      20.651  -2.893  28.027  1.00  0.00     0.191 C 
BRANCH  35  36
ATOM     36  O   UNL     1      21.145  -2.572  29.304  1.00  0.00    -0.394 OA
ATOM     37  H   UNL     1      21.906  -3.183  29.477  1.00  0.00     0.210 HD
ENDBRANCH  35  36
ENDBRANCH  29  35
BRANCH  30  38
ATOM     38  O   UNL     1      18.473  -0.089  28.233  1.00  0.00    -0.387 OA
ATOM     39  H   UNL     1      19.126   0.632  28.432  1.00  0.00     0.211 HD
ENDBRANCH  30  38
ENDBRANCH   1  25
TORSDOF 11
ENDMDL
MODEL 3
REMARK VINA RESULT:     9.046      5.763     10.386
REMARK INTER + INTRA:          14.675
REMARK INTER:                  12.691
REMARK INTRA:                   1.983
REMARK UNBOUND:                 1.662
REMARK SMILES O=c1c(O[C@@H]2O[C@H](CO)[C@@H](O)[C@@H](O)[C@H]2O)c(-c2ccc(O)cc2)oc2cc(O)cc(O)c12
REMARK SMILES IDX 4 1 3 2 16 3 24 4 2 5 25 6 1 7 32 8 26 9 30 10 27 11 29 12
REMARK SMILES IDX 17 13 18 14 19 15 20 16 23 17 22 18 21 19 31 21 28 23 5 25
REMARK SMILES IDX 14 26 6 27 12 28 7 29 10 30 15 31 13 33 8 35 9 36 11 38
REMARK H PARENT 21 20 31 22 28 24 15 32 13 34 9 37 11 39
REMARK Flexibility Score: inf
ROOT
ATOM      1  O   UNL     1      14.102 -10.128  28.818  1.00  0.00    -0.454 OA
ENDROOT
BRANCH   1   2
ATOM      2  C   UNL     1      14.480  -9.918  27.485  1.00  0.00     0.214 A 
ATOM      3  C   UNL     1      14.929 -10.985  26.682  1.00  0.00     0.180 A 
ATOM      4  O   UNL     1      15.172 -10.788  25.389  1.00  0.00    -0.452 OA
ATOM      5  C   UNL     1      14.371  -8.643  26.925  1.00  0.00     0.239 A 
ATOM      6  C   UNL     1      15.061  -9.598  24.806  1.00  0.00     0.146 A 
ATOM      7  O   UNL     1      13.964  -7.687  27.645  1.00  0.00    -0.285 OA
ATOM      8  C   UNL     1      14.681  -8.456  25.561  1.00  0.00     0.111 A 
ATOM      9  C   UNL     1      15.329  -9.478  23.438  1.00  0.00     0.094 A 
ATOM     10  C   UNL     1      14.611  -7.198  24.916  1.00  0.00     0.134 A 
ATOM     11  C   UNL     1      15.246  -8.233  22.808  1.00  0.00     0.123 A 
ATOM     12  C   UNL     1      14.892  -7.101  23.546  1.00  0.00     0.093 A 
BRANCH   3  13
ATOM     13  C   UNL     1      15.133 -12.325  27.259  1.00  0.00     0.021 A 
ATOM     14  C   UNL     1      15.249 -13.448  26.423  1.00  0.00     0.016 A 
ATOM     15  C   UNL     1      15.334 -14.727  26.975  1.00  0.00     0.047 A 
ATOM     16  C   UNL     1      15.337 -14.896  28.368  1.00  0.00     0.115 A 
ATOM     17  C   UNL     1      15.146 -12.495  28.656  1.00  0.00     0.016 A 
ATOM     18  C   UNL     1      15.260 -13.776  29.207  1.00  0.00     0.047 A 
BRANCH  16  19
ATOM     19  O   UNL     1      15.409 -16.166  28.934  1.00  0.00    -0.508 OA
ATOM     20  H   UNL     1      16.277 -16.532  29.310  1.00  0.00     0.293 HD
ENDBRANCH  16  19
ENDBRANCH   3  13
BRANCH  10  21
ATOM     21  O   UNL     1      14.267  -6.051  25.629  1.00  0.00    -0.507 OA
ATOM     22  H   UNL     1      14.062  -5.169  25.169  1.00  0.00     0.293 HD
ENDBRANCH  10  21
BRANCH  11  23
ATOM     23  O   UNL     1      15.507  -8.104  21.444  1.00  0.00    -0.508 OA
ATOM     24  H   UNL     1      15.304  -8.853  20.794  1.00  0.00     0.293 HD
ENDBRANCH  11  23
ENDBRANCH   1   2
BRANCH   1  25
ATOM     25  C   UNL     1      12.990 -10.952  29.191  1.00  0.00     0.339 C 
ATOM     26  C   UNL     1      11.908 -10.066  29.866  1.00  0.00     0.214 C 
ATOM     27  O   UNL     1      12.464 -11.615  28.051  1.00  0.00    -0.332 OA
ATOM     28  C   UNL     1      10.493 -10.513  29.421  1.00  0.00     0.180 C 
ATOM     29  C   UNL     1      11.533 -12.615  28.436  1.00  0.00     0.179 C 
ATOM     30  C   UNL     1      10.391 -12.051  29.343  1.00  0.00     0.177 C 
BRANCH  26  31
ATOM     31  O   UNL     1      12.031 -10.158  31.262  1.00  0.00    -0.384 OA
ATOM     32  H   UNL     1      12.118 -11.125  31.481  1.00  0.00     0.211 HD
ENDBRANCH  26  31
BRANCH  28  33
ATOM     33  O   UNL     1       9.479  -9.946  30.217  1.00  0.00    -0.387 OA
ATOM     34  H   UNL     1       8.625 -10.414  30.019  1.00  0.00     0.211 HD
ENDBRANCH  28  33
BRANCH  29  35
ATOM     35  C   UNL     1      10.965 -13.262  27.162  1.00  0.00     0.191 C 
BRANCH  35  36
ATOM     36  O   UNL     1      11.931 -14.083  26.554  1.00  0.00    -0.394 OA
ATOM     37  H   UNL     1      12.228 -13.614  25.734  1.00  0.00     0.210 HD
ENDBRANCH  35  36
ENDBRANCH  29  35
BRANCH  30  38
ATOM     38  O   UNL     1      10.515 -12.613  30.631  1.00  0.00    -0.387 OA
ATOM     39  H   UNL     1      11.101 -13.412  30.555  1.00  0.00     0.211 HD
ENDBRANCH  30  38
ENDBRANCH   1  25
TORSDOF 11
ENDMDL
MODEL 4
REMARK VINA RESULT:     9.059      1.119      2.030
REMARK INTER + INTRA:          14.692
REMARK INTER:                  13.475
REMARK INTRA:                   1.217
REMARK UNBOUND:                 1.662
REMARK SMILES O=c1c(O[C@@H]2O[C@H](CO)[C@@H](O)[C@@H](O)[C@H]2O)c(-c2ccc(O)cc2)oc2cc(O)cc(O)c12
REMARK SMILES IDX 4 1 3 2 16 3 24 4 2 5 25 6 1 7 32 8 26 9 30 10 27 11 29 12
REMARK SMILES IDX 17 13 18 14 19 15 20 16 23 17 22 18 21 19 31 21 28 23 5 25
REMARK SMILES IDX 14 26 6 27 12 28 7 29 10 30 15 31 13 33 8 35 9 36 11 38
REMARK H PARENT 21 20 31 22 28 24 15 32 13 34 9 37 11 39
REMARK Flexibility Score: inf
ROOT
ATOM      1  O   UNL     1      16.181  -3.878  28.008  1.00  0.00    -0.454 OA
ENDROOT
BRANCH   1   2
ATOM      2  C   UNL     1      15.810  -4.349  26.741  1.00  0.00     0.214 A 
ATOM      3  C   UNL     1      15.426  -3.458  25.721  1.00  0.00     0.180 A 
ATOM      4  O   UNL     1      15.190  -3.912  24.494  1.00  0.00    -0.452 OA
ATOM      5  C   UNL     1      15.862  -5.717  26.467  1.00  0.00     0.239 A 
ATOM      6  C   UNL     1      15.248  -5.203  24.179  1.00  0.00     0.146 A 
ATOM      7  O   UNL     1      16.211  -6.516  27.381  1.00  0.00    -0.285 OA
ATOM      8  C   UNL     1      15.560  -6.175  25.166  1.00  0.00     0.111 A 
ATOM      9  C   UNL     1      14.992  -5.598  22.860  1.00  0.00     0.094 A 
ATOM     10  C   UNL     1      15.576  -7.544  24.804  1.00  0.00     0.134 A 
ATOM     11  C   UNL     1      15.020  -6.952  22.510  1.00  0.00     0.123 A 
ATOM     12  C   UNL     1      15.308  -7.916  23.479  1.00  0.00     0.093 A 
BRANCH   3  13
ATOM     13  C   UNL     1      15.282  -2.017  25.997  1.00  0.00     0.021 A 
ATOM     14  C   UNL     1      15.549  -1.072  24.992  1.00  0.00     0.016 A 
ATOM     15  C   UNL     1      15.516   0.292  25.287  1.00  0.00     0.047 A 
ATOM     16  C   UNL     1      15.184   0.727  26.579  1.00  0.00     0.115 A 
ATOM     17  C   UNL     1      14.940  -1.579  27.290  1.00  0.00     0.016 A 
ATOM     18  C   UNL     1      14.879  -0.211  27.574  1.00  0.00     0.047 A 
BRANCH  16  19
ATOM     19  O   UNL     1      15.160   2.083  26.892  1.00  0.00    -0.508 OA
ATOM     20  H   UNL     1      15.387   2.793  26.202  1.00  0.00     0.293 HD
ENDBRANCH  16  19
ENDBRANCH   3  13
BRANCH  10  21
ATOM     21  O   UNL     1      15.853  -8.527  25.751  1.00  0.00    -0.507 OA
ATOM     22  H   UNL     1      15.381  -8.561  26.650  1.00  0.00     0.293 HD
ENDBRANCH  10  21
BRANCH  11  23
ATOM     23  O   UNL     1      14.770  -7.355  21.199  1.00  0.00    -0.508 OA
ATOM     24  H   UNL     1      13.923  -7.851  20.951  1.00  0.00     0.293 HD
ENDBRANCH  11  23
ENDBRANCH   1   2
BRANCH   1  25
ATOM     25  C   UNL     1      17.434  -3.230  28.262  1.00  0.00     0.339 C 
ATOM     26  C   UNL     1      18.114  -2.897  26.906  1.00  0.00     0.214 C 
ATOM     27  O   UNL     1      17.233  -2.053  29.031  1.00  0.00    -0.332 OA
ATOM     28  C   UNL     1      18.800  -1.509  26.975  1.00  0.00     0.180 C 
ATOM     29  C   UNL     1      18.472  -1.540  29.498  1.00  0.00     0.179 C 
ATOM     30  C   UNL     1      19.492  -1.294  28.338  1.00  0.00     0.177 C 
BRANCH  26  31
ATOM     31  O   UNL     1      19.058  -3.891  26.599  1.00  0.00    -0.384 OA
ATOM     32  H   UNL     1      18.626  -4.767  26.790  1.00  0.00     0.211 HD
ENDBRANCH  26  31
BRANCH  28  33
ATOM     33  O   UNL     1      19.670  -1.288  25.890  1.00  0.00    -0.387 OA
ATOM     34  H   UNL     1      20.503  -0.870  26.233  1.00  0.00     0.211 HD
ENDBRANCH  28  33
BRANCH  29  35
ATOM     35  C   UNL     1      18.195  -0.246  30.279  1.00  0.00     0.191 C 
BRANCH  35  36
ATOM     36  O   UNL     1      17.266  -0.482  31.308  1.00  0.00    -0.394 OA
ATOM     37  H   UNL     1      16.682   0.317  31.354  1.00  0.00     0.210 HD
ENDBRANCH  35  36
ENDBRANCH  29  35
BRANCH  30  38
ATOM     38  O   UNL     1      20.570  -2.193  28.484  1.00  0.00    -0.387 OA
ATOM     39  H   UNL     1      20.383  -2.982  27.911  1.00  0.00     0.211 HD
ENDBRANCH  30  38
ENDBRANCH   1  25
TORSDOF 11
ENDMDL
MODEL 5
REMARK VINA RESULT:     9.633      1.864      3.228
REMARK INTER + INTRA:          15.519
REMARK INTER:                  15.191
REMARK INTRA:                   0.328
REMARK UNBOUND:                 1.662
REMARK SMILES O=c1c(O[C@@H]2O[C@H](CO)[C@@H](O)[C@@H](O)[C@H]2O)c(-c2ccc(O)cc2)oc2cc(O)cc(O)c12
REMARK SMILES IDX 4 1 3 2 16 3 24 4 2 5 25 6 1 7 32 8 26 9 30 10 27 11 29 12
REMARK SMILES IDX 17 13 18 14 19 15 20 16 23 17 22 18 21 19 31 21 28 23 5 25
REMARK SMILES IDX 14 26 6 27 12 28 7 29 10 30 15 31 13 33 8 35 9 36 11 38
REMARK H PARENT 21 20 31 22 28 24 15 32 13 34 9 37 11 39
REMARK Flexibility Score: inf
ROOT
ATOM      1  O   UNL     1      18.251  -2.888  27.152  1.00  0.00    -0.454 OA
ENDROOT
BRANCH   1   2
ATOM      2  C   UNL     1      17.313  -3.747  26.561  1.00  0.00     0.214 A 
ATOM      3  C   UNL     1      16.188  -3.236  25.886  1.00  0.00     0.180 A 
ATOM      4  O   UNL     1      15.372  -4.059  25.235  1.00  0.00    -0.452 OA
ATOM      5  C   UNL     1      17.513  -5.128  26.603  1.00  0.00     0.239 A 
ATOM      6  C   UNL     1      15.534  -5.379  25.227  1.00  0.00     0.146 A 
ATOM      7  O   UNL     1      18.526  -5.586  27.205  1.00  0.00    -0.285 OA
ATOM      8  C   UNL     1      16.604  -5.981  25.941  1.00  0.00     0.111 A 
ATOM      9  C   UNL     1      14.633  -6.175  24.509  1.00  0.00     0.094 A 
ATOM     10  C   UNL     1      16.724  -7.391  25.942  1.00  0.00     0.134 A 
ATOM     11  C   UNL     1      14.767  -7.567  24.507  1.00  0.00     0.123 A 
ATOM     12  C   UNL     1      15.805  -8.168  25.223  1.00  0.00     0.093 A 
BRANCH   3  13
ATOM     13  C   UNL     1      15.901  -1.790  25.892  1.00  0.00     0.021 A 
ATOM     14  C   UNL     1      14.712  -1.305  26.462  1.00  0.00     0.016 A 
ATOM     15  C   UNL     1      14.393   0.051  26.370  1.00  0.00     0.047 A 
ATOM     16  C   UNL     1      15.274   0.942  25.737  1.00  0.00     0.115 A 
ATOM     17  C   UNL     1      16.788  -0.894  25.266  1.00  0.00     0.016 A 
ATOM     18  C   UNL     1      16.480   0.468  25.201  1.00  0.00     0.047 A 
BRANCH  16  19
ATOM     19  O   UNL     1      14.965   2.294  25.626  1.00  0.00    -0.508 OA
ATOM     20  H   UNL     1      14.005   2.616  25.553  1.00  0.00     0.293 HD
ENDBRANCH  16  19
ENDBRANCH   3  13
BRANCH  10  21
ATOM     21  O   UNL     1      17.746  -8.018  26.652  1.00  0.00    -0.507 OA
ATOM     22  H   UNL     1      18.261  -7.546  27.389  1.00  0.00     0.293 HD
ENDBRANCH  10  21
BRANCH  11  23
ATOM     23  O   UNL     1      13.877  -8.369  23.792  1.00  0.00    -0.508 OA
ATOM     24  H   UNL     1      13.243  -9.003  24.262  1.00  0.00     0.293 HD
ENDBRANCH  11  23
ENDBRANCH   1   2
BRANCH   1  25
ATOM     25  C   UNL     1      18.052  -2.283  28.436  1.00  0.00     0.339 C 
ATOM     26  C   UNL     1      17.464  -0.860  28.238  1.00  0.00     0.214 C 
ATOM     27  O   UNL     1      17.188  -3.084  29.228  1.00  0.00    -0.332 OA
ATOM     28  C   UNL     1      16.391  -0.567  29.317  1.00  0.00     0.180 C 
ATOM     29  C   UNL     1      17.179  -2.633  30.575  1.00  0.00     0.179 C 
ATOM     30  C   UNL     1      16.818  -1.116  30.695  1.00  0.00     0.177 C 
BRANCH  26  31
ATOM     31  O   UNL     1      18.497   0.088  28.310  1.00  0.00    -0.384 OA
ATOM     32  H   UNL     1      18.271   0.706  29.057  1.00  0.00     0.211 HD
ENDBRANCH  26  31
BRANCH  28  33
ATOM     33  O   UNL     1      16.041   0.796  29.367  1.00  0.00    -0.387 OA
ATOM     34  H   UNL     1      15.765   1.017  30.295  1.00  0.00     0.211 HD
ENDBRANCH  28  33
BRANCH  29  35
ATOM     35  C   UNL     1      16.193  -3.505  31.369  1.00  0.00     0.191 C 
BRANCH  35  36
ATOM     36  O   UNL     1      16.354  -3.295  32.750  1.00  0.00    -0.394 OA
ATOM     37  H   UNL     1      17.329  -3.283  32.926  1.00  0.00     0.210 HD
ENDBRANCH  35  36
ENDBRANCH  29  35
BRANCH  30  38
ATOM     38  O   UNL     1      17.948  -0.417  31.168  1.00  0.00    -0.387 OA
ATOM     39  H   UNL     1      18.005   0.438  30.666  1.00  0.00     0.211 HD
ENDBRANCH  30  38
ENDBRANCH   1  25
TORSDOF 11
ENDMDL
MODEL 6
REMARK VINA RESULT:     9.635      6.219     10.539
REMARK INTER + INTRA:          15.521
REMARK INTER:                  15.906
REMARK INTRA:                  -0.385
REMARK UNBOUND:                 1.662
REMARK SMILES O=c1c(O[C@@H]2O[C@H](CO)[C@@H](O)[C@@H](O)[C@H]2O)c(-c2ccc(O)cc2)oc2cc(O)cc(O)c12
REMARK SMILES IDX 4 1 3 2 16 3 24 4 2 5 25 6 1 7 32 8 26 9 30 10 27 11 29 12
REMARK SMILES IDX 17 13 18 14 19 15 20 16 23 17 22 18 21 19 31 21 28 23 5 25
REMARK SMILES IDX 14 26 6 27 12 28 7 29 10 30 15 31 13 33 8 35 9 36 11 38
REMARK H PARENT 21 20 31 22 28 24 15 32 13 34 9 37 11 39
REMARK Flexibility Score: inf
ROOT
ATOM      1  O   UNL     1      15.440 -11.374  29.023  1.00  0.00    -0.454 OA
ENDROOT
BRANCH   1   2
ATOM      2  C   UNL     1      15.117 -10.342  28.131  1.00  0.00     0.214 A 
ATOM      3  C   UNL     1      13.778  -9.965  27.914  1.00  0.00     0.180 A 
ATOM      4  O   UNL     1      13.498  -8.910  27.154  1.00  0.00    -0.452 OA
ATOM      5  C   UNL     1      16.135  -9.646  27.475  1.00  0.00     0.239 A 
ATOM      6  C   UNL     1      14.434  -8.203  26.528  1.00  0.00     0.146 A 
ATOM      7  O   UNL     1      17.337  -9.983  27.673  1.00  0.00    -0.285 OA
ATOM      8  C   UNL     1      15.804  -8.560  26.637  1.00  0.00     0.111 A 
ATOM      9  C   UNL     1      14.055  -7.101  25.752  1.00  0.00     0.094 A 
ATOM     10  C   UNL     1      16.771  -7.808  25.927  1.00  0.00     0.134 A 
ATOM     11  C   UNL     1      15.018  -6.358  25.062  1.00  0.00     0.123 A 
ATOM     12  C   UNL     1      16.366  -6.714  25.149  1.00  0.00     0.093 A 
BRANCH   3  13
ATOM     13  C   UNL     1      12.674 -10.728  28.524  1.00  0.00     0.021 A 
ATOM     14  C   UNL     1      12.421 -10.630  29.903  1.00  0.00     0.016 A 
ATOM     15  C   UNL     1      11.447 -11.435  30.495  1.00  0.00     0.047 A 
ATOM     16  C   UNL     1      10.692 -12.321  29.712  1.00  0.00     0.115 A 
ATOM     17  C   UNL     1      11.910 -11.611  27.739  1.00  0.00     0.016 A 
ATOM     18  C   UNL     1      10.915 -12.395  28.331  1.00  0.00     0.047 A 
BRANCH  16  19
ATOM     19  O   UNL     1       9.726 -13.139  30.290  1.00  0.00    -0.508 OA
ATOM     20  H   UNL     1       9.960 -14.049  30.676  1.00  0.00     0.293 HD
ENDBRANCH  16  19
ENDBRANCH   3  13
BRANCH  10  21
ATOM     21  O   UNL     1      18.121  -8.144  25.990  1.00  0.00    -0.507 OA
ATOM     22  H   UNL     1      18.436  -9.106  26.078  1.00  0.00     0.293 HD
ENDBRANCH  10  21
BRANCH  11  23
ATOM     23  O   UNL     1      14.651  -5.257  24.289  1.00  0.00    -0.508 OA
ATOM     24  H   UNL     1      14.877  -4.312  24.575  1.00  0.00     0.293 HD
ENDBRANCH  11  23
ENDBRANCH   1   2
BRANCH   1  25
ATOM     25  C   UNL     1      14.895 -12.695  28.916  1.00  0.00     0.339 C 
ATOM     26  C   UNL     1      15.458 -13.372  27.636  1.00  0.00     0.214 C 
ATOM     27  O   UNL     1      15.214 -13.455  30.073  1.00  0.00    -0.332 OA
ATOM     28  C   UNL     1      15.766 -14.865  27.909  1.00  0.00     0.180 C 
ATOM     29  C   UNL     1      14.479 -14.669  30.094  1.00  0.00     0.179 C 
ATOM     30  C   UNL     1      14.675 -15.510  28.790  1.00  0.00     0.177 C 
BRANCH  26  31
ATOM     31  O   UNL     1      14.525 -13.250  26.593  1.00  0.00    -0.384 OA
ATOM     32  H   UNL     1      14.892 -13.753  25.817  1.00  0.00     0.211 HD
ENDBRANCH  26  31
BRANCH  28  33
ATOM     33  O   UNL     1      15.996 -15.589  26.723  1.00  0.00    -0.387 OA
ATOM     34  H   UNL     1      16.268 -16.513  26.965  1.00  0.00     0.211 HD
ENDBRANCH  28  33
BRANCH  29  35
ATOM     35  C   UNL     1      14.899 -15.466  31.339  1.00  0.00     0.191 C 
BRANCH  35  36
ATOM     36  O   UNL     1      14.907 -16.845  31.062  1.00  0.00    -0.394 OA
ATOM     37  H   UNL     1      14.974 -17.311  31.933  1.00  0.00     0.210 HD
ENDBRANCH  35  36
ENDBRANCH  29  35
BRANCH  30  38
ATOM     38  O   UNL     1      13.450 -15.557  28.092  1.00  0.00    -0.387 OA
ATOM     39  H   UNL     1      13.113 -14.626  28.012  1.00  0.00     0.211 HD
ENDBRANCH  30  38
ENDBRANCH   1  25
TORSDOF 11
ENDMDL
MODEL 7
REMARK VINA RESULT:    10.126      1.834      5.739
REMARK INTER + INTRA:          16.228
REMARK INTER:                  15.812
REMARK INTRA:                   0.416
REMARK UNBOUND:                 1.662
REMARK SMILES O=c1c(O[C@@H]2O[C@H](CO)[C@@H](O)[C@@H](O)[C@H]2O)c(-c2ccc(O)cc2)oc2cc(O)cc(O)c12
REMARK SMILES IDX 4 1 3 2 16 3 24 4 2 5 25 6 1 7 32 8 26 9 30 10 27 11 29 12
REMARK SMILES IDX 17 13 18 14 19 15 20 16 23 17 22 18 21 19 31 21 28 23 5 25
REMARK SMILES IDX 14 26 6 27 12 28 7 29 10 30 15 31 13 33 8 35 9 36 11 38
REMARK H PARENT 21 20 31 22 28 24 15 32 13 34 9 37 11 39
REMARK Flexibility Score: inf
ROOT
ATOM      1  O   UNL     1      16.284  -1.862  28.425  1.00  0.00    -0.454 OA
ENDROOT
BRANCH   1   2
ATOM      2  C   UNL     1      15.866  -1.147  27.294  1.00  0.00     0.214 A 
ATOM      3  C   UNL     1      15.548  -1.811  26.093  1.00  0.00     0.180 A 
ATOM      4  O   UNL     1      15.044  -1.131  25.069  1.00  0.00    -0.452 OA
ATOM      5  C   UNL     1      15.720   0.240  27.363  1.00  0.00     0.239 A 
ATOM      6  C   UNL     1      14.866   0.187  25.096  1.00  0.00     0.146 A 
ATOM      7  O   UNL     1      16.001   0.836  28.442  1.00  0.00    -0.285 OA
ATOM      8  C   UNL     1      15.226   0.943  26.243  1.00  0.00     0.111 A 
ATOM      9  C   UNL     1      14.322   0.828  23.976  1.00  0.00     0.094 A 
ATOM     10  C   UNL     1      15.058   2.348  26.223  1.00  0.00     0.134 A 
ATOM     11  C   UNL     1      14.150   2.215  23.969  1.00  0.00     0.123 A 
ATOM     12  C   UNL     1      14.520   2.968  25.086  1.00  0.00     0.093 A 
BRANCH   3  13
ATOM     13  C   UNL     1      15.768  -3.263  25.958  1.00  0.00     0.021 A 
ATOM     14  C   UNL     1      14.717  -4.104  25.557  1.00  0.00     0.016 A 
ATOM     15  C   UNL     1      14.897  -5.488  25.534  1.00  0.00     0.047 A 
ATOM     16  C   UNL     1      16.139  -6.044  25.878  1.00  0.00     0.115 A 
ATOM     17  C   UNL     1      17.015  -3.821  26.295  1.00  0.00     0.016 A 
ATOM     18  C   UNL     1      17.202  -5.205  26.242  1.00  0.00     0.047 A 
BRANCH  16  19
ATOM     19  O   UNL     1      16.331  -7.422  25.872  1.00  0.00    -0.508 OA
ATOM     20  H   UNL     1      15.954  -8.015  26.605  1.00  0.00     0.293 HD
ENDBRANCH  16  19
ENDBRANCH   3  13
BRANCH  10  21
ATOM     21  O   UNL     1      15.424   3.124  27.320  1.00  0.00    -0.507 OA
ATOM     22  H   UNL     1      15.974   3.973  27.223  1.00  0.00     0.293 HD
ENDBRANCH  10  21
BRANCH  11  23
ATOM     23  O   UNL     1      13.606   2.862  22.860  1.00  0.00    -0.508 OA
ATOM     24  H   UNL     1      12.676   3.261  22.885  1.00  0.00     0.293 HD
ENDBRANCH  11  23
ENDBRANCH   1   2
BRANCH   1  25
ATOM     25  C   UNL     1      17.664  -2.028  28.775  1.00  0.00     0.339 C 
ATOM     26  C   UNL     1      17.829  -3.354  29.564  1.00  0.00     0.214 C 
ATOM     27  O   UNL     1      18.471  -2.029  27.606  1.00  0.00    -0.332 OA
ATOM     28  C   UNL     1      19.137  -4.071  29.143  1.00  0.00     0.180 C 
ATOM     29  C   UNL     1      19.847  -1.942  27.945  1.00  0.00     0.179 C 
ATOM     30  C   UNL     1      20.288  -3.063  28.942  1.00  0.00     0.177 C 
BRANCH  26  31
ATOM     31  O   UNL     1      17.847  -3.081  30.942  1.00  0.00    -0.384 OA
ATOM     32  H   UNL     1      18.200  -3.894  31.393  1.00  0.00     0.211 HD
ENDBRANCH  26  31
BRANCH  28  33
ATOM     33  O   UNL     1      19.482  -5.114  30.023  1.00  0.00    -0.387 OA
ATOM     34  H   UNL     1      18.732  -5.250  30.660  1.00  0.00     0.211 HD
ENDBRANCH  28  33
BRANCH  29  35
ATOM     35  C   UNL     1      20.668  -1.996  26.647  1.00  0.00     0.191 C 
BRANCH  35  36
ATOM     36  O   UNL     1      20.281  -0.962  25.777  1.00  0.00    -0.394 OA
ATOM     37  H   UNL     1      19.825  -1.390  25.009  1.00  0.00     0.210 HD
ENDBRANCH  35  36
ENDBRANCH  29  35
BRANCH  30  38
ATOM     38  O   UNL     1      20.632  -2.466  30.173  1.00  0.00    -0.387 OA
ATOM     39  H   UNL     1      20.953  -3.186  30.777  1.00  0.00     0.211 HD
ENDBRANCH  30  38
ENDBRANCH   1  25
TORSDOF 11
ENDMDL
MODEL 8
REMARK VINA RESULT:    10.205      5.743     10.253
REMARK INTER + INTRA:          16.341
REMARK INTER:                  16.969
REMARK INTRA:                  -0.628
REMARK UNBOUND:                 1.662
REMARK SMILES O=c1c(O[C@@H]2O[C@H](CO)[C@@H](O)[C@@H](O)[C@H]2O)c(-c2ccc(O)cc2)oc2cc(O)cc(O)c12
REMARK SMILES IDX 4 1 3 2 16 3 24 4 2 5 25 6 1 7 32 8 26 9 30 10 27 11 29 12
REMARK SMILES IDX 17 13 18 14 19 15 20 16 23 17 22 18 21 19 31 21 28 23 5 25
REMARK SMILES IDX 14 26 6 27 12 28 7 29 10 30 15 31 13 33 8 35 9 36 11 38
REMARK H PARENT 21 20 31 22 28 24 15 32 13 34 9 37 11 39
REMARK Flexibility Score: inf
ROOT
ATOM      1  O   UNL     1      12.664 -10.437  26.927  1.00  0.00    -0.454 OA
ENDROOT
BRANCH   1   2
ATOM      2  C   UNL     1      13.877  -9.735  26.865  1.00  0.00     0.214 A 
ATOM      3  C   UNL     1      15.089 -10.350  27.233  1.00  0.00     0.180 A 
ATOM      4  O   UNL     1      16.241  -9.709  27.058  1.00  0.00    -0.452 OA
ATOM      5  C   UNL     1      13.895  -8.422  26.391  1.00  0.00     0.239 A 
ATOM      6  C   UNL     1      16.311  -8.466  26.589  1.00  0.00     0.146 A 
ATOM      7  O   UNL     1      12.807  -7.872  26.057  1.00  0.00    -0.285 OA
ATOM      8  C   UNL     1      15.129  -7.749  26.260  1.00  0.00     0.111 A 
ATOM      9  C   UNL     1      17.564  -7.864  26.428  1.00  0.00     0.094 A 
ATOM     10  C   UNL     1      15.239  -6.415  25.801  1.00  0.00     0.134 A 
ATOM     11  C   UNL     1      17.663  -6.549  25.963  1.00  0.00     0.123 A 
ATOM     12  C   UNL     1      16.505  -5.831  25.655  1.00  0.00     0.093 A 
BRANCH   3  13
ATOM     13  C   UNL     1      15.099 -11.705  27.812  1.00  0.00     0.021 A 
ATOM     14  C   UNL     1      15.109 -12.834  26.976  1.00  0.00     0.016 A 
ATOM     15  C   UNL     1      15.009 -14.114  27.525  1.00  0.00     0.047 A 
ATOM     16  C   UNL     1      14.932 -14.281  28.916  1.00  0.00     0.115 A 
ATOM     17  C   UNL     1      15.030 -11.875  29.208  1.00  0.00     0.016 A 
ATOM     18  C   UNL     1      14.960 -13.159  29.756  1.00  0.00     0.047 A 
BRANCH  16  19
ATOM     19  O   UNL     1      14.819 -15.549  29.479  1.00  0.00    -0.508 OA
ATOM     20  H   UNL     1      14.006 -15.818  30.024  1.00  0.00     0.293 HD
ENDBRANCH  16  19
ENDBRANCH   3  13
BRANCH  10  21
ATOM     21  O   UNL     1      14.101  -5.673  25.492  1.00  0.00    -0.507 OA
ATOM     22  H   UNL     1      14.145  -4.685  25.262  1.00  0.00     0.293 HD
ENDBRANCH  10  21
BRANCH  11  23
ATOM     23  O   UNL     1      18.907  -5.943  25.796  1.00  0.00    -0.508 OA
ATOM     24  H   UNL     1      19.657  -6.404  25.296  1.00  0.00     0.293 HD
ENDBRANCH  11  23
ENDBRANCH   1   2
BRANCH   1  25
ATOM     25  C   UNL     1      11.902 -10.567  28.134  1.00  0.00     0.339 C 
ATOM     26  C   UNL     1      11.463 -12.047  28.298  1.00  0.00     0.214 C 
ATOM     27  O   UNL     1      12.670 -10.139  29.249  1.00  0.00    -0.332 OA
ATOM     28  C   UNL     1      11.558 -12.475  29.784  1.00  0.00     0.180 C 
ATOM     29  C   UNL     1      11.855 -10.027  30.407  1.00  0.00     0.179 C 
ATOM     30  C   UNL     1      11.080 -11.347  30.723  1.00  0.00     0.177 C 
BRANCH  26  31
ATOM     31  O   UNL     1      10.147 -12.199  27.831  1.00  0.00    -0.384 OA
ATOM     32  H   UNL     1      10.167 -12.915  27.141  1.00  0.00     0.211 HD
ENDBRANCH  26  31
BRANCH  28  33
ATOM     33  O   UNL     1      10.902 -13.696  30.032  1.00  0.00    -0.387 OA
ATOM     34  H   UNL     1      10.311 -13.898  29.260  1.00  0.00     0.211 HD
ENDBRANCH  28  33
BRANCH  29  35
ATOM     35  C   UNL     1      12.748  -9.609  31.587  1.00  0.00     0.191 C 
BRANCH  35  36
ATOM     36  O   UNL     1      13.507 -10.702  32.040  1.00  0.00    -0.394 OA
ATOM     37  H   UNL     1      13.216 -11.489  31.515  1.00  0.00     0.210 HD
ENDBRANCH  35  36
ENDBRANCH  29  35
BRANCH  30  38
ATOM     38  O   UNL     1       9.700 -11.117  30.543  1.00  0.00    -0.387 OA
ATOM     39  H   UNL     1       9.220 -11.574  31.283  1.00  0.00     0.211 HD
ENDBRANCH  30  38
ENDBRANCH   1  25
TORSDOF 11
ENDMDL
MODEL 9
REMARK VINA RESULT:    10.645      5.934      9.849
REMARK INTER + INTRA:          16.974
REMARK INTER:                  17.837
REMARK INTRA:                  -0.863
REMARK UNBOUND:                 1.662
REMARK SMILES O=c1c(O[C@@H]2O[C@H](CO)[C@@H](O)[C@@H](O)[C@H]2O)c(-c2ccc(O)cc2)oc2cc(O)cc(O)c12
REMARK SMILES IDX 4 1 3 2 16 3 24 4 2 5 25 6 1 7 32 8 26 9 30 10 27 11 29 12
REMARK SMILES IDX 17 13 18 14 19 15 20 16 23 17 22 18 21 19 31 21 28 23 5 25
REMARK SMILES IDX 14 26 6 27 12 28 7 29 10 30 15 31 13 33 8 35 9 36 11 38
REMARK H PARENT 21 20 31 22 28 24 15 32 13 34 9 37 11 39
REMARK Flexibility Score: inf
ROOT
ATOM      1  O   UNL     1      14.820 -10.849  29.161  1.00  0.00    -0.454 OA
ENDROOT
BRANCH   1   2
ATOM      2  C   UNL     1      14.684  -9.926  28.115  1.00  0.00     0.214 A 
ATOM      3  C   UNL     1      13.416  -9.450  27.728  1.00  0.00     0.180 A 
ATOM      4  O   UNL     1      13.315  -8.491  26.814  1.00  0.00    -0.452 OA
ATOM      5  C   UNL     1      15.821  -9.434  27.471  1.00  0.00     0.239 A 
ATOM      6  C   UNL     1      14.371  -7.975  26.189  1.00  0.00     0.146 A 
ATOM      7  O   UNL     1      16.959  -9.858  27.821  1.00  0.00    -0.285 OA
ATOM      8  C   UNL     1      15.680  -8.448  26.471  1.00  0.00     0.111 A 
ATOM      9  C   UNL     1      14.178  -6.961  25.243  1.00  0.00     0.094 A 
ATOM     10  C   UNL     1      16.776  -7.904  25.760  1.00  0.00     0.134 A 
ATOM     11  C   UNL     1      15.269  -6.422  24.554  1.00  0.00     0.123 A 
ATOM     12  C   UNL     1      16.558  -6.895  24.811  1.00  0.00     0.093 A 
BRANCH   3  13
ATOM     13  C   UNL     1      12.190 -10.007  28.329  1.00  0.00     0.021 A 
ATOM     14  C   UNL     1      11.200 -10.583  27.516  1.00  0.00     0.016 A 
ATOM     15  C   UNL     1       9.995 -11.010  28.076  1.00  0.00     0.047 A 
ATOM     16  C   UNL     1       9.779 -10.898  29.458  1.00  0.00     0.115 A 
ATOM     17  C   UNL     1      11.976  -9.902  29.716  1.00  0.00     0.016 A 
ATOM     18  C   UNL     1      10.780 -10.359  30.278  1.00  0.00     0.047 A 
BRANCH  16  19
ATOM     19  O   UNL     1       8.578 -11.307  30.029  1.00  0.00    -0.508 OA
ATOM     20  H   UNL     1       8.180 -12.220  29.832  1.00  0.00     0.293 HD
ENDBRANCH  16  19
ENDBRANCH   3  13
BRANCH  10  21
ATOM     21  O   UNL     1      18.072  -8.361  25.990  1.00  0.00    -0.507 OA
ATOM     22  H   UNL     1      18.735  -8.511  25.236  1.00  0.00     0.293 HD
ENDBRANCH  10  21
BRANCH  11  23
ATOM     23  O   UNL     1      15.088  -5.409  23.613  1.00  0.00    -0.508 OA
ATOM     24  H   UNL     1      14.194  -5.259  23.163  1.00  0.00     0.293 HD
ENDBRANCH  11  23
ENDBRANCH   1   2
BRANCH   1  25
ATOM     25  C   UNL     1      14.983 -12.256  28.941  1.00  0.00     0.339 C 
ATOM     26  C   UNL     1      14.822 -13.002  30.293  1.00  0.00     0.214 C 
ATOM     27  O   UNL     1      14.035 -12.719  27.990  1.00  0.00    -0.332 OA
ATOM     28  C   UNL     1      14.039 -14.323  30.088  1.00  0.00     0.180 C 
ATOM     29  C   UNL     1      14.342 -14.043  27.578  1.00  0.00     0.179 C 
ATOM     30  C   UNL     1      14.466 -15.030  28.784  1.00  0.00     0.177 C 
BRANCH  26  31
ATOM     31  O   UNL     1      16.090 -13.266  30.836  1.00  0.00    -0.384 OA
ATOM     32  H   UNL     1      16.589 -12.405  30.837  1.00  0.00     0.211 HD
ENDBRANCH  26  31
BRANCH  28  33
ATOM     33  O   UNL     1      14.119 -15.170  31.210  1.00  0.00    -0.387 OA
ATOM     34  H   UNL     1      13.245 -15.151  31.682  1.00  0.00     0.211 HD
ENDBRANCH  28  33
BRANCH  29  35
ATOM     35  C   UNL     1      13.258 -14.504  26.590  1.00  0.00     0.191 C 
BRANCH  35  36
ATOM     36  O   UNL     1      12.015 -13.936  26.923  1.00  0.00    -0.394 OA
ATOM     37  H   UNL     1      11.612 -14.518  27.616  1.00  0.00     0.210 HD
ENDBRANCH  35  36
ENDBRANCH  29  35
BRANCH  30  38
ATOM     38  O   UNL     1      15.806 -15.462  28.881  1.00  0.00    -0.387 OA
ATOM     39  H   UNL     1      16.293 -14.806  29.446  1.00  0.00     0.211 HD
ENDBRANCH  30  38
ENDBRANCH   1  25
TORSDOF 11
ENDMDL
