MODEL 1
REMARK VINA RESULT:    -5.379      0.000      0.000
REMARK INTER + INTRA:          -6.913
REMARK INTER:                  -6.637
REMARK INTRA:                  -0.277
REMARK UNBOUND:                -0.277
REMARK SMILES O=c1c(O)c(-c2cc(O)c(O)c(O)c2)oc2cc(O)cc(O)c12
REMARK SMILES IDX 5 1 3 2 2 3 1 4 23 5 21 6 20 7 18 8 17 9 16 10 15 11 6 12
REMARK SMILES IDX 7 13 8 14 14 15 10 16 12 17 9 18 11 20 13 22 4 24 22 26
REMARK SMILES IDX 19 28
REMARK H PARENT 9 19 11 21 13 23 4 25 22 27 19 29
REMARK Flexibility Score: inf
ROOT
ATOM      1  C   UNL     1       8.183   6.370  26.508  1.00  0.00     0.180 A 
ATOM      2  C   UNL     1       8.010   5.313  27.423  1.00  0.00     0.208 A 
ATOM      3  C   UNL     1       6.884   5.320  28.262  1.00  0.00     0.238 A 
ATOM      4  O   UNL     1       6.713   4.374  29.078  1.00  0.00    -0.285 OA
ATOM      5  C   UNL     1       5.965   6.387  28.187  1.00  0.00     0.111 A 
ATOM      6  C   UNL     1       4.808   6.470  28.998  1.00  0.00     0.134 A 
ATOM      7  C   UNL     1       3.946   7.570  28.871  1.00  0.00     0.093 A 
ATOM      8  C   UNL     1       4.218   8.584  27.950  1.00  0.00     0.123 A 
ATOM      9  C   UNL     1       5.359   8.506  27.144  1.00  0.00     0.094 A 
ATOM     10  C   UNL     1       6.230   7.418  27.256  1.00  0.00     0.146 A 
ATOM     11  O   UNL     1       7.303   7.367  26.476  1.00  0.00    -0.452 OA
ENDROOT
BRANCH   1  12
ATOM     12  C   UNL     1       9.334   6.424  25.579  1.00  0.00     0.029 A 
ATOM     13  C   UNL     1      10.603   6.765  26.071  1.00  0.00     0.062 A 
ATOM     14  C   UNL     1      11.704   6.846  25.212  1.00  0.00     0.162 A 
ATOM     15  C   UNL     1       9.172   6.200  24.201  1.00  0.00     0.062 A 
ATOM     16  C   UNL     1      11.542   6.599  23.838  1.00  0.00     0.200 A 
ATOM     17  C   UNL     1      10.270   6.279  23.333  1.00  0.00     0.162 A 
BRANCH  14  18
ATOM     18  O   UNL     1      12.952   7.172  25.743  1.00  0.00    -0.504 OA
ATOM     19  H   UNL     1      13.520   6.497  26.240  1.00  0.00     0.293 HD
ENDBRANCH  14  18
BRANCH  16  20
ATOM     20  O   UNL     1      12.646   6.677  22.989  1.00  0.00    -0.502 OA
ATOM     21  H   UNL     1      12.709   7.363  22.247  1.00  0.00     0.293 HD
ENDBRANCH  16  20
BRANCH  17  22
ATOM     22  O   UNL     1      10.099   6.048  21.968  1.00  0.00    -0.504 OA
ATOM     23  H   UNL     1      10.818   6.286  21.295  1.00  0.00     0.293 HD
ENDBRANCH  17  22
ENDBRANCH   1  12
BRANCH   2  24
ATOM     24  O   UNL     1       8.962   4.294  27.512  1.00  0.00    -0.502 OA
ATOM     25  H   UNL     1       8.715   3.315  27.434  1.00  0.00     0.293 HD
ENDBRANCH   2  24
BRANCH   6  26
ATOM     26  O   UNL     1       4.510   5.474  29.928  1.00  0.00    -0.507 OA
ATOM     27  H   UNL     1       3.563   5.317  30.257  1.00  0.00     0.293 HD
ENDBRANCH   6  26
BRANCH   8  28
ATOM     28  O   UNL     1       3.347   9.666  27.842  1.00  0.00    -0.508 OA
ATOM     29  H   UNL     1       3.192  10.301  28.617  1.00  0.00     0.293 HD
ENDBRANCH   8  28
TORSDOF 7
ENDMDL
MODEL 2
REMARK VINA RESULT:    -5.358      0.113      1.758
REMARK INTER + INTRA:          -6.887
REMARK INTER:                  -6.606
REMARK INTRA:                  -0.282
REMARK UNBOUND:                -0.277
REMARK SMILES O=c1c(O)c(-c2cc(O)c(O)c(O)c2)oc2cc(O)cc(O)c12
REMARK SMILES IDX 5 1 3 2 2 3 1 4 23 5 21 6 20 7 18 8 17 9 16 10 15 11 6 12
REMARK SMILES IDX 7 13 8 14 14 15 10 16 12 17 9 18 11 20 13 22 4 24 22 26
REMARK SMILES IDX 19 28
REMARK H PARENT 9 19 11 21 13 23 4 25 22 27 19 29
REMARK Flexibility Score: inf
ROOT
ATOM      1  C   UNL     1       8.187   6.424  26.480  1.00  0.00     0.180 A 
ATOM      2  C   UNL     1       7.962   5.328  27.335  1.00  0.00     0.208 A 
ATOM      3  C   UNL     1       6.812   5.322  28.140  1.00  0.00     0.238 A 
ATOM      4  O   UNL     1       6.595   4.342  28.903  1.00  0.00    -0.285 OA
ATOM      5  C   UNL     1       5.921   6.415  28.093  1.00  0.00     0.111 A 
ATOM      6  C   UNL     1       4.744   6.488  28.875  1.00  0.00     0.134 A 
ATOM      7  C   UNL     1       3.913   7.614  28.778  1.00  0.00     0.093 A 
ATOM      8  C   UNL     1       4.236   8.666  27.918  1.00  0.00     0.123 A 
ATOM      9  C   UNL     1       5.399   8.598  27.142  1.00  0.00     0.094 A 
ATOM     10  C   UNL     1       6.239   7.484  27.223  1.00  0.00     0.146 A 
ATOM     11  O   UNL     1       7.333   7.444  26.473  1.00  0.00    -0.452 OA
ENDROOT
BRANCH   1  12
ATOM     12  C   UNL     1       9.366   6.495  25.587  1.00  0.00     0.029 A 
ATOM     13  C   UNL     1       9.209   6.251  24.214  1.00  0.00     0.062 A 
ATOM     14  C   UNL     1      10.307   6.290  23.351  1.00  0.00     0.162 A 
ATOM     15  C   UNL     1      10.653   6.744  26.093  1.00  0.00     0.062 A 
ATOM     16  C   UNL     1      11.590   6.562  23.858  1.00  0.00     0.200 A 
ATOM     17  C   UNL     1      11.761   6.785  25.235  1.00  0.00     0.162 A 
BRANCH  14  18
ATOM     18  O   UNL     1      10.106   6.057  21.990  1.00  0.00    -0.504 OA
ATOM     19  H   UNL     1      10.028   5.122  21.609  1.00  0.00     0.293 HD
ENDBRANCH  14  18
BRANCH  16  20
ATOM     20  O   UNL     1      12.681   6.603  22.990  1.00  0.00    -0.502 OA
ATOM     21  H   UNL     1      12.572   6.731  21.991  1.00  0.00     0.293 HD
ENDBRANCH  16  20
BRANCH  17  22
ATOM     22  O   UNL     1      13.032   7.039  25.748  1.00  0.00    -0.504 OA
ATOM     23  H   UNL     1      13.857   7.018  25.160  1.00  0.00     0.293 HD
ENDBRANCH  17  22
ENDBRANCH   1  12
BRANCH   2  24
ATOM     24  O   UNL     1       8.885   4.282  27.399  1.00  0.00    -0.502 OA
ATOM     25  H   UNL     1       9.229   3.812  26.571  1.00  0.00     0.293 HD
ENDBRANCH   2  24
BRANCH   6  26
ATOM     26  O   UNL     1       4.394   5.454  29.744  1.00  0.00    -0.507 OA
ATOM     27  H   UNL     1       5.088   4.965  30.299  1.00  0.00     0.293 HD
ENDBRANCH   6  26
BRANCH   8  28
ATOM     28  O   UNL     1       3.395   9.774  27.840  1.00  0.00    -0.508 OA
ATOM     29  H   UNL     1       3.763  10.715  27.776  1.00  0.00     0.293 HD
ENDBRANCH   8  28
TORSDOF 7
ENDMDL
MODEL 3
REMARK VINA RESULT:    -5.331     12.033     13.048
REMARK INTER + INTRA:          -6.854
REMARK INTER:                  -6.588
REMARK INTRA:                  -0.266
REMARK UNBOUND:                -0.277
REMARK SMILES O=c1c(O)c(-c2cc(O)c(O)c(O)c2)oc2cc(O)cc(O)c12
REMARK SMILES IDX 5 1 3 2 2 3 1 4 23 5 21 6 20 7 18 8 17 9 16 10 15 11 6 12
REMARK SMILES IDX 7 13 8 14 14 15 10 16 12 17 9 18 11 20 13 22 4 24 22 26
REMARK SMILES IDX 19 28
REMARK H PARENT 9 19 11 21 13 23 4 25 22 27 19 29
REMARK Flexibility Score: inf
ROOT
ATOM      1  C   UNL     1      15.115   6.357  37.626  1.00  0.00     0.180 A 
ATOM      2  C   UNL     1      15.001   6.259  39.026  1.00  0.00     0.208 A 
ATOM      3  C   UNL     1      13.755   6.504  39.624  1.00  0.00     0.238 A 
ATOM      4  O   UNL     1      13.639   6.410  40.876  1.00  0.00    -0.285 OA
ATOM      5  C   UNL     1      12.653   6.860  38.818  1.00  0.00     0.111 A 
ATOM      6  C   UNL     1      11.366   7.127  39.343  1.00  0.00     0.134 A 
ATOM      7  C   UNL     1      10.322   7.485  38.476  1.00  0.00     0.093 A 
ATOM      8  C   UNL     1      10.540   7.581  37.100  1.00  0.00     0.123 A 
ATOM      9  C   UNL     1      11.811   7.317  36.576  1.00  0.00     0.094 A 
ATOM     10  C   UNL     1      12.864   6.959  37.423  1.00  0.00     0.146 A 
ATOM     11  O   UNL     1      14.058   6.710  36.900  1.00  0.00    -0.452 OA
ENDROOT
BRANCH   1  12
ATOM     12  C   UNL     1      16.390   6.095  36.921  1.00  0.00     0.029 A 
ATOM     13  C   UNL     1      17.044   7.148  36.262  1.00  0.00     0.062 A 
ATOM     14  C   UNL     1      18.238   6.927  35.570  1.00  0.00     0.162 A 
ATOM     15  C   UNL     1      16.933   4.802  36.846  1.00  0.00     0.062 A 
ATOM     16  C   UNL     1      18.789   5.635  35.516  1.00  0.00     0.200 A 
ATOM     17  C   UNL     1      18.130   4.569  36.153  1.00  0.00     0.162 A 
BRANCH  14  18
ATOM     18  O   UNL     1      18.864   8.003  34.941  1.00  0.00    -0.504 OA
ATOM     19  H   UNL     1      19.872   8.091  34.899  1.00  0.00     0.293 HD
ENDBRANCH  14  18
BRANCH  16  20
ATOM     20  O   UNL     1      19.983   5.422  34.826  1.00  0.00    -0.502 OA
ATOM     21  H   UNL     1      20.260   5.993  34.037  1.00  0.00     0.293 HD
ENDBRANCH  16  20
BRANCH  17  22
ATOM     22  O   UNL     1      18.662   3.282  36.091  1.00  0.00    -0.504 OA
ATOM     23  H   UNL     1      18.071   2.467  35.978  1.00  0.00     0.293 HD
ENDBRANCH  17  22
ENDBRANCH   1  12
BRANCH   2  24
ATOM     24  O   UNL     1      16.120   5.954  39.805  1.00  0.00    -0.502 OA
ATOM     25  H   UNL     1      16.405   6.526  40.591  1.00  0.00     0.293 HD
ENDBRANCH   2  24
BRANCH   6  26
ATOM     26  O   UNL     1      11.116   7.040  40.712  1.00  0.00    -0.507 OA
ATOM     27  H   UNL     1      11.853   7.159  41.398  1.00  0.00     0.293 HD
ENDBRANCH   6  26
BRANCH   8  28
ATOM     28  O   UNL     1       9.488   7.939  36.260  1.00  0.00    -0.508 OA
ATOM     29  H   UNL     1       8.528   7.943  36.585  1.00  0.00     0.293 HD
ENDBRANCH   8  28
TORSDOF 7
ENDMDL
MODEL 4
REMARK VINA RESULT:    -5.299     11.191     13.515
REMARK INTER + INTRA:          -6.815
REMARK INTER:                  -6.502
REMARK INTRA:                  -0.313
REMARK UNBOUND:                -0.277
REMARK SMILES O=c1c(O)c(-c2cc(O)c(O)c(O)c2)oc2cc(O)cc(O)c12
REMARK SMILES IDX 5 1 3 2 2 3 1 4 23 5 21 6 20 7 18 8 17 9 16 10 15 11 6 12
REMARK SMILES IDX 7 13 8 14 14 15 10 16 12 17 9 18 11 20 13 22 4 24 22 26
REMARK SMILES IDX 19 28
REMARK H PARENT 9 19 11 21 13 23 4 25 22 27 19 29
REMARK Flexibility Score: inf
ROOT
ATOM      1  C   UNL     1      13.831  -4.383  23.921  1.00  0.00     0.180 A 
ATOM      2  C   UNL     1      12.620  -4.725  23.289  1.00  0.00     0.208 A 
ATOM      3  C   UNL     1      11.966  -3.759  22.508  1.00  0.00     0.238 A 
ATOM      4  O   UNL     1      10.886  -4.057  21.929  1.00  0.00    -0.285 OA
ATOM      5  C   UNL     1      12.521  -2.468  22.387  1.00  0.00     0.111 A 
ATOM      6  C   UNL     1      11.923  -1.438  21.623  1.00  0.00     0.134 A 
ATOM      7  C   UNL     1      12.532  -0.175  21.560  1.00  0.00     0.093 A 
ATOM      8  C   UNL     1      13.722   0.076  22.245  1.00  0.00     0.123 A 
ATOM      9  C   UNL     1      14.318  -0.939  23.001  1.00  0.00     0.094 A 
ATOM     10  C   UNL     1      13.728  -2.204  23.076  1.00  0.00     0.146 A 
ATOM     11  O   UNL     1      14.316  -3.151  23.797  1.00  0.00    -0.452 OA
ENDROOT
BRANCH   1  12
ATOM     12  C   UNL     1      14.589  -5.351  24.745  1.00  0.00     0.029 A 
ATOM     13  C   UNL     1      15.696  -6.012  24.192  1.00  0.00     0.062 A 
ATOM     14  C   UNL     1      16.417  -6.948  24.940  1.00  0.00     0.162 A 
ATOM     15  C   UNL     1      14.188  -5.668  26.054  1.00  0.00     0.062 A 
ATOM     16  C   UNL     1      16.026  -7.245  26.257  1.00  0.00     0.200 A 
ATOM     17  C   UNL     1      14.904  -6.605  26.812  1.00  0.00     0.162 A 
BRANCH  14  18
ATOM     18  O   UNL     1      17.521  -7.572  24.359  1.00  0.00    -0.504 OA
ATOM     19  H   UNL     1      17.812  -8.506  24.621  1.00  0.00     0.293 HD
ENDBRANCH  14  18
BRANCH  16  20
ATOM     20  O   UNL     1      16.752  -8.177  26.999  1.00  0.00    -0.502 OA
ATOM     21  H   UNL     1      17.757  -8.112  27.113  1.00  0.00     0.293 HD
ENDBRANCH  16  20
BRANCH  17  22
ATOM     22  O   UNL     1      14.501  -6.907  28.113  1.00  0.00    -0.504 OA
ATOM     23  H   UNL     1      14.299  -7.857  28.399  1.00  0.00     0.293 HD
ENDBRANCH  17  22
ENDBRANCH   1  12
BRANCH   2  24
ATOM     24  O   UNL     1      12.067  -5.996  23.465  1.00  0.00    -0.502 OA
ATOM     25  H   UNL     1      11.675  -6.298  24.349  1.00  0.00     0.293 HD
ENDBRANCH   2  24
BRANCH   6  26
ATOM     26  O   UNL     1      10.733  -1.657  20.928  1.00  0.00    -0.507 OA
ATOM     27  H   UNL     1       9.961  -1.001  20.972  1.00  0.00     0.293 HD
ENDBRANCH   6  26
BRANCH   8  28
ATOM     28  O   UNL     1      14.307   1.338  22.167  1.00  0.00    -0.508 OA
ATOM     29  H   UNL     1      13.748   2.175  22.043  1.00  0.00     0.293 HD
ENDBRANCH   8  28
TORSDOF 7
ENDMDL
MODEL 5
REMARK VINA RESULT:    -5.256     11.575     13.711
REMARK INTER + INTRA:          -6.762
REMARK INTER:                  -6.413
REMARK INTRA:                  -0.349
REMARK UNBOUND:                -0.277
REMARK SMILES O=c1c(O)c(-c2cc(O)c(O)c(O)c2)oc2cc(O)cc(O)c12
REMARK SMILES IDX 5 1 3 2 2 3 1 4 23 5 21 6 20 7 18 8 17 9 16 10 15 11 6 12
REMARK SMILES IDX 7 13 8 14 14 15 10 16 12 17 9 18 11 20 13 22 4 24 22 26
REMARK SMILES IDX 19 28
REMARK H PARENT 9 19 11 21 13 23 4 25 22 27 19 29
REMARK Flexibility Score: inf
ROOT
ATOM      1  C   UNL     1      13.723  -4.551  24.178  1.00  0.00     0.180 A 
ATOM      2  C   UNL     1      14.084  -3.199  24.020  1.00  0.00     0.208 A 
ATOM      3  C   UNL     1      13.258  -2.362  23.254  1.00  0.00     0.238 A 
ATOM      4  O   UNL     1      13.565  -1.147  23.115  1.00  0.00    -0.285 OA
ATOM      5  C   UNL     1      12.102  -2.891  22.644  1.00  0.00     0.111 A 
ATOM      6  C   UNL     1      11.220  -2.116  21.854  1.00  0.00     0.134 A 
ATOM      7  C   UNL     1      10.094  -2.719  21.272  1.00  0.00     0.093 A 
ATOM      8  C   UNL     1       9.835  -4.078  21.464  1.00  0.00     0.123 A 
ATOM      9  C   UNL     1      10.703  -4.848  22.246  1.00  0.00     0.094 A 
ATOM     10  C   UNL     1      11.829  -4.266  22.834  1.00  0.00     0.146 A 
ATOM     11  O   UNL     1      12.634  -5.019  23.575  1.00  0.00    -0.452 OA
ENDROOT
BRANCH   1  12
ATOM     12  C   UNL     1      14.532  -5.492  24.985  1.00  0.00     0.029 A 
ATOM     13  C   UNL     1      15.624  -6.147  24.395  1.00  0.00     0.062 A 
ATOM     14  C   UNL     1      16.392  -7.057  25.127  1.00  0.00     0.162 A 
ATOM     15  C   UNL     1      14.196  -5.789  26.317  1.00  0.00     0.062 A 
ATOM     16  C   UNL     1      16.066  -7.335  26.465  1.00  0.00     0.200 A 
ATOM     17  C   UNL     1      14.961  -6.701  27.059  1.00  0.00     0.162 A 
BRANCH  14  18
ATOM     18  O   UNL     1      17.478  -7.676  24.507  1.00  0.00    -0.504 OA
ATOM     19  H   UNL     1      18.210  -7.147  24.049  1.00  0.00     0.293 HD
ENDBRANCH  14  18
BRANCH  16  20
ATOM     20  O   UNL     1      16.840  -8.241  27.190  1.00  0.00    -0.502 OA
ATOM     21  H   UNL     1      17.852  -8.226  27.168  1.00  0.00     0.293 HD
ENDBRANCH  16  20
BRANCH  17  22
ATOM     22  O   UNL     1      14.621  -6.983  28.381  1.00  0.00    -0.504 OA
ATOM     23  H   UNL     1      14.304  -6.258  29.015  1.00  0.00     0.293 HD
ENDBRANCH  17  22
ENDBRANCH   1  12
BRANCH   2  24
ATOM     24  O   UNL     1      15.261  -2.711  24.595  1.00  0.00    -0.502 OA
ATOM     25  H   UNL     1      15.809  -3.255  25.250  1.00  0.00     0.293 HD
ENDBRANCH   2  24
BRANCH   6  26
ATOM     26  O   UNL     1      11.452  -0.757  21.642  1.00  0.00    -0.507 OA
ATOM     27  H   UNL     1      11.087  -0.273  20.828  1.00  0.00     0.293 HD
ENDBRANCH   6  26
BRANCH   8  28
ATOM     28  O   UNL     1       8.711  -4.653  20.875  1.00  0.00    -0.508 OA
ATOM     29  H   UNL     1       7.911  -4.095  20.602  1.00  0.00     0.293 HD
ENDBRANCH   8  28
TORSDOF 7
ENDMDL
MODEL 6
REMARK VINA RESULT:    -5.217     12.072     15.058
REMARK INTER + INTRA:          -6.713
REMARK INTER:                  -6.383
REMARK INTRA:                  -0.330
REMARK UNBOUND:                -0.277
REMARK SMILES O=c1c(O)c(-c2cc(O)c(O)c(O)c2)oc2cc(O)cc(O)c12
REMARK SMILES IDX 5 1 3 2 2 3 1 4 23 5 21 6 20 7 18 8 17 9 16 10 15 11 6 12
REMARK SMILES IDX 7 13 8 14 14 15 10 16 12 17 9 18 11 20 13 22 4 24 22 26
REMARK SMILES IDX 19 28
REMARK H PARENT 9 19 11 21 13 23 4 25 22 27 19 29
REMARK Flexibility Score: inf
ROOT
ATOM      1  C   UNL     1      17.120   6.368  36.050  1.00  0.00     0.180 A 
ATOM      2  C   UNL     1      17.482   5.201  35.350  1.00  0.00     0.208 A 
ATOM      3  C   UNL     1      18.667   5.201  34.597  1.00  0.00     0.238 A 
ATOM      4  O   UNL     1      19.006   4.159  33.975  1.00  0.00    -0.285 OA
ATOM      5  C   UNL     1      19.457   6.369  34.540  1.00  0.00     0.111 A 
ATOM      6  C   UNL     1      20.661   6.452  33.802  1.00  0.00     0.134 A 
ATOM      7  C   UNL     1      21.386   7.654  33.787  1.00  0.00     0.093 A 
ATOM      8  C   UNL     1      20.930   8.769  34.493  1.00  0.00     0.123 A 
ATOM      9  C   UNL     1      19.741   8.691  35.226  1.00  0.00     0.094 A 
ATOM     10  C   UNL     1      19.004   7.503  35.254  1.00  0.00     0.146 A 
ATOM     11  O   UNL     1      17.881   7.455  35.960  1.00  0.00    -0.452 OA
ENDROOT
BRANCH   1  12
ATOM     12  C   UNL     1      15.896   6.440  36.879  1.00  0.00     0.029 A 
ATOM     13  C   UNL     1      14.660   6.693  36.266  1.00  0.00     0.062 A 
ATOM     14  C   UNL     1      13.491   6.788  37.026  1.00  0.00     0.162 A 
ATOM     15  C   UNL     1      15.953   6.319  38.278  1.00  0.00     0.062 A 
ATOM     16  C   UNL     1      13.548   6.644  38.424  1.00  0.00     0.200 A 
ATOM     17  C   UNL     1      14.785   6.414  39.050  1.00  0.00     0.162 A 
BRANCH  14  18
ATOM     18  O   UNL     1      12.279   7.025  36.377  1.00  0.00    -0.504 OA
ATOM     19  H   UNL     1      11.477   7.413  36.858  1.00  0.00     0.293 HD
ENDBRANCH  14  18
BRANCH  16  20
ATOM     20  O   UNL     1      12.377   6.736  39.175  1.00  0.00    -0.502 OA
ATOM     21  H   UNL     1      11.658   6.024  39.144  1.00  0.00     0.293 HD
ENDBRANCH  16  20
BRANCH  17  22
ATOM     22  O   UNL     1      14.853   6.286  40.436  1.00  0.00    -0.504 OA
ATOM     23  H   UNL     1      14.042   6.030  40.987  1.00  0.00     0.293 HD
ENDBRANCH  17  22
ENDBRANCH   1  12
BRANCH   2  24
ATOM     24  O   UNL     1      16.656   4.074  35.383  1.00  0.00    -0.502 OA
ATOM     25  H   UNL     1      16.785   3.290  34.755  1.00  0.00     0.293 HD
ENDBRANCH   2  24
BRANCH   6  26
ATOM     26  O   UNL     1      21.142   5.356  33.085  1.00  0.00    -0.507 OA
ATOM     27  H   UNL     1      22.046   4.943  33.285  1.00  0.00     0.293 HD
ENDBRANCH   6  26
BRANCH   8  28
ATOM     28  O   UNL     1      21.668   9.950  34.462  1.00  0.00    -0.508 OA
ATOM     29  H   UNL     1      21.767  10.492  33.611  1.00  0.00     0.293 HD
ENDBRANCH   8  28
TORSDOF 7
ENDMDL
MODEL 7
REMARK VINA RESULT:    -5.213     12.058     14.552
REMARK INTER + INTRA:          -6.709
REMARK INTER:                  -6.536
REMARK INTRA:                  -0.172
REMARK UNBOUND:                -0.277
REMARK SMILES O=c1c(O)c(-c2cc(O)c(O)c(O)c2)oc2cc(O)cc(O)c12
REMARK SMILES IDX 5 1 3 2 2 3 1 4 23 5 21 6 20 7 18 8 17 9 16 10 15 11 6 12
REMARK SMILES IDX 7 13 8 14 14 15 10 16 12 17 9 18 11 20 13 22 4 24 22 26
REMARK SMILES IDX 19 28
REMARK H PARENT 9 19 11 21 13 23 4 25 22 27 19 29
REMARK Flexibility Score: inf
ROOT
ATOM      1  C   UNL     1      15.046   6.276  37.315  1.00  0.00     0.180 A 
ATOM      2  C   UNL     1      15.316   5.083  38.012  1.00  0.00     0.208 A 
ATOM      3  C   UNL     1      16.550   4.444  37.810  1.00  0.00     0.238 A 
ATOM      4  O   UNL     1      16.808   3.381  38.436  1.00  0.00    -0.285 OA
ATOM      5  C   UNL     1      17.480   4.995  36.904  1.00  0.00     0.111 A 
ATOM      6  C   UNL     1      18.742   4.412  36.641  1.00  0.00     0.134 A 
ATOM      7  C   UNL     1      19.609   5.016  35.717  1.00  0.00     0.093 A 
ATOM      8  C   UNL     1      19.239   6.187  35.054  1.00  0.00     0.123 A 
ATOM      9  C   UNL     1      17.992   6.769  35.312  1.00  0.00     0.094 A 
ATOM     10  C   UNL     1      17.115   6.183  36.228  1.00  0.00     0.146 A 
ATOM     11  O   UNL     1      15.940   6.758  36.457  1.00  0.00    -0.452 OA
ENDROOT
BRANCH   1  12
ATOM     12  C   UNL     1      13.776   7.017  37.489  1.00  0.00     0.029 A 
ATOM     13  C   UNL     1      12.968   7.276  36.370  1.00  0.00     0.062 A 
ATOM     14  C   UNL     1      11.775   7.992  36.501  1.00  0.00     0.162 A 
ATOM     15  C   UNL     1      13.389   7.521  38.742  1.00  0.00     0.062 A 
ATOM     16  C   UNL     1      11.380   8.475  37.761  1.00  0.00     0.200 A 
ATOM     17  C   UNL     1      12.193   8.241  38.883  1.00  0.00     0.162 A 
BRANCH  14  18
ATOM     18  O   UNL     1      10.993   8.214  35.368  1.00  0.00    -0.504 OA
ATOM     19  H   UNL     1      10.169   8.803  35.388  1.00  0.00     0.293 HD
ENDBRANCH  14  18
BRANCH  16  20
ATOM     20  O   UNL     1      10.186   9.185  37.883  1.00  0.00    -0.502 OA
ATOM     21  H   UNL     1       9.348   8.925  37.378  1.00  0.00     0.293 HD
ENDBRANCH  16  20
BRANCH  17  22
ATOM     22  O   UNL     1      11.816   8.731  40.133  1.00  0.00    -0.504 OA
ATOM     23  H   UNL     1      12.467   8.762  40.909  1.00  0.00     0.293 HD
ENDBRANCH  17  22
ENDBRANCH   1  12
BRANCH   2  24
ATOM     24  O   UNL     1      14.358   4.532  38.867  1.00  0.00    -0.502 OA
ATOM     25  H   UNL     1      14.559   4.308  39.834  1.00  0.00     0.293 HD
ENDBRANCH   2  24
BRANCH   6  26
ATOM     26  O   UNL     1      19.141   3.241  37.286  1.00  0.00    -0.507 OA
ATOM     27  H   UNL     1      19.909   3.232  37.948  1.00  0.00     0.293 HD
ENDBRANCH   6  26
BRANCH   8  28
ATOM     28  O   UNL     1      20.117   6.767  34.141  1.00  0.00    -0.508 OA
ATOM     29  H   UNL     1      21.120   6.657  34.228  1.00  0.00     0.293 HD
ENDBRANCH   8  28
TORSDOF 7
ENDMDL
MODEL 8
REMARK VINA RESULT:    -5.179     12.495     14.982
REMARK INTER + INTRA:          -6.666
REMARK INTER:                  -6.533
REMARK INTRA:                  -0.134
REMARK UNBOUND:                -0.277
REMARK SMILES O=c1c(O)c(-c2cc(O)c(O)c(O)c2)oc2cc(O)cc(O)c12
REMARK SMILES IDX 5 1 3 2 2 3 1 4 23 5 21 6 20 7 18 8 17 9 16 10 15 11 6 12
REMARK SMILES IDX 7 13 8 14 14 15 10 16 12 17 9 18 11 20 13 22 4 24 22 26
REMARK SMILES IDX 19 28
REMARK H PARENT 9 19 11 21 13 23 4 25 22 27 19 29
REMARK Flexibility Score: inf
ROOT
ATOM      1  C   UNL     1      17.570   6.169  35.479  1.00  0.00     0.180 A 
ATOM      2  C   UNL     1      17.657   5.441  34.277  1.00  0.00     0.208 A 
ATOM      3  C   UNL     1      18.646   5.789  33.344  1.00  0.00     0.238 A 
ATOM      4  O   UNL     1      18.740   5.138  32.268  1.00  0.00    -0.285 OA
ATOM      5  C   UNL     1      19.515   6.866  33.617  1.00  0.00     0.111 A 
ATOM      6  C   UNL     1      20.534   7.282  32.728  1.00  0.00     0.134 A 
ATOM      7  C   UNL     1      21.353   8.370  33.069  1.00  0.00     0.093 A 
ATOM      8  C   UNL     1      21.171   9.047  34.276  1.00  0.00     0.123 A 
ATOM      9  C   UNL     1      20.165   8.639  35.159  1.00  0.00     0.094 A 
ATOM     10  C   UNL     1      19.339   7.557  34.839  1.00  0.00     0.146 A 
ATOM     11  O   UNL     1      18.396   7.188  35.696  1.00  0.00    -0.452 OA
ENDROOT
BRANCH   1  12
ATOM     12  C   UNL     1      16.566   5.850  36.520  1.00  0.00     0.029 A 
ATOM     13  C   UNL     1      16.551   4.571  37.097  1.00  0.00     0.062 A 
ATOM     14  C   UNL     1      15.601   4.236  38.066  1.00  0.00     0.162 A 
ATOM     15  C   UNL     1      15.587   6.784  36.902  1.00  0.00     0.062 A 
ATOM     16  C   UNL     1      14.637   5.180  38.462  1.00  0.00     0.200 A 
ATOM     17  C   UNL     1      14.630   6.456  37.872  1.00  0.00     0.162 A 
BRANCH  14  18
ATOM     18  O   UNL     1      15.629   2.959  38.627  1.00  0.00    -0.504 OA
ATOM     19  H   UNL     1      16.058   2.172  38.154  1.00  0.00     0.293 HD
ENDBRANCH  14  18
BRANCH  16  20
ATOM     20  O   UNL     1      13.695   4.839  39.432  1.00  0.00    -0.502 OA
ATOM     21  H   UNL     1      12.806   4.416  39.197  1.00  0.00     0.293 HD
ENDBRANCH  16  20
BRANCH  17  22
ATOM     22  O   UNL     1      13.667   7.393  38.248  1.00  0.00    -0.504 OA
ATOM     23  H   UNL     1      13.118   7.281  39.092  1.00  0.00     0.293 HD
ENDBRANCH  17  22
ENDBRANCH   1  12
BRANCH   2  24
ATOM     24  O   UNL     1      16.752   4.410  34.009  1.00  0.00    -0.502 OA
ATOM     25  H   UNL     1      15.756   4.510  34.166  1.00  0.00     0.293 HD
ENDBRANCH   2  24
BRANCH   6  26
ATOM     26  O   UNL     1      20.741   6.627  31.514  1.00  0.00    -0.507 OA
ATOM     27  H   UNL     1      21.062   5.666  31.474  1.00  0.00     0.293 HD
ENDBRANCH   6  26
BRANCH   8  28
ATOM     28  O   UNL     1      21.996  10.125  34.591  1.00  0.00    -0.508 OA
ATOM     29  H   UNL     1      22.533  10.607  33.880  1.00  0.00     0.293 HD
ENDBRANCH   8  28
TORSDOF 7
ENDMDL
MODEL 9
REMARK VINA RESULT:    -5.077     12.500     14.830
REMARK INTER + INTRA:          -6.541
REMARK INTER:                  -6.212
REMARK INTRA:                  -0.329
REMARK UNBOUND:                -0.277
REMARK SMILES O=c1c(O)c(-c2cc(O)c(O)c(O)c2)oc2cc(O)cc(O)c12
REMARK SMILES IDX 5 1 3 2 2 3 1 4 23 5 21 6 20 7 18 8 17 9 16 10 15 11 6 12
REMARK SMILES IDX 7 13 8 14 14 15 10 16 12 17 9 18 11 20 13 22 4 24 22 26
REMARK SMILES IDX 19 28
REMARK H PARENT 9 19 11 21 13 23 4 25 22 27 19 29
REMARK Flexibility Score: inf
ROOT
ATOM      1  C   UNL     1      13.802  -5.285  24.925  1.00  0.00     0.180 A 
ATOM      2  C   UNL     1      13.900  -4.694  26.199  1.00  0.00     0.208 A 
ATOM      3  C   UNL     1      14.754  -5.273  27.151  1.00  0.00     0.238 A 
ATOM      4  O   UNL     1      14.858  -4.748  28.292  1.00  0.00    -0.285 OA
ATOM      5  C   UNL     1      15.478  -6.438  26.821  1.00  0.00     0.111 A 
ATOM      6  C   UNL     1      16.356  -7.085  27.723  1.00  0.00     0.134 A 
ATOM      7  C   UNL     1      17.033  -8.247  27.323  1.00  0.00     0.093 A 
ATOM      8  C   UNL     1      16.849  -8.773  26.043  1.00  0.00     0.123 A 
ATOM      9  C   UNL     1      15.983  -8.137  25.146  1.00  0.00     0.094 A 
ATOM     10  C   UNL     1      15.299  -6.978  25.526  1.00  0.00     0.146 A 
ATOM     11  O   UNL     1      14.487  -6.392  24.654  1.00  0.00    -0.452 OA
ENDROOT
BRANCH   1  12
ATOM     12  C   UNL     1      12.937  -4.723  23.862  1.00  0.00     0.029 A 
ATOM     13  C   UNL     1      13.379  -3.611  23.128  1.00  0.00     0.062 A 
ATOM     14  C   UNL     1      12.574  -3.046  22.134  1.00  0.00     0.162 A 
ATOM     15  C   UNL     1      11.656  -5.242  23.612  1.00  0.00     0.062 A 
ATOM     16  C   UNL     1      11.302  -3.582  21.871  1.00  0.00     0.200 A 
ATOM     17  C   UNL     1      10.841  -4.681  22.617  1.00  0.00     0.162 A 
BRANCH  14  18
ATOM     18  O   UNL     1      13.056  -1.952  21.416  1.00  0.00    -0.504 OA
ATOM     19  H   UNL     1      12.761  -1.004  21.617  1.00  0.00     0.293 HD
ENDBRANCH  14  18
BRANCH  16  20
ATOM     20  O   UNL     1      10.507  -3.016  20.875  1.00  0.00    -0.502 OA
ATOM     21  H   UNL     1      10.757  -2.151  20.410  1.00  0.00     0.293 HD
ENDBRANCH  16  20
BRANCH  17  22
ATOM     22  O   UNL     1       9.574  -5.209  22.373  1.00  0.00    -0.504 OA
ATOM     23  H   UNL     1       9.401  -5.838  21.598  1.00  0.00     0.293 HD
ENDBRANCH  17  22
ENDBRANCH   1  12
BRANCH   2  24
ATOM     24  O   UNL     1      13.134  -3.569  26.517  1.00  0.00    -0.502 OA
ATOM     25  H   UNL     1      12.403  -3.592  27.217  1.00  0.00     0.293 HD
ENDBRANCH   2  24
BRANCH   6  26
ATOM     26  O   UNL     1      16.560  -6.585  29.010  1.00  0.00    -0.507 OA
ATOM     27  H   UNL     1      16.411  -5.607  29.232  1.00  0.00     0.293 HD
ENDBRANCH   6  26
BRANCH   8  28
ATOM     28  O   UNL     1      17.532  -9.928  25.669  1.00  0.00    -0.508 OA
ATOM     29  H   UNL     1      17.774 -10.643  26.345  1.00  0.00     0.293 HD
ENDBRANCH   8  28
TORSDOF 7
ENDMDL
