MODEL 1
REMARK VINA RESULT:    -2.594      0.000      0.000
REMARK INTER + INTRA:          -3.714
REMARK INTER:                  -3.503
REMARK INTRA:                  -0.210
REMARK UNBOUND:                -0.210
REMARK SMILES CCCCCCCC=O
REMARK SMILES IDX 5 1 4 2 3 3 2 4 1 5 6 6 7 7 8 8 9 9
REMARK H PARENT
REMARK Flexibility Score: inf
ROOT
ATOM      1  C   UNL     1     228.481 230.599 234.596  1.00  0.00     0.000 C 
ENDROOT
BRANCH   1   2
ATOM      2  C   UNL     1     229.460 231.373 233.700  1.00  0.00     0.000 C 
BRANCH   2   3
ATOM      3  C   UNL     1     228.750 232.535 232.989  1.00  0.00    -0.000 C 
BRANCH   3   4
ATOM      4  C   UNL     1     229.624 233.188 231.907  1.00  0.00    -0.003 C 
ATOM      5  C   UNL     1     231.092 232.773 232.001  1.00  0.00     0.004 C 
ENDBRANCH   3   4
ENDBRANCH   2   3
ENDBRANCH   1   2
BRANCH   1   6
ATOM      6  C   UNL     1     227.049 230.574 234.030  1.00  0.00     0.008 C 
BRANCH   6   7
ATOM      7  C   UNL     1     226.376 229.192 234.079  1.00  0.00     0.072 C 
BRANCH   7   8
ATOM      8  C   UNL     1     225.441 228.973 232.924  1.00  0.00     0.224 C 
ATOM      9  O   UNL     1     225.631 228.057 232.140  1.00  0.00    -0.303 OA
ENDBRANCH   7   8
ENDBRANCH   6   7
ENDBRANCH   1   6
TORSDOF 6
ENDMDL
MODEL 2
REMARK VINA RESULT:    -2.586     12.527     14.466
REMARK INTER + INTRA:          -3.703
REMARK INTER:                  -3.243
REMARK INTRA:                  -0.460
REMARK UNBOUND:                -0.210
REMARK SMILES CCCCCCCC=O
REMARK SMILES IDX 5 1 4 2 3 3 2 4 1 5 6 6 7 7 8 8 9 9
REMARK H PARENT
REMARK Flexibility Score: inf
ROOT
ATOM      1  C   UNL     1     240.361 235.823 235.435  1.00  0.00     0.000 C 
ENDROOT
BRANCH   1   2
ATOM      2  C   UNL     1     239.017 236.521 235.178  1.00  0.00     0.000 C 
BRANCH   2   3
ATOM      3  C   UNL     1     238.116 235.661 234.278  1.00  0.00    -0.000 C 
BRANCH   3   4
ATOM      4  C   UNL     1     238.087 236.158 232.824  1.00  0.00    -0.003 C 
ATOM      5  C   UNL     1     238.881 235.260 231.875  1.00  0.00     0.004 C 
ENDBRANCH   3   4
ENDBRANCH   2   3
ENDBRANCH   1   2
BRANCH   1   6
ATOM      6  C   UNL     1     241.486 236.343 234.521  1.00  0.00     0.008 C 
BRANCH   6   7
ATOM      7  C   UNL     1     241.275 237.781 234.017  1.00  0.00     0.072 C 
BRANCH   7   8
ATOM      8  C   UNL     1     242.545 238.582 234.032  1.00  0.00     0.224 C 
ATOM      9  O   UNL     1     243.206 238.713 233.015  1.00  0.00    -0.303 OA
ENDBRANCH   7   8
ENDBRANCH   6   7
ENDBRANCH   1   6
TORSDOF 6
ENDMDL
MODEL 3
REMARK VINA RESULT:    -2.568      1.166      1.785
REMARK INTER + INTRA:          -3.680
REMARK INTER:                  -3.472
REMARK INTRA:                  -0.207
REMARK UNBOUND:                -0.210
REMARK SMILES CCCCCCCC=O
REMARK SMILES IDX 5 1 4 2 3 3 2 4 1 5 6 6 7 7 8 8 9 9
REMARK H PARENT
REMARK Flexibility Score: inf
ROOT
ATOM      1  C   UNL     1     226.162 230.653 234.948  1.00  0.00     0.000 C 
ENDROOT
BRANCH   1   2
ATOM      2  C   UNL     1     226.852 232.019 234.813  1.00  0.00     0.000 C 
BRANCH   2   3
ATOM      3  C   UNL     1     227.395 232.220 233.390  1.00  0.00    -0.000 C 
BRANCH   3   4
ATOM      4  C   UNL     1     228.927 232.331 233.353  1.00  0.00    -0.003 C 
ATOM      5  C   UNL     1     229.436 233.103 232.136  1.00  0.00     0.004 C 
ENDBRANCH   3   4
ENDBRANCH   2   3
ENDBRANCH   1   2
BRANCH   1   6
ATOM      6  C   UNL     1     226.381 229.752 233.719  1.00  0.00     0.008 C 
BRANCH   6   7
ATOM      7  C   UNL     1     225.084 229.232 233.078  1.00  0.00     0.072 C 
BRANCH   7   8
ATOM      8  C   UNL     1     225.335 228.112 232.110  1.00  0.00     0.224 C 
ATOM      9  O   UNL     1     225.866 227.078 232.484  1.00  0.00    -0.303 OA
ENDBRANCH   7   8
ENDBRANCH   6   7
ENDBRANCH   1   6
TORSDOF 6
ENDMDL
MODEL 4
REMARK VINA RESULT:    -2.564      9.571     11.197
REMARK INTER + INTRA:          -3.674
REMARK INTER:                  -3.409
REMARK INTRA:                  -0.265
REMARK UNBOUND:                -0.210
REMARK SMILES CCCCCCCC=O
REMARK SMILES IDX 5 1 4 2 3 3 2 4 1 5 6 6 7 7 8 8 9 9
REMARK H PARENT
REMARK Flexibility Score: inf
ROOT
ATOM      1  C   UNL     1     231.877 241.434 234.398  1.00  0.00     0.000 C 
ENDROOT
BRANCH   1   2
ATOM      2  C   UNL     1     232.460 240.014 234.442  1.00  0.00     0.000 C 
BRANCH   2   3
ATOM      3  C   UNL     1     231.533 239.019 233.728  1.00  0.00    -0.000 C 
BRANCH   3   4
ATOM      4  C   UNL     1     232.286 238.111 232.743  1.00  0.00    -0.003 C 
ATOM      5  C   UNL     1     233.284 238.879 231.875  1.00  0.00     0.004 C 
ENDBRANCH   3   4
ENDBRANCH   2   3
ENDBRANCH   1   2
BRANCH   1   6
ATOM      6  C   UNL     1     230.369 241.449 234.084  1.00  0.00     0.008 C 
BRANCH   6   7
ATOM      7  C   UNL     1     229.768 242.857 233.943  1.00  0.00     0.072 C 
BRANCH   7   8
ATOM      8  C   UNL     1     228.763 242.939 232.831  1.00  0.00     0.224 C 
ATOM      9  O   UNL     1     228.900 243.754 231.932  1.00  0.00    -0.303 OA
ENDBRANCH   7   8
ENDBRANCH   6   7
ENDBRANCH   1   6
TORSDOF 6
ENDMDL
MODEL 5
REMARK VINA RESULT:    -2.561     12.528     15.137
REMARK INTER + INTRA:          -3.670
REMARK INTER:                  -3.509
REMARK INTRA:                  -0.160
REMARK UNBOUND:                -0.210
REMARK SMILES CCCCCCCC=O
REMARK SMILES IDX 5 1 4 2 3 3 2 4 1 5 6 6 7 7 8 8 9 9
REMARK H PARENT
REMARK Flexibility Score: inf
ROOT
ATOM      1  C   UNL     1     241.903 237.644 233.861  1.00  0.00     0.000 C 
ENDROOT
BRANCH   1   2
ATOM      2  C   UNL     1     242.443 239.080 233.788  1.00  0.00     0.000 C 
BRANCH   2   3
ATOM      3  C   UNL     1     243.479 239.219 232.661  1.00  0.00    -0.000 C 
BRANCH   3   4
ATOM      4  C   UNL     1     243.338 240.541 231.890  1.00  0.00    -0.003 C 
ATOM      5  C   UNL     1     242.626 241.626 232.697  1.00  0.00     0.004 C 
ENDBRANCH   3   4
ENDBRANCH   2   3
ENDBRANCH   1   2
BRANCH   1   6
ATOM      6  C   UNL     1     240.399 237.589 234.188  1.00  0.00     0.008 C 
BRANCH   6   7
ATOM      7  C   UNL     1     239.641 236.456 233.477  1.00  0.00     0.072 C 
BRANCH   7   8
ATOM      8  C   UNL     1     238.205 236.808 233.215  1.00  0.00     0.224 C 
ATOM      9  O   UNL     1     237.538 236.146 232.436  1.00  0.00    -0.303 OA
ENDBRANCH   7   8
ENDBRANCH   6   7
ENDBRANCH   1   6
TORSDOF 6
ENDMDL
MODEL 6
REMARK VINA RESULT:    -2.507      2.421      4.900
REMARK INTER + INTRA:          -3.597
REMARK INTER:                  -3.289
REMARK INTRA:                  -0.309
REMARK UNBOUND:                -0.210
REMARK SMILES CCCCCCCC=O
REMARK SMILES IDX 5 1 4 2 3 3 2 4 1 5 6 6 7 7 8 8 9 9
REMARK H PARENT
REMARK Flexibility Score: inf
ROOT
ATOM      1  C   UNL     1     227.404 230.147 234.901  1.00  0.00     0.000 C 
ENDROOT
BRANCH   1   2
ATOM      2  C   UNL     1     226.592 228.951 234.382  1.00  0.00     0.000 C 
BRANCH   2   3
ATOM      3  C   UNL     1     225.586 229.397 233.309  1.00  0.00    -0.000 C 
BRANCH   3   4
ATOM      4  C   UNL     1     225.278 228.288 232.292  1.00  0.00    -0.003 C 
ATOM      5  C   UNL     1     225.750 226.910 232.756  1.00  0.00     0.004 C 
ENDBRANCH   3   4
ENDBRANCH   2   3
ENDBRANCH   1   2
BRANCH   1   6
ATOM      6  C   UNL     1     227.042 231.466 234.193  1.00  0.00     0.008 C 
BRANCH   6   7
ATOM      7  C   UNL     1     228.233 232.169 233.521  1.00  0.00     0.072 C 
BRANCH   7   8
ATOM      8  C   UNL     1     229.536 231.478 233.803  1.00  0.00     0.224 C 
ATOM      9  O   UNL     1     230.461 231.553 233.010  1.00  0.00    -0.303 OA
ENDBRANCH   7   8
ENDBRANCH   6   7
ENDBRANCH   1   6
TORSDOF 6
ENDMDL
MODEL 7
REMARK VINA RESULT:    -2.493      9.883     11.401
REMARK INTER + INTRA:          -3.578
REMARK INTER:                  -3.414
REMARK INTRA:                  -0.164
REMARK UNBOUND:                -0.210
REMARK SMILES CCCCCCCC=O
REMARK SMILES IDX 5 1 4 2 3 3 2 4 1 5 6 6 7 7 8 8 9 9
REMARK H PARENT
REMARK Flexibility Score: inf
ROOT
ATOM      1  C   UNL     1     237.581 226.767 233.738  1.00  0.00     0.000 C 
ENDROOT
BRANCH   1   2
ATOM      2  C   UNL     1     238.923 226.104 234.084  1.00  0.00     0.000 C 
BRANCH   2   3
ATOM      3  C   UNL     1     239.260 224.993 233.078  1.00  0.00    -0.000 C 
BRANCH   3   4
ATOM      4  C   UNL     1     240.409 225.381 232.134  1.00  0.00    -0.003 C 
ATOM      5  C   UNL     1     241.623 225.940 232.876  1.00  0.00     0.004 C 
ENDBRANCH   3   4
ENDBRANCH   2   3
ENDBRANCH   1   2
BRANCH   1   6
ATOM      6  C   UNL     1     237.539 228.259 234.115  1.00  0.00     0.008 C 
BRANCH   6   7
ATOM      7  C   UNL     1     236.264 228.989 233.660  1.00  0.00     0.072 C 
BRANCH   7   8
ATOM      8  C   UNL     1     236.568 230.276 232.949  1.00  0.00     0.224 C 
ATOM      9  O   UNL     1     235.904 230.621 231.984  1.00  0.00    -0.303 OA
ENDBRANCH   7   8
ENDBRANCH   6   7
ENDBRANCH   1   6
TORSDOF 6
ENDMDL
MODEL 8
REMARK VINA RESULT:    -2.493      9.005     10.399
REMARK INTER + INTRA:          -3.578
REMARK INTER:                  -3.256
REMARK INTRA:                  -0.321
REMARK UNBOUND:                -0.210
REMARK SMILES CCCCCCCC=O
REMARK SMILES IDX 5 1 4 2 3 3 2 4 1 5 6 6 7 7 8 8 9 9
REMARK H PARENT
REMARK Flexibility Score: inf
ROOT
ATOM      1  C   UNL     1     231.285 241.580 234.526  1.00  0.00     0.000 C 
ENDROOT
BRANCH   1   2
ATOM      2  C   UNL     1     232.116 240.599 233.686  1.00  0.00     0.000 C 
BRANCH   2   3
ATOM      3  C   UNL     1     231.518 239.185 233.745  1.00  0.00    -0.000 C 
BRANCH   3   4
ATOM      4  C   UNL     1     232.248 238.195 232.824  1.00  0.00    -0.003 C 
ATOM      5  C   UNL     1     233.230 238.883 231.875  1.00  0.00     0.004 C 
ENDBRANCH   3   4
ENDBRANCH   2   3
ENDBRANCH   1   2
BRANCH   1   6
ATOM      6  C   UNL     1     230.077 242.147 233.757  1.00  0.00     0.008 C 
BRANCH   6   7
ATOM      7  C   UNL     1     228.716 241.824 234.396  1.00  0.00     0.072 C 
BRANCH   7   8
ATOM      8  C   UNL     1     228.843 240.903 235.574  1.00  0.00     0.224 C 
ATOM      9  O   UNL     1     228.406 239.764 235.519  1.00  0.00    -0.303 OA
ENDBRANCH   7   8
ENDBRANCH   6   7
ENDBRANCH   1   6
TORSDOF 6
ENDMDL
MODEL 9
REMARK VINA RESULT:    -2.474      9.503     11.036
REMARK INTER + INTRA:          -3.552
REMARK INTER:                  -3.168
REMARK INTRA:                  -0.385
REMARK UNBOUND:                -0.210
REMARK SMILES CCCCCCCC=O
REMARK SMILES IDX 5 1 4 2 3 3 2 4 1 5 6 6 7 7 8 8 9 9
REMARK H PARENT
REMARK Flexibility Score: inf
ROOT
ATOM      1  C   UNL     1     237.459 226.509 234.553  1.00  0.00     0.000 C 
ENDROOT
BRANCH   1   2
ATOM      2  C   UNL     1     236.390 227.276 233.760  1.00  0.00     0.000 C 
BRANCH   2   3
ATOM      3  C   UNL     1     236.195 228.690 234.329  1.00  0.00    -0.000 C 
BRANCH   3   4
ATOM      4  C   UNL     1     236.609 229.788 233.337  1.00  0.00    -0.003 C 
ATOM      5  C   UNL     1     235.562 230.029 232.249  1.00  0.00     0.004 C 
ENDBRANCH   3   4
ENDBRANCH   2   3
ENDBRANCH   1   2
BRANCH   1   6
ATOM      6  C   UNL     1     238.829 226.498 233.850  1.00  0.00     0.008 C 
BRANCH   6   7
ATOM      7  C   UNL     1     240.016 226.809 234.777  1.00  0.00     0.072 C 
BRANCH   7   8
ATOM      8  C   UNL     1     239.741 227.973 235.684  1.00  0.00     0.224 C 
ATOM      9  O   UNL     1     239.788 229.116 235.256  1.00  0.00    -0.303 OA
ENDBRANCH   7   8
ENDBRANCH   6   7
ENDBRANCH   1   6
TORSDOF 6
ENDMDL
