MODEL 1
REMARK VINA RESULT:    -5.494      0.000      0.000
REMARK INTER + INTRA:          -6.832
REMARK INTER:                  -6.618
REMARK INTRA:                  -0.215
REMARK UNBOUND:                -0.215
REMARK SMILES O=c1c(O)c(-c2ccc(O)c(O)c2)oc2cc(O)cc(O)c12
REMARK SMILES IDX 5 1 3 2 2 3 1 4 22 5 20 6 19 7 17 8 16 9 15 10 14 11 6 12
REMARK SMILES IDX 7 13 8 14 9 15 13 16 11 17 10 18 12 20 4 22 21 24 18 26
REMARK H PARENT 10 19 12 21 4 23 21 25 18 27
REMARK Flexibility Score: inf
ROOT
ATOM      1  C   UNL     1      -4.644  91.150 -14.862  1.00  0.00     0.180 A 
ATOM      2  C   UNL     1      -5.234  90.040 -14.225  1.00  0.00     0.208 A 
ATOM      3  C   UNL     1      -5.396  90.064 -12.831  1.00  0.00     0.238 A 
ATOM      4  O   UNL     1      -5.913  89.073 -12.250  1.00  0.00    -0.285 OA
ATOM      5  C   UNL     1      -4.987  91.200 -12.102  1.00  0.00     0.111 A 
ATOM      6  C   UNL     1      -5.118  91.305 -10.695  1.00  0.00     0.134 A 
ATOM      7  C   UNL     1      -4.694  92.473 -10.044  1.00  0.00     0.093 A 
ATOM      8  C   UNL     1      -4.144  93.535 -10.769  1.00  0.00     0.123 A 
ATOM      9  C   UNL     1      -4.011  93.435 -12.155  1.00  0.00     0.094 A 
ATOM     10  C   UNL     1      -4.425  92.279 -12.824  1.00  0.00     0.146 A 
ATOM     11  O   UNL     1      -4.283  92.209 -14.143  1.00  0.00    -0.452 OA
ENDROOT
BRANCH   1  12
ATOM     12  C   UNL     1      -4.421  91.191 -16.325  1.00  0.00     0.025 A 
ATOM     13  C   UNL     1      -3.115  91.080 -16.827  1.00  0.00     0.016 A 
ATOM     14  C   UNL     1      -2.883  91.096 -18.205  1.00  0.00     0.051 A 
ATOM     15  C   UNL     1      -3.951  91.206 -19.100  1.00  0.00     0.157 A 
ATOM     16  C   UNL     1      -5.495  91.281 -17.227  1.00  0.00     0.062 A 
ATOM     17  C   UNL     1      -5.265  91.295 -18.610  1.00  0.00     0.158 A 
BRANCH  15  18
ATOM     18  O   UNL     1      -3.688  91.222 -20.469  1.00  0.00    -0.504 OA
ATOM     19  H   UNL     1      -4.355  90.875 -21.149  1.00  0.00     0.293 HD
ENDBRANCH  15  18
BRANCH  17  20
ATOM     20  O   UNL     1      -6.335  91.391 -19.498  1.00  0.00    -0.504 OA
ATOM     21  H   UNL     1      -6.193  91.406 -20.502  1.00  0.00     0.293 HD
ENDBRANCH  17  20
ENDBRANCH   1  12
BRANCH   2  22
ATOM     22  O   UNL     1      -5.676  88.949 -14.977  1.00  0.00    -0.502 OA
ATOM     23  H   UNL     1      -6.116  88.140 -14.553  1.00  0.00     0.293 HD
ENDBRANCH   2  22
BRANCH   6  24
ATOM     24  O   UNL     1      -5.665  90.264  -9.945  1.00  0.00    -0.507 OA
ATOM     25  H   UNL     1      -6.581  90.338  -9.519  1.00  0.00     0.293 HD
ENDBRANCH   6  24
BRANCH   8  26
ATOM     26  O   UNL     1      -3.724  94.695 -10.121  1.00  0.00    -0.508 OA
ATOM     27  H   UNL     1      -2.742  94.930 -10.040  1.00  0.00     0.293 HD
ENDBRANCH   8  26
TORSDOF 6
ENDMDL
MODEL 2
REMARK VINA RESULT:    -5.403     10.220     11.682
REMARK INTER + INTRA:          -6.723
REMARK INTER:                  -6.399
REMARK INTRA:                  -0.325
REMARK UNBOUND:                -0.215
REMARK SMILES O=c1c(O)c(-c2ccc(O)c(O)c2)oc2cc(O)cc(O)c12
REMARK SMILES IDX 5 1 3 2 2 3 1 4 22 5 20 6 19 7 17 8 16 9 15 10 14 11 6 12
REMARK SMILES IDX 7 13 8 14 9 15 13 16 11 17 10 18 12 20 4 22 21 24 18 26
REMARK H PARENT 10 19 12 21 4 23 21 25 18 27
REMARK Flexibility Score: inf
ROOT
ATOM      1  C   UNL     1      -9.564  83.622  -8.928  1.00  0.00     0.180 A 
ATOM      2  C   UNL     1     -10.422  82.515  -9.075  1.00  0.00     0.208 A 
ATOM      3  C   UNL     1     -11.784  82.740  -9.329  1.00  0.00     0.238 A 
ATOM      4  O   UNL     1     -12.563  81.758  -9.453  1.00  0.00    -0.285 OA
ATOM      5  C   UNL     1     -12.260  84.062  -9.451  1.00  0.00     0.111 A 
ATOM      6  C   UNL     1     -13.617  84.376  -9.709  1.00  0.00     0.134 A 
ATOM      7  C   UNL     1     -14.011  85.717  -9.825  1.00  0.00     0.093 A 
ATOM      8  C   UNL     1     -13.076  86.749  -9.689  1.00  0.00     0.123 A 
ATOM      9  C   UNL     1     -11.738  86.445  -9.432  1.00  0.00     0.094 A 
ATOM     10  C   UNL     1     -11.325  85.115  -9.312  1.00  0.00     0.146 A 
ATOM     11  O   UNL     1     -10.047  84.854  -9.063  1.00  0.00    -0.452 OA
ENDROOT
BRANCH   1  12
ATOM     12  C   UNL     1      -8.120  83.466  -8.640  1.00  0.00     0.025 A 
ATOM     13  C   UNL     1      -7.687  83.389  -7.307  1.00  0.00     0.016 A 
ATOM     14  C   UNL     1      -6.332  83.221  -7.011  1.00  0.00     0.051 A 
ATOM     15  C   UNL     1      -5.393  83.111  -8.041  1.00  0.00     0.157 A 
ATOM     16  C   UNL     1      -7.177  83.334  -9.674  1.00  0.00     0.062 A 
ATOM     17  C   UNL     1      -5.816  83.163  -9.379  1.00  0.00     0.158 A 
BRANCH  15  18
ATOM     18  O   UNL     1      -4.047  82.947  -7.715  1.00  0.00    -0.504 OA
ATOM     19  H   UNL     1      -3.354  82.686  -8.407  1.00  0.00     0.293 HD
ENDBRANCH  15  18
BRANCH  17  20
ATOM     20  O   UNL     1      -4.886  83.040 -10.411  1.00  0.00    -0.504 OA
ATOM     21  H   UNL     1      -5.167  82.789 -11.351  1.00  0.00     0.293 HD
ENDBRANCH  17  20
ENDBRANCH   1  12
BRANCH   2  22
ATOM     22  O   UNL     1      -9.915  81.215  -9.000  1.00  0.00    -0.502 OA
ATOM     23  H   UNL     1      -9.873  80.601  -9.805  1.00  0.00     0.293 HD
ENDBRANCH   2  22
BRANCH   6  24
ATOM     24  O   UNL     1     -14.572  83.369  -9.852  1.00  0.00    -0.507 OA
ATOM     25  H   UNL     1     -14.345  82.474 -10.268  1.00  0.00     0.293 HD
ENDBRANCH   6  24
BRANCH   8  26
ATOM     26  O   UNL     1     -13.467  88.081  -9.804  1.00  0.00    -0.508 OA
ATOM     27  H   UNL     1     -14.231  88.358 -10.409  1.00  0.00     0.293 HD
ENDBRANCH   8  26
TORSDOF 6
ENDMDL
MODEL 3
REMARK VINA RESULT:    -5.243     10.160     12.836
REMARK INTER + INTRA:          -6.531
REMARK INTER:                  -6.253
REMARK INTRA:                  -0.278
REMARK UNBOUND:                -0.215
REMARK SMILES O=c1c(O)c(-c2ccc(O)c(O)c2)oc2cc(O)cc(O)c12
REMARK SMILES IDX 5 1 3 2 2 3 1 4 22 5 20 6 19 7 17 8 16 9 15 10 14 11 6 12
REMARK SMILES IDX 7 13 8 14 9 15 13 16 11 17 10 18 12 20 4 22 21 24 18 26
REMARK H PARENT 10 19 12 21 4 23 21 25 18 27
REMARK Flexibility Score: inf
ROOT
ATOM      1  C   UNL     1      -9.484  83.117  -8.484  1.00  0.00     0.180 A 
ATOM      2  C   UNL     1     -10.286  84.120  -9.064  1.00  0.00     0.208 A 
ATOM      3  C   UNL     1     -11.672  83.917  -9.149  1.00  0.00     0.238 A 
ATOM      4  O   UNL     1     -12.398  84.802  -9.675  1.00  0.00    -0.285 OA
ATOM      5  C   UNL     1     -12.234  82.729  -8.638  1.00  0.00     0.111 A 
ATOM      6  C   UNL     1     -13.621  82.447  -8.681  1.00  0.00     0.134 A 
ATOM      7  C   UNL     1     -14.104  81.245  -8.142  1.00  0.00     0.093 A 
ATOM      8  C   UNL     1     -13.228  80.321  -7.561  1.00  0.00     0.123 A 
ATOM      9  C   UNL     1     -11.860  80.594  -7.518  1.00  0.00     0.094 A 
ATOM     10  C   UNL     1     -11.358  81.785  -8.050  1.00  0.00     0.146 A 
ATOM     11  O   UNL     1     -10.051  82.016  -8.000  1.00  0.00    -0.452 OA
ENDROOT
BRANCH   1  12
ATOM     12  C   UNL     1      -8.013  83.251  -8.376  1.00  0.00     0.025 A 
ATOM     13  C   UNL     1      -7.432  83.482  -7.119  1.00  0.00     0.016 A 
ATOM     14  C   UNL     1      -6.045  83.590  -6.989  1.00  0.00     0.051 A 
ATOM     15  C   UNL     1      -5.218  83.455  -8.109  1.00  0.00     0.157 A 
ATOM     16  C   UNL     1      -7.179  83.093  -9.496  1.00  0.00     0.062 A 
ATOM     17  C   UNL     1      -5.787  83.200  -9.368  1.00  0.00     0.158 A 
BRANCH  15  18
ATOM     18  O   UNL     1      -3.838  83.570  -7.949  1.00  0.00    -0.504 OA
ATOM     19  H   UNL     1      -3.410  84.398  -7.551  1.00  0.00     0.293 HD
ENDBRANCH  15  18
BRANCH  17  20
ATOM     20  O   UNL     1      -4.966  83.050 -10.486  1.00  0.00    -0.504 OA
ATOM     21  H   UNL     1      -5.136  83.565 -11.342  1.00  0.00     0.293 HD
ENDBRANCH  17  20
ENDBRANCH   1  12
BRANCH   2  22
ATOM     22  O   UNL     1      -9.709  85.309  -9.517  1.00  0.00    -0.502 OA
ATOM     23  H   UNL     1      -9.886  85.679 -10.445  1.00  0.00     0.293 HD
ENDBRANCH   2  22
BRANCH   6  24
ATOM     24  O   UNL     1     -14.519  83.349  -9.252  1.00  0.00    -0.507 OA
ATOM     25  H   UNL     1     -14.519  83.545 -10.245  1.00  0.00     0.293 HD
ENDBRANCH   6  24
BRANCH   8  26
ATOM     26  O   UNL     1     -13.708  79.128  -7.026  1.00  0.00    -0.508 OA
ATOM     27  H   UNL     1     -13.170  78.272  -7.074  1.00  0.00     0.293 HD
ENDBRANCH   8  26
TORSDOF 6
ENDMDL
MODEL 4
REMARK VINA RESULT:    -5.167      4.283      6.228
REMARK INTER + INTRA:          -6.438
REMARK INTER:                  -6.369
REMARK INTRA:                  -0.069
REMARK UNBOUND:                -0.215
REMARK SMILES O=c1c(O)c(-c2ccc(O)c(O)c2)oc2cc(O)cc(O)c12
REMARK SMILES IDX 5 1 3 2 2 3 1 4 22 5 20 6 19 7 17 8 16 9 15 10 14 11 6 12
REMARK SMILES IDX 7 13 8 14 9 15 13 16 11 17 10 18 12 20 4 22 21 24 18 26
REMARK H PARENT 10 19 12 21 4 23 21 25 18 27
REMARK Flexibility Score: inf
ROOT
ATOM      1  C   UNL     1      -8.516  90.580 -13.194  1.00  0.00     0.180 A 
ATOM      2  C   UNL     1      -7.622  89.534 -13.494  1.00  0.00     0.208 A 
ATOM      3  C   UNL     1      -6.246  89.803 -13.522  1.00  0.00     0.238 A 
ATOM      4  O   UNL     1      -5.437  88.877 -13.800  1.00  0.00    -0.285 OA
ATOM      5  C   UNL     1      -5.784  91.103 -13.230  1.00  0.00     0.111 A 
ATOM      6  C   UNL     1      -4.413  91.457 -13.233  1.00  0.00     0.134 A 
ATOM      7  C   UNL     1      -4.033  92.772 -12.924  1.00  0.00     0.093 A 
ATOM      8  C   UNL     1      -4.997  93.737 -12.611  1.00  0.00     0.123 A 
ATOM      9  C   UNL     1      -6.349  93.393 -12.608  1.00  0.00     0.094 A 
ATOM     10  C   UNL     1      -6.749  92.089 -12.916  1.00  0.00     0.146 A 
ATOM     11  O   UNL     1      -8.043  91.791 -12.910  1.00  0.00    -0.452 OA
ENDROOT
BRANCH   1  12
ATOM     12  C   UNL     1      -9.982  90.379 -13.164  1.00  0.00     0.025 A 
ATOM     13  C   UNL     1     -10.800  91.136 -14.018  1.00  0.00     0.016 A 
ATOM     14  C   UNL     1     -12.184  90.950 -14.023  1.00  0.00     0.051 A 
ATOM     15  C   UNL     1     -12.771  89.994 -13.187  1.00  0.00     0.157 A 
ATOM     16  C   UNL     1     -10.571  89.405 -12.341  1.00  0.00     0.062 A 
ATOM     17  C   UNL     1     -11.961  89.214 -12.345  1.00  0.00     0.158 A 
BRANCH  15  18
ATOM     18  O   UNL     1     -14.155  89.831 -13.212  1.00  0.00    -0.504 OA
ATOM     19  H   UNL     1     -14.589  88.916 -13.245  1.00  0.00     0.293 HD
ENDBRANCH  15  18
BRANCH  17  20
ATOM     20  O   UNL     1     -12.539  88.249 -11.520  1.00  0.00    -0.504 OA
ATOM     21  H   UNL     1     -12.379  88.242 -10.519  1.00  0.00     0.293 HD
ENDBRANCH  17  20
ENDBRANCH   1  12
BRANCH   2  22
ATOM     22  O   UNL     1      -8.102  88.243 -13.730  1.00  0.00    -0.502 OA
ATOM     23  H   UNL     1      -8.473  87.658 -12.990  1.00  0.00     0.293 HD
ENDBRANCH   2  22
BRANCH   6  24
ATOM     24  O   UNL     1      -3.429  90.517 -13.539  1.00  0.00    -0.507 OA
ATOM     25  H   UNL     1      -3.653  89.640 -13.994  1.00  0.00     0.293 HD
ENDBRANCH   6  24
BRANCH   8  26
ATOM     26  O   UNL     1      -4.620  95.043 -12.303  1.00  0.00    -0.508 OA
ATOM     27  H   UNL     1      -4.207  95.278 -11.408  1.00  0.00     0.293 HD
ENDBRANCH   8  26
TORSDOF 6
ENDMDL
MODEL 5
REMARK VINA RESULT:    -5.112      1.428      3.169
REMARK INTER + INTRA:          -6.373
REMARK INTER:                  -6.202
REMARK INTRA:                  -0.171
REMARK UNBOUND:                -0.215
REMARK SMILES O=c1c(O)c(-c2ccc(O)c(O)c2)oc2cc(O)cc(O)c12
REMARK SMILES IDX 5 1 3 2 2 3 1 4 22 5 20 6 19 7 17 8 16 9 15 10 14 11 6 12
REMARK SMILES IDX 7 13 8 14 9 15 13 16 11 17 10 18 12 20 4 22 21 24 18 26
REMARK H PARENT 10 19 12 21 4 23 21 25 18 27
REMARK Flexibility Score: inf
ROOT
ATOM      1  C   UNL     1      -4.960  90.959 -14.470  1.00  0.00     0.180 A 
ATOM      2  C   UNL     1      -4.670  92.008 -13.575  1.00  0.00     0.208 A 
ATOM      3  C   UNL     1      -5.007  91.858 -12.222  1.00  0.00     0.238 A 
ATOM      4  O   UNL     1      -4.763  92.794 -11.414  1.00  0.00    -0.285 OA
ATOM      5  C   UNL     1      -5.608  90.660 -11.782  1.00  0.00     0.111 A 
ATOM      6  C   UNL     1      -5.976  90.427 -10.434  1.00  0.00     0.134 A 
ATOM      7  C   UNL     1      -6.561  89.204 -10.074  1.00  0.00     0.093 A 
ATOM      8  C   UNL     1      -6.784  88.210 -11.034  1.00  0.00     0.123 A 
ATOM      9  C   UNL     1      -6.424  88.436 -12.363  1.00  0.00     0.094 A 
ATOM     10  C   UNL     1      -5.841  89.648 -12.744  1.00  0.00     0.146 A 
ATOM     11  O   UNL     1      -5.514  89.838 -14.016  1.00  0.00    -0.452 OA
ENDROOT
BRANCH   1  12
ATOM     12  C   UNL     1      -4.652  91.050 -15.915  1.00  0.00     0.025 A 
ATOM     13  C   UNL     1      -3.313  91.082 -16.335  1.00  0.00     0.016 A 
ATOM     14  C   UNL     1      -2.997  91.147 -17.694  1.00  0.00     0.051 A 
ATOM     15  C   UNL     1      -4.014  91.166 -18.655  1.00  0.00     0.157 A 
ATOM     16  C   UNL     1      -5.671  91.047 -16.883  1.00  0.00     0.062 A 
ATOM     17  C   UNL     1      -5.357  91.111 -18.249  1.00  0.00     0.158 A 
BRANCH  15  18
ATOM     18  O   UNL     1      -3.669  91.234 -20.004  1.00  0.00    -0.504 OA
ATOM     19  H   UNL     1      -3.072  91.966 -20.371  1.00  0.00     0.293 HD
ENDBRANCH  15  18
BRANCH  17  20
ATOM     20  O   UNL     1      -6.375  91.115 -19.202  1.00  0.00    -0.504 OA
ATOM     21  H   UNL     1      -6.234  91.504 -20.127  1.00  0.00     0.293 HD
ENDBRANCH  17  20
ENDBRANCH   1  12
BRANCH   2  22
ATOM     22  O   UNL     1      -4.030  93.164 -14.028  1.00  0.00    -0.502 OA
ATOM     23  H   UNL     1      -4.201  94.075 -13.618  1.00  0.00     0.293 HD
ENDBRANCH   2  22
BRANCH   6  24
ATOM     24  O   UNL     1      -5.764  91.397  -9.454  1.00  0.00    -0.507 OA
ATOM     25  H   UNL     1      -5.215  91.207  -8.625  1.00  0.00     0.293 HD
ENDBRANCH   6  24
BRANCH   8  26
ATOM     26  O   UNL     1      -7.364  86.996 -10.676  1.00  0.00    -0.508 OA
ATOM     27  H   UNL     1      -8.369  86.873 -10.660  1.00  0.00     0.293 HD
ENDBRANCH   8  26
TORSDOF 6
ENDMDL
MODEL 6
REMARK VINA RESULT:    -5.111     10.409     11.831
REMARK INTER + INTRA:          -6.371
REMARK INTER:                  -6.120
REMARK INTRA:                  -0.251
REMARK UNBOUND:                -0.215
REMARK SMILES O=c1c(O)c(-c2ccc(O)c(O)c2)oc2cc(O)cc(O)c12
REMARK SMILES IDX 5 1 3 2 2 3 1 4 22 5 20 6 19 7 17 8 16 9 15 10 14 11 6 12
REMARK SMILES IDX 7 13 8 14 9 15 13 16 11 17 10 18 12 20 4 22 21 24 18 26
REMARK H PARENT 10 19 12 21 4 23 21 25 18 27
REMARK Flexibility Score: inf
ROOT
ATOM      1  C   UNL     1      -9.106  83.507  -8.326  1.00  0.00     0.180 A 
ATOM      2  C   UNL     1      -8.806  83.793  -6.979  1.00  0.00     0.208 A 
ATOM      3  C   UNL     1      -7.468  83.750  -6.558  1.00  0.00     0.238 A 
ATOM      4  O   UNL     1      -7.189  83.993  -5.353  1.00  0.00    -0.285 OA
ATOM      5  C   UNL     1      -6.454  83.444  -7.489  1.00  0.00     0.111 A 
ATOM      6  C   UNL     1      -5.081  83.383  -7.147  1.00  0.00     0.134 A 
ATOM      7  C   UNL     1      -4.131  83.080  -8.134  1.00  0.00     0.093 A 
ATOM      8  C   UNL     1      -4.527  82.838  -9.454  1.00  0.00     0.123 A 
ATOM      9  C   UNL     1      -5.879  82.895  -9.795  1.00  0.00     0.094 A 
ATOM     10  C   UNL     1      -6.842  83.194  -8.827  1.00  0.00     0.146 A 
ATOM     11  O   UNL     1      -8.122  83.236  -9.178  1.00  0.00    -0.452 OA
ENDROOT
BRANCH   1  12
ATOM     12  C   UNL     1     -10.494  83.513  -8.841  1.00  0.00     0.025 A 
ATOM     13  C   UNL     1     -11.142  84.738  -9.065  1.00  0.00     0.016 A 
ATOM     14  C   UNL     1     -12.444  84.770  -9.569  1.00  0.00     0.051 A 
ATOM     15  C   UNL     1     -13.112  83.579  -9.873  1.00  0.00     0.157 A 
ATOM     16  C   UNL     1     -11.160  82.319  -9.166  1.00  0.00     0.062 A 
ATOM     17  C   UNL     1     -12.467  82.348  -9.675  1.00  0.00     0.158 A 
BRANCH  15  18
ATOM     18  O   UNL     1     -14.412  83.642 -10.373  1.00  0.00    -0.504 OA
ATOM     19  H   UNL     1     -15.224  83.619  -9.767  1.00  0.00     0.293 HD
ENDBRANCH  15  18
BRANCH  17  20
ATOM     20  O   UNL     1     -13.123  81.158  -9.989  1.00  0.00    -0.504 OA
ATOM     21  H   UNL     1     -13.887  80.808  -9.423  1.00  0.00     0.293 HD
ENDBRANCH  17  20
ENDBRANCH   1  12
BRANCH   2  22
ATOM     22  O   UNL     1      -9.824  84.142  -6.089  1.00  0.00    -0.502 OA
ATOM     23  H   UNL     1      -9.634  84.480  -5.152  1.00  0.00     0.293 HD
ENDBRANCH   2  22
BRANCH   6  24
ATOM     24  O   UNL     1      -4.656  83.622  -5.840  1.00  0.00    -0.507 OA
ATOM     25  H   UNL     1      -3.912  84.279  -5.633  1.00  0.00     0.293 HD
ENDBRANCH   6  24
BRANCH   8  26
ATOM     26  O   UNL     1      -3.583  82.537 -10.434  1.00  0.00    -0.508 OA
ATOM     27  H   UNL     1      -3.393  83.174 -11.198  1.00  0.00     0.293 HD
ENDBRANCH   8  26
TORSDOF 6
ENDMDL
MODEL 7
REMARK VINA RESULT:    -5.108      9.637     11.732
REMARK INTER + INTRA:          -6.368
REMARK INTER:                  -6.038
REMARK INTRA:                  -0.329
REMARK UNBOUND:                -0.215
REMARK SMILES O=c1c(O)c(-c2ccc(O)c(O)c2)oc2cc(O)cc(O)c12
REMARK SMILES IDX 5 1 3 2 2 3 1 4 22 5 20 6 19 7 17 8 16 9 15 10 14 11 6 12
REMARK SMILES IDX 7 13 8 14 9 15 13 16 11 17 10 18 12 20 4 22 21 24 18 26
REMARK H PARENT 10 19 12 21 4 23 21 25 18 27
REMARK Flexibility Score: inf
ROOT
ATOM      1  C   UNL     1      -8.359  83.900  -8.744  1.00  0.00     0.180 A 
ATOM      2  C   UNL     1      -8.707  85.263  -8.829  1.00  0.00     0.208 A 
ATOM      3  C   UNL     1     -10.054  85.609  -9.020  1.00  0.00     0.238 A 
ATOM      4  O   UNL     1     -10.376  86.824  -9.108  1.00  0.00    -0.285 OA
ATOM      5  C   UNL     1     -11.029  84.594  -9.101  1.00  0.00     0.111 A 
ATOM      6  C   UNL     1     -12.408  84.857  -9.289  1.00  0.00     0.134 A 
ATOM      7  C   UNL     1     -13.318  83.791  -9.351  1.00  0.00     0.093 A 
ATOM      8  C   UNL     1     -12.876  82.469  -9.228  1.00  0.00     0.123 A 
ATOM      9  C   UNL     1     -11.519  82.205  -9.045  1.00  0.00     0.094 A 
ATOM     10  C   UNL     1     -10.595  83.252  -8.982  1.00  0.00     0.146 A 
ATOM     11  O   UNL     1      -9.308  82.971  -8.811  1.00  0.00    -0.452 OA
ENDROOT
BRANCH   1  12
ATOM     12  C   UNL     1      -6.959  83.456  -8.563  1.00  0.00     0.025 A 
ATOM     13  C   UNL     1      -6.455  83.273  -7.266  1.00  0.00     0.016 A 
ATOM     14  C   UNL     1      -5.143  82.835  -7.070  1.00  0.00     0.051 A 
ATOM     15  C   UNL     1      -4.320  82.558  -8.167  1.00  0.00     0.157 A 
ATOM     16  C   UNL     1      -6.137  83.156  -9.663  1.00  0.00     0.062 A 
ATOM     17  C   UNL     1      -4.820  82.714  -9.470  1.00  0.00     0.158 A 
BRANCH  15  18
ATOM     18  O   UNL     1      -3.015  82.124  -7.941  1.00  0.00    -0.504 OA
ATOM     19  H   UNL     1      -2.303  82.736  -7.559  1.00  0.00     0.293 HD
ENDBRANCH  15  18
BRANCH  17  20
ATOM     20  O   UNL     1      -4.009  82.426 -10.567  1.00  0.00    -0.504 OA
ATOM     21  H   UNL     1      -3.582  83.160 -11.119  1.00  0.00     0.293 HD
ENDBRANCH  17  20
ENDBRANCH   1  12
BRANCH   2  22
ATOM     22  O   UNL     1      -7.728  86.250  -8.695  1.00  0.00    -0.502 OA
ATOM     23  H   UNL     1      -7.612  86.995  -9.373  1.00  0.00     0.293 HD
ENDBRANCH   2  22
BRANCH   6  24
ATOM     24  O   UNL     1     -12.878  86.165  -9.413  1.00  0.00    -0.507 OA
ATOM     25  H   UNL     1     -12.262  86.933  -9.649  1.00  0.00     0.293 HD
ENDBRANCH   6  24
BRANCH   8  26
ATOM     26  O   UNL     1     -13.780  81.411  -9.290  1.00  0.00    -0.508 OA
ATOM     27  H   UNL     1     -14.743  81.519  -8.993  1.00  0.00     0.293 HD
ENDBRANCH   8  26
TORSDOF 6
ENDMDL
MODEL 8
REMARK VINA RESULT:    -5.054      9.533     12.303
REMARK INTER + INTRA:          -6.303
REMARK INTER:                  -6.002
REMARK INTRA:                  -0.301
REMARK UNBOUND:                -0.215
REMARK SMILES O=c1c(O)c(-c2ccc(O)c(O)c2)oc2cc(O)cc(O)c12
REMARK SMILES IDX 5 1 3 2 2 3 1 4 22 5 20 6 19 7 17 8 16 9 15 10 14 11 6 12
REMARK SMILES IDX 7 13 8 14 9 15 13 16 11 17 10 18 12 20 4 22 21 24 18 26
REMARK H PARENT 10 19 12 21 4 23 21 25 18 27
REMARK Flexibility Score: inf
ROOT
ATOM      1  C   UNL     1      -8.992  83.200  -8.150  1.00  0.00     0.180 A 
ATOM      2  C   UNL     1      -9.228  82.436  -6.991  1.00  0.00     0.208 A 
ATOM      3  C   UNL     1     -10.534  81.996  -6.723  1.00  0.00     0.238 A 
ATOM      4  O   UNL     1     -10.760  81.320  -5.683  1.00  0.00    -0.285 OA
ATOM      5  C   UNL     1     -11.573  82.309  -7.623  1.00  0.00     0.111 A 
ATOM      6  C   UNL     1     -12.916  81.902  -7.428  1.00  0.00     0.134 A 
ATOM      7  C   UNL     1     -13.891  82.246  -8.375  1.00  0.00     0.093 A 
ATOM      8  C   UNL     1     -13.551  82.987  -9.512  1.00  0.00     0.123 A 
ATOM      9  C   UNL     1     -12.230  83.393  -9.707  1.00  0.00     0.094 A 
ATOM     10  C   UNL     1     -11.242  83.061  -8.775  1.00  0.00     0.146 A 
ATOM     11  O   UNL     1      -9.994  83.464  -8.983  1.00  0.00    -0.452 OA
ENDROOT
BRANCH   1  12
ATOM     12  C   UNL     1      -7.647  83.716  -8.492  1.00  0.00     0.025 A 
ATOM     13  C   UNL     1      -7.171  84.875  -7.858  1.00  0.00     0.016 A 
ATOM     14  C   UNL     1      -5.897  85.369  -8.148  1.00  0.00     0.051 A 
ATOM     15  C   UNL     1      -5.074  84.705  -9.063  1.00  0.00     0.157 A 
ATOM     16  C   UNL     1      -6.810  83.039  -9.395  1.00  0.00     0.062 A 
ATOM     17  C   UNL     1      -5.529  83.532  -9.687  1.00  0.00     0.158 A 
BRANCH  15  18
ATOM     18  O   UNL     1      -3.808  85.223  -9.335  1.00  0.00    -0.504 OA
ATOM     19  H   UNL     1      -3.039  84.635  -9.634  1.00  0.00     0.293 HD
ENDBRANCH  15  18
BRANCH  17  20
ATOM     20  O   UNL     1      -4.708  82.858 -10.590  1.00  0.00    -0.504 OA
ATOM     21  H   UNL     1      -3.993  83.342 -11.121  1.00  0.00     0.293 HD
ENDBRANCH  17  20
ENDBRANCH   1  12
BRANCH   2  22
ATOM     22  O   UNL     1      -8.172  82.098  -6.142  1.00  0.00    -0.502 OA
ATOM     23  H   UNL     1      -7.264  82.544  -6.200  1.00  0.00     0.293 HD
ENDBRANCH   2  22
BRANCH   6  24
ATOM     24  O   UNL     1     -13.285  81.160  -6.306  1.00  0.00    -0.507 OA
ATOM     25  H   UNL     1     -14.257  80.994  -6.072  1.00  0.00     0.293 HD
ENDBRANCH   6  24
BRANCH   8  26
ATOM     26  O   UNL     1     -14.521  83.329 -10.453  1.00  0.00    -0.508 OA
ATOM     27  H   UNL     1     -14.421  84.145 -11.043  1.00  0.00     0.293 HD
ENDBRANCH   8  26
TORSDOF 6
ENDMDL
MODEL 9
REMARK VINA RESULT:    -5.045      8.519     11.614
REMARK INTER + INTRA:          -6.291
REMARK INTER:                  -6.113
REMARK INTRA:                  -0.178
REMARK UNBOUND:                -0.215
REMARK SMILES O=c1c(O)c(-c2ccc(O)c(O)c2)oc2cc(O)cc(O)c12
REMARK SMILES IDX 5 1 3 2 2 3 1 4 22 5 20 6 19 7 17 8 16 9 15 10 14 11 6 12
REMARK SMILES IDX 7 13 8 14 9 15 13 16 11 17 10 18 12 20 4 22 21 24 18 26
REMARK H PARENT 10 19 12 21 4 23 21 25 18 27
REMARK Flexibility Score: inf
ROOT
ATOM      1  C   UNL     1      -9.872  84.132  -8.999  1.00  0.00     0.180 A 
ATOM      2  C   UNL     1      -9.737  85.526  -8.856  1.00  0.00     0.208 A 
ATOM      3  C   UNL     1      -8.466  86.103  -8.997  1.00  0.00     0.238 A 
ATOM      4  O   UNL     1      -8.331  87.349  -8.860  1.00  0.00    -0.285 OA
ATOM      5  C   UNL     1      -7.358  85.284  -9.297  1.00  0.00     0.111 A 
ATOM      6  C   UNL     1      -6.044  85.786  -9.459  1.00  0.00     0.134 A 
ATOM      7  C   UNL     1      -4.996  84.906  -9.766  1.00  0.00     0.093 A 
ATOM      8  C   UNL     1      -5.236  83.536  -9.916  1.00  0.00     0.123 A 
ATOM      9  C   UNL     1      -6.529  83.036  -9.756  1.00  0.00     0.094 A 
ATOM     10  C   UNL     1      -7.588  83.896  -9.448  1.00  0.00     0.146 A 
ATOM     11  O   UNL     1      -8.808  83.392  -9.297  1.00  0.00    -0.452 OA
ENDROOT
BRANCH   1  12
ATOM     12  C   UNL     1     -11.176  83.448  -8.846  1.00  0.00     0.025 A 
ATOM     13  C   UNL     1     -11.389  82.607  -7.743  1.00  0.00     0.016 A 
ATOM     14  C   UNL     1     -12.618  81.966  -7.566  1.00  0.00     0.051 A 
ATOM     15  C   UNL     1     -13.657  82.169  -8.479  1.00  0.00     0.157 A 
ATOM     16  C   UNL     1     -12.229  83.666  -9.751  1.00  0.00     0.062 A 
ATOM     17  C   UNL     1     -13.465  83.027  -9.574  1.00  0.00     0.158 A 
BRANCH  15  18
ATOM     18  O   UNL     1     -14.872  81.515  -8.278  1.00  0.00    -0.504 OA
ATOM     19  H   UNL     1     -15.595  81.493  -8.987  1.00  0.00     0.293 HD
ENDBRANCH  15  18
BRANCH  17  20
ATOM     20  O   UNL     1     -14.502  83.244 -10.481  1.00  0.00    -0.504 OA
ATOM     21  H   UNL     1     -15.143  82.503 -10.742  1.00  0.00     0.293 HD
ENDBRANCH  17  20
ENDBRANCH   1  12
BRANCH   2  22
ATOM     22  O   UNL     1     -10.859  86.322  -8.607  1.00  0.00    -0.502 OA
ATOM     23  H   UNL     1     -11.136  86.591  -7.670  1.00  0.00     0.293 HD
ENDBRANCH   2  22
BRANCH   6  24
ATOM     24  O   UNL     1      -5.773  87.147  -9.318  1.00  0.00    -0.507 OA
ATOM     25  H   UNL     1      -5.609  87.744 -10.120  1.00  0.00     0.293 HD
ENDBRANCH   6  24
BRANCH   8  26
ATOM     26  O   UNL     1      -4.195  82.662 -10.222  1.00  0.00    -0.508 OA
ATOM     27  H   UNL     1      -4.270  81.667 -10.047  1.00  0.00     0.293 HD
ENDBRANCH   8  26
TORSDOF 6
ENDMDL
