MODEL 1
REMARK VINA RESULT:    -0.889      0.000      0.000
REMARK INTER + INTRA:          -5.023
REMARK INTER:                  -2.241
REMARK INTRA:                  -2.783
REMARK UNBOUND:                -2.783
REMARK SMILES CCCCCCCCCCCCCCCCCCCCCCCCCCCC(=O)[O-]
REMARK SMILES IDX 15 1 16 2 17 3 18 4 19 5 20 6 21 7 22 8 23 9 24 10 25 11
REMARK SMILES IDX 26 12 27 13 28 14 29 15 30 16 14 17 13 18 12 19 11 20 10 21
REMARK SMILES IDX 9 22 8 23 7 24 6 25 5 26 4 27 3 28 2 29 1 30
REMARK H PARENT
REMARK Flexibility Score: inf
ROOT
ATOM      1  C   UNL     1      23.831 -16.752  -3.206  1.00  0.00     0.000 C 
ENDROOT
BRANCH   1   2
ATOM      2  C   UNL     1      23.792 -15.426  -3.989  1.00  0.00     0.000 C 
BRANCH   2   3
ATOM      3  C   UNL     1      23.532 -14.211  -3.078  1.00  0.00     0.000 C 
BRANCH   3   4
ATOM      4  C   UNL     1      24.769 -13.734  -2.292  1.00  0.00     0.000 C 
BRANCH   4   5
ATOM      5  C   UNL     1      24.665 -14.030  -0.785  1.00  0.00     0.000 C 
BRANCH   5   6
ATOM      6  C   UNL     1      24.717 -12.742   0.066  1.00  0.00     0.000 C 
BRANCH   6   7
ATOM      7  C   UNL     1      26.106 -12.433   0.651  1.00  0.00     0.000 C 
BRANCH   7   8
ATOM      8  C   UNL     1      26.921 -13.699   0.958  1.00  0.00     0.000 C 
BRANCH   8   9
ATOM      9  C   UNL     1      28.043 -13.958  -0.065  1.00  0.00     0.000 C 
BRANCH   9  10
ATOM     10  C   UNL     1      28.442 -15.437  -0.239  1.00  0.00     0.000 C 
BRANCH  10  11
ATOM     11  C   UNL     1      29.561 -15.876   0.722  1.00  0.00     0.000 C 
BRANCH  11  12
ATOM     12  C   UNL     1      30.400 -17.041   0.162  1.00  0.00     0.006 C 
BRANCH  12  13
ATOM     13  C   UNL     1      30.157 -17.336  -1.328  1.00  0.00     0.053 C 
BRANCH  13  14
ATOM     14  C   UNL     1      30.614 -18.709  -1.720  1.00  0.00     0.041 C 
ATOM     15  O   UNL     1      30.740 -19.611  -0.850  1.00  0.00    -0.550 OA
ATOM     16  O   UNL     1      30.903 -18.992  -3.050  1.00  0.00    -0.550 OA
ENDBRANCH  13  14
ENDBRANCH  12  13
ENDBRANCH  11  12
ENDBRANCH  10  11
ENDBRANCH   9  10
ENDBRANCH   8   9
ENDBRANCH   7   8
ENDBRANCH   6   7
ENDBRANCH   5   6
ENDBRANCH   4   5
ENDBRANCH   3   4
ENDBRANCH   2   3
ENDBRANCH   1   2
BRANCH   1  17
ATOM     17  C   UNL     1      25.209 -17.431  -3.260  1.00  0.00     0.000 C 
BRANCH  17  18
ATOM     18  C   UNL     1      26.236 -16.625  -4.075  1.00  0.00     0.000 C 
BRANCH  18  19
ATOM     19  C   UNL     1      27.433 -16.149  -3.228  1.00  0.00     0.000 C 
BRANCH  19  20
ATOM     20  C   UNL     1      28.558 -15.455  -4.017  1.00  0.00     0.000 C 
BRANCH  20  21
ATOM     21  C   UNL     1      28.715 -13.968  -3.664  1.00  0.00     0.000 C 
BRANCH  21  22
ATOM     22  C   UNL     1      30.164 -13.506  -3.881  1.00  0.00    -0.000 C 
BRANCH  22  23
ATOM     23  C   UNL     1      30.293 -11.975  -3.975  1.00  0.00    -0.000 C 
BRANCH  23  24
ATOM     24  C   UNL     1      31.123 -11.320  -2.852  1.00  0.00    -0.000 C 
BRANCH  24  25
ATOM     25  C   UNL     1      30.446 -11.276  -1.470  1.00  0.00    -0.000 C 
BRANCH  25  26
ATOM     26  C   UNL     1      30.655 -12.565  -0.659  1.00  0.00    -0.000 C 
BRANCH  26  27
ATOM     27  C   UNL     1      31.103 -12.299   0.791  1.00  0.00    -0.000 C 
BRANCH  27  28
ATOM     28  C   UNL     1      30.073 -12.673   1.872  1.00  0.00    -0.000 C 
BRANCH  28  29
ATOM     29  C   UNL     1      29.990 -11.639   3.005  1.00  0.00    -0.003 C 
ATOM     30  C   UNL     1      30.340 -10.242   2.498  1.00  0.00     0.004 C 
ENDBRANCH  28  29
ENDBRANCH  27  28
ENDBRANCH  26  27
ENDBRANCH  25  26
ENDBRANCH  24  25
ENDBRANCH  23  24
ENDBRANCH  22  23
ENDBRANCH  21  22
ENDBRANCH  20  21
ENDBRANCH  19  20
ENDBRANCH  18  19
ENDBRANCH  17  18
ENDBRANCH   1  17
TORSDOF 26
ENDMDL
MODEL 2
REMARK VINA RESULT:    -0.784      1.165      3.894
REMARK INTER + INTRA:          -4.757
REMARK INTER:                  -3.124
REMARK INTRA:                  -1.634
REMARK UNBOUND:                -2.783
REMARK SMILES CCCCCCCCCCCCCCCCCCCCCCCCCCCC(=O)[O-]
REMARK SMILES IDX 15 1 16 2 17 3 18 4 19 5 20 6 21 7 22 8 23 9 24 10 25 11
REMARK SMILES IDX 26 12 27 13 28 14 29 15 30 16 14 17 13 18 12 19 11 20 10 21
REMARK SMILES IDX 9 22 8 23 7 24 6 25 5 26 4 27 3 28 2 29 1 30
REMARK H PARENT
REMARK Flexibility Score: inf
ROOT
ATOM      1  C   UNL     1      23.449 -13.856  -3.952  1.00  0.00     0.000 C 
ENDROOT
BRANCH   1   2
ATOM      2  C   UNL     1      22.744 -15.007  -3.211  1.00  0.00     0.000 C 
BRANCH   2   3
ATOM      3  C   UNL     1      23.712 -16.144  -2.832  1.00  0.00     0.000 C 
BRANCH   3   4
ATOM      4  C   UNL     1      24.738 -16.493  -3.927  1.00  0.00     0.000 C 
BRANCH   4   5
ATOM      5  C   UNL     1      26.165 -16.662  -3.373  1.00  0.00     0.000 C 
BRANCH   5   6
ATOM      6  C   UNL     1      27.102 -15.520  -3.823  1.00  0.00     0.000 C 
BRANCH   6   7
ATOM      7  C   UNL     1      28.547 -15.968  -4.105  1.00  0.00     0.000 C 
BRANCH   7   8
ATOM      8  C   UNL     1      29.579 -15.242  -3.228  1.00  0.00     0.000 C 
BRANCH   8   9
ATOM      9  C   UNL     1      29.200 -15.225  -1.735  1.00  0.00     0.000 C 
BRANCH   9  10
ATOM     10  C   UNL     1      30.384 -15.082  -0.759  1.00  0.00     0.000 C 
BRANCH  10  11
ATOM     11  C   UNL     1      30.317 -16.069   0.419  1.00  0.00     0.000 C 
BRANCH  11  12
ATOM     12  C   UNL     1      29.840 -17.471  -0.008  1.00  0.00     0.006 C 
BRANCH  12  13
ATOM     13  C   UNL     1      30.974 -18.428  -0.413  1.00  0.00     0.053 C 
BRANCH  13  14
ATOM     14  C   UNL     1      30.827 -18.925  -1.820  1.00  0.00     0.041 C 
ATOM     15  O   UNL     1      30.434 -18.150  -2.732  1.00  0.00    -0.550 OA
ATOM     16  O   UNL     1      31.125 -20.249  -2.124  1.00  0.00    -0.550 OA
ENDBRANCH  13  14
ENDBRANCH  12  13
ENDBRANCH  11  12
ENDBRANCH  10  11
ENDBRANCH   9  10
ENDBRANCH   8   9
ENDBRANCH   7   8
ENDBRANCH   6   7
ENDBRANCH   5   6
ENDBRANCH   4   5
ENDBRANCH   3   4
ENDBRANCH   2   3
ENDBRANCH   1   2
BRANCH   1  17
ATOM     17  C   UNL     1      24.474 -13.124  -3.069  1.00  0.00     0.000 C 
BRANCH  17  18
ATOM     18  C   UNL     1      24.304 -13.445  -1.573  1.00  0.00     0.000 C 
BRANCH  18  19
ATOM     19  C   UNL     1      25.398 -14.388  -1.034  1.00  0.00     0.000 C 
BRANCH  19  20
ATOM     20  C   UNL     1      26.821 -13.800  -1.020  1.00  0.00     0.000 C 
BRANCH  20  21
ATOM     21  C   UNL     1      26.952 -12.555  -0.131  1.00  0.00     0.000 C 
BRANCH  21  22
ATOM     22  C   UNL     1      27.231 -12.953   1.326  1.00  0.00    -0.000 C 
BRANCH  22  23
ATOM     23  C   UNL     1      28.612 -13.605   1.512  1.00  0.00    -0.000 C 
BRANCH  23  24
ATOM     24  C   UNL     1      29.462 -13.019   2.659  1.00  0.00    -0.000 C 
BRANCH  24  25
ATOM     25  C   UNL     1      30.303 -11.782   2.293  1.00  0.00    -0.000 C 
BRANCH  25  26
ATOM     26  C   UNL     1      30.832 -11.824   0.850  1.00  0.00    -0.000 C 
BRANCH  26  27
ATOM     27  C   UNL     1      30.542 -10.532   0.064  1.00  0.00    -0.000 C 
BRANCH  27  28
ATOM     28  C   UNL     1      31.073 -10.513  -1.382  1.00  0.00    -0.000 C 
BRANCH  28  29
ATOM     29  C   UNL     1      30.922 -11.866  -2.093  1.00  0.00    -0.003 C 
ATOM     30  C   UNL     1      30.775 -11.679  -3.601  1.00  0.00     0.004 C 
ENDBRANCH  28  29
ENDBRANCH  27  28
ENDBRANCH  26  27
ENDBRANCH  25  26
ENDBRANCH  24  25
ENDBRANCH  23  24
ENDBRANCH  22  23
ENDBRANCH  21  22
ENDBRANCH  20  21
ENDBRANCH  19  20
ENDBRANCH  18  19
ENDBRANCH  17  18
ENDBRANCH   1  17
TORSDOF 26
ENDMDL
MODEL 3
REMARK VINA RESULT:    -0.770      2.633      6.110
REMARK INTER + INTRA:          -4.724
REMARK INTER:                  -3.288
REMARK INTRA:                  -1.435
REMARK UNBOUND:                -2.783
REMARK SMILES CCCCCCCCCCCCCCCCCCCCCCCCCCCC(=O)[O-]
REMARK SMILES IDX 15 1 16 2 17 3 18 4 19 5 20 6 21 7 22 8 23 9 24 10 25 11
REMARK SMILES IDX 26 12 27 13 28 14 29 15 30 16 14 17 13 18 12 19 11 20 10 21
REMARK SMILES IDX 9 22 8 23 7 24 6 25 5 26 4 27 3 28 2 29 1 30
REMARK H PARENT
REMARK Flexibility Score: inf
ROOT
ATOM      1  C   UNL     1      25.644 -15.852  -3.388  1.00  0.00     0.000 C 
ENDROOT
BRANCH   1   2
ATOM      2  C   UNL     1      27.029 -16.457  -3.091  1.00  0.00     0.000 C 
BRANCH   2   3
ATOM      3  C   UNL     1      28.157 -15.410  -3.155  1.00  0.00     0.000 C 
BRANCH   3   4
ATOM      4  C   UNL     1      29.361 -15.830  -4.019  1.00  0.00     0.000 C 
BRANCH   4   5
ATOM      5  C   UNL     1      30.430 -14.727  -4.125  1.00  0.00     0.000 C 
BRANCH   5   6
ATOM      6  C   UNL     1      29.843 -13.322  -3.866  1.00  0.00     0.000 C 
BRANCH   6   7
ATOM      7  C   UNL     1      30.776 -12.389  -3.075  1.00  0.00     0.000 C 
BRANCH   7   8
ATOM      8  C   UNL     1      30.352 -12.226  -1.606  1.00  0.00     0.000 C 
BRANCH   8   9
ATOM      9  C   UNL     1      31.124 -11.112  -0.875  1.00  0.00     0.000 C 
BRANCH   9  10
ATOM     10  C   UNL     1      30.779  -9.676  -1.317  1.00  0.00     0.000 C 
BRANCH  10  11
ATOM     11  C   UNL     1      30.861  -8.656  -0.168  1.00  0.00     0.000 C 
BRANCH  11  12
ATOM     12  C   UNL     1      30.953  -9.327   1.216  1.00  0.00     0.006 C 
BRANCH  12  13
ATOM     13  C   UNL     1      29.919 -10.441   1.448  1.00  0.00     0.053 C 
BRANCH  13  14
ATOM     14  C   UNL     1      30.196 -11.229   2.693  1.00  0.00     0.041 C 
ATOM     15  O   UNL     1      30.650 -12.401   2.618  1.00  0.00    -0.550 OA
ATOM     16  O   UNL     1      29.949 -10.666   3.941  1.00  0.00    -0.550 OA
ENDBRANCH  13  14
ENDBRANCH  12  13
ENDBRANCH  11  12
ENDBRANCH  10  11
ENDBRANCH   9  10
ENDBRANCH   8   9
ENDBRANCH   7   8
ENDBRANCH   6   7
ENDBRANCH   5   6
ENDBRANCH   4   5
ENDBRANCH   3   4
ENDBRANCH   2   3
ENDBRANCH   1   2
BRANCH   1  17
ATOM     17  C   UNL     1      24.495 -16.831  -3.094  1.00  0.00     0.000 C 
BRANCH  17  18
ATOM     18  C   UNL     1      23.109 -16.175  -3.228  1.00  0.00     0.000 C 
BRANCH  18  19
ATOM     19  C   UNL     1      22.562 -15.650  -1.887  1.00  0.00     0.000 C 
BRANCH  19  20
ATOM     20  C   UNL     1      23.041 -14.241  -1.490  1.00  0.00     0.000 C 
BRANCH  20  21
ATOM     21  C   UNL     1      24.540 -14.184  -1.162  1.00  0.00     0.000 C 
BRANCH  21  22
ATOM     22  C   UNL     1      24.904 -12.846  -0.502  1.00  0.00    -0.000 C 
BRANCH  22  23
ATOM     23  C   UNL     1      26.391 -12.756  -0.116  1.00  0.00    -0.000 C 
BRANCH  23  24
ATOM     24  C   UNL     1      27.152 -14.098  -0.131  1.00  0.00    -0.000 C 
BRANCH  24  25
ATOM     25  C   UNL     1      28.119 -14.322   1.045  1.00  0.00    -0.000 C 
BRANCH  25  26
ATOM     26  C   UNL     1      29.520 -14.766   0.593  1.00  0.00    -0.000 C 
BRANCH  26  27
ATOM     27  C   UNL     1      29.619 -16.282   0.338  1.00  0.00    -0.000 C 
BRANCH  27  28
ATOM     28  C   UNL     1      30.291 -16.680  -0.989  1.00  0.00    -0.000 C 
BRANCH  28  29
ATOM     29  C   UNL     1      30.079 -18.158  -1.348  1.00  0.00    -0.003 C 
ATOM     30  C   UNL     1      31.102 -19.046  -0.645  1.00  0.00     0.004 C 
ENDBRANCH  28  29
ENDBRANCH  27  28
ENDBRANCH  26  27
ENDBRANCH  25  26
ENDBRANCH  24  25
ENDBRANCH  23  24
ENDBRANCH  22  23
ENDBRANCH  21  22
ENDBRANCH  20  21
ENDBRANCH  19  20
ENDBRANCH  18  19
ENDBRANCH  17  18
ENDBRANCH   1  17
TORSDOF 26
ENDMDL
MODEL 4
REMARK VINA RESULT:    -0.706      1.414      3.602
REMARK INTER + INTRA:          -4.561
REMARK INTER:                  -2.189
REMARK INTRA:                  -2.373
REMARK UNBOUND:                -2.783
REMARK SMILES CCCCCCCCCCCCCCCCCCCCCCCCCCCC(=O)[O-]
REMARK SMILES IDX 15 1 16 2 17 3 18 4 19 5 20 6 21 7 22 8 23 9 24 10 25 11
REMARK SMILES IDX 26 12 27 13 28 14 29 15 30 16 14 17 13 18 12 19 11 20 10 21
REMARK SMILES IDX 9 22 8 23 7 24 6 25 5 26 4 27 3 28 2 29 1 30
REMARK H PARENT
REMARK Flexibility Score: inf
ROOT
ATOM      1  C   UNL     1      22.905 -14.030  -1.921  1.00  0.00     0.000 C 
ENDROOT
BRANCH   1   2
ATOM      2  C   UNL     1      24.016 -13.024  -1.567  1.00  0.00     0.000 C 
BRANCH   2   3
ATOM      3  C   UNL     1      25.163 -13.670  -0.767  1.00  0.00     0.000 C 
BRANCH   3   4
ATOM      4  C   UNL     1      26.422 -12.790  -0.643  1.00  0.00     0.000 C 
BRANCH   4   5
ATOM      5  C   UNL     1      27.622 -13.550  -0.051  1.00  0.00     0.000 C 
BRANCH   5   6
ATOM      6  C   UNL     1      28.157 -12.881   1.235  1.00  0.00     0.000 C 
BRANCH   6   7
ATOM      7  C   UNL     1      28.906 -13.841   2.176  1.00  0.00     0.000 C 
BRANCH   7   8
ATOM      8  C   UNL     1      30.434 -13.754   2.025  1.00  0.00     0.000 C 
BRANCH   8   9
ATOM      9  C   UNL     1      30.962 -14.504   0.788  1.00  0.00     0.000 C 
BRANCH   9  10
ATOM     10  C   UNL     1      30.248 -15.833   0.472  1.00  0.00     0.000 C 
BRANCH  10  11
ATOM     11  C   UNL     1      30.758 -17.008   1.325  1.00  0.00     0.000 C 
BRANCH  11  12
ATOM     12  C   UNL     1      31.124 -18.241   0.477  1.00  0.00     0.006 C 
BRANCH  12  13
ATOM     13  C   UNL     1      31.097 -17.995  -1.041  1.00  0.00     0.053 C 
BRANCH  13  14
ATOM     14  C   UNL     1      30.481 -19.135  -1.795  1.00  0.00     0.041 C 
ATOM     15  O   UNL     1      31.078 -19.645  -2.779  1.00  0.00    -0.550 OA
ATOM     16  O   UNL     1      29.242 -19.634  -1.409  1.00  0.00    -0.550 OA
ENDBRANCH  13  14
ENDBRANCH  12  13
ENDBRANCH  11  12
ENDBRANCH  10  11
ENDBRANCH   9  10
ENDBRANCH   8   9
ENDBRANCH   7   8
ENDBRANCH   6   7
ENDBRANCH   5   6
ENDBRANCH   4   5
ENDBRANCH   3   4
ENDBRANCH   2   3
ENDBRANCH   1   2
BRANCH   1  17
ATOM     17  C   UNL     1      23.119 -15.403  -1.263  1.00  0.00     0.000 C 
BRANCH  17  18
ATOM     18  C   UNL     1      22.971 -16.568  -2.258  1.00  0.00     0.000 C 
BRANCH  18  19
ATOM     19  C   UNL     1      23.483 -16.220  -3.669  1.00  0.00     0.000 C 
BRANCH  19  20
ATOM     20  C   UNL     1      25.015 -16.193  -3.822  1.00  0.00     0.000 C 
BRANCH  20  21
ATOM     21  C   UNL     1      25.579 -14.776  -4.003  1.00  0.00     0.000 C 
BRANCH  21  22
ATOM     22  C   UNL     1      27.036 -14.703  -3.524  1.00  0.00    -0.000 C 
BRANCH  22  23
ATOM     23  C   UNL     1      27.407 -15.851  -2.568  1.00  0.00    -0.000 C 
BRANCH  23  24
ATOM     24  C   UNL     1      28.413 -16.874  -3.136  1.00  0.00    -0.000 C 
BRANCH  24  25
ATOM     25  C   UNL     1      29.537 -16.283  -4.007  1.00  0.00    -0.000 C 
BRANCH  25  26
ATOM     26  C   UNL     1      29.647 -14.754  -3.886  1.00  0.00    -0.000 C 
BRANCH  26  27
ATOM     27  C   UNL     1      30.967 -14.294  -3.242  1.00  0.00    -0.000 C 
BRANCH  27  28
ATOM     28  C   UNL     1      30.817 -13.265  -2.105  1.00  0.00    -0.000 C 
BRANCH  28  29
ATOM     29  C   UNL     1      31.113 -11.827  -2.556  1.00  0.00    -0.003 C 
ATOM     30  C   UNL     1      30.831 -10.832  -1.434  1.00  0.00     0.004 C 
ENDBRANCH  28  29
ENDBRANCH  27  28
ENDBRANCH  26  27
ENDBRANCH  25  26
ENDBRANCH  24  25
ENDBRANCH  23  24
ENDBRANCH  22  23
ENDBRANCH  21  22
ENDBRANCH  20  21
ENDBRANCH  19  20
ENDBRANCH  18  19
ENDBRANCH  17  18
ENDBRANCH   1  17
TORSDOF 26
ENDMDL
MODEL 5
REMARK VINA RESULT:    -0.159      1.374      3.546
REMARK INTER + INTRA:          -3.184
REMARK INTER:                  -4.010
REMARK INTRA:                   0.826
REMARK UNBOUND:                -2.783
REMARK SMILES CCCCCCCCCCCCCCCCCCCCCCCCCCCC(=O)[O-]
REMARK SMILES IDX 15 1 16 2 17 3 18 4 19 5 20 6 21 7 22 8 23 9 24 10 25 11
REMARK SMILES IDX 26 12 27 13 28 14 29 15 30 16 14 17 13 18 12 19 11 20 10 21
REMARK SMILES IDX 9 22 8 23 7 24 6 25 5 26 4 27 3 28 2 29 1 30
REMARK H PARENT
REMARK Flexibility Score: inf
ROOT
ATOM      1  C   UNL     1      24.247 -13.415  -0.626  1.00  0.00     0.000 C 
ENDROOT
BRANCH   1   2
ATOM      2  C   UNL     1      23.667 -14.710  -1.225  1.00  0.00     0.000 C 
BRANCH   2   3
ATOM      3  C   UNL     1      23.171 -14.519  -2.671  1.00  0.00     0.000 C 
BRANCH   3   4
ATOM      4  C   UNL     1      23.471 -15.708  -3.605  1.00  0.00     0.000 C 
BRANCH   4   5
ATOM      5  C   UNL     1      24.921 -15.706  -4.121  1.00  0.00     0.000 C 
BRANCH   5   6
ATOM      6  C   UNL     1      25.762 -16.842  -3.497  1.00  0.00     0.000 C 
BRANCH   6   7
ATOM      7  C   UNL     1      27.277 -16.697  -3.724  1.00  0.00     0.000 C 
BRANCH   7   8
ATOM      8  C   UNL     1      27.845 -15.389  -3.152  1.00  0.00     0.000 C 
BRANCH   8   9
ATOM      9  C   UNL     1      29.322 -15.157  -3.523  1.00  0.00     0.000 C 
BRANCH   9  10
ATOM     10  C   UNL     1      30.060 -16.393  -4.074  1.00  0.00     0.000 C 
BRANCH  10  11
ATOM     11  C   UNL     1      29.937 -17.626  -3.162  1.00  0.00     0.000 C 
BRANCH  11  12
ATOM     12  C   UNL     1      31.094 -17.732  -2.150  1.00  0.00     0.006 C 
BRANCH  12  13
ATOM     13  C   UNL     1      31.041 -16.692  -1.018  1.00  0.00     0.053 C 
BRANCH  13  14
ATOM     14  C   UNL     1      30.971 -17.327   0.339  1.00  0.00     0.041 C 
ATOM     15  O   UNL     1      31.124 -16.630   1.377  1.00  0.00    -0.550 OA
ATOM     16  O   UNL     1      30.739 -18.693   0.456  1.00  0.00    -0.550 OA
ENDBRANCH  13  14
ENDBRANCH  12  13
ENDBRANCH  11  12
ENDBRANCH  10  11
ENDBRANCH   9  10
ENDBRANCH   8   9
ENDBRANCH   7   8
ENDBRANCH   6   7
ENDBRANCH   5   6
ENDBRANCH   4   5
ENDBRANCH   3   4
ENDBRANCH   2   3
ENDBRANCH   1   2
BRANCH   1  17
ATOM     17  C   UNL     1      25.406 -12.844  -1.460  1.00  0.00     0.000 C 
BRANCH  17  18
ATOM     18  C   UNL     1      26.739 -13.568  -1.196  1.00  0.00     0.000 C 
BRANCH  18  19
ATOM     19  C   UNL     1      27.212 -13.440   0.265  1.00  0.00     0.000 C 
BRANCH  19  20
ATOM     20  C   UNL     1      28.251 -14.485   0.711  1.00  0.00     0.000 C 
BRANCH  20  21
ATOM     21  C   UNL     1      29.667 -14.186   0.197  1.00  0.00     0.000 C 
BRANCH  21  22
ATOM     22  C   UNL     1      29.810 -12.703  -0.176  1.00  0.00    -0.000 C 
BRANCH  22  23
ATOM     23  C   UNL     1      30.133 -12.492  -1.666  1.00  0.00    -0.000 C 
BRANCH  23  24
ATOM     24  C   UNL     1      30.887 -11.185  -1.992  1.00  0.00    -0.000 C 
BRANCH  24  25
ATOM     25  C   UNL     1      30.425  -9.943  -1.209  1.00  0.00    -0.000 C 
BRANCH  25  26
ATOM     26  C   UNL     1      31.124  -9.797   0.152  1.00  0.00    -0.000 C 
BRANCH  26  27
ATOM     27  C   UNL     1      30.622 -10.807   1.200  1.00  0.00    -0.000 C 
BRANCH  27  28
ATOM     28  C   UNL     1      30.855 -10.399   2.666  1.00  0.00    -0.000 C 
BRANCH  28  29
ATOM     29  C   UNL     1      30.209 -11.368   3.667  1.00  0.00    -0.003 C 
ATOM     30  C   UNL     1      29.271 -12.343   2.961  1.00  0.00     0.004 C 
ENDBRANCH  28  29
ENDBRANCH  27  28
ENDBRANCH  26  27
ENDBRANCH  25  26
ENDBRANCH  24  25
ENDBRANCH  23  24
ENDBRANCH  22  23
ENDBRANCH  21  22
ENDBRANCH  20  21
ENDBRANCH  19  20
ENDBRANCH  18  19
ENDBRANCH  17  18
ENDBRANCH   1  17
TORSDOF 26
ENDMDL
MODEL 6
REMARK VINA RESULT:     0.033      2.902      6.374
REMARK INTER + INTRA:          -2.699
REMARK INTER:                  -2.871
REMARK INTRA:                   0.172
REMARK UNBOUND:                -2.783
REMARK SMILES CCCCCCCCCCCCCCCCCCCCCCCCCCCC(=O)[O-]
REMARK SMILES IDX 15 1 16 2 17 3 18 4 19 5 20 6 21 7 22 8 23 9 24 10 25 11
REMARK SMILES IDX 26 12 27 13 28 14 29 15 30 16 14 17 13 18 12 19 11 20 10 21
REMARK SMILES IDX 9 22 8 23 7 24 6 25 5 26 4 27 3 28 2 29 1 30
REMARK H PARENT
REMARK Flexibility Score: inf
ROOT
ATOM      1  C   UNL     1      30.780 -14.531  -0.013  1.00  0.00     0.000 C 
ENDROOT
BRANCH   1   2
ATOM      2  C   UNL     1      30.064 -15.861   0.288  1.00  0.00     0.000 C 
BRANCH   2   3
ATOM      3  C   UNL     1      30.909 -17.088  -0.105  1.00  0.00     0.000 C 
BRANCH   3   4
ATOM      4  C   UNL     1      30.137 -18.160  -0.897  1.00  0.00     0.000 C 
BRANCH   4   5
ATOM      5  C   UNL     1      30.366 -18.057  -2.416  1.00  0.00     0.000 C 
BRANCH   5   6
ATOM      6  C   UNL     1      29.819 -16.735  -2.998  1.00  0.00     0.000 C 
BRANCH   6   7
ATOM      7  C   UNL     1      28.379 -16.834  -3.532  1.00  0.00     0.000 C 
BRANCH   7   8
ATOM      8  C   UNL     1      27.487 -17.751  -2.679  1.00  0.00     0.000 C 
BRANCH   8   9
ATOM      9  C   UNL     1      26.010 -17.730  -3.113  1.00  0.00     0.000 C 
BRANCH   9  10
ATOM     10  C   UNL     1      25.496 -16.369  -3.624  1.00  0.00     0.000 C 
BRANCH  10  11
ATOM     11  C   UNL     1      23.965 -16.323  -3.778  1.00  0.00     0.000 C 
BRANCH  11  12
ATOM     12  C   UNL     1      23.256 -15.835  -2.500  1.00  0.00     0.006 C 
BRANCH  12  13
ATOM     13  C   UNL     1      23.865 -14.564  -1.884  1.00  0.00     0.053 C 
BRANCH  13  14
ATOM     14  C   UNL     1      23.758 -13.379  -2.795  1.00  0.00     0.041 C 
ATOM     15  O   UNL     1      24.200 -12.256  -2.434  1.00  0.00    -0.550 OA
ATOM     16  O   UNL     1      23.166 -13.514  -4.046  1.00  0.00    -0.550 OA
ENDBRANCH  13  14
ENDBRANCH  12  13
ENDBRANCH  11  12
ENDBRANCH  10  11
ENDBRANCH   9  10
ENDBRANCH   8   9
ENDBRANCH   7   8
ENDBRANCH   6   7
ENDBRANCH   5   6
ENDBRANCH   4   5
ENDBRANCH   3   4
ENDBRANCH   2   3
ENDBRANCH   1   2
BRANCH   1  17
ATOM     17  C   UNL     1      30.563 -14.056  -1.460  1.00  0.00     0.000 C 
BRANCH  17  18
ATOM     18  C   UNL     1      29.286 -13.212  -1.621  1.00  0.00     0.000 C 
BRANCH  18  19
ATOM     19  C   UNL     1      28.036 -14.064  -1.916  1.00  0.00     0.000 C 
BRANCH  19  20
ATOM     20  C   UNL     1      27.211 -14.465  -0.680  1.00  0.00     0.000 C 
BRANCH  20  21
ATOM     21  C   UNL     1      27.135 -13.358   0.381  1.00  0.00     0.000 C 
BRANCH  21  22
ATOM     22  C   UNL     1      28.516 -12.725   0.609  1.00  0.00    -0.000 C 
BRANCH  22  23
ATOM     23  C   UNL     1      28.838 -12.519   2.100  1.00  0.00    -0.000 C 
BRANCH  23  24
ATOM     24  C   UNL     1      29.834 -11.379   2.401  1.00  0.00    -0.000 C 
BRANCH  24  25
ATOM     25  C   UNL     1      31.125 -11.391   1.563  1.00  0.00    -0.000 C 
BRANCH  25  26
ATOM     26  C   UNL     1      30.989 -10.615   0.242  1.00  0.00    -0.000 C 
BRANCH  26  27
ATOM     27  C   UNL     1      30.831  -9.097   0.449  1.00  0.00    -0.000 C 
BRANCH  27  28
ATOM     28  C   UNL     1      30.772  -8.264  -0.845  1.00  0.00    -0.000 C 
BRANCH  28  29
ATOM     29  C   UNL     1      31.106  -9.082  -2.101  1.00  0.00    -0.003 C 
ATOM     30  C   UNL     1      30.916  -8.249  -3.365  1.00  0.00     0.004 C 
ENDBRANCH  28  29
ENDBRANCH  27  28
ENDBRANCH  26  27
ENDBRANCH  25  26
ENDBRANCH  24  25
ENDBRANCH  23  24
ENDBRANCH  22  23
ENDBRANCH  21  22
ENDBRANCH  20  21
ENDBRANCH  19  20
ENDBRANCH  18  19
ENDBRANCH  17  18
ENDBRANCH   1  17
TORSDOF 26
ENDMDL
MODEL 7
REMARK VINA RESULT:     0.262      1.723      4.389
REMARK INTER + INTRA:          -2.122
REMARK INTER:                  -2.594
REMARK INTRA:                   0.472
REMARK UNBOUND:                -2.783
REMARK SMILES CCCCCCCCCCCCCCCCCCCCCCCCCCCC(=O)[O-]
REMARK SMILES IDX 15 1 16 2 17 3 18 4 19 5 20 6 21 7 22 8 23 9 24 10 25 11
REMARK SMILES IDX 26 12 27 13 28 14 29 15 30 16 14 17 13 18 12 19 11 20 10 21
REMARK SMILES IDX 9 22 8 23 7 24 6 25 5 26 4 27 3 28 2 29 1 30
REMARK H PARENT
REMARK Flexibility Score: inf
ROOT
ATOM      1  C   UNL     1      24.114 -16.004  -3.457  1.00  0.00     0.000 C 
ENDROOT
BRANCH   1   2
ATOM      2  C   UNL     1      25.139 -17.037  -3.962  1.00  0.00     0.000 C 
BRANCH   2   3
ATOM      3  C   UNL     1      26.551 -16.792  -3.397  1.00  0.00     0.000 C 
BRANCH   3   4
ATOM      4  C   UNL     1      27.012 -15.323  -3.462  1.00  0.00     0.000 C 
BRANCH   4   5
ATOM      5  C   UNL     1      28.019 -14.967  -2.353  1.00  0.00     0.000 C 
BRANCH   5   6
ATOM      6  C   UNL     1      29.390 -14.547  -2.925  1.00  0.00     0.000 C 
BRANCH   6   7
ATOM      7  C   UNL     1      29.856 -15.391  -4.124  1.00  0.00     0.000 C 
BRANCH   7   8
ATOM      8  C   UNL     1      29.722 -16.903  -3.877  1.00  0.00     0.000 C 
BRANCH   8   9
ATOM      9  C   UNL     1      31.077 -17.601  -3.656  1.00  0.00     0.000 C 
BRANCH   9  10
ATOM     10  C   UNL     1      31.124 -18.576  -2.462  1.00  0.00     0.000 C 
BRANCH  10  11
ATOM     11  C   UNL     1      29.829 -18.575  -1.632  1.00  0.00     0.000 C 
BRANCH  11  12
ATOM     12  C   UNL     1      30.097 -18.604  -0.115  1.00  0.00     0.006 C 
BRANCH  12  13
ATOM     13  C   UNL     1      31.077 -17.524   0.374  1.00  0.00     0.053 C 
BRANCH  13  14
ATOM     14  C   UNL     1      30.392 -16.225   0.678  1.00  0.00     0.041 C 
ATOM     15  O   UNL     1      30.926 -15.132   0.351  1.00  0.00    -0.550 OA
ATOM     16  O   UNL     1      29.162 -16.223   1.326  1.00  0.00    -0.550 OA
ENDBRANCH  13  14
ENDBRANCH  12  13
ENDBRANCH  11  12
ENDBRANCH  10  11
ENDBRANCH   9  10
ENDBRANCH   8   9
ENDBRANCH   7   8
ENDBRANCH   6   7
ENDBRANCH   5   6
ENDBRANCH   4   5
ENDBRANCH   3   4
ENDBRANCH   2   3
ENDBRANCH   1   2
BRANCH   1  17
ATOM     17  C   UNL     1      22.888 -16.660  -2.799  1.00  0.00     0.000 C 
BRANCH  17  18
ATOM     18  C   UNL     1      22.539 -16.032  -1.439  1.00  0.00     0.000 C 
BRANCH  18  19
ATOM     19  C   UNL     1      22.466 -14.493  -1.488  1.00  0.00     0.000 C 
BRANCH  19  20
ATOM     20  C   UNL     1      23.427 -13.824  -2.488  1.00  0.00     0.000 C 
BRANCH  20  21
ATOM     21  C   UNL     1      24.517 -12.984  -1.807  1.00  0.00     0.000 C 
BRANCH  21  22
ATOM     22  C   UNL     1      25.483 -13.880  -1.017  1.00  0.00    -0.000 C 
BRANCH  22  23
ATOM     23  C   UNL     1      25.818 -13.313   0.374  1.00  0.00    -0.000 C 
BRANCH  23  24
ATOM     24  C   UNL     1      27.174 -13.767   0.955  1.00  0.00    -0.000 C 
BRANCH  24  25
ATOM     25  C   UNL     1      28.106 -12.634   1.420  1.00  0.00    -0.000 C 
BRANCH  25  26
ATOM     26  C   UNL     1      29.386 -13.151   2.096  1.00  0.00    -0.000 C 
BRANCH  26  27
ATOM     27  C   UNL     1      30.307 -12.020   2.589  1.00  0.00    -0.000 C 
BRANCH  27  28
ATOM     28  C   UNL     1      30.803 -11.057   1.494  1.00  0.00    -0.000 C 
BRANCH  28  29
ATOM     29  C   UNL     1      29.954 -11.115   0.216  1.00  0.00    -0.003 C 
ATOM     30  C   UNL     1      30.834 -11.293  -1.019  1.00  0.00     0.004 C 
ENDBRANCH  28  29
ENDBRANCH  27  28
ENDBRANCH  26  27
ENDBRANCH  25  26
ENDBRANCH  24  25
ENDBRANCH  23  24
ENDBRANCH  22  23
ENDBRANCH  21  22
ENDBRANCH  20  21
ENDBRANCH  19  20
ENDBRANCH  18  19
ENDBRANCH  17  18
ENDBRANCH   1  17
TORSDOF 26
ENDMDL
