MODEL 1
REMARK VINA RESULT:    -1.633      0.000      0.000
REMARK INTER + INTRA:          -1.859
REMARK INTER:                  -2.493
REMARK INTRA:                   0.634
REMARK UNBOUND:                 0.634
REMARK SMILES CC(=O)CCC=C(C)CCC=C(C)CCC=C(C)C
REMARK SMILES IDX 10 1 11 2 12 3 13 4 14 5 15 6 16 7 18 8 17 9 19 10 9 11 7 12
REMARK SMILES IDX 6 13 8 14 5 15 4 16 2 17 3 18 1 19
REMARK H PARENT
REMARK Flexibility Score: inf
ROOT
ATOM      1  C   UNL     1       5.853  33.803 -24.095  1.00  0.00     0.032 C 
ENDROOT
BRANCH   1   2
ATOM      2  C   UNL     1       6.366  32.838 -25.138  1.00  0.00    -0.028 C 
ATOM      3  C   UNL     1       7.232  31.826 -24.902  1.00  0.00    -0.077 C 
ATOM      4  C   UNL     1       7.753  31.522 -23.518  1.00  0.00     0.039 C 
BRANCH   3   5
ATOM      5  C   UNL     1       7.680  30.960 -26.059  1.00  0.00     0.034 C 
BRANCH   5   6
ATOM      6  C   UNL     1       8.471  29.737 -25.579  1.00  0.00     0.032 C 
BRANCH   6   7
ATOM      7  C   UNL     1       9.881  29.754 -26.123  1.00  0.00    -0.028 C 
ATOM      8  C   UNL     1      10.915  30.448 -23.948  1.00  0.00     0.039 C 
ATOM      9  C   UNL     1      10.980  30.097 -25.415  1.00  0.00    -0.080 C 
ATOM     10  C   UNL     1      12.309  30.126 -26.124  1.00  0.00     0.039 C 
ENDBRANCH   6   7
ENDBRANCH   5   6
ENDBRANCH   3   5
ENDBRANCH   1   2
BRANCH   1  11
ATOM     11  C   UNL     1       4.694  34.644 -24.645  1.00  0.00     0.034 C 
BRANCH  11  12
ATOM     12  C   UNL     1       3.739  33.814 -25.483  1.00  0.00    -0.077 C 
ATOM     13  C   UNL     1       2.572  34.293 -25.976  1.00  0.00    -0.028 C 
ATOM     14  C   UNL     1       4.102  32.382 -25.789  1.00  0.00     0.039 C 
BRANCH  13  15
ATOM     15  C   UNL     1       2.037  35.697 -25.783  1.00  0.00     0.035 C 
BRANCH  15  16
ATOM     16  C   UNL     1       1.160  35.801 -24.527  1.00  0.00     0.079 C 
BRANCH  16  17
ATOM     17  C   UNL     1       1.570  36.949 -23.642  1.00  0.00     0.130 C 
ATOM     18  O   UNL     1       1.224  38.086 -23.928  1.00  0.00    -0.300 OA
ATOM     19  C   UNL     1       2.369  36.716 -22.395  1.00  0.00     0.087 C 
ENDBRANCH  16  17
ENDBRANCH  15  16
ENDBRANCH  13  15
ENDBRANCH  11  12
ENDBRANCH   1  11
TORSDOF 9
ENDMDL
MODEL 2
REMARK VINA RESULT:    -1.481      3.630      9.051
REMARK INTER + INTRA:          -1.626
REMARK INTER:                  -1.014
REMARK INTRA:                  -0.613
REMARK UNBOUND:                 0.634
REMARK SMILES CC(=O)CCC=C(C)CCC=C(C)CCC=C(C)C
REMARK SMILES IDX 10 1 11 2 12 3 13 4 14 5 15 6 16 7 18 8 17 9 19 10 9 11 7 12
REMARK SMILES IDX 6 13 8 14 5 15 4 16 2 17 3 18 1 19
REMARK H PARENT
REMARK Flexibility Score: inf
ROOT
ATOM      1  C   UNL     1       7.179  31.144 -25.328  1.00  0.00     0.032 C 
ENDROOT
BRANCH   1   2
ATOM      2  C   UNL     1       6.507  32.490 -25.176  1.00  0.00    -0.028 C 
ATOM      3  C   UNL     1       5.236  32.769 -25.541  1.00  0.00    -0.077 C 
ATOM      4  C   UNL     1       4.315  31.718 -26.112  1.00  0.00     0.039 C 
BRANCH   3   5
ATOM      5  C   UNL     1       4.712  34.177 -25.355  1.00  0.00     0.034 C 
BRANCH   5   6
ATOM      6  C   UNL     1       3.496  34.211 -24.421  1.00  0.00     0.032 C 
BRANCH   6   7
ATOM      7  C   UNL     1       2.482  35.231 -24.887  1.00  0.00    -0.028 C 
ATOM      8  C   UNL     1       2.312  36.361 -22.657  1.00  0.00     0.039 C 
ATOM      9  C   UNL     1       1.922  36.179 -24.104  1.00  0.00    -0.080 C 
ATOM     10  C   UNL     1       0.875  37.080 -24.708  1.00  0.00     0.039 C 
ENDBRANCH   6   7
ENDBRANCH   5   6
ENDBRANCH   3   5
ENDBRANCH   1   2
BRANCH   1  11
ATOM     11  C   UNL     1       8.289  30.962 -24.285  1.00  0.00     0.034 C 
BRANCH  11  12
ATOM     12  C   UNL     1       9.508  30.272 -24.868  1.00  0.00    -0.077 C 
ATOM     13  C   UNL     1      10.749  30.380 -24.338  1.00  0.00    -0.028 C 
ATOM     14  C   UNL     1       9.335  29.418 -26.099  1.00  0.00     0.039 C 
BRANCH  13  15
ATOM     15  C   UNL     1      11.122  31.182 -23.109  1.00  0.00     0.035 C 
BRANCH  15  16
ATOM     16  C   UNL     1      12.510  30.794 -22.578  1.00  0.00     0.079 C 
BRANCH  16  17
ATOM     17  C   UNL     1      12.836  31.488 -21.282  1.00  0.00     0.130 C 
ATOM     18  O   UNL     1      12.865  30.845 -20.243  1.00  0.00    -0.300 OA
ATOM     19  C   UNL     1      13.160  32.951 -21.249  1.00  0.00     0.087 C 
ENDBRANCH  16  17
ENDBRANCH  15  16
ENDBRANCH  13  15
ENDBRANCH  11  12
ENDBRANCH   1  11
TORSDOF 9
ENDMDL
MODEL 3
REMARK VINA RESULT:    -0.089      7.388      9.657
REMARK INTER + INTRA:           0.498
REMARK INTER:                   1.163
REMARK INTRA:                  -0.665
REMARK UNBOUND:                 0.634
REMARK SMILES CC(=O)CCC=C(C)CCC=C(C)CCC=C(C)C
REMARK SMILES IDX 10 1 11 2 12 3 13 4 14 5 15 6 16 7 18 8 17 9 19 10 9 11 7 12
REMARK SMILES IDX 6 13 8 14 5 15 4 16 2 17 3 18 1 19
REMARK H PARENT
REMARK Flexibility Score: inf
ROOT
ATOM      1  C   UNL     1      12.379  34.997 -20.525  1.00  0.00     0.032 C 
ENDROOT
BRANCH   1   2
ATOM      2  C   UNL     1      11.077  34.252 -20.704  1.00  0.00    -0.028 C 
ATOM      3  C   UNL     1      10.969  32.948 -21.046  1.00  0.00    -0.077 C 
ATOM      4  C   UNL     1      12.179  32.067 -21.245  1.00  0.00     0.039 C 
BRANCH   3   5
ATOM      5  C   UNL     1       9.591  32.347 -21.220  1.00  0.00     0.034 C 
BRANCH   5   6
ATOM      6  C   UNL     1       9.465  31.591 -22.548  1.00  0.00     0.032 C 
BRANCH   6   7
ATOM      7  C   UNL     1       8.165  31.926 -23.243  1.00  0.00    -0.028 C 
ATOM      8  C   UNL     1       8.578  30.380 -25.172  1.00  0.00     0.039 C 
ATOM      9  C   UNL     1       7.767  31.415 -24.430  1.00  0.00    -0.080 C 
ATOM     10  C   UNL     1       6.470  31.902 -25.021  1.00  0.00     0.039 C 
ENDBRANCH   6   7
ENDBRANCH   5   6
ENDBRANCH   3   5
ENDBRANCH   1   2
BRANCH   1  11
ATOM     11  C   UNL     1      12.289  35.988 -19.357  1.00  0.00     0.034 C 
BRANCH  11  12
ATOM     12  C   UNL     1      13.617  36.139 -18.637  1.00  0.00    -0.077 C 
ATOM     13  C   UNL     1      13.721  36.503 -17.337  1.00  0.00    -0.028 C 
ATOM     14  C   UNL     1      14.888  35.870 -19.402  1.00  0.00     0.039 C 
BRANCH  13  15
ATOM     15  C   UNL     1      12.567  36.810 -16.406  1.00  0.00     0.035 C 
BRANCH  15  16
ATOM     16  C   UNL     1      12.778  38.136 -15.661  1.00  0.00     0.079 C 
BRANCH  16  17
ATOM     17  C   UNL     1      12.073  39.283 -16.335  1.00  0.00     0.130 C 
ATOM     18  O   UNL     1      12.085  39.368 -17.554  1.00  0.00    -0.300 OA
ATOM     19  C   UNL     1      11.327  40.309 -15.535  1.00  0.00     0.087 C 
ENDBRANCH  16  17
ENDBRANCH  15  16
ENDBRANCH  13  15
ENDBRANCH  11  12
ENDBRANCH   1  11
TORSDOF 9
ENDMDL
MODEL 4
REMARK VINA RESULT:     0.010      7.411      9.657
REMARK INTER + INTRA:           0.650
REMARK INTER:                   1.454
REMARK INTRA:                  -0.804
REMARK UNBOUND:                 0.634
REMARK SMILES CC(=O)CCC=C(C)CCC=C(C)CCC=C(C)C
REMARK SMILES IDX 10 1 11 2 12 3 13 4 14 5 15 6 16 7 18 8 17 9 19 10 9 11 7 12
REMARK SMILES IDX 6 13 8 14 5 15 4 16 2 17 3 18 1 19
REMARK H PARENT
REMARK Flexibility Score: inf
ROOT
ATOM      1  C   UNL     1      12.293  35.350 -20.694  1.00  0.00     0.032 C 
ENDROOT
BRANCH   1   2
ATOM      2  C   UNL     1      11.867  33.913 -20.886  1.00  0.00    -0.028 C 
ATOM      3  C   UNL     1      12.681  32.907 -21.276  1.00  0.00    -0.077 C 
ATOM      4  C   UNL     1      14.156  33.116 -21.523  1.00  0.00     0.039 C 
BRANCH   3   5
ATOM      5  C   UNL     1      12.100  31.521 -21.456  1.00  0.00     0.034 C 
BRANCH   5   6
ATOM      6  C   UNL     1      12.423  30.945 -22.840  1.00  0.00     0.032 C 
BRANCH   6   7
ATOM      7  C   UNL     1      11.161  30.563 -23.579  1.00  0.00    -0.028 C 
ATOM      8  C   UNL     1      12.325  30.204 -25.769  1.00  0.00     0.039 C 
ATOM      9  C   UNL     1      11.096  30.257 -24.893  1.00  0.00    -0.080 C 
ATOM     10  C   UNL     1       9.746  29.961 -25.494  1.00  0.00     0.039 C 
ENDBRANCH   6   7
ENDBRANCH   5   6
ENDBRANCH   3   5
ENDBRANCH   1   2
BRANCH   1  11
ATOM     11  C   UNL     1      12.155  35.774 -19.226  1.00  0.00     0.034 C 
BRANCH  11  12
ATOM     12  C   UNL     1      13.501  36.083 -18.596  1.00  0.00    -0.077 C 
ATOM     13  C   UNL     1      13.642  36.539 -17.330  1.00  0.00    -0.028 C 
ATOM     14  C   UNL     1      14.749  35.870 -19.417  1.00  0.00     0.039 C 
BRANCH  13  15
ATOM     15  C   UNL     1      12.516  36.810 -16.353  1.00  0.00     0.035 C 
BRANCH  15  16
ATOM     16  C   UNL     1      12.714  38.142 -15.616  1.00  0.00     0.079 C 
BRANCH  16  17
ATOM     17  C   UNL     1      12.022  39.284 -16.312  1.00  0.00     0.130 C 
ATOM     18  O   UNL     1      12.072  39.369 -17.530  1.00  0.00    -0.300 OA
ATOM     19  C   UNL     1      11.244  40.304 -15.537  1.00  0.00     0.087 C 
ENDBRANCH  16  17
ENDBRANCH  15  16
ENDBRANCH  13  15
ENDBRANCH  11  12
ENDBRANCH   1  11
TORSDOF 9
ENDMDL
MODEL 5
REMARK VINA RESULT:     0.293      7.882     11.076
REMARK INTER + INTRA:           1.081
REMARK INTER:                   1.979
REMARK INTRA:                  -0.898
REMARK UNBOUND:                 0.634
REMARK SMILES CC(=O)CCC=C(C)CCC=C(C)CCC=C(C)C
REMARK SMILES IDX 10 1 11 2 12 3 13 4 14 5 15 6 16 7 18 8 17 9 19 10 9 11 7 12
REMARK SMILES IDX 6 13 8 14 5 15 4 16 2 17 3 18 1 19
REMARK H PARENT
REMARK Flexibility Score: inf
ROOT
ATOM      1  C   UNL     1      12.136  35.186 -20.686  1.00  0.00     0.032 C 
ENDROOT
BRANCH   1   2
ATOM      2  C   UNL     1      11.778  35.674 -19.301  1.00  0.00    -0.028 C 
ATOM      3  C   UNL     1      12.665  36.097 -18.373  1.00  0.00    -0.077 C 
ATOM      4  C   UNL     1      14.148  36.169 -18.652  1.00  0.00     0.039 C 
BRANCH   3   5
ATOM      5  C   UNL     1      12.155  36.528 -17.014  1.00  0.00     0.034 C 
BRANCH   5   6
ATOM      6  C   UNL     1      13.195  37.363 -16.257  1.00  0.00     0.032 C 
BRANCH   6   7
ATOM      7  C   UNL     1      12.552  38.558 -15.591  1.00  0.00    -0.028 C 
ATOM      8  C   UNL     1      12.083  39.746 -17.748  1.00  0.00     0.039 C 
ATOM      9  C   UNL     1      12.077  39.643 -16.241  1.00  0.00    -0.080 C 
ATOM     10  C   UNL     1      11.523  40.782 -15.424  1.00  0.00     0.039 C 
ENDBRANCH   6   7
ENDBRANCH   5   6
ENDBRANCH   3   5
ENDBRANCH   1   2
BRANCH   1  11
ATOM     11  C   UNL     1      11.664  33.742 -20.899  1.00  0.00     0.034 C 
BRANCH  11  12
ATOM     12  C   UNL     1      12.788  32.842 -21.377  1.00  0.00    -0.077 C 
ATOM     13  C   UNL     1      12.585  31.730 -22.123  1.00  0.00    -0.028 C 
ATOM     14  C   UNL     1      14.206  33.199 -21.009  1.00  0.00     0.039 C 
BRANCH  13  15
ATOM     15  C   UNL     1      11.243  31.211 -22.595  1.00  0.00     0.035 C 
BRANCH  15  16
ATOM     16  C   UNL     1      11.359  30.482 -23.941  1.00  0.00     0.079 C 
BRANCH  16  17
ATOM     17  C   UNL     1      10.019  30.291 -24.601  1.00  0.00     0.130 C 
ATOM     18  O   UNL     1       9.943  29.661 -25.646  1.00  0.00    -0.300 OA
ATOM     19  C   UNL     1       8.767  30.834 -23.980  1.00  0.00     0.087 C 
ENDBRANCH  16  17
ENDBRANCH  15  16
ENDBRANCH  13  15
ENDBRANCH  11  12
ENDBRANCH   1  11
TORSDOF 9
ENDMDL
MODEL 6
REMARK VINA RESULT:     0.459      8.940     10.745
REMARK INTER + INTRA:           1.335
REMARK INTER:                   1.728
REMARK INTRA:                  -0.393
REMARK UNBOUND:                 0.634
REMARK SMILES CC(=O)CCC=C(C)CCC=C(C)CCC=C(C)C
REMARK SMILES IDX 10 1 11 2 12 3 13 4 14 5 15 6 16 7 18 8 17 9 19 10 9 11 7 12
REMARK SMILES IDX 6 13 8 14 5 15 4 16 2 17 3 18 1 19
REMARK H PARENT
REMARK Flexibility Score: inf
ROOT
ATOM      1  C   UNL     1      12.647  36.868 -18.144  1.00  0.00     0.032 C 
ENDROOT
BRANCH   1   2
ATOM      2  C   UNL     1      11.948  36.118 -19.255  1.00  0.00    -0.028 C 
ATOM      3  C   UNL     1      12.566  35.357 -20.186  1.00  0.00    -0.077 C 
ATOM      4  C   UNL     1      14.059  35.134 -20.180  1.00  0.00     0.039 C 
BRANCH   3   5
ATOM      5  C   UNL     1      11.731  34.691 -21.259  1.00  0.00     0.034 C 
BRANCH   5   6
ATOM      6  C   UNL     1      11.038  33.427 -20.736  1.00  0.00     0.032 C 
BRANCH   6   7
ATOM      7  C   UNL     1      12.049  32.407 -20.266  1.00  0.00    -0.028 C 
ATOM      8  C   UNL     1      12.203  31.256 -22.487  1.00  0.00     0.039 C 
ATOM      9  C   UNL     1      12.558  31.413 -21.027  1.00  0.00    -0.080 C 
ATOM     10  C   UNL     1      13.510  30.436 -20.388  1.00  0.00     0.039 C 
ENDBRANCH   6   7
ENDBRANCH   5   6
ENDBRANCH   3   5
ENDBRANCH   1   2
BRANCH   1  11
ATOM     11  C   UNL     1      12.129  36.423 -16.770  1.00  0.00     0.034 C 
BRANCH  11  12
ATOM     12  C   UNL     1      13.062  36.843 -15.649  1.00  0.00    -0.077 C 
ATOM     13  C   UNL     1      13.363  38.134 -15.376  1.00  0.00    -0.028 C 
ATOM     14  C   UNL     1      13.687  35.772 -14.789  1.00  0.00     0.039 C 
BRANCH  13  15
ATOM     15  C   UNL     1      12.836  39.344 -16.119  1.00  0.00     0.035 C 
BRANCH  15  16
ATOM     16  C   UNL     1      11.306  39.438 -16.036  1.00  0.00     0.079 C 
BRANCH  16  17
ATOM     17  C   UNL     1      10.853  40.653 -15.270  1.00  0.00     0.130 C 
ATOM     18  O   UNL     1       9.721  40.689 -14.808  1.00  0.00    -0.300 OA
ATOM     19  C   UNL     1      11.778  41.809 -15.036  1.00  0.00     0.087 C 
ENDBRANCH  16  17
ENDBRANCH  15  16
ENDBRANCH  13  15
ENDBRANCH  11  12
ENDBRANCH   1  11
TORSDOF 9
ENDMDL
MODEL 7
REMARK VINA RESULT:     0.498      7.912     10.656
REMARK INTER + INTRA:           1.395
REMARK INTER:                   2.116
REMARK INTRA:                  -0.722
REMARK UNBOUND:                 0.634
REMARK SMILES CC(=O)CCC=C(C)CCC=C(C)CCC=C(C)C
REMARK SMILES IDX 10 1 11 2 12 3 13 4 14 5 15 6 16 7 18 8 17 9 19 10 9 11 7 12
REMARK SMILES IDX 6 13 8 14 5 15 4 16 2 17 3 18 1 19
REMARK H PARENT
REMARK Flexibility Score: inf
ROOT
ATOM      1  C   UNL     1      12.137  35.041 -20.137  1.00  0.00     0.032 C 
ENDROOT
BRANCH   1   2
ATOM      2  C   UNL     1      11.722  36.312 -19.434  1.00  0.00    -0.028 C 
ATOM      3  C   UNL     1      12.358  36.854 -18.370  1.00  0.00    -0.077 C 
ATOM      4  C   UNL     1      13.612  36.246 -17.789  1.00  0.00     0.039 C 
BRANCH   3   5
ATOM      5  C   UNL     1      11.803  38.119 -17.751  1.00  0.00     0.034 C 
BRANCH   5   6
ATOM      6  C   UNL     1      12.161  38.227 -16.264  1.00  0.00     0.032 C 
BRANCH   6   7
ATOM      7  C   UNL     1      12.494  39.652 -15.886  1.00  0.00    -0.028 C 
ATOM      8  C   UNL     1      10.148  40.222 -15.211  1.00  0.00     0.039 C 
ATOM      9  C   UNL     1      11.601  40.564 -15.442  1.00  0.00    -0.080 C 
ATOM     10  C   UNL     1      12.083  41.965 -15.170  1.00  0.00     0.039 C 
ENDBRANCH   6   7
ENDBRANCH   5   6
ENDBRANCH   3   5
ENDBRANCH   1   2
BRANCH   1  11
ATOM     11  C   UNL     1      10.995  34.015 -20.138  1.00  0.00     0.034 C 
BRANCH  11  12
ATOM     12  C   UNL     1      11.283  32.846 -21.061  1.00  0.00    -0.077 C 
ATOM     13  C   UNL     1      10.316  32.147 -21.701  1.00  0.00    -0.028 C 
ATOM     14  C   UNL     1      12.718  32.437 -21.283  1.00  0.00     0.039 C 
BRANCH  13  15
ATOM     15  C   UNL     1       8.827  32.405 -21.609  1.00  0.00     0.035 C 
BRANCH  15  16
ATOM     16  C   UNL     1       8.016  31.296 -22.294  1.00  0.00     0.079 C 
BRANCH  16  17
ATOM     17  C   UNL     1       7.912  31.504 -23.781  1.00  0.00     0.130 C 
ATOM     18  O   UNL     1       7.227  32.418 -24.217  1.00  0.00    -0.300 OA
ATOM     19  C   UNL     1       8.662  30.628 -24.739  1.00  0.00     0.087 C 
ENDBRANCH  16  17
ENDBRANCH  15  16
ENDBRANCH  13  15
ENDBRANCH  11  12
ENDBRANCH   1  11
TORSDOF 9
ENDMDL
MODEL 8
REMARK VINA RESULT:     0.559      7.387     10.676
REMARK INTER + INTRA:           1.487
REMARK INTER:                   2.110
REMARK INTRA:                  -0.623
REMARK UNBOUND:                 0.634
REMARK SMILES CC(=O)CCC=C(C)CCC=C(C)CCC=C(C)C
REMARK SMILES IDX 10 1 11 2 12 3 13 4 14 5 15 6 16 7 18 8 17 9 19 10 9 11 7 12
REMARK SMILES IDX 6 13 8 14 5 15 4 16 2 17 3 18 1 19
REMARK H PARENT
REMARK Flexibility Score: inf
ROOT
ATOM      1  C   UNL     1      12.704  33.577 -21.237  1.00  0.00     0.032 C 
ENDROOT
BRANCH   1   2
ATOM      2  C   UNL     1      11.990  34.668 -20.474  1.00  0.00    -0.028 C 
ATOM      3  C   UNL     1      12.597  35.621 -19.731  1.00  0.00    -0.077 C 
ATOM      4  C   UNL     1      14.100  35.722 -19.625  1.00  0.00     0.039 C 
BRANCH   3   5
ATOM      5  C   UNL     1      11.743  36.632 -18.995  1.00  0.00     0.034 C 
BRANCH   5   6
ATOM      6  C   UNL     1      12.204  36.815 -17.544  1.00  0.00     0.032 C 
BRANCH   6   7
ATOM      7  C   UNL     1      11.923  38.217 -17.058  1.00  0.00    -0.028 C 
ATOM      8  C   UNL     1      13.640  38.133 -15.233  1.00  0.00     0.039 C 
ATOM      9  C   UNL     1      12.535  38.811 -16.009  1.00  0.00    -0.080 C 
ATOM     10  C   UNL     1      12.093  40.195 -15.610  1.00  0.00     0.039 C 
ENDBRANCH   6   7
ENDBRANCH   5   6
ENDBRANCH   3   5
ENDBRANCH   1   2
BRANCH   1  11
ATOM     11  C   UNL     1      11.771  32.388 -21.500  1.00  0.00     0.034 C 
BRANCH  11  12
ATOM     12  C   UNL     1      12.539  31.090 -21.666  1.00  0.00    -0.077 C 
ATOM     13  C   UNL     1      12.525  30.356 -22.804  1.00  0.00    -0.028 C 
ATOM     14  C   UNL     1      13.365  30.586 -20.509  1.00  0.00     0.039 C 
BRANCH  13  15
ATOM     15  C   UNL     1      11.764  30.696 -24.068  1.00  0.00     0.035 C 
BRANCH  15  16
ATOM     16  C   UNL     1      10.274  30.349 -23.944  1.00  0.00     0.079 C 
BRANCH  16  17
ATOM     17  C   UNL     1       9.652  30.026 -25.277  1.00  0.00     0.130 C 
ATOM     18  O   UNL     1      10.309  29.435 -26.123  1.00  0.00    -0.300 OA
ATOM     19  C   UNL     1       8.229  30.389 -25.575  1.00  0.00     0.087 C 
ENDBRANCH  16  17
ENDBRANCH  15  16
ENDBRANCH  13  15
ENDBRANCH  11  12
ENDBRANCH   1  11
TORSDOF 9
ENDMDL
MODEL 9
REMARK VINA RESULT:     0.784      5.433      7.328
REMARK INTER + INTRA:           1.831
REMARK INTER:                   2.525
REMARK INTRA:                  -0.694
REMARK UNBOUND:                 0.634
REMARK SMILES CC(=O)CCC=C(C)CCC=C(C)CCC=C(C)C
REMARK SMILES IDX 10 1 11 2 12 3 13 4 14 5 15 6 16 7 18 8 17 9 19 10 9 11 7 12
REMARK SMILES IDX 6 13 8 14 5 15 4 16 2 17 3 18 1 19
REMARK H PARENT
REMARK Flexibility Score: inf
ROOT
ATOM      1  C   UNL     1       9.941  32.069 -21.551  1.00  0.00     0.032 C 
ENDROOT
BRANCH   1   2
ATOM      2  C   UNL     1      10.519  33.392 -21.104  1.00  0.00    -0.028 C 
ATOM      3  C   UNL     1      11.838  33.654 -20.960  1.00  0.00    -0.077 C 
ATOM      4  C   UNL     1      12.901  32.632 -21.284  1.00  0.00     0.039 C 
BRANCH   3   5
ATOM      5  C   UNL     1      12.263  35.023 -20.472  1.00  0.00     0.034 C 
BRANCH   5   6
ATOM      6  C   UNL     1      11.635  35.361 -19.114  1.00  0.00     0.032 C 
BRANCH   6   7
ATOM      7  C   UNL     1      11.739  36.840 -18.821  1.00  0.00    -0.028 C 
ATOM      8  C   UNL     1      12.479  36.513 -16.449  1.00  0.00     0.039 C 
ATOM      9  C   UNL     1      12.086  37.371 -17.628  1.00  0.00    -0.080 C 
ATOM     10  C   UNL     1      12.079  38.871 -17.481  1.00  0.00     0.039 C 
ENDBRANCH   6   7
ENDBRANCH   5   6
ENDBRANCH   3   5
ENDBRANCH   1   2
BRANCH   1  11
ATOM     11  C   UNL     1       8.497  32.236 -22.040  1.00  0.00     0.034 C 
BRANCH  11  12
ATOM     12  C   UNL     1       8.295  31.650 -23.426  1.00  0.00    -0.077 C 
ATOM     13  C   UNL     1       7.215  31.917 -24.196  1.00  0.00    -0.028 C 
ATOM     14  C   UNL     1       9.350  30.725 -23.980  1.00  0.00     0.039 C 
BRANCH  13  15
ATOM     15  C   UNL     1       6.058  32.819 -23.820  1.00  0.00     0.035 C 
BRANCH  15  16
ATOM     16  C   UNL     1       5.657  33.740 -24.981  1.00  0.00     0.079 C 
BRANCH  16  17
ATOM     17  C   UNL     1       4.382  33.293 -25.647  1.00  0.00     0.130 C 
ATOM     18  O   UNL     1       4.257  32.127 -25.991  1.00  0.00    -0.300 OA
ATOM     19  C   UNL     1       3.248  34.249 -25.866  1.00  0.00     0.087 C 
ENDBRANCH  16  17
ENDBRANCH  15  16
ENDBRANCH  13  15
ENDBRANCH  11  12
ENDBRANCH   1  11
TORSDOF 9
ENDMDL
