MODEL 1
REMARK VINA RESULT:    -3.811      0.000      0.000
REMARK INTER + INTRA:          -4.194
REMARK INTER:                  -4.034
REMARK INTRA:                  -0.161
REMARK UNBOUND:                -0.161
REMARK SMILES CC(C)[C@H]1CC[C@@H](C)CC1=O
REMARK SMILES IDX 8 1 7 2 6 3 5 4 4 5 10 6 11 7 9 8 2 9 1 10 3 11
REMARK H PARENT
REMARK Flexibility Score: inf
ROOT
ATOM      1  C   UNL     1     -19.736  80.424  -7.359  1.00  0.00     0.008 C 
ATOM      2  C   UNL     1     -20.770  79.307  -7.148  1.00  0.00    -0.007 C 
ATOM      3  C   UNL     1     -20.187  77.913  -7.481  1.00  0.00     0.004 C 
ATOM      4  C   UNL     1     -19.983  77.687  -8.993  1.00  0.00     0.012 C 
ATOM      5  C   UNL     1     -21.288  77.921  -9.794  1.00  0.00     0.058 C 
ATOM      6  C   UNL     1     -21.822  79.289  -9.406  1.00  0.00     0.136 C 
ATOM      7  O   UNL     1     -21.978  80.180 -10.229  1.00  0.00    -0.299 OA
ATOM      8  C   UNL     1     -22.058  79.569  -7.951  1.00  0.00     0.079 C 
ENDROOT
BRANCH   5   9
ATOM      9  C   UNL     1     -21.102  77.755 -11.338  1.00  0.00    -0.007 C 
ATOM     10  C   UNL     1     -22.218  76.875 -11.934  1.00  0.00     0.008 C 
ATOM     11  C   UNL     1     -19.742  77.137 -11.711  1.00  0.00     0.008 C 
ENDBRANCH   5   9
TORSDOF 1
ENDMDL
MODEL 2
REMARK VINA RESULT:    -3.783     15.254     16.775
REMARK INTER + INTRA:          -4.166
REMARK INTER:                  -3.991
REMARK INTRA:                  -0.175
REMARK UNBOUND:                -0.161
REMARK SMILES CC(C)[C@H]1CC[C@@H](C)CC1=O
REMARK SMILES IDX 8 1 7 2 6 3 5 4 4 5 10 6 11 7 9 8 2 9 1 10 3 11
REMARK H PARENT
REMARK Flexibility Score: inf
ROOT
ATOM      1  C   UNL     1      -7.555  86.199  -8.340  1.00  0.00     0.008 C 
ATOM      2  C   UNL     1      -7.341  85.583  -9.732  1.00  0.00    -0.007 C 
ATOM      3  C   UNL     1      -7.577  84.055  -9.727  1.00  0.00     0.004 C 
ATOM      4  C   UNL     1      -6.460  83.271  -9.008  1.00  0.00     0.012 C 
ATOM      5  C   UNL     1      -5.062  83.589  -9.593  1.00  0.00     0.058 C 
ATOM      6  C   UNL     1      -4.901  85.099  -9.594  1.00  0.00     0.136 C 
ATOM      7  O   UNL     1      -4.003  85.654  -8.976  1.00  0.00    -0.299 OA
ATOM      8  C   UNL     1      -5.945  85.921 -10.290  1.00  0.00     0.079 C 
ENDROOT
BRANCH   5   9
ATOM      9  C   UNL     1      -3.899  82.852  -8.849  1.00  0.00    -0.007 C 
ATOM     10  C   UNL     1      -3.304  81.736  -9.729  1.00  0.00     0.008 C 
ATOM     11  C   UNL     1      -4.347  82.233  -7.512  1.00  0.00     0.008 C 
ENDBRANCH   5   9
TORSDOF 1
ENDMDL
MODEL 3
REMARK VINA RESULT:    -3.739     15.946     17.052
REMARK INTER + INTRA:          -4.119
REMARK INTER:                  -3.948
REMARK INTRA:                  -0.171
REMARK UNBOUND:                -0.161
REMARK SMILES CC(C)[C@H]1CC[C@@H](C)CC1=O
REMARK SMILES IDX 8 1 7 2 6 3 5 4 4 5 10 6 11 7 9 8 2 9 1 10 3 11
REMARK H PARENT
REMARK Flexibility Score: inf
ROOT
ATOM      1  C   UNL     1      -4.225  82.358  -7.315  1.00  0.00     0.008 C 
ATOM      2  C   UNL     1      -3.666  82.810  -8.674  1.00  0.00    -0.007 C 
ATOM      3  C   UNL     1      -3.246  84.298  -8.656  1.00  0.00     0.004 C 
ATOM      4  C   UNL     1      -4.446  85.267  -8.623  1.00  0.00     0.012 C 
ATOM      5  C   UNL     1      -5.431  85.008  -9.790  1.00  0.00     0.058 C 
ATOM      6  C   UNL     1      -5.784  83.532  -9.769  1.00  0.00     0.136 C 
ATOM      7  O   UNL     1      -6.936  83.144  -9.629  1.00  0.00    -0.299 OA
ATOM      8  C   UNL     1      -4.663  82.535  -9.815  1.00  0.00     0.079 C 
ENDROOT
BRANCH   5   9
ATOM      9  C   UNL     1      -6.689  85.937  -9.753  1.00  0.00    -0.007 C 
ATOM     10  C   UNL     1      -6.477  87.184 -10.633  1.00  0.00     0.008 C 
ATOM     11  C   UNL     1      -7.045  86.401  -8.329  1.00  0.00     0.008 C 
ENDBRANCH   5   9
TORSDOF 1
ENDMDL
MODEL 4
REMARK VINA RESULT:    -3.666     19.272     20.729
REMARK INTER + INTRA:          -4.041
REMARK INTER:                  -3.887
REMARK INTRA:                  -0.154
REMARK UNBOUND:                -0.161
REMARK SMILES CC(C)[C@H]1CC[C@@H](C)CC1=O
REMARK SMILES IDX 8 1 7 2 6 3 5 4 4 5 10 6 11 7 9 8 2 9 1 10 3 11
REMARK H PARENT
REMARK Flexibility Score: inf
ROOT
ATOM      1  C   UNL     1      -3.922  92.535 -16.113  1.00  0.00     0.008 C 
ATOM      2  C   UNL     1      -3.756  91.009 -16.176  1.00  0.00    -0.007 C 
ATOM      3  C   UNL     1      -5.088  90.298 -16.511  1.00  0.00     0.004 C 
ATOM      4  C   UNL     1      -6.097  90.322 -15.344  1.00  0.00     0.012 C 
ATOM      5  C   UNL     1      -5.494  89.733 -14.045  1.00  0.00     0.058 C 
ATOM      6  C   UNL     1      -4.182  90.451 -13.785  1.00  0.00     0.136 C 
ATOM      7  O   UNL     1      -3.986  91.091 -12.762  1.00  0.00    -0.299 OA
ATOM      8  C   UNL     1      -3.149  90.452 -14.874  1.00  0.00     0.079 C 
ENDROOT
BRANCH   5   9
ATOM      9  C   UNL     1      -6.474  89.794 -12.827  1.00  0.00    -0.007 C 
ATOM     10  C   UNL     1      -6.347  88.529 -11.957  1.00  0.00     0.008 C 
ATOM     11  C   UNL     1      -7.945  89.948 -13.254  1.00  0.00     0.008 C 
ENDBRANCH   5   9
TORSDOF 1
ENDMDL
MODEL 5
REMARK VINA RESULT:    -3.631     16.771     18.324
REMARK INTER + INTRA:          -4.004
REMARK INTER:                  -3.832
REMARK INTRA:                  -0.173
REMARK UNBOUND:                -0.161
REMARK SMILES CC(C)[C@H]1CC[C@@H](C)CC1=O
REMARK SMILES IDX 8 1 7 2 6 3 5 4 4 5 10 6 11 7 9 8 2 9 1 10 3 11
REMARK H PARENT
REMARK Flexibility Score: inf
ROOT
ATOM      1  C   UNL     1      -4.587  86.691  -6.022  1.00  0.00     0.008 C 
ATOM      2  C   UNL     1      -3.192  86.229  -6.471  1.00  0.00    -0.007 C 
ATOM      3  C   UNL     1      -3.025  86.313  -8.007  1.00  0.00     0.004 C 
ATOM      4  C   UNL     1      -3.826  85.234  -8.763  1.00  0.00     0.012 C 
ATOM      5  C   UNL     1      -3.483  83.806  -8.271  1.00  0.00     0.058 C 
ATOM      6  C   UNL     1      -3.640  83.795  -6.760  1.00  0.00     0.136 C 
ATOM      7  O   UNL     1      -4.429  83.049  -6.197  1.00  0.00    -0.299 OA
ATOM      8  C   UNL     1      -2.875  84.810  -5.962  1.00  0.00     0.079 C 
ENDROOT
BRANCH   5   9
ATOM      9  C   UNL     1      -4.320  82.691  -8.979  1.00  0.00    -0.007 C 
ATOM     10  C   UNL     1      -3.423  81.821  -9.881  1.00  0.00     0.008 C 
ATOM     11  C   UNL     1      -5.466  83.259  -9.834  1.00  0.00     0.008 C 
ENDBRANCH   5   9
TORSDOF 1
ENDMDL
MODEL 6
REMARK VINA RESULT:    -3.522     20.216     21.397
REMARK INTER + INTRA:          -3.889
REMARK INTER:                  -3.714
REMARK INTRA:                  -0.175
REMARK UNBOUND:                -0.161
REMARK SMILES CC(C)[C@H]1CC[C@@H](C)CC1=O
REMARK SMILES IDX 8 1 7 2 6 3 5 4 4 5 10 6 11 7 9 8 2 9 1 10 3 11
REMARK H PARENT
REMARK Flexibility Score: inf
ROOT
ATOM      1  C   UNL     1      -3.999  91.410 -12.901  1.00  0.00     0.008 C 
ATOM      2  C   UNL     1      -3.900  90.229 -13.878  1.00  0.00    -0.007 C 
ATOM      3  C   UNL     1      -3.077  90.590 -15.136  1.00  0.00     0.004 C 
ATOM      4  C   UNL     1      -3.817  91.552 -16.089  1.00  0.00     0.012 C 
ATOM      5  C   UNL     1      -5.204  91.002 -16.504  1.00  0.00     0.058 C 
ATOM      6  C   UNL     1      -5.951  90.643 -15.231  1.00  0.00     0.136 C 
ATOM      7  O   UNL     1      -7.017  91.164 -14.937  1.00  0.00    -0.299 OA
ATOM      8  C   UNL     1      -5.293  89.699 -14.267  1.00  0.00     0.079 C 
ENDROOT
BRANCH   5   9
ATOM      9  C   UNL     1      -6.005  91.979 -17.425  1.00  0.00    -0.007 C 
ATOM     10  C   UNL     1      -6.048  91.456 -18.874  1.00  0.00     0.008 C 
ATOM     11  C   UNL     1      -5.417  93.402 -17.438  1.00  0.00     0.008 C 
ENDBRANCH   5   9
TORSDOF 1
ENDMDL
MODEL 7
REMARK VINA RESULT:    -3.519     20.761     22.242
REMARK INTER + INTRA:          -3.886
REMARK INTER:                  -3.725
REMARK INTRA:                  -0.161
REMARK UNBOUND:                -0.161
REMARK SMILES CC(C)[C@H]1CC[C@@H](C)CC1=O
REMARK SMILES IDX 8 1 7 2 6 3 5 4 4 5 10 6 11 7 9 8 2 9 1 10 3 11
REMARK H PARENT
REMARK Flexibility Score: inf
ROOT
ATOM      1  C   UNL     1      -5.553  90.303 -16.077  1.00  0.00     0.008 C 
ATOM      2  C   UNL     1      -4.125  90.845 -15.911  1.00  0.00    -0.007 C 
ATOM      3  C   UNL     1      -3.446  90.295 -14.635  1.00  0.00     0.004 C 
ATOM      4  C   UNL     1      -4.021  90.896 -13.335  1.00  0.00     0.012 C 
ATOM      5  C   UNL     1      -3.965  92.443 -13.339  1.00  0.00     0.058 C 
ATOM      6  C   UNL     1      -4.622  92.920 -14.623  1.00  0.00     0.136 C 
ATOM      7  O   UNL     1      -5.605  93.647 -14.616  1.00  0.00    -0.299 OA
ATOM      8  C   UNL     1      -4.100  92.385 -15.924  1.00  0.00     0.079 C 
ENDROOT
BRANCH   5   9
ATOM      9  C   UNL     1      -4.592  93.087 -12.058  1.00  0.00    -0.007 C 
ATOM     10  C   UNL     1      -3.666  94.173 -11.480  1.00  0.00     0.008 C 
ATOM     11  C   UNL     1      -4.881  92.054 -10.954  1.00  0.00     0.008 C 
ENDBRANCH   5   9
TORSDOF 1
ENDMDL
MODEL 8
REMARK VINA RESULT:    -3.461     17.029     18.605
REMARK INTER + INTRA:          -3.824
REMARK INTER:                  -3.681
REMARK INTRA:                  -0.143
REMARK UNBOUND:                -0.161
REMARK SMILES CC(C)[C@H]1CC[C@@H](C)CC1=O
REMARK SMILES IDX 8 1 7 2 6 3 5 4 4 5 10 6 11 7 9 8 2 9 1 10 3 11
REMARK H PARENT
REMARK Flexibility Score: inf
ROOT
ATOM      1  C   UNL     1      -3.607  82.188  -9.753  1.00  0.00     0.008 C 
ATOM      2  C   UNL     1      -4.882  82.739  -9.096  1.00  0.00    -0.007 C 
ATOM      3  C   UNL     1      -5.195  84.179  -9.565  1.00  0.00     0.004 C 
ATOM      4  C   UNL     1      -4.225  85.229  -8.984  1.00  0.00     0.012 C 
ATOM      5  C   UNL     1      -4.172  85.175  -7.438  1.00  0.00     0.058 C 
ATOM      6  C   UNL     1      -3.887  83.736  -7.042  1.00  0.00     0.136 C 
ATOM      7  O   UNL     1      -2.897  83.427  -6.395  1.00  0.00    -0.299 OA
ATOM      8  C   UNL     1      -4.803  82.667  -7.560  1.00  0.00     0.079 C 
ENDROOT
BRANCH   5   9
ATOM      9  C   UNL     1      -3.154  86.190  -6.819  1.00  0.00    -0.007 C 
ATOM     10  C   UNL     1      -3.664  86.722  -5.467  1.00  0.00     0.008 C 
ATOM     11  C   UNL     1      -2.875  87.390  -7.742  1.00  0.00     0.008 C 
ENDBRANCH   5   9
TORSDOF 1
ENDMDL
MODEL 9
REMARK VINA RESULT:    -3.345     17.152     18.107
REMARK INTER + INTRA:          -3.701
REMARK INTER:                  -3.607
REMARK INTRA:                  -0.094
REMARK UNBOUND:                -0.161
REMARK SMILES CC(C)[C@H]1CC[C@@H](C)CC1=O
REMARK SMILES IDX 8 1 7 2 6 3 5 4 4 5 10 6 11 7 9 8 2 9 1 10 3 11
REMARK H PARENT
REMARK Flexibility Score: inf
ROOT
ATOM      1  C   UNL     1      -6.262  86.704  -7.599  1.00  0.00     0.008 C 
ATOM      2  C   UNL     1      -5.250  86.716  -8.756  1.00  0.00    -0.007 C 
ATOM      3  C   UNL     1      -5.507  85.565  -9.756  1.00  0.00     0.004 C 
ATOM      4  C   UNL     1      -5.126  84.179  -9.196  1.00  0.00     0.012 C 
ATOM      5  C   UNL     1      -3.657  84.137  -8.706  1.00  0.00     0.058 C 
ATOM      6  C   UNL     1      -3.462  85.302  -7.752  1.00  0.00     0.136 C 
ATOM      7  O   UNL     1      -3.126  85.135  -6.587  1.00  0.00    -0.299 OA
ATOM      8  C   UNL     1      -3.800  86.680  -8.239  1.00  0.00     0.079 C 
ENDROOT
BRANCH   5   9
ATOM      9  C   UNL     1      -3.254  82.762  -8.080  1.00  0.00    -0.007 C 
ATOM     10  C   UNL     1      -2.878  81.748  -9.178  1.00  0.00     0.008 C 
ATOM     11  C   UNL     1      -4.372  82.151  -7.215  1.00  0.00     0.008 C 
ENDBRANCH   5   9
TORSDOF 1
ENDMDL
