MODEL 1
REMARK VINA RESULT:    -4.893      0.000      0.000
REMARK INTER + INTRA:          -9.678
REMARK INTER:                  -8.469
REMARK INTRA:                  -1.209
REMARK UNBOUND:                -1.209
REMARK SMILES CCCCCCCCCCCCCCO
REMARK SMILES IDX 8 1 7 2 6 3 5 4 4 5 3 6 2 7 1 8 9 9 10 10 11 11 12 12 13 13
REMARK SMILES IDX 14 14 15 15
REMARK H PARENT 15 16
REMARK Flexibility Score: inf
ROOT
ATOM      1  C   UNL     1       4.350  10.498   6.301  1.00  0.00     0.000 C 
ENDROOT
BRANCH   1   2
ATOM      2  C   UNL     1       5.214  10.970   5.117  1.00  0.00    -0.000 C 
BRANCH   2   3
ATOM      3  C   UNL     1       6.266  12.043   5.462  1.00  0.00    -0.000 C 
BRANCH   3   4
ATOM      4  C   UNL     1       7.479  12.097   4.512  1.00  0.00    -0.000 C 
BRANCH   4   5
ATOM      5  C   UNL     1       8.813  11.643   5.136  1.00  0.00    -0.000 C 
BRANCH   5   6
ATOM      6  C   UNL     1       8.699  11.025   6.544  1.00  0.00    -0.000 C 
BRANCH   6   7
ATOM      7  C   UNL     1       9.236  11.907   7.684  1.00  0.00    -0.003 C 
ATOM      8  C   UNL     1       8.130  12.468   8.576  1.00  0.00     0.004 C 
ENDBRANCH   6   7
ENDBRANCH   5   6
ENDBRANCH   4   5
ENDBRANCH   3   4
ENDBRANCH   2   3
ENDBRANCH   1   2
BRANCH   1   9
ATOM      9  C   UNL     1       5.190  10.019   7.498  1.00  0.00     0.000 C 
BRANCH   9  10
ATOM     10  C   UNL     1       4.834  10.757   8.799  1.00  0.00     0.000 C 
BRANCH  10  11
ATOM     11  C   UNL     1       3.544  11.586   8.672  1.00  0.00     0.000 C 
BRANCH  11  12
ATOM     12  C   UNL     1       2.380  11.012   9.501  1.00  0.00     0.002 C 
BRANCH  12  13
ATOM     13  C   UNL     1       1.357  12.049  10.002  1.00  0.00     0.028 C 
BRANCH  13  14
ATOM     14  C   UNL     1       0.201  12.296   9.026  1.00  0.00     0.156 C 
BRANCH  14  15
ATOM     15  O   UNL     1       0.011  11.176   8.205  1.00  0.00    -0.396 OA
ATOM     16  H   UNL     1       0.733  11.208   7.526  1.00  0.00     0.210 HD
ENDBRANCH  14  15
ENDBRANCH  13  14
ENDBRANCH  12  13
ENDBRANCH  11  12
ENDBRANCH  10  11
ENDBRANCH   9  10
ENDBRANCH   1   9
TORSDOF 13
ENDMDL
MODEL 2
REMARK VINA RESULT:    -4.881      1.237      1.854
REMARK INTER + INTRA:          -9.657
REMARK INTER:                  -8.770
REMARK INTRA:                  -0.887
REMARK UNBOUND:                -1.209
REMARK SMILES CCCCCCCCCCCCCCO
REMARK SMILES IDX 8 1 7 2 6 3 5 4 4 5 3 6 2 7 1 8 9 9 10 10 11 11 12 12 13 13
REMARK SMILES IDX 14 14 15 15
REMARK H PARENT 15 16
REMARK Flexibility Score: inf
ROOT
ATOM      1  C   UNL     1       5.504  10.112   7.843  1.00  0.00     0.000 C 
ENDROOT
BRANCH   1   2
ATOM      2  C   UNL     1       5.688  11.266   6.840  1.00  0.00    -0.000 C 
BRANCH   2   3
ATOM      3  C   UNL     1       5.439  10.896   5.364  1.00  0.00    -0.000 C 
BRANCH   3   4
ATOM      4  C   UNL     1       5.956  11.924   4.338  1.00  0.00    -0.000 C 
BRANCH   4   5
ATOM      5  C   UNL     1       7.158  12.765   4.809  1.00  0.00    -0.000 C 
BRANCH   5   6
ATOM      6  C   UNL     1       8.445  12.587   3.979  1.00  0.00    -0.000 C 
BRANCH   6   7
ATOM      7  C   UNL     1       9.667  12.096   4.776  1.00  0.00    -0.003 C 
ATOM      8  C   UNL     1       9.285  11.379   6.069  1.00  0.00     0.004 C 
ENDBRANCH   6   7
ENDBRANCH   5   6
ENDBRANCH   4   5
ENDBRANCH   3   4
ENDBRANCH   2   3
ENDBRANCH   1   2
BRANCH   1   9
ATOM      9  C   UNL     1       4.103   9.480   7.773  1.00  0.00     0.000 C 
BRANCH   9  10
ATOM     10  C   UNL     1       2.984  10.495   8.061  1.00  0.00     0.000 C 
BRANCH  10  11
ATOM     11  C   UNL     1       2.998  10.987   9.519  1.00  0.00     0.000 C 
BRANCH  11  12
ATOM     12  C   UNL     1       1.592  11.321  10.051  1.00  0.00     0.002 C 
BRANCH  12  13
ATOM     13  C   UNL     1       1.083  12.736   9.718  1.00  0.00     0.028 C 
BRANCH  13  14
ATOM     14  C   UNL     1      -0.267  12.750   8.992  1.00  0.00     0.156 C 
BRANCH  14  15
ATOM     15  O   UNL     1      -0.425  11.581   8.237  1.00  0.00    -0.396 OA
ATOM     16  H   UNL     1      -1.253  11.707   7.706  1.00  0.00     0.210 HD
ENDBRANCH  14  15
ENDBRANCH  13  14
ENDBRANCH  12  13
ENDBRANCH  11  12
ENDBRANCH  10  11
ENDBRANCH   9  10
ENDBRANCH   1   9
TORSDOF 13
ENDMDL
MODEL 3
REMARK VINA RESULT:    -4.804      0.961      2.451
REMARK INTER + INTRA:          -9.525
REMARK INTER:                  -8.495
REMARK INTRA:                  -1.030
REMARK UNBOUND:                -1.209
REMARK SMILES CCCCCCCCCCCCCCO
REMARK SMILES IDX 8 1 7 2 6 3 5 4 4 5 3 6 2 7 1 8 9 9 10 10 11 11 12 12 13 13
REMARK SMILES IDX 14 14 15 15
REMARK H PARENT 15 16
REMARK Flexibility Score: inf
ROOT
ATOM      1  C   UNL     1       5.747  10.704   8.290  1.00  0.00     0.000 C 
ENDROOT
BRANCH   1   2
ATOM      2  C   UNL     1       6.539  11.942   8.748  1.00  0.00    -0.000 C 
BRANCH   2   3
ATOM      3  C   UNL     1       7.965  12.056   8.176  1.00  0.00    -0.000 C 
BRANCH   3   4
ATOM      4  C   UNL     1       8.364  10.939   7.190  1.00  0.00    -0.000 C 
BRANCH   4   5
ATOM      5  C   UNL     1       9.273  11.390   6.031  1.00  0.00    -0.000 C 
BRANCH   5   6
ATOM      6  C   UNL     1       8.561  11.569   4.675  1.00  0.00    -0.000 C 
BRANCH   6   7
ATOM      7  C   UNL     1       7.358  12.528   4.696  1.00  0.00    -0.003 C 
ATOM      8  C   UNL     1       6.051  11.854   4.285  1.00  0.00     0.004 C 
ENDBRANCH   6   7
ENDBRANCH   5   6
ENDBRANCH   4   5
ENDBRANCH   3   4
ENDBRANCH   2   3
ENDBRANCH   1   2
BRANCH   1   9
ATOM      9  C   UNL     1       4.489  11.067   7.481  1.00  0.00     0.000 C 
BRANCH   9  10
ATOM     10  C   UNL     1       3.210  10.456   8.076  1.00  0.00     0.000 C 
BRANCH  10  11
ATOM     11  C   UNL     1       3.177  10.540   9.612  1.00  0.00     0.000 C 
BRANCH  11  12
ATOM     12  C   UNL     1       1.782  10.886  10.163  1.00  0.00     0.002 C 
BRANCH  12  13
ATOM     13  C   UNL     1       1.319  12.334   9.918  1.00  0.00     0.028 C 
BRANCH  13  14
ATOM     14  C   UNL     1       0.100  12.444   8.995  1.00  0.00     0.156 C 
BRANCH  14  15
ATOM     15  O   UNL     1      -0.061  11.262   8.260  1.00  0.00    -0.396 OA
ATOM     16  H   UNL     1      -0.640  10.673   8.810  1.00  0.00     0.210 HD
ENDBRANCH  14  15
ENDBRANCH  13  14
ENDBRANCH  12  13
ENDBRANCH  11  12
ENDBRANCH  10  11
ENDBRANCH   9  10
ENDBRANCH   1   9
TORSDOF 13
ENDMDL
MODEL 4
REMARK VINA RESULT:    -4.791      0.866      2.764
REMARK INTER + INTRA:          -9.502
REMARK INTER:                  -8.263
REMARK INTRA:                  -1.239
REMARK UNBOUND:                -1.209
REMARK SMILES CCCCCCCCCCCCCCO
REMARK SMILES IDX 8 1 7 2 6 3 5 4 4 5 3 6 2 7 1 8 9 9 10 10 11 11 12 12 13 13
REMARK SMILES IDX 14 14 15 15
REMARK H PARENT 15 16
REMARK Flexibility Score: inf
ROOT
ATOM      1  C   UNL     1       7.447  11.297   8.130  1.00  0.00     0.000 C 
ENDROOT
BRANCH   1   2
ATOM      2  C   UNL     1       8.705  12.078   7.708  1.00  0.00    -0.000 C 
BRANCH   2   3
ATOM      3  C   UNL     1       9.461  11.496   6.497  1.00  0.00    -0.000 C 
BRANCH   3   4
ATOM      4  C   UNL     1       8.650  11.439   5.187  1.00  0.00    -0.000 C 
BRANCH   4   5
ATOM      5  C   UNL     1       7.863  12.722   4.854  1.00  0.00    -0.000 C 
BRANCH   5   6
ATOM      6  C   UNL     1       6.339  12.535   4.716  1.00  0.00    -0.000 C 
BRANCH   6   7
ATOM      7  C   UNL     1       5.874  11.074   4.594  1.00  0.00    -0.003 C 
ATOM      8  C   UNL     1       4.699  10.743   5.513  1.00  0.00     0.004 C 
ENDBRANCH   6   7
ENDBRANCH   5   6
ENDBRANCH   4   5
ENDBRANCH   3   4
ENDBRANCH   2   3
ENDBRANCH   1   2
BRANCH   1   9
ATOM      9  C   UNL     1       6.236  12.211   8.386  1.00  0.00     0.000 C 
BRANCH   9  10
ATOM     10  C   UNL     1       5.099  11.489   9.128  1.00  0.00     0.000 C 
BRANCH  10  11
ATOM     11  C   UNL     1       3.749  12.212   8.982  1.00  0.00     0.000 C 
BRANCH  11  12
ATOM     12  C   UNL     1       2.550  11.321   9.356  1.00  0.00     0.002 C 
BRANCH  12  13
ATOM     13  C   UNL     1       1.362  12.057  10.004  1.00  0.00     0.028 C 
BRANCH  13  14
ATOM     14  C   UNL     1       0.186  12.291   9.049  1.00  0.00     0.156 C 
BRANCH  14  15
ATOM     15  O   UNL     1       0.026  11.191   8.196  1.00  0.00    -0.396 OA
ATOM     16  H   UNL     1       0.606  10.474   8.561  1.00  0.00     0.210 HD
ENDBRANCH  14  15
ENDBRANCH  13  14
ENDBRANCH  12  13
ENDBRANCH  11  12
ENDBRANCH  10  11
ENDBRANCH   9  10
ENDBRANCH   1   9
TORSDOF 13
ENDMDL
MODEL 5
REMARK VINA RESULT:    -4.659      2.044      3.549
REMARK INTER + INTRA:          -9.273
REMARK INTER:                  -7.748
REMARK INTRA:                  -1.525
REMARK UNBOUND:                -1.209
REMARK SMILES CCCCCCCCCCCCCCO
REMARK SMILES IDX 8 1 7 2 6 3 5 4 4 5 3 6 2 7 1 8 9 9 10 10 11 11 12 12 13 13
REMARK SMILES IDX 14 14 15 15
REMARK H PARENT 15 16
REMARK Flexibility Score: inf
ROOT
ATOM      1  C   UNL     1       7.492  12.372   8.327  1.00  0.00     0.000 C 
ENDROOT
BRANCH   1   2
ATOM      2  C   UNL     1       7.786  10.962   7.782  1.00  0.00    -0.000 C 
BRANCH   2   3
ATOM      3  C   UNL     1       9.021  10.860   6.864  1.00  0.00    -0.000 C 
BRANCH   3   4
ATOM      4  C   UNL     1       9.306  12.113   6.013  1.00  0.00    -0.000 C 
BRANCH   4   5
ATOM      5  C   UNL     1       8.944  11.981   4.521  1.00  0.00    -0.000 C 
BRANCH   5   6
ATOM      6  C   UNL     1       7.848  12.946   4.028  1.00  0.00    -0.000 C 
BRANCH   6   7
ATOM      7  C   UNL     1       6.507  12.839   4.775  1.00  0.00    -0.003 C 
ATOM      8  C   UNL     1       5.839  11.475   4.609  1.00  0.00     0.004 C 
ENDBRANCH   6   7
ENDBRANCH   5   6
ENDBRANCH   4   5
ENDBRANCH   3   4
ENDBRANCH   2   3
ENDBRANCH   1   2
BRANCH   1   9
ATOM      9  C   UNL     1       6.203  12.429   9.165  1.00  0.00     0.000 C 
BRANCH   9  10
ATOM     10  C   UNL     1       4.956  12.703   8.308  1.00  0.00     0.000 C 
BRANCH  10  11
ATOM     11  C   UNL     1       3.647  12.433   9.071  1.00  0.00     0.000 C 
BRANCH  11  12
ATOM     12  C   UNL     1       2.965  11.120   8.644  1.00  0.00     0.002 C 
BRANCH  12  13
ATOM     13  C   UNL     1       3.706  10.319   7.557  1.00  0.00     0.028 C 
BRANCH  13  14
ATOM     14  C   UNL     1       4.172   8.934   8.022  1.00  0.00     0.156 C 
BRANCH  14  15
ATOM     15  O   UNL     1       5.314   9.050   8.825  1.00  0.00    -0.396 OA
ATOM     16  H   UNL     1       5.171   9.850   9.393  1.00  0.00     0.210 HD
ENDBRANCH  14  15
ENDBRANCH  13  14
ENDBRANCH  12  13
ENDBRANCH  11  12
ENDBRANCH  10  11
ENDBRANCH   9  10
ENDBRANCH   1   9
TORSDOF 13
ENDMDL
MODEL 6
REMARK VINA RESULT:    -4.599      2.465      6.210
REMARK INTER + INTRA:          -9.168
REMARK INTER:                  -7.781
REMARK INTRA:                  -1.387
REMARK UNBOUND:                -1.209
REMARK SMILES CCCCCCCCCCCCCCO
REMARK SMILES IDX 8 1 7 2 6 3 5 4 4 5 3 6 2 7 1 8 9 9 10 10 11 11 12 12 13 13
REMARK SMILES IDX 14 14 15 15
REMARK H PARENT 15 16
REMARK Flexibility Score: inf
ROOT
ATOM      1  C   UNL     1       4.831  10.829   5.781  1.00  0.00     0.000 C 
ENDROOT
BRANCH   1   2
ATOM      2  C   UNL     1       5.183   9.950   6.995  1.00  0.00    -0.000 C 
BRANCH   2   3
ATOM      3  C   UNL     1       5.126  10.665   8.360  1.00  0.00    -0.000 C 
BRANCH   3   4
ATOM      4  C   UNL     1       4.612  12.117   8.315  1.00  0.00    -0.000 C 
BRANCH   4   5
ATOM      5  C   UNL     1       3.400  12.406   9.222  1.00  0.00    -0.000 C 
BRANCH   5   6
ATOM      6  C   UNL     1       2.430  11.224   9.411  1.00  0.00    -0.000 C 
BRANCH   6   7
ATOM      7  C   UNL     1       1.055  11.600   9.991  1.00  0.00    -0.003 C 
ATOM      8  C   UNL     1       0.421  12.800   9.289  1.00  0.00     0.004 C 
ENDBRANCH   6   7
ENDBRANCH   5   6
ENDBRANCH   4   5
ENDBRANCH   3   4
ENDBRANCH   2   3
ENDBRANCH   1   2
BRANCH   1   9
ATOM      9  C   UNL     1       6.043  11.106   4.875  1.00  0.00     0.000 C 
BRANCH   9  10
ATOM     10  C   UNL     1       6.436  12.592   4.854  1.00  0.00     0.000 C 
BRANCH  10  11
ATOM     11  C   UNL     1       7.720  12.872   5.655  1.00  0.00     0.000 C 
BRANCH  11  12
ATOM     12  C   UNL     1       8.382  11.590   6.191  1.00  0.00     0.002 C 
BRANCH  12  13
ATOM     13  C   UNL     1       8.711  11.600   7.696  1.00  0.00     0.028 C 
BRANCH  13  14
ATOM     14  C   UNL     1       8.206  12.848   8.429  1.00  0.00     0.156 C 
BRANCH  14  15
ATOM     15  O   UNL     1       8.782  12.930   9.703  1.00  0.00    -0.396 OA
ATOM     16  H   UNL     1       8.413  13.751  10.120  1.00  0.00     0.210 HD
ENDBRANCH  14  15
ENDBRANCH  13  14
ENDBRANCH  12  13
ENDBRANCH  11  12
ENDBRANCH  10  11
ENDBRANCH   9  10
ENDBRANCH   1   9
TORSDOF 13
ENDMDL
MODEL 7
REMARK VINA RESULT:    -4.462      1.987      6.377
REMARK INTER + INTRA:          -8.932
REMARK INTER:                  -7.988
REMARK INTRA:                  -0.945
REMARK UNBOUND:                -1.209
REMARK SMILES CCCCCCCCCCCCCCO
REMARK SMILES IDX 8 1 7 2 6 3 5 4 4 5 3 6 2 7 1 8 9 9 10 10 11 11 12 12 13 13
REMARK SMILES IDX 14 14 15 15
REMARK H PARENT 15 16
REMARK Flexibility Score: inf
ROOT
ATOM      1  C   UNL     1       7.909  12.364   8.502  1.00  0.00     0.000 C 
ENDROOT
BRANCH   1   2
ATOM      2  C   UNL     1       6.909  11.206   8.331  1.00  0.00    -0.000 C 
BRANCH   2   3
ATOM      3  C   UNL     1       5.434  11.571   8.592  1.00  0.00    -0.000 C 
BRANCH   3   4
ATOM      4  C   UNL     1       4.463  10.375   8.637  1.00  0.00    -0.000 C 
BRANCH   4   5
ATOM      5  C   UNL     1       3.200  10.594   9.491  1.00  0.00    -0.000 C 
BRANCH   5   6
ATOM      6  C   UNL     1       2.460  11.921   9.233  1.00  0.00    -0.000 C 
BRANCH   6   7
ATOM      7  C   UNL     1       1.109  12.061   9.958  1.00  0.00    -0.003 C 
ATOM      8  C   UNL     1       0.084  12.861   9.157  1.00  0.00     0.004 C 
ENDBRANCH   6   7
ENDBRANCH   5   6
ENDBRANCH   4   5
ENDBRANCH   3   4
ENDBRANCH   2   3
ENDBRANCH   1   2
BRANCH   1   9
ATOM      9  C   UNL     1       9.227  12.130   7.743  1.00  0.00     0.000 C 
BRANCH   9  10
ATOM     10  C   UNL     1       9.033  11.284   6.474  1.00  0.00     0.000 C 
BRANCH  10  11
ATOM     11  C   UNL     1       9.250  12.096   5.185  1.00  0.00     0.000 C 
BRANCH  11  12
ATOM     12  C   UNL     1       8.049  12.029   4.225  1.00  0.00     0.002 C 
BRANCH  12  13
ATOM     13  C   UNL     1       6.699  12.455   4.832  1.00  0.00     0.028 C 
BRANCH  13  14
ATOM     14  C   UNL     1       5.618  11.370   4.754  1.00  0.00     0.156 C 
BRANCH  14  15
ATOM     15  O   UNL     1       6.113  10.156   5.247  1.00  0.00    -0.396 OA
ATOM     16  H   UNL     1       5.765  10.072   6.172  1.00  0.00     0.210 HD
ENDBRANCH  14  15
ENDBRANCH  13  14
ENDBRANCH  12  13
ENDBRANCH  11  12
ENDBRANCH  10  11
ENDBRANCH   9  10
ENDBRANCH   1   9
TORSDOF 13
ENDMDL
MODEL 8
REMARK VINA RESULT:    -4.374      3.161      7.142
REMARK INTER + INTRA:          -8.779
REMARK INTER:                  -8.055
REMARK INTRA:                  -0.724
REMARK UNBOUND:                -1.209
REMARK SMILES CCCCCCCCCCCCCCO
REMARK SMILES IDX 8 1 7 2 6 3 5 4 4 5 3 6 2 7 1 8 9 9 10 10 11 11 12 12 13 13
REMARK SMILES IDX 14 14 15 15
REMARK H PARENT 15 16
REMARK Flexibility Score: inf
ROOT
ATOM      1  C   UNL     1       5.562  10.858   6.149  1.00  0.00     0.000 C 
ENDROOT
BRANCH   1   2
ATOM      2  C   UNL     1       4.182  10.497   6.729  1.00  0.00    -0.000 C 
BRANCH   2   3
ATOM      3  C   UNL     1       4.212   9.583   7.969  1.00  0.00    -0.000 C 
BRANCH   3   4
ATOM      4  C   UNL     1       3.690  10.228   9.268  1.00  0.00    -0.000 C 
BRANCH   4   5
ATOM      5  C   UNL     1       3.004  11.596   9.085  1.00  0.00    -0.000 C 
BRANCH   5   6
ATOM      6  C   UNL     1       1.601  11.711   9.713  1.00  0.00    -0.000 C 
BRANCH   6   7
ATOM      7  C   UNL     1       0.963  13.109   9.621  1.00  0.00    -0.003 C 
ATOM      8  C   UNL     1      -0.370  13.107   8.876  1.00  0.00     0.004 C 
ENDBRANCH   6   7
ENDBRANCH   5   6
ENDBRANCH   4   5
ENDBRANCH   3   4
ENDBRANCH   2   3
ENDBRANCH   1   2
BRANCH   1   9
ATOM      9  C   UNL     1       6.407  11.712   7.110  1.00  0.00     0.000 C 
BRANCH   9  10
ATOM     10  C   UNL     1       7.659  10.972   7.608  1.00  0.00     0.000 C 
BRANCH  10  11
ATOM     11  C   UNL     1       8.963  11.642   7.141  1.00  0.00     0.000 C 
BRANCH  11  12
ATOM     12  C   UNL     1       9.361  11.243   5.709  1.00  0.00     0.002 C 
BRANCH  12  13
ATOM     13  C   UNL     1       9.959  12.376   4.854  1.00  0.00     0.028 C 
BRANCH  13  14
ATOM     14  C   UNL     1       9.027  12.864   3.739  1.00  0.00     0.156 C 
BRANCH  14  15
ATOM     15  O   UNL     1       9.753  13.089   2.562  1.00  0.00    -0.396 OA
ATOM     16  H   UNL     1      10.057  12.197   2.252  1.00  0.00     0.210 HD
ENDBRANCH  14  15
ENDBRANCH  13  14
ENDBRANCH  12  13
ENDBRANCH  11  12
ENDBRANCH  10  11
ENDBRANCH   9  10
ENDBRANCH   1   9
TORSDOF 13
ENDMDL
MODEL 9
REMARK VINA RESULT:    -3.795      2.380      5.886
REMARK INTER + INTRA:          -7.778
REMARK INTER:                  -6.855
REMARK INTRA:                  -0.923
REMARK UNBOUND:                -1.209
REMARK SMILES CCCCCCCCCCCCCCO
REMARK SMILES IDX 8 1 7 2 6 3 5 4 4 5 3 6 2 7 1 8 9 9 10 10 11 11 12 12 13 13
REMARK SMILES IDX 14 14 15 15
REMARK H PARENT 15 16
REMARK Flexibility Score: inf
ROOT
ATOM      1  C   UNL     1       6.847  12.611   4.419  1.00  0.00     0.000 C 
ENDROOT
BRANCH   1   2
ATOM      2  C   UNL     1       6.393  11.569   5.458  1.00  0.00    -0.000 C 
BRANCH   2   3
ATOM      3  C   UNL     1       5.130  10.772   5.077  1.00  0.00    -0.000 C 
BRANCH   3   4
ATOM      4  C   UNL     1       4.179  10.456   6.249  1.00  0.00    -0.000 C 
BRANCH   4   5
ATOM      5  C   UNL     1       4.871   9.951   7.530  1.00  0.00    -0.000 C 
BRANCH   5   6
ATOM      6  C   UNL     1       4.918  10.966   8.689  1.00  0.00    -0.000 C 
BRANCH   6   7
ATOM      7  C   UNL     1       3.543  11.438   9.193  1.00  0.00    -0.003 C 
ATOM      8  C   UNL     1       2.766  10.341   9.918  1.00  0.00     0.004 C 
ENDBRANCH   6   7
ENDBRANCH   5   6
ENDBRANCH   4   5
ENDBRANCH   3   4
ENDBRANCH   2   3
ENDBRANCH   1   2
BRANCH   1   9
ATOM      9  C   UNL     1       8.277  12.362   3.910  1.00  0.00     0.000 C 
BRANCH   9  10
ATOM     10  C   UNL     1       9.025  11.311   4.747  1.00  0.00     0.000 C 
BRANCH  10  11
ATOM     11  C   UNL     1      10.008  11.946   5.747  1.00  0.00     0.000 C 
BRANCH  11  12
ATOM     12  C   UNL     1       9.537  11.825   7.207  1.00  0.00     0.002 C 
BRANCH  12  13
ATOM     13  C   UNL     1       8.879  13.089   7.792  1.00  0.00     0.028 C 
BRANCH  13  14
ATOM     14  C   UNL     1       8.866  13.125   9.324  1.00  0.00     0.156 C 
BRANCH  14  15
ATOM     15  O   UNL     1       7.575  12.871   9.805  1.00  0.00    -0.396 OA
ATOM     16  H   UNL     1       7.285  12.023   9.380  1.00  0.00     0.210 HD
ENDBRANCH  14  15
ENDBRANCH  13  14
ENDBRANCH  12  13
ENDBRANCH  11  12
ENDBRANCH  10  11
ENDBRANCH   9  10
ENDBRANCH   1   9
TORSDOF 13
ENDMDL
