MODEL 1
REMARK VINA RESULT:    -3.818      0.000      0.000
REMARK INTER + INTRA:          -3.818
REMARK INTER:                  -3.818
REMARK INTRA:                   0.000
REMARK UNBOUND:                 0.000
REMARK SMILES CC1=CC[C@H]2[C@H](C1)C2(C)C
REMARK SMILES IDX 1 1 2 2 3 3 4 4 5 5 6 6 7 7 8 8 9 9 10 10
REMARK H PARENT
REMARK Flexibility Score: inf
ROOT
ATOM      1  C   UNL     1      16.101  23.244 -19.188  1.00  0.00     0.039 C 
ATOM      2  C   UNL     1      17.169  22.730 -18.265  1.00  0.00    -0.077 C 
ATOM      3  C   UNL     1      18.067  21.810 -18.722  1.00  0.00    -0.028 C 
ATOM      4  C   UNL     1      19.191  21.269 -17.840  1.00  0.00     0.031 C 
ATOM      5  C   UNL     1      19.453  22.294 -16.732  1.00  0.00     0.003 C 
ATOM      6  C   UNL     1      18.065  22.301 -15.989  1.00  0.00     0.003 C 
ATOM      7  C   UNL     1      17.272  23.297 -16.843  1.00  0.00     0.034 C 
ATOM      8  C   UNL     1      19.367  22.316 -15.221  1.00  0.00    -0.029 C 
ATOM      9  C   UNL     1      19.773  21.017 -14.518  1.00  0.00     0.012 C 
ATOM     10  C   UNL     1      19.711  23.635 -14.525  1.00  0.00     0.012 C 
ENDROOT
TORSDOF 0
ENDMDL
MODEL 2
REMARK VINA RESULT:    -3.776      0.504      2.185
REMARK INTER + INTRA:          -3.776
REMARK INTER:                  -3.776
REMARK INTRA:                   0.000
REMARK UNBOUND:                 0.000
REMARK SMILES CC1=CC[C@H]2[C@H](C1)C2(C)C
REMARK SMILES IDX 1 1 2 2 3 3 4 4 5 5 6 6 7 7 8 8 9 9 10 10
REMARK H PARENT
REMARK Flexibility Score: inf
ROOT
ATOM      1  C   UNL     1      17.831  21.261 -20.064  1.00  0.00     0.039 C 
ATOM      2  C   UNL     1      18.038  21.790 -18.673  1.00  0.00    -0.077 C 
ATOM      3  C   UNL     1      17.189  22.740 -18.182  1.00  0.00    -0.028 C 
ATOM      4  C   UNL     1      17.331  23.297 -16.767  1.00  0.00     0.031 C 
ATOM      5  C   UNL     1      18.093  22.265 -15.929  1.00  0.00     0.003 C 
ATOM      6  C   UNL     1      19.471  22.212 -16.689  1.00  0.00     0.003 C 
ATOM      7  C   UNL     1      19.160  21.207 -17.804  1.00  0.00     0.034 C 
ATOM      8  C   UNL     1      19.406  22.221 -15.178  1.00  0.00    -0.029 C 
ATOM      9  C   UNL     1      19.809  23.520 -14.474  1.00  0.00     0.012 C 
ATOM     10  C   UNL     1      19.770  20.901 -14.492  1.00  0.00     0.012 C 
ENDROOT
TORSDOF 0
ENDMDL
MODEL 3
REMARK VINA RESULT:    -3.719      1.466      2.078
REMARK INTER + INTRA:          -3.719
REMARK INTER:                  -3.719
REMARK INTRA:                   0.000
REMARK UNBOUND:                 0.000
REMARK SMILES CC1=CC[C@H]2[C@H](C1)C2(C)C
REMARK SMILES IDX 1 1 2 2 3 3 4 4 5 5 6 6 7 7 8 8 9 9 10 10
REMARK H PARENT
REMARK Flexibility Score: inf
ROOT
ATOM      1  C   UNL     1      18.304  21.672 -19.603  1.00  0.00     0.039 C 
ATOM      2  C   UNL     1      18.387  21.992 -18.138  1.00  0.00    -0.077 C 
ATOM      3  C   UNL     1      19.420  21.492 -17.398  1.00  0.00    -0.028 C 
ATOM      4  C   UNL     1      19.574  21.803 -15.911  1.00  0.00     0.031 C 
ATOM      5  C   UNL     1      18.821  23.107 -15.623  1.00  0.00     0.003 C 
ATOM      6  C   UNL     1      17.348  22.696 -15.996  1.00  0.00     0.003 C 
ATOM      7  C   UNL     1      17.346  22.928 -17.511  1.00  0.00     0.034 C 
ATOM      8  C   UNL     1      17.646  23.523 -14.765  1.00  0.00    -0.029 C 
ATOM      9  C   UNL     1      17.533  22.817 -13.410  1.00  0.00     0.012 C 
ATOM     10  C   UNL     1      17.221  24.992 -14.835  1.00  0.00     0.012 C 
ENDROOT
TORSDOF 0
ENDMDL
MODEL 4
REMARK VINA RESULT:    -3.718      1.231      2.409
REMARK INTER + INTRA:          -3.718
REMARK INTER:                  -3.718
REMARK INTRA:                   0.000
REMARK UNBOUND:                 0.000
REMARK SMILES CC1=CC[C@H]2[C@H](C1)C2(C)C
REMARK SMILES IDX 1 1 2 2 3 3 4 4 5 5 6 6 7 7 8 8 9 9 10 10
REMARK H PARENT
REMARK Flexibility Score: inf
ROOT
ATOM      1  C   UNL     1      16.191  23.096 -18.996  1.00  0.00     0.039 C 
ATOM      2  C   UNL     1      17.263  22.720 -18.013  1.00  0.00    -0.077 C 
ATOM      3  C   UNL     1      17.244  23.259 -16.759  1.00  0.00    -0.028 C 
ATOM      4  C   UNL     1      18.290  22.897 -15.706  1.00  0.00     0.031 C 
ATOM      5  C   UNL     1      18.880  21.534 -16.081  1.00  0.00     0.003 C 
ATOM      6  C   UNL     1      19.529  21.856 -17.479  1.00  0.00     0.003 C 
ATOM      7  C   UNL     1      18.325  21.689 -18.413  1.00  0.00     0.034 C 
ATOM      8  C   UNL     1      20.246  21.001 -16.458  1.00  0.00    -0.029 C 
ATOM      9  C   UNL     1      21.430  21.639 -15.726  1.00  0.00     0.012 C 
ATOM     10  C   UNL     1      20.341  19.510 -16.793  1.00  0.00     0.012 C 
ENDROOT
TORSDOF 0
ENDMDL
MODEL 5
REMARK VINA RESULT:    -3.706      1.882      4.059
REMARK INTER + INTRA:          -3.706
REMARK INTER:                  -3.706
REMARK INTRA:                   0.000
REMARK UNBOUND:                 0.000
REMARK SMILES CC1=CC[C@H]2[C@H](C1)C2(C)C
REMARK SMILES IDX 1 1 2 2 3 3 4 4 5 5 6 6 7 7 8 8 9 9 10 10
REMARK H PARENT
REMARK Flexibility Score: inf
ROOT
ATOM      1  C   UNL     1      17.252  21.637 -11.783  1.00  0.00     0.039 C 
ATOM      2  C   UNL     1      17.655  21.889 -13.208  1.00  0.00    -0.077 C 
ATOM      3  C   UNL     1      16.910  22.736 -13.978  1.00  0.00    -0.028 C 
ATOM      4  C   UNL     1      17.282  23.053 -15.425  1.00  0.00     0.031 C 
ATOM      5  C   UNL     1      18.781  22.780 -15.595  1.00  0.00     0.003 C 
ATOM      6  C   UNL     1      18.847  21.238 -15.287  1.00  0.00     0.003 C 
ATOM      7  C   UNL     1      18.932  21.241 -13.756  1.00  0.00     0.034 C 
ATOM      8  C   UNL     1      19.634  21.847 -16.426  1.00  0.00    -0.029 C 
ATOM      9  C   UNL     1      19.127  21.574 -17.845  1.00  0.00     0.012 C 
ATOM     10  C   UNL     1      21.149  21.921 -16.218  1.00  0.00     0.012 C 
ENDROOT
TORSDOF 0
ENDMDL
MODEL 6
REMARK VINA RESULT:    -3.688      1.850      3.894
REMARK INTER + INTRA:          -3.688
REMARK INTER:                  -3.688
REMARK INTRA:                   0.000
REMARK UNBOUND:                 0.000
REMARK SMILES CC1=CC[C@H]2[C@H](C1)C2(C)C
REMARK SMILES IDX 1 1 2 2 3 3 4 4 5 5 6 6 7 7 8 8 9 9 10 10
REMARK H PARENT
REMARK Flexibility Score: inf
ROOT
ATOM      1  C   UNL     1      16.114  21.999 -12.602  1.00  0.00     0.039 C 
ATOM      2  C   UNL     1      17.319  21.768 -13.468  1.00  0.00    -0.077 C 
ATOM      3  C   UNL     1      18.316  20.946 -13.028  1.00  0.00    -0.028 C 
ATOM      4  C   UNL     1      19.554  20.651 -13.873  1.00  0.00     0.031 C 
ATOM      5  C   UNL     1      19.192  20.905 -15.341  1.00  0.00     0.003 C 
ATOM      6  C   UNL     1      18.846  22.441 -15.308  1.00  0.00     0.003 C 
ATOM      7  C   UNL     1      17.380  22.408 -14.861  1.00  0.00     0.034 C 
ATOM      8  C   UNL     1      19.658  21.842 -16.434  1.00  0.00    -0.029 C 
ATOM      9  C   UNL     1      21.158  22.148 -16.448  1.00  0.00     0.012 C 
ATOM     10  C   UNL     1      18.943  21.742 -17.785  1.00  0.00     0.012 C 
ENDROOT
TORSDOF 0
ENDMDL
MODEL 7
REMARK VINA RESULT:    -3.657      2.615      4.872
REMARK INTER + INTRA:          -3.657
REMARK INTER:                  -3.657
REMARK INTRA:                   0.000
REMARK UNBOUND:                 0.000
REMARK SMILES CC1=CC[C@H]2[C@H](C1)C2(C)C
REMARK SMILES IDX 1 1 2 2 3 3 4 4 5 5 6 6 7 7 8 8 9 9 10 10
REMARK H PARENT
REMARK Flexibility Score: inf
ROOT
ATOM      1  C   UNL     1      24.373  20.510 -16.222  1.00  0.00     0.039 C 
ATOM      2  C   UNL     1      23.026  21.166 -16.124  1.00  0.00    -0.077 C 
ATOM      3  C   UNL     1      22.907  22.364 -15.479  1.00  0.00    -0.028 C 
ATOM      4  C   UNL     1      21.570  23.094 -15.368  1.00  0.00     0.031 C 
ATOM      5  C   UNL     1      20.671  22.603 -16.508  1.00  0.00     0.003 C 
ATOM      6  C   UNL     1      20.545  21.073 -16.159  1.00  0.00     0.003 C 
ATOM      7  C   UNL     1      21.817  20.512 -16.804  1.00  0.00     0.034 C 
ATOM      8  C   UNL     1      19.349  21.875 -16.621  1.00  0.00    -0.029 C 
ATOM      9  C   UNL     1      18.304  22.236 -15.561  1.00  0.00     0.012 C 
ATOM     10  C   UNL     1      18.846  21.563 -18.033  1.00  0.00     0.012 C 
ENDROOT
TORSDOF 0
ENDMDL
MODEL 8
REMARK VINA RESULT:    -3.653      1.655      4.179
REMARK INTER + INTRA:          -3.653
REMARK INTER:                  -3.653
REMARK INTRA:                   0.000
REMARK UNBOUND:                 0.000
REMARK SMILES CC1=CC[C@H]2[C@H](C1)C2(C)C
REMARK SMILES IDX 1 1 2 2 3 3 4 4 5 5 6 6 7 7 8 8 9 9 10 10
REMARK H PARENT
REMARK Flexibility Score: inf
ROOT
ATOM      1  C   UNL     1      22.888  22.990 -14.085  1.00  0.00     0.039 C 
ATOM      2  C   UNL     1      21.591  22.762 -14.806  1.00  0.00    -0.077 C 
ATOM      3  C   UNL     1      21.590  22.079 -15.989  1.00  0.00    -0.028 C 
ATOM      4  C   UNL     1      20.301  21.793 -16.756  1.00  0.00     0.031 C 
ATOM      5  C   UNL     1      19.138  21.850 -15.760  1.00  0.00     0.003 C 
ATOM      6  C   UNL     1      19.223  23.346 -15.277  1.00  0.00     0.003 C 
ATOM      7  C   UNL     1      20.281  23.244 -14.171  1.00  0.00     0.034 C 
ATOM      8  C   UNL     1      17.894  22.692 -15.579  1.00  0.00    -0.029 C 
ATOM      9  C   UNL     1      17.190  23.117 -16.871  1.00  0.00     0.012 C 
ATOM     10  C   UNL     1      17.016  22.383 -14.364  1.00  0.00     0.012 C 
ENDROOT
TORSDOF 0
ENDMDL
MODEL 9
REMARK VINA RESULT:    -3.568      1.589      3.274
REMARK INTER + INTRA:          -3.568
REMARK INTER:                  -3.568
REMARK INTRA:                   0.000
REMARK UNBOUND:                 0.000
REMARK SMILES CC1=CC[C@H]2[C@H](C1)C2(C)C
REMARK SMILES IDX 1 1 2 2 3 3 4 4 5 5 6 6 7 7 8 8 9 9 10 10
REMARK H PARENT
REMARK Flexibility Score: inf
ROOT
ATOM      1  C   UNL     1      20.794  20.470 -17.088  1.00  0.00     0.039 C 
ATOM      2  C   UNL     1      19.667  21.424 -16.811  1.00  0.00    -0.077 C 
ATOM      3  C   UNL     1      18.809  21.761 -17.819  1.00  0.00    -0.028 C 
ATOM      4  C   UNL     1      17.629  22.705 -17.594  1.00  0.00     0.031 C 
ATOM      5  C   UNL     1      17.284  22.678 -16.101  1.00  0.00     0.003 C 
ATOM      6  C   UNL     1      18.616  23.230 -15.470  1.00  0.00     0.003 C 
ATOM      7  C   UNL     1      19.460  21.953 -15.387  1.00  0.00     0.034 C 
ATOM      8  C   UNL     1      17.262  23.679 -14.967  1.00  0.00    -0.029 C 
ATOM      9  C   UNL     1      16.817  25.095 -15.343  1.00  0.00     0.012 C 
ATOM     10  C   UNL     1      16.862  23.154 -13.585  1.00  0.00     0.012 C 
ENDROOT
TORSDOF 0
ENDMDL
