MODEL 1
REMARK VINA RESULT:    -4.368      0.000      0.000
REMARK INTER + INTRA:          -6.012
REMARK INTER:                  -5.900
REMARK INTRA:                  -0.111
REMARK UNBOUND:                -0.111
REMARK SMILES CCCCCCCC(=O)[O-]
REMARK SMILES IDX 5 1 6 2 7 3 8 4 9 5 10 6 4 7 3 8 2 9 1 10
REMARK H PARENT
REMARK Flexibility Score: inf
ROOT
ATOM      1  C   UNL     1      47.778  33.235  15.678  1.00  0.00     0.000 C 
ENDROOT
BRANCH   1   2
ATOM      2  C   UNL     1      48.361  33.971  16.898  1.00  0.00     0.006 C 
BRANCH   2   3
ATOM      3  C   UNL     1      49.280  33.069  17.733  1.00  0.00     0.053 C 
BRANCH   3   4
ATOM      4  C   UNL     1      48.786  31.655  17.771  1.00  0.00     0.041 C 
ATOM      5  O   UNL     1      47.799  31.347  18.487  1.00  0.00    -0.550 OA
ATOM      6  O   UNL     1      49.437  30.672  17.035  1.00  0.00    -0.550 OA
ENDBRANCH   3   4
ENDBRANCH   2   3
ENDBRANCH   1   2
BRANCH   1   7
ATOM      7  C   UNL     1      48.229  33.850  14.344  1.00  0.00     0.000 C 
BRANCH   7   8
ATOM      8  C   UNL     1      48.531  32.786  13.274  1.00  0.00    -0.000 C 
BRANCH   8   9
ATOM      9  C   UNL     1      48.649  33.386  11.864  1.00  0.00    -0.003 C 
ATOM     10  C   UNL     1      50.084  33.767  11.500  1.00  0.00     0.004 C 
ENDBRANCH   8   9
ENDBRANCH   7   8
ENDBRANCH   1   7
TORSDOF 6
ENDMDL
MODEL 2
REMARK VINA RESULT:    -4.297      3.705      5.066
REMARK INTER + INTRA:          -5.915
REMARK INTER:                  -5.537
REMARK INTRA:                  -0.379
REMARK UNBOUND:                -0.111
REMARK SMILES CCCCCCCC(=O)[O-]
REMARK SMILES IDX 5 1 6 2 7 3 8 4 9 5 10 6 4 7 3 8 2 9 1 10
REMARK H PARENT
REMARK Flexibility Score: inf
ROOT
ATOM      1  C   UNL     1      48.457  33.816  15.918  1.00  0.00     0.000 C 
ENDROOT
BRANCH   1   2
ATOM      2  C   UNL     1      46.935  33.868  15.694  1.00  0.00     0.006 C 
BRANCH   2   3
ATOM      3  C   UNL     1      46.242  34.845  16.654  1.00  0.00     0.053 C 
BRANCH   3   4
ATOM      4  C   UNL     1      44.946  35.349  16.096  1.00  0.00     0.041 C 
ATOM      5  O   UNL     1      43.995  35.643  16.867  1.00  0.00    -0.550 OA
ATOM      6  O   UNL     1      44.780  35.466  14.722  1.00  0.00    -0.550 OA
ENDBRANCH   3   4
ENDBRANCH   2   3
ENDBRANCH   1   2
BRANCH   1   7
ATOM      7  C   UNL     1      48.837  33.814  17.407  1.00  0.00     0.000 C 
BRANCH   7   8
ATOM      8  C   UNL     1      49.653  32.572  17.807  1.00  0.00    -0.000 C 
BRANCH   8   9
ATOM      9  C   UNL     1      49.057  31.271  17.246  1.00  0.00    -0.003 C 
ATOM     10  C   UNL     1      47.847  30.782  18.042  1.00  0.00     0.004 C 
ENDBRANCH   8   9
ENDBRANCH   7   8
ENDBRANCH   1   7
TORSDOF 6
ENDMDL
MODEL 3
REMARK VINA RESULT:    -4.238      2.406      3.892
REMARK INTER + INTRA:          -5.836
REMARK INTER:                  -5.343
REMARK INTRA:                  -0.494
REMARK UNBOUND:                -0.111
REMARK SMILES CCCCCCCC(=O)[O-]
REMARK SMILES IDX 5 1 6 2 7 3 8 4 9 5 10 6 4 7 3 8 2 9 1 10
REMARK H PARENT
REMARK Flexibility Score: inf
ROOT
ATOM      1  C   UNL     1      48.089  31.496  18.093  1.00  0.00     0.000 C 
ENDROOT
BRANCH   1   2
ATOM      2  C   UNL     1      47.939  30.274  17.169  1.00  0.00     0.006 C 
BRANCH   2   3
ATOM      3  C   UNL     1      49.188  30.045  16.307  1.00  0.00     0.053 C 
BRANCH   3   4
ATOM      4  C   UNL     1      49.753  28.671  16.500  1.00  0.00     0.041 C 
ATOM      5  O   UNL     1      50.694  28.264  15.770  1.00  0.00    -0.550 OA
ATOM      6  O   UNL     1      49.220  27.829  17.468  1.00  0.00    -0.550 OA
ENDBRANCH   3   4
ENDBRANCH   2   3
ENDBRANCH   1   2
BRANCH   1   7
ATOM      7  C   UNL     1      49.292  32.377  17.721  1.00  0.00     0.000 C 
BRANCH   7   8
ATOM      8  C   UNL     1      48.888  33.829  17.413  1.00  0.00    -0.000 C 
BRANCH   8   9
ATOM      9  C   UNL     1      47.663  33.917  16.490  1.00  0.00    -0.003 C 
ATOM     10  C   UNL     1      48.015  33.714  15.016  1.00  0.00     0.004 C 
ENDBRANCH   8   9
ENDBRANCH   7   8
ENDBRANCH   1   7
TORSDOF 6
ENDMDL
MODEL 4
REMARK VINA RESULT:    -4.219      3.417      5.563
REMARK INTER + INTRA:          -5.810
REMARK INTER:                  -5.514
REMARK INTRA:                  -0.296
REMARK UNBOUND:                -0.111
REMARK SMILES CCCCCCCC(=O)[O-]
REMARK SMILES IDX 5 1 6 2 7 3 8 4 9 5 10 6 4 7 3 8 2 9 1 10
REMARK H PARENT
REMARK Flexibility Score: inf
ROOT
ATOM      1  C   UNL     1      48.439  31.970  14.090  1.00  0.00     0.000 C 
ENDROOT
BRANCH   1   2
ATOM      2  C   UNL     1      48.500  33.415  13.565  1.00  0.00     0.006 C 
BRANCH   2   3
ATOM      3  C   UNL     1      48.894  33.476  12.084  1.00  0.00     0.053 C 
BRANCH   3   4
ATOM      4  C   UNL     1      47.713  33.752  11.204  1.00  0.00     0.041 C 
ATOM      5  O   UNL     1      47.689  33.321  10.022  1.00  0.00    -0.550 OA
ATOM      6  O   UNL     1      46.652  34.510  11.682  1.00  0.00    -0.550 OA
ENDBRANCH   3   4
ENDBRANCH   2   3
ENDBRANCH   1   2
BRANCH   1   7
ATOM      7  C   UNL     1      48.152  31.899  15.599  1.00  0.00     0.000 C 
BRANCH   7   8
ATOM      8  C   UNL     1      47.802  33.272  16.199  1.00  0.00    -0.000 C 
BRANCH   8   9
ATOM      9  C   UNL     1      48.835  33.741  17.236  1.00  0.00    -0.003 C 
ATOM     10  C   UNL     1      49.611  32.584  17.866  1.00  0.00     0.004 C 
ENDBRANCH   8   9
ENDBRANCH   7   8
ENDBRANCH   1   7
TORSDOF 6
ENDMDL
MODEL 5
REMARK VINA RESULT:    -4.208      1.215      1.793
REMARK INTER + INTRA:          -5.795
REMARK INTER:                  -5.567
REMARK INTRA:                  -0.228
REMARK UNBOUND:                -0.111
REMARK SMILES CCCCCCCC(=O)[O-]
REMARK SMILES IDX 5 1 6 2 7 3 8 4 9 5 10 6 4 7 3 8 2 9 1 10
REMARK H PARENT
REMARK Flexibility Score: inf
ROOT
ATOM      1  C   UNL     1      48.634  33.908  17.043  1.00  0.00     0.000 C 
ENDROOT
BRANCH   1   2
ATOM      2  C   UNL     1      49.183  32.603  17.647  1.00  0.00     0.006 C 
BRANCH   2   3
ATOM      3  C   UNL     1      48.079  31.561  17.873  1.00  0.00     0.053 C 
BRANCH   3   4
ATOM      4  C   UNL     1      48.287  30.338  17.033  1.00  0.00     0.041 C 
ATOM      5  O   UNL     1      47.308  29.779  16.474  1.00  0.00    -0.550 OA
ATOM      6  O   UNL     1      49.560  29.800  16.891  1.00  0.00    -0.550 OA
ENDBRANCH   3   4
ENDBRANCH   2   3
ENDBRANCH   1   2
BRANCH   1   7
ATOM      7  C   UNL     1      47.603  33.658  15.931  1.00  0.00     0.000 C 
BRANCH   7   8
ATOM      8  C   UNL     1      48.254  33.198  14.614  1.00  0.00    -0.000 C 
BRANCH   8   9
ATOM      9  C   UNL     1      48.402  34.343  13.600  1.00  0.00    -0.003 C 
ATOM     10  C   UNL     1      48.423  33.854  12.152  1.00  0.00     0.004 C 
ENDBRANCH   8   9
ENDBRANCH   7   8
ENDBRANCH   1   7
TORSDOF 6
ENDMDL
MODEL 6
REMARK VINA RESULT:    -4.143      2.563      4.287
REMARK INTER + INTRA:          -5.707
REMARK INTER:                  -5.189
REMARK INTRA:                  -0.518
REMARK UNBOUND:                -0.111
REMARK SMILES CCCCCCCC(=O)[O-]
REMARK SMILES IDX 5 1 6 2 7 3 8 4 9 5 10 6 4 7 3 8 2 9 1 10
REMARK H PARENT
REMARK Flexibility Score: inf
ROOT
ATOM      1  C   UNL     1      49.106  32.939  17.358  1.00  0.00     0.000 C 
ENDROOT
BRANCH   1   2
ATOM      2  C   UNL     1      48.326  34.113  16.739  1.00  0.00     0.006 C 
BRANCH   2   3
ATOM      3  C   UNL     1      47.465  33.671  15.547  1.00  0.00     0.053 C 
BRANCH   3   4
ATOM      4  C   UNL     1      48.272  33.562  14.289  1.00  0.00     0.041 C 
ATOM      5  O   UNL     1      48.442  32.443  13.740  1.00  0.00    -0.550 OA
ATOM      6  O   UNL     1      48.859  34.695  13.740  1.00  0.00    -0.550 OA
ENDBRANCH   3   4
ENDBRANCH   2   3
ENDBRANCH   1   2
BRANCH   1   7
ATOM      7  C   UNL     1      48.362  31.600  17.230  1.00  0.00     0.000 C 
BRANCH   7   8
ATOM      8  C   UNL     1      49.281  30.453  16.774  1.00  0.00    -0.000 C 
BRANCH   8   9
ATOM      9  C   UNL     1      48.582  29.493  15.799  1.00  0.00    -0.003 C 
ATOM     10  C   UNL     1      47.113  29.846  15.569  1.00  0.00     0.004 C 
ENDBRANCH   8   9
ENDBRANCH   7   8
ENDBRANCH   1   7
TORSDOF 6
ENDMDL
MODEL 7
REMARK VINA RESULT:    -4.083      2.525      4.910
REMARK INTER + INTRA:          -5.626
REMARK INTER:                  -5.310
REMARK INTRA:                  -0.317
REMARK UNBOUND:                -0.111
REMARK SMILES CCCCCCCC(=O)[O-]
REMARK SMILES IDX 5 1 6 2 7 3 8 4 9 5 10 6 4 7 3 8 2 9 1 10
REMARK H PARENT
REMARK Flexibility Score: inf
ROOT
ATOM      1  C   UNL     1      48.492  34.199  16.398  1.00  0.00     0.000 C 
ENDROOT
BRANCH   1   2
ATOM      2  C   UNL     1      47.724  33.736  15.147  1.00  0.00     0.006 C 
BRANCH   2   3
ATOM      3  C   UNL     1      48.328  34.302  13.855  1.00  0.00     0.053 C 
BRANCH   3   4
ATOM      4  C   UNL     1      48.456  33.253  12.793  1.00  0.00     0.041 C 
ATOM      5  O   UNL     1      48.539  33.583  11.582  1.00  0.00    -0.550 OA
ATOM      6  O   UNL     1      48.455  31.908  13.142  1.00  0.00    -0.550 OA
ENDBRANCH   3   4
ENDBRANCH   2   3
ENDBRANCH   1   2
BRANCH   1   7
ATOM      7  C   UNL     1      48.319  33.241  17.587  1.00  0.00     0.000 C 
BRANCH   7   8
ATOM      8  C   UNL     1      49.528  32.308  17.776  1.00  0.00    -0.000 C 
BRANCH   8   9
ATOM      9  C   UNL     1      49.285  30.906  17.195  1.00  0.00    -0.003 C 
ATOM     10  C   UNL     1      47.888  30.369  17.507  1.00  0.00     0.004 C 
ENDBRANCH   8   9
ENDBRANCH   7   8
ENDBRANCH   1   7
TORSDOF 6
ENDMDL
MODEL 8
REMARK VINA RESULT:    -4.075      3.021      4.441
REMARK INTER + INTRA:          -5.616
REMARK INTER:                  -5.214
REMARK INTRA:                  -0.402
REMARK UNBOUND:                -0.111
REMARK SMILES CCCCCCCC(=O)[O-]
REMARK SMILES IDX 5 1 6 2 7 3 8 4 9 5 10 6 4 7 3 8 2 9 1 10
REMARK H PARENT
REMARK Flexibility Score: inf
ROOT
ATOM      1  C   UNL     1      47.979  31.274  17.962  1.00  0.00     0.000 C 
ENDROOT
BRANCH   1   2
ATOM      2  C   UNL     1      49.235  32.075  17.577  1.00  0.00     0.006 C 
BRANCH   2   3
ATOM      3  C   UNL     1      48.926  33.560  17.342  1.00  0.00     0.053 C 
BRANCH   3   4
ATOM      4  C   UNL     1      47.868  33.749  16.298  1.00  0.00     0.041 C 
ATOM      5  O   UNL     1      46.805  34.362  16.577  1.00  0.00    -0.550 OA
ATOM      6  O   UNL     1      48.046  33.224  15.024  1.00  0.00    -0.550 OA
ENDBRANCH   3   4
ENDBRANCH   2   3
ENDBRANCH   1   2
BRANCH   1   7
ATOM      7  C   UNL     1      47.720  30.088  17.020  1.00  0.00     0.000 C 
BRANCH   7   8
ATOM      8  C   UNL     1      48.961  29.709  16.192  1.00  0.00    -0.000 C 
BRANCH   8   9
ATOM      9  C   UNL     1      48.827  28.328  15.531  1.00  0.00    -0.003 C 
ATOM     10  C   UNL     1      48.263  27.269  16.479  1.00  0.00     0.004 C 
ENDBRANCH   8   9
ENDBRANCH   7   8
ENDBRANCH   1   7
TORSDOF 6
ENDMDL
MODEL 9
REMARK VINA RESULT:    -4.035      3.215      4.700
REMARK INTER + INTRA:          -5.562
REMARK INTER:                  -5.324
REMARK INTRA:                  -0.238
REMARK UNBOUND:                -0.111
REMARK SMILES CCCCCCCC(=O)[O-]
REMARK SMILES IDX 5 1 6 2 7 3 8 4 9 5 10 6 4 7 3 8 2 9 1 10
REMARK H PARENT
REMARK Flexibility Score: inf
ROOT
ATOM      1  C   UNL     1      47.778  30.339  17.253  1.00  0.00     0.000 C 
ENDROOT
BRANCH   1   2
ATOM      2  C   UNL     1      47.329  29.290  16.220  1.00  0.00     0.006 C 
BRANCH   2   3
ATOM      3  C   UNL     1      48.514  28.502  15.644  1.00  0.00     0.053 C 
BRANCH   3   4
ATOM      4  C   UNL     1      48.639  27.148  16.271  1.00  0.00     0.041 C 
ATOM      5  O   UNL     1      49.025  27.035  17.464  1.00  0.00    -0.550 OA
ATOM      6  O   UNL     1      48.357  26.008  15.529  1.00  0.00    -0.550 OA
ENDBRANCH   3   4
ENDBRANCH   2   3
ENDBRANCH   1   2
BRANCH   1   7
ATOM      7  C   UNL     1      48.788  31.344  16.677  1.00  0.00     0.000 C 
BRANCH   7   8
ATOM      8  C   UNL     1      49.266  32.367  17.723  1.00  0.00    -0.000 C 
BRANCH   8   9
ATOM      9  C   UNL     1      48.906  33.811  17.340  1.00  0.00    -0.003 C 
ATOM     10  C   UNL     1      47.738  33.890  16.357  1.00  0.00     0.004 C 
ENDBRANCH   8   9
ENDBRANCH   7   8
ENDBRANCH   1   7
TORSDOF 6
ENDMDL
