MODEL 1
REMARK VINA RESULT:    -4.887      0.000      0.000
REMARK INTER + INTRA:          -4.889
REMARK INTER:                  -5.458
REMARK INTRA:                   0.569
REMARK UNBOUND:                 0.569
REMARK SMILES O=C([O-])c1ccccc1C(=O)[O-]
REMARK SMILES IDX 4 1 9 2 5 3 8 4 6 5 7 6 2 7 1 8 3 9 10 10 11 11 12 12
REMARK H PARENT
REMARK Flexibility Score: inf
ROOT
ATOM      1  C   UNL     1     -20.375  -0.242   8.261  1.00  0.00     0.006 A 
ATOM      2  C   UNL     1     -20.640   0.030   9.632  1.00  0.00     0.006 A 
ATOM      3  C   UNL     1     -19.964  -1.536   7.888  1.00  0.00     0.010 A 
ATOM      4  C   UNL     1     -20.420  -0.981  10.585  1.00  0.00     0.010 A 
ATOM      5  C   UNL     1     -19.776  -2.530   8.848  1.00  0.00     0.001 A 
ATOM      6  C   UNL     1     -19.992  -2.250  10.195  1.00  0.00     0.001 A 
ENDROOT
BRANCH   1   7
ATOM      7  C   UNL     1     -20.443   0.799   7.209  1.00  0.00     0.072 C 
ATOM      8  O   UNL     1     -21.216   0.656   6.225  1.00  0.00    -0.545 OA
ATOM      9  O   UNL     1     -19.613   1.913   7.260  1.00  0.00    -0.545 OA
ENDBRANCH   1   7
BRANCH   2  10
ATOM     10  C   UNL     1     -21.205   1.316  10.103  1.00  0.00     0.072 C 
ATOM     11  O   UNL     1     -21.799   2.089   9.307  1.00  0.00    -0.545 OA
ATOM     12  O   UNL     1     -21.142   1.653  11.450  1.00  0.00    -0.545 OA
ENDBRANCH   2  10
TORSDOF 2
ENDMDL
MODEL 2
REMARK VINA RESULT:    -4.828      0.074      3.109
REMARK INTER + INTRA:          -4.823
REMARK INTER:                  -5.418
REMARK INTRA:                   0.595
REMARK UNBOUND:                 0.569
REMARK SMILES O=C([O-])c1ccccc1C(=O)[O-]
REMARK SMILES IDX 4 1 9 2 5 3 8 4 6 5 7 6 2 7 1 8 3 9 10 10 11 11 12 12
REMARK H PARENT
REMARK Flexibility Score: inf
ROOT
ATOM      1  C   UNL     1     -20.627   0.057   9.643  1.00  0.00     0.006 A 
ATOM      2  C   UNL     1     -20.349  -0.213   8.274  1.00  0.00     0.006 A 
ATOM      3  C   UNL     1     -20.428  -0.960  10.594  1.00  0.00     0.010 A 
ATOM      4  C   UNL     1     -19.947  -1.508   7.900  1.00  0.00     0.010 A 
ATOM      5  C   UNL     1     -20.006  -2.231  10.204  1.00  0.00     0.001 A 
ATOM      6  C   UNL     1     -19.777  -2.508   8.858  1.00  0.00     0.001 A 
ENDROOT
BRANCH   1   7
ATOM      7  C   UNL     1     -21.188   1.347  10.107  1.00  0.00     0.072 C 
ATOM      8  O   UNL     1     -21.144   1.655  11.327  1.00  0.00    -0.545 OA
ATOM      9  O   UNL     1     -21.825   2.204   9.217  1.00  0.00    -0.545 OA
ENDBRANCH   1   7
BRANCH   2  10
ATOM     10  C   UNL     1     -20.397   0.829   7.221  1.00  0.00     0.072 C 
ATOM     11  O   UNL     1     -19.619   1.817   7.258  1.00  0.00    -0.545 OA
ATOM     12  O   UNL     1     -21.262   0.689   6.141  1.00  0.00    -0.545 OA
ENDBRANCH   2  10
TORSDOF 2
ENDMDL
MODEL 3
REMARK VINA RESULT:    -4.679      2.045      3.296
REMARK INTER + INTRA:          -4.658
REMARK INTER:                  -5.409
REMARK INTRA:                   0.751
REMARK UNBOUND:                 0.569
REMARK SMILES O=C([O-])c1ccccc1C(=O)[O-]
REMARK SMILES IDX 4 1 9 2 5 3 8 4 6 5 7 6 2 7 1 8 3 9 10 10 11 11 12 12
REMARK H PARENT
REMARK Flexibility Score: inf
ROOT
ATOM      1  C   UNL     1     -20.635   0.457   8.319  1.00  0.00     0.006 A 
ATOM      2  C   UNL     1     -20.635  -0.040   9.652  1.00  0.00     0.006 A 
ATOM      3  C   UNL     1     -21.040   1.785   8.085  1.00  0.00     0.010 A 
ATOM      4  C   UNL     1     -21.100   0.786  10.691  1.00  0.00     0.010 A 
ATOM      5  C   UNL     1     -21.475   2.594   9.134  1.00  0.00     0.001 A 
ATOM      6  C   UNL     1     -21.516   2.093  10.433  1.00  0.00     0.001 A 
ENDROOT
BRANCH   1   7
ATOM      7  C   UNL     1     -20.296  -0.386   7.149  1.00  0.00     0.072 C 
ATOM      8  O   UNL     1     -19.297  -0.107   6.436  1.00  0.00    -0.545 OA
ATOM      9  O   UNL     1     -21.109  -1.453   6.785  1.00  0.00    -0.545 OA
ENDBRANCH   1   7
BRANCH   2  10
ATOM     10  C   UNL     1     -20.099  -1.374  10.014  1.00  0.00     0.072 C 
ATOM     11  O   UNL     1     -19.613  -2.133   9.135  1.00  0.00    -0.545 OA
ATOM     12  O   UNL     1     -20.068  -1.775  11.345  1.00  0.00    -0.545 OA
ENDBRANCH   2  10
TORSDOF 2
ENDMDL
MODEL 4
REMARK VINA RESULT:    -4.545      2.049      4.214
REMARK INTER + INTRA:          -4.508
REMARK INTER:                  -5.314
REMARK INTRA:                   0.805
REMARK UNBOUND:                 0.569
REMARK SMILES O=C([O-])c1ccccc1C(=O)[O-]
REMARK SMILES IDX 4 1 9 2 5 3 8 4 6 5 7 6 2 7 1 8 3 9 10 10 11 11 12 12
REMARK H PARENT
REMARK Flexibility Score: inf
ROOT
ATOM      1  C   UNL     1     -20.627  -0.125   9.741  1.00  0.00     0.006 A 
ATOM      2  C   UNL     1     -20.649   0.409   8.423  1.00  0.00     0.006 A 
ATOM      3  C   UNL     1     -21.086   0.670  10.808  1.00  0.00     0.010 A 
ATOM      4  C   UNL     1     -21.065   1.739   8.230  1.00  0.00     0.010 A 
ATOM      5  C   UNL     1     -21.516   1.979  10.591  1.00  0.00     0.001 A 
ATOM      6  C   UNL     1     -21.495   2.516   9.306  1.00  0.00     0.001 A 
ENDROOT
BRANCH   1   7
ATOM      7  C   UNL     1     -20.074  -1.463  10.055  1.00  0.00     0.072 C 
ATOM      8  O   UNL     1     -20.000  -1.854  11.250  1.00  0.00    -0.545 OA
ATOM      9  O   UNL     1     -19.571  -2.276   9.046  1.00  0.00    -0.545 OA
ENDBRANCH   1   7
BRANCH   2  10
ATOM     10  C   UNL     1     -20.316  -0.394   7.223  1.00  0.00     0.072 C 
ATOM     11  O   UNL     1     -21.072  -1.326   6.842  1.00  0.00    -0.545 OA
ATOM     12  O   UNL     1     -19.195  -0.082   6.464  1.00  0.00    -0.545 OA
ENDBRANCH   2  10
TORSDOF 2
ENDMDL
MODEL 5
REMARK VINA RESULT:    -3.906      2.029      3.332
REMARK INTER + INTRA:          -3.794
REMARK INTER:                  -4.272
REMARK INTRA:                   0.478
REMARK UNBOUND:                 0.569
REMARK SMILES O=C([O-])c1ccccc1C(=O)[O-]
REMARK SMILES IDX 4 1 9 2 5 3 8 4 6 5 7 6 2 7 1 8 3 9 10 10 11 11 12 12
REMARK H PARENT
REMARK Flexibility Score: inf
ROOT
ATOM      1  C   UNL     1     -20.197  -0.941   9.219  1.00  0.00     0.006 A 
ATOM      2  C   UNL     1     -20.757   0.352   9.415  1.00  0.00     0.006 A 
ATOM      3  C   UNL     1     -19.888  -1.362   7.912  1.00  0.00     0.010 A 
ATOM      4  C   UNL     1     -21.047   1.149   8.292  1.00  0.00     0.010 A 
ATOM      5  C   UNL     1     -20.163  -0.545   6.815  1.00  0.00     0.001 A 
ATOM      6  C   UNL     1     -20.751   0.703   7.003  1.00  0.00     0.001 A 
ENDROOT
BRANCH   1   7
ATOM      7  C   UNL     1     -19.990  -1.901  10.329  1.00  0.00     0.072 C 
ATOM      8  O   UNL     1     -18.892  -1.929  10.945  1.00  0.00    -0.545 OA
ATOM      9  O   UNL     1     -20.975  -2.823  10.661  1.00  0.00    -0.545 OA
ENDBRANCH   1   7
BRANCH   2  10
ATOM     10  C   UNL     1     -20.989   0.935  10.757  1.00  0.00     0.072 C 
ATOM     11  O   UNL     1     -21.105   2.179  10.907  1.00  0.00    -0.545 OA
ATOM     12  O   UNL     1     -21.148   0.104  11.860  1.00  0.00    -0.545 OA
ENDBRANCH   2  10
TORSDOF 2
ENDMDL
MODEL 6
REMARK VINA RESULT:    -3.903      2.088      3.554
REMARK INTER + INTRA:          -3.790
REMARK INTER:                  -4.170
REMARK INTRA:                   0.379
REMARK UNBOUND:                 0.569
REMARK SMILES O=C([O-])c1ccccc1C(=O)[O-]
REMARK SMILES IDX 4 1 9 2 5 3 8 4 6 5 7 6 2 7 1 8 3 9 10 10 11 11 12 12
REMARK H PARENT
REMARK Flexibility Score: inf
ROOT
ATOM      1  C   UNL     1     -20.968   0.884   9.259  1.00  0.00     0.006 A 
ATOM      2  C   UNL     1     -20.387  -0.414   9.242  1.00  0.00     0.006 A 
ATOM      3  C   UNL     1     -21.070   1.603   8.053  1.00  0.00     0.010 A 
ATOM      4  C   UNL     1     -19.872  -0.918   8.034  1.00  0.00     0.010 A 
ATOM      5  C   UNL     1     -20.573   1.074   6.862  1.00  0.00     0.001 A 
ATOM      6  C   UNL     1     -19.965  -0.179   6.854  1.00  0.00     0.001 A 
ENDROOT
BRANCH   1   7
ATOM      7  C   UNL     1     -21.408   1.550  10.507  1.00  0.00     0.072 C 
ATOM      8  O   UNL     1     -22.590   1.407  10.918  1.00  0.00    -0.545 OA
ATOM      9  O   UNL     1     -20.547   2.389  11.204  1.00  0.00    -0.545 OA
ENDBRANCH   1   7
BRANCH   2  10
ATOM     10  C   UNL     1     -20.360  -1.300  10.430  1.00  0.00     0.072 C 
ATOM     11  O   UNL     1     -20.343  -0.817  11.593  1.00  0.00    -0.545 OA
ATOM     12  O   UNL     1     -20.419  -2.679  10.273  1.00  0.00    -0.545 OA
ENDBRANCH   2  10
TORSDOF 2
ENDMDL
MODEL 7
REMARK VINA RESULT:    -3.322      3.167      4.859
REMARK INTER + INTRA:          -3.141
REMARK INTER:                  -2.997
REMARK INTRA:                  -0.144
REMARK UNBOUND:                 0.569
REMARK SMILES O=C([O-])c1ccccc1C(=O)[O-]
REMARK SMILES IDX 4 1 9 2 5 3 8 4 6 5 7 6 2 7 1 8 3 9 10 10 11 11 12 12
REMARK H PARENT
REMARK Flexibility Score: inf
ROOT
ATOM      1  C   UNL     1     -20.006  -1.500   9.704  1.00  0.00     0.006 A 
ATOM      2  C   UNL     1     -19.857  -2.378   8.595  1.00  0.00     0.006 A 
ATOM      3  C   UNL     1     -20.433  -0.178   9.477  1.00  0.00     0.010 A 
ATOM      4  C   UNL     1     -20.077  -1.884   7.297  1.00  0.00     0.010 A 
ATOM      5  C   UNL     1     -20.667   0.284   8.182  1.00  0.00     0.001 A 
ATOM      6  C   UNL     1     -20.479  -0.563   7.093  1.00  0.00     0.001 A 
ENDROOT
BRANCH   1   7
ATOM      7  C   UNL     1     -19.662  -1.893  11.090  1.00  0.00     0.072 C 
ATOM      8  O   UNL     1     -18.459  -2.076  11.417  1.00  0.00    -0.545 OA
ATOM      9  O   UNL     1     -20.659  -2.130  12.028  1.00  0.00    -0.545 OA
ENDBRANCH   1   7
BRANCH   2  10
ATOM     10  C   UNL     1     -19.547  -3.819   8.745  1.00  0.00     0.072 C 
ATOM     11  O   UNL     1     -18.418  -4.272   8.420  1.00  0.00    -0.545 OA
ATOM     12  O   UNL     1     -20.481  -4.679   9.310  1.00  0.00    -0.545 OA
ENDBRANCH   2  10
TORSDOF 2
ENDMDL
MODEL 8
REMARK VINA RESULT:    -3.003      2.174      3.006
REMARK INTER + INTRA:          -2.785
REMARK INTER:                  -2.632
REMARK INTRA:                  -0.153
REMARK UNBOUND:                 0.569
REMARK SMILES O=C([O-])c1ccccc1C(=O)[O-]
REMARK SMILES IDX 4 1 9 2 5 3 8 4 6 5 7 6 2 7 1 8 3 9 10 10 11 11 12 12
REMARK H PARENT
REMARK Flexibility Score: inf
ROOT
ATOM      1  C   UNL     1     -21.233   2.333   8.686  1.00  0.00     0.006 A 
ATOM      2  C   UNL     1     -21.284   1.337   9.700  1.00  0.00     0.006 A 
ATOM      3  C   UNL     1     -20.707   1.998   7.424  1.00  0.00     0.010 A 
ATOM      4  C   UNL     1     -20.748   0.063   9.435  1.00  0.00     0.010 A 
ATOM      5  C   UNL     1     -20.202   0.722   7.176  1.00  0.00     0.001 A 
ATOM      6  C   UNL     1     -20.212  -0.240   8.183  1.00  0.00     0.001 A 
ENDROOT
BRANCH   1   7
ATOM      7  C   UNL     1     -21.644   3.737   8.921  1.00  0.00     0.072 C 
ATOM      8  O   UNL     1     -22.730   4.166   8.449  1.00  0.00    -0.545 OA
ATOM      9  O   UNL     1     -20.812   4.614   9.606  1.00  0.00    -0.545 OA
ENDBRANCH   1   7
BRANCH   2  10
ATOM     10  C   UNL     1     -21.941   1.553  11.010  1.00  0.00     0.072 C 
ATOM     11  O   UNL     1     -21.268   1.571  12.073  1.00  0.00    -0.545 OA
ATOM     12  O   UNL     1     -23.307   1.805  11.072  1.00  0.00    -0.545 OA
ENDBRANCH   2  10
TORSDOF 2
ENDMDL
MODEL 9
REMARK VINA RESULT:    -2.876     12.859     14.176
REMARK INTER + INTRA:          -2.643
REMARK INTER:                  -3.258
REMARK INTRA:                   0.614
REMARK UNBOUND:                 0.569
REMARK SMILES O=C([O-])c1ccccc1C(=O)[O-]
REMARK SMILES IDX 4 1 9 2 5 3 8 4 6 5 7 6 2 7 1 8 3 9 10 10 11 11 12 12
REMARK H PARENT
REMARK Flexibility Score: inf
ROOT
ATOM      1  C   UNL     1     -12.683  10.577  13.401  1.00  0.00     0.006 A 
ATOM      2  C   UNL     1     -12.405  10.840  12.030  1.00  0.00     0.006 A 
ATOM      3  C   UNL     1     -11.626  10.600  14.329  1.00  0.00     0.010 A 
ATOM      4  C   UNL     1     -11.073  11.051  11.631  1.00  0.00     0.010 A 
ATOM      5  C   UNL     1     -10.315  10.835  13.914  1.00  0.00     0.001 A 
ATOM      6  C   UNL     1     -10.037  11.049  12.566  1.00  0.00     0.001 A 
ENDROOT
BRANCH   1   7
ATOM      7  C   UNL     1     -14.032  10.206  13.888  1.00  0.00     0.072 C 
ATOM      8  O   UNL     1     -14.510   9.070  13.627  1.00  0.00    -0.545 OA
ATOM      9  O   UNL     1     -14.812  11.124  14.580  1.00  0.00    -0.545 OA
ENDBRANCH   1   7
BRANCH   2  10
ATOM     10  C   UNL     1     -13.466  10.972  11.004  1.00  0.00     0.072 C 
ATOM     11  O   UNL     1     -14.680  11.012  11.334  1.00  0.00    -0.545 OA
ATOM     12  O   UNL     1     -13.125  11.121   9.665  1.00  0.00    -0.545 OA
ENDBRANCH   2  10
TORSDOF 2
ENDMDL
