MODEL 1
REMARK VINA RESULT:    -3.707      0.000      0.000
REMARK INTER + INTRA:          -5.983
REMARK INTER:                  -5.441
REMARK INTRA:                  -0.542
REMARK UNBOUND:                -0.542
REMARK SMILES O=C([O-])CCCCCCCC(=O)[O-]
REMARK SMILES IDX 7 1 6 2 5 3 4 4 2 5 1 6 3 7 8 8 9 9 10 10 11 11 12 12 13 13
REMARK H PARENT
REMARK Flexibility Score: inf
ROOT
ATOM      1  C   UNL     1       9.434  15.756  31.990  1.00  0.00     0.000 C 
ENDROOT
BRANCH   1   2
ATOM      2  C   UNL     1      10.666  16.414  32.629  1.00  0.00     0.000 C 
BRANCH   2   3
ATOM      3  C   UNL     1      11.840  16.564  31.645  1.00  0.00     0.006 C 
BRANCH   3   4
ATOM      4  C   UNL     1      11.702  15.729  30.361  1.00  0.00     0.053 C 
BRANCH   4   5
ATOM      5  C   UNL     1      11.810  16.573  29.128  1.00  0.00     0.041 C 
ATOM      6  O   UNL     1      12.181  16.058  28.039  1.00  0.00    -0.550 OA
ATOM      7  O   UNL     1      11.535  17.933  29.189  1.00  0.00    -0.550 OA
ENDBRANCH   4   5
ENDBRANCH   3   4
ENDBRANCH   2   3
ENDBRANCH   1   2
BRANCH   1   8
ATOM      8  C   UNL     1       9.111  14.420  32.670  1.00  0.00     0.000 C 
BRANCH   8   9
ATOM      9  C   UNL     1       9.494  13.236  31.771  1.00  0.00     0.006 C 
BRANCH   9  10
ATOM     10  C   UNL     1       8.443  12.965  30.687  1.00  0.00     0.053 C 
BRANCH  10  11
ATOM     11  C   UNL     1       7.168  12.439  31.271  1.00  0.00     0.041 C 
ATOM     12  O   UNL     1       6.124  13.144  31.252  1.00  0.00    -0.550 OA
ATOM     13  O   UNL     1       7.125  11.160  31.809  1.00  0.00    -0.550 OA
ENDBRANCH  10  11
ENDBRANCH   9  10
ENDBRANCH   8   9
ENDBRANCH   1   8
TORSDOF 8
ENDMDL
MODEL 2
REMARK VINA RESULT:    -3.689      1.069      6.158
REMARK INTER + INTRA:          -5.956
REMARK INTER:                  -5.521
REMARK INTRA:                  -0.435
REMARK UNBOUND:                -0.542
REMARK SMILES O=C([O-])CCCCCCCC(=O)[O-]
REMARK SMILES IDX 7 1 6 2 5 3 4 4 2 5 1 6 3 7 8 8 9 9 10 10 11 11 12 12 13 13
REMARK H PARENT
REMARK Flexibility Score: inf
ROOT
ATOM      1  C   UNL     1       9.522  13.900  32.207  1.00  0.00     0.000 C 
ENDROOT
BRANCH   1   2
ATOM      2  C   UNL     1       9.291  13.144  30.890  1.00  0.00     0.000 C 
BRANCH   2   3
ATOM      3  C   UNL     1       7.818  12.755  30.675  1.00  0.00     0.006 C 
BRANCH   3   4
ATOM      4  C   UNL     1       6.943  12.864  31.935  1.00  0.00     0.053 C 
BRANCH   4   5
ATOM      5  C   UNL     1       6.209  11.589  32.221  1.00  0.00     0.041 C 
ATOM      6  O   UNL     1       6.791  10.480  32.087  1.00  0.00    -0.550 OA
ATOM      7  O   UNL     1       4.874  11.625  32.604  1.00  0.00    -0.550 OA
ENDBRANCH   4   5
ENDBRANCH   3   4
ENDBRANCH   2   3
ENDBRANCH   1   2
BRANCH   1   8
ATOM      8  C   UNL     1       9.569  15.414  31.969  1.00  0.00     0.000 C 
BRANCH   8   9
ATOM      9  C   UNL     1      10.977  15.970  32.231  1.00  0.00     0.006 C 
BRANCH   9  10
ATOM     10  C   UNL     1      11.923  15.740  31.046  1.00  0.00     0.053 C 
BRANCH  10  11
ATOM     11  C   UNL     1      11.519  16.548  29.851  1.00  0.00     0.041 C 
ATOM     12  O   UNL     1      11.387  17.797  29.945  1.00  0.00    -0.550 OA
ATOM     13  O   UNL     1      11.319  15.925  28.626  1.00  0.00    -0.550 OA
ENDBRANCH  10  11
ENDBRANCH   9  10
ENDBRANCH   8   9
ENDBRANCH   1   8
TORSDOF 8
ENDMDL
MODEL 3
REMARK VINA RESULT:    -3.659      1.586      6.431
REMARK INTER + INTRA:          -5.912
REMARK INTER:                  -5.610
REMARK INTRA:                  -0.302
REMARK UNBOUND:                -0.542
REMARK SMILES O=C([O-])CCCCCCCC(=O)[O-]
REMARK SMILES IDX 7 1 6 2 5 3 4 4 2 5 1 6 3 7 8 8 9 9 10 10 11 11 12 12 13 13
REMARK H PARENT
REMARK Flexibility Score: inf
ROOT
ATOM      1  C   UNL     1       9.841  14.547  31.533  1.00  0.00     0.000 C 
ENDROOT
BRANCH   1   2
ATOM      2  C   UNL     1       9.395  13.094  31.755  1.00  0.00     0.000 C 
BRANCH   2   3
ATOM      3  C   UNL     1       8.105  12.743  30.993  1.00  0.00     0.006 C 
BRANCH   3   4
ATOM      4  C   UNL     1       6.817  12.907  31.817  1.00  0.00     0.053 C 
BRANCH   4   5
ATOM      5  C   UNL     1       6.205  11.586  32.170  1.00  0.00     0.041 C 
ATOM      6  O   UNL     1       5.044  11.536  32.656  1.00  0.00    -0.550 OA
ATOM      7  O   UNL     1       6.929  10.414  31.994  1.00  0.00    -0.550 OA
ENDBRANCH   4   5
ENDBRANCH   3   4
ENDBRANCH   2   3
ENDBRANCH   1   2
BRANCH   1   8
ATOM      8  C   UNL     1      10.422  14.735  30.127  1.00  0.00     0.000 C 
BRANCH   8   9
ATOM      9  C   UNL     1      11.567  15.758  30.136  1.00  0.00     0.006 C 
BRANCH   9  10
ATOM     10  C   UNL     1      11.861  16.289  31.545  1.00  0.00     0.053 C 
BRANCH  10  11
ATOM     11  C   UNL     1      11.460  17.726  31.690  1.00  0.00     0.041 C 
ATOM     12  O   UNL     1      11.791  18.567  30.812  1.00  0.00    -0.550 OA
ATOM     13  O   UNL     1      10.696  18.128  32.777  1.00  0.00    -0.550 OA
ENDBRANCH  10  11
ENDBRANCH   9  10
ENDBRANCH   8   9
ENDBRANCH   1   8
TORSDOF 8
ENDMDL
MODEL 4
REMARK VINA RESULT:    -3.644      2.711      4.114
REMARK INTER + INTRA:          -5.890
REMARK INTER:                  -5.436
REMARK INTRA:                  -0.454
REMARK UNBOUND:                -0.542
REMARK SMILES O=C([O-])CCCCCCCC(=O)[O-]
REMARK SMILES IDX 7 1 6 2 5 3 4 4 2 5 1 6 3 7 8 8 9 9 10 10 11 11 12 12 13 13
REMARK H PARENT
REMARK Flexibility Score: inf
ROOT
ATOM      1  C   UNL     1      11.721  17.592  29.309  1.00  0.00     0.000 C 
ENDROOT
BRANCH   1   2
ATOM      2  C   UNL     1      12.035  16.269  28.596  1.00  0.00     0.000 C 
BRANCH   2   3
ATOM      3  C   UNL     1      12.803  16.471  27.277  1.00  0.00     0.006 C 
BRANCH   3   4
ATOM      4  C   UNL     1      13.117  17.939  26.944  1.00  0.00     0.053 C 
BRANCH   4   5
ATOM      5  C   UNL     1      14.458  18.093  26.296  1.00  0.00     0.041 C 
ATOM      6  O   UNL     1      14.621  18.929  25.368  1.00  0.00    -0.550 OA
ATOM      7  O   UNL     1      15.520  17.290  26.693  1.00  0.00    -0.550 OA
ENDBRANCH   4   5
ENDBRANCH   3   4
ENDBRANCH   2   3
ENDBRANCH   1   2
BRANCH   1   8
ATOM      8  C   UNL     1      11.557  17.376  30.819  1.00  0.00     0.000 C 
BRANCH   8   9
ATOM      9  C   UNL     1      11.756  15.899  31.190  1.00  0.00     0.006 C 
BRANCH   9  10
ATOM     10  C   UNL     1      10.587  15.345  32.015  1.00  0.00     0.053 C 
BRANCH  10  11
ATOM     11  C   UNL     1       9.712  14.444  31.200  1.00  0.00     0.041 C 
ATOM     12  O   UNL     1       9.896  13.197  31.216  1.00  0.00    -0.550 OA
ATOM     13  O   UNL     1       8.674  14.976  30.447  1.00  0.00    -0.550 OA
ENDBRANCH  10  11
ENDBRANCH   9  10
ENDBRANCH   8   9
ENDBRANCH   1   8
TORSDOF 8
ENDMDL
MODEL 5
REMARK VINA RESULT:    -3.644      1.681      2.486
REMARK INTER + INTRA:          -5.890
REMARK INTER:                  -5.481
REMARK INTRA:                  -0.409
REMARK UNBOUND:                -0.542
REMARK SMILES O=C([O-])CCCCCCCC(=O)[O-]
REMARK SMILES IDX 7 1 6 2 5 3 4 4 2 5 1 6 3 7 8 8 9 9 10 10 11 11 12 12 13 13
REMARK H PARENT
REMARK Flexibility Score: inf
ROOT
ATOM      1  C   UNL     1       9.894  13.460  30.534  1.00  0.00     0.000 C 
ENDROOT
BRANCH   1   2
ATOM      2  C   UNL     1       9.947  14.987  30.373  1.00  0.00     0.000 C 
BRANCH   2   3
ATOM      3  C   UNL     1      11.384  15.537  30.375  1.00  0.00     0.006 C 
BRANCH   3   4
ATOM      4  C   UNL     1      11.822  16.160  31.711  1.00  0.00     0.053 C 
BRANCH   4   5
ATOM      5  C   UNL     1      11.414  17.598  31.821  1.00  0.00     0.041 C 
ATOM      6  O   UNL     1      11.733  18.417  30.918  1.00  0.00    -0.550 OA
ATOM      7  O   UNL     1      10.712  18.039  32.935  1.00  0.00    -0.550 OA
ENDBRANCH   4   5
ENDBRANCH   3   4
ENDBRANCH   2   3
ENDBRANCH   1   2
BRANCH   1   8
ATOM      8  C   UNL     1       9.300  13.072  31.893  1.00  0.00     0.000 C 
BRANCH   8   9
ATOM      9  C   UNL     1       7.865  13.597  32.039  1.00  0.00     0.006 C 
BRANCH   9  10
ATOM     10  C   UNL     1       6.862  12.787  31.206  1.00  0.00     0.053 C 
BRANCH  10  11
ATOM     11  C   UNL     1       6.327  11.615  31.970  1.00  0.00     0.041 C 
ATOM     12  O   UNL     1       6.881  10.487  31.871  1.00  0.00    -0.550 OA
ATOM     13  O   UNL     1       5.237  11.775  32.814  1.00  0.00    -0.550 OA
ENDBRANCH  10  11
ENDBRANCH   9  10
ENDBRANCH   8   9
ENDBRANCH   1   8
TORSDOF 8
ENDMDL
MODEL 6
REMARK VINA RESULT:    -3.619     10.958     12.557
REMARK INTER + INTRA:          -5.853
REMARK INTER:                  -5.488
REMARK INTRA:                  -0.365
REMARK UNBOUND:                -0.542
REMARK SMILES O=C([O-])CCCCCCCC(=O)[O-]
REMARK SMILES IDX 7 1 6 2 5 3 4 4 2 5 1 6 3 7 8 8 9 9 10 10 11 11 12 12 13 13
REMARK H PARENT
REMARK Flexibility Score: inf
ROOT
ATOM      1  C   UNL     1      17.397  20.504  23.358  1.00  0.00     0.000 C 
ENDROOT
BRANCH   1   2
ATOM      2  C   UNL     1      17.727  19.625  22.143  1.00  0.00     0.000 C 
BRANCH   2   3
ATOM      3  C   UNL     1      16.472  19.022  21.485  1.00  0.00     0.006 C 
BRANCH   3   4
ATOM      4  C   UNL     1      16.598  17.532  21.127  1.00  0.00     0.053 C 
BRANCH   4   5
ATOM      5  C   UNL     1      15.444  16.731  21.646  1.00  0.00     0.041 C 
ATOM      6  O   UNL     1      15.059  15.702  21.028  1.00  0.00    -0.550 OA
ATOM      7  O   UNL     1      14.772  17.138  22.791  1.00  0.00    -0.550 OA
ENDBRANCH   4   5
ENDBRANCH   3   4
ENDBRANCH   2   3
ENDBRANCH   1   2
BRANCH   1   8
ATOM      8  C   UNL     1      15.881  20.652  23.534  1.00  0.00     0.000 C 
BRANCH   8   9
ATOM      9  C   UNL     1      15.444  22.112  23.341  1.00  0.00     0.006 C 
BRANCH   9  10
ATOM     10  C   UNL     1      14.575  22.616  24.500  1.00  0.00     0.053 C 
BRANCH  10  11
ATOM     11  C   UNL     1      15.079  23.917  25.046  1.00  0.00     0.041 C 
ATOM     12  O   UNL     1      14.755  24.286  26.206  1.00  0.00    -0.550 OA
ATOM     13  O   UNL     1      15.931  24.706  24.285  1.00  0.00    -0.550 OA
ENDBRANCH  10  11
ENDBRANCH   9  10
ENDBRANCH   8   9
ENDBRANCH   1   8
TORSDOF 8
ENDMDL
MODEL 7
REMARK VINA RESULT:    -3.618      0.929      1.454
REMARK INTER + INTRA:          -5.852
REMARK INTER:                  -5.231
REMARK INTRA:                  -0.622
REMARK UNBOUND:                -0.542
REMARK SMILES O=C([O-])CCCCCCCC(=O)[O-]
REMARK SMILES IDX 7 1 6 2 5 3 4 4 2 5 1 6 3 7 8 8 9 9 10 10 11 11 12 12 13 13
REMARK H PARENT
REMARK Flexibility Score: inf
ROOT
ATOM      1  C   UNL     1       9.688  16.006  32.175  1.00  0.00     0.000 C 
ENDROOT
BRANCH   1   2
ATOM      2  C   UNL     1      11.216  15.869  32.101  1.00  0.00     0.000 C 
BRANCH   2   3
ATOM      3  C   UNL     1      11.777  16.182  30.703  1.00  0.00     0.006 C 
BRANCH   3   4
ATOM      4  C   UNL     1      10.715  16.243  29.593  1.00  0.00     0.053 C 
BRANCH   4   5
ATOM      5  C   UNL     1      11.305  16.629  28.271  1.00  0.00     0.041 C 
ATOM      6  O   UNL     1      10.613  17.263  27.430  1.00  0.00    -0.550 OA
ATOM      7  O   UNL     1      12.606  16.262  27.956  1.00  0.00    -0.550 OA
ENDBRANCH   4   5
ENDBRANCH   3   4
ENDBRANCH   2   3
ENDBRANCH   1   2
BRANCH   1   8
ATOM      8  C   UNL     1       9.044  14.709  32.679  1.00  0.00     0.000 C 
BRANCH   8   9
ATOM      9  C   UNL     1       9.647  13.484  31.976  1.00  0.00     0.006 C 
BRANCH   9  10
ATOM     10  C   UNL     1       8.968  13.191  30.632  1.00  0.00     0.053 C 
BRANCH  10  11
ATOM     11  C   UNL     1       7.531  12.805  30.811  1.00  0.00     0.041 C 
ATOM     12  O   UNL     1       7.230  11.768  31.459  1.00  0.00    -0.550 OA
ATOM     13  O   UNL     1       6.526  13.607  30.287  1.00  0.00    -0.550 OA
ENDBRANCH  10  11
ENDBRANCH   9  10
ENDBRANCH   8   9
ENDBRANCH   1   8
TORSDOF 8
ENDMDL
MODEL 8
REMARK VINA RESULT:    -3.618     12.189     13.522
REMARK INTER + INTRA:          -5.852
REMARK INTER:                  -5.156
REMARK INTRA:                  -0.696
REMARK UNBOUND:                -0.542
REMARK SMILES O=C([O-])CCCCCCCC(=O)[O-]
REMARK SMILES IDX 7 1 6 2 5 3 4 4 2 5 1 6 3 7 8 8 9 9 10 10 11 11 12 12 13 13
REMARK H PARENT
REMARK Flexibility Score: inf
ROOT
ATOM      1  C   UNL     1      14.979  20.141  21.635  1.00  0.00     0.000 C 
ENDROOT
BRANCH   1   2
ATOM      2  C   UNL     1      16.355  20.819  21.711  1.00  0.00     0.000 C 
BRANCH   2   3
ATOM      3  C   UNL     1      17.005  20.695  23.100  1.00  0.00     0.006 C 
BRANCH   3   4
ATOM      4  C   UNL     1      17.426  22.035  23.726  1.00  0.00     0.053 C 
BRANCH   4   5
ATOM      5  C   UNL     1      16.248  22.916  24.009  1.00  0.00     0.041 C 
ATOM      6  O   UNL     1      16.309  24.152  23.769  1.00  0.00    -0.550 OA
ATOM      7  O   UNL     1      15.095  22.380  24.567  1.00  0.00    -0.550 OA
ENDBRANCH   4   5
ENDBRANCH   3   4
ENDBRANCH   2   3
ENDBRANCH   1   2
BRANCH   1   8
ATOM      8  C   UNL     1      13.869  21.175  21.410  1.00  0.00     0.000 C 
BRANCH   8   9
ATOM      9  C   UNL     1      14.440  22.479  20.832  1.00  0.00     0.006 C 
BRANCH   9  10
ATOM     10  C   UNL     1      13.984  22.723  19.388  1.00  0.00     0.053 C 
BRANCH  10  11
ATOM     11  C   UNL     1      12.539  23.110  19.321  1.00  0.00     0.041 C 
ATOM     12  O   UNL     1      11.700  22.339  18.783  1.00  0.00    -0.550 OA
ATOM     13  O   UNL     1      12.113  24.308  19.878  1.00  0.00    -0.550 OA
ENDBRANCH  10  11
ENDBRANCH   9  10
ENDBRANCH   8   9
ENDBRANCH   1   8
TORSDOF 8
ENDMDL
MODEL 9
REMARK VINA RESULT:    -3.553      1.780      5.797
REMARK INTER + INTRA:          -5.755
REMARK INTER:                  -5.265
REMARK INTRA:                  -0.491
REMARK UNBOUND:                -0.542
REMARK SMILES O=C([O-])CCCCCCCC(=O)[O-]
REMARK SMILES IDX 7 1 6 2 5 3 4 4 2 5 1 6 3 7 8 8 9 9 10 10 11 11 12 12 13 13
REMARK H PARENT
REMARK Flexibility Score: inf
ROOT
ATOM      1  C   UNL     1      11.666  16.006  31.580  1.00  0.00     0.000 C 
ENDROOT
BRANCH   1   2
ATOM      2  C   UNL     1      10.664  15.999  32.744  1.00  0.00     0.000 C 
BRANCH   2   3
ATOM      3  C   UNL     1       9.330  15.323  32.377  1.00  0.00     0.006 C 
BRANCH   3   4
ATOM      4  C   UNL     1       9.417  13.797  32.212  1.00  0.00     0.053 C 
BRANCH   4   5
ATOM      5  C   UNL     1       9.011  13.356  30.839  1.00  0.00     0.041 C 
ATOM      6  O   UNL     1       9.865  13.296  29.915  1.00  0.00    -0.550 OA
ATOM      7  O   UNL     1       7.684  13.044  30.573  1.00  0.00    -0.550 OA
ENDBRANCH   4   5
ENDBRANCH   3   4
ENDBRANCH   2   3
ENDBRANCH   1   2
BRANCH   1   8
ATOM      8  C   UNL     1      11.085  16.731  30.360  1.00  0.00     0.000 C 
BRANCH   8   9
ATOM      9  C   UNL     1      11.762  16.258  29.065  1.00  0.00     0.006 C 
BRANCH   9  10
ATOM     10  C   UNL     1      12.032  17.415  28.094  1.00  0.00     0.053 C 
BRANCH  10  11
ATOM     11  C   UNL     1      12.735  16.947  26.857  1.00  0.00     0.041 C 
ATOM     12  O   UNL     1      12.141  16.200  26.034  1.00  0.00    -0.550 OA
ATOM     13  O   UNL     1      14.035  17.360  26.598  1.00  0.00    -0.550 OA
ENDBRANCH  10  11
ENDBRANCH   9  10
ENDBRANCH   8   9
ENDBRANCH   1   8
TORSDOF 8
ENDMDL
