MODEL 1
REMARK VINA RESULT:    -6.297      0.000      0.000
REMARK INTER + INTRA:          -8.817
REMARK INTER:                  -7.769
REMARK INTRA:                  -1.048
REMARK UNBOUND:                -1.048
REMARK SMILES CC(C)=CCC[C@@H](C)c1ccc(C)cc1
REMARK SMILES IDX 6 1 7 2 8 3 9 4 13 5 12 6 11 7 14 8 10 9 15 10 5 11 4 12
REMARK SMILES IDX 2 13 1 14 3 15
REMARK H PARENT
REMARK Flexibility Score: inf
ROOT
ATOM      1  C   UNL     1       1.336   5.829  20.201  1.00  0.00     0.012 C 
ENDROOT
BRANCH   1   2
ATOM      2  C   UNL     1       2.285   7.049  20.196  1.00  0.00     0.016 C 
ATOM      3  C   UNL     1       1.540   8.377  19.982  1.00  0.00     0.013 C 
BRANCH   2   4
ATOM      4  C   UNL     1       3.210   7.065  21.404  1.00  0.00    -0.045 A 
ATOM      5  C   UNL     1       5.914   7.212  24.773  1.00  0.00     0.044 C 
ATOM      6  C   UNL     1       5.003   7.158  23.584  1.00  0.00    -0.051 A 
ATOM      7  C   UNL     1       4.579   8.342  22.963  1.00  0.00     0.004 A 
ATOM      8  C   UNL     1       4.517   5.929  23.120  1.00  0.00     0.004 A 
ATOM      9  C   UNL     1       3.702   8.295  21.877  1.00  0.00     0.004 A 
ATOM     10  C   UNL     1       3.639   5.879  22.033  1.00  0.00     0.004 A 
ENDBRANCH   2   4
ENDBRANCH   1   2
BRANCH   1  11
ATOM     11  C   UNL     1       1.437   4.934  18.955  1.00  0.00     0.028 C 
BRANCH  11  12
ATOM     12  C   UNL     1       2.381   3.784  19.202  1.00  0.00    -0.028 C 
ATOM     13  C   UNL     1       3.661   3.742  18.770  1.00  0.00    -0.080 C 
ATOM     14  C   UNL     1       4.501   2.543  19.126  1.00  0.00     0.039 C 
ATOM     15  C   UNL     1       4.260   4.849  17.933  1.00  0.00     0.039 C 
ENDBRANCH  11  12
ENDBRANCH   1  11
TORSDOF 4
ENDMDL
MODEL 2
REMARK VINA RESULT:    -6.120      1.942      2.897
REMARK INTER + INTRA:          -8.600
REMARK INTER:                  -7.624
REMARK INTRA:                  -0.976
REMARK UNBOUND:                -1.048
REMARK SMILES CC(C)=CCC[C@@H](C)c1ccc(C)cc1
REMARK SMILES IDX 6 1 7 2 8 3 9 4 13 5 12 6 11 7 14 8 10 9 15 10 5 11 4 12
REMARK SMILES IDX 2 13 1 14 3 15
REMARK H PARENT
REMARK Flexibility Score: inf
ROOT
ATOM      1  C   UNL     1       2.448   8.405  19.489  1.00  0.00     0.012 C 
ENDROOT
BRANCH   1   2
ATOM      2  C   UNL     1       2.244   7.170  20.395  1.00  0.00     0.016 C 
ATOM      3  C   UNL     1       2.276   5.848  19.609  1.00  0.00     0.013 C 
BRANCH   2   4
ATOM      4  C   UNL     1       3.173   7.178  21.599  1.00  0.00    -0.045 A 
ATOM      5  C   UNL     1       5.893   7.296  24.956  1.00  0.00     0.044 C 
ATOM      6  C   UNL     1       4.976   7.252  23.771  1.00  0.00    -0.051 A 
ATOM      7  C   UNL     1       4.573   8.439  23.144  1.00  0.00     0.004 A 
ATOM      8  C   UNL     1       4.465   6.029  23.318  1.00  0.00     0.004 A 
ATOM      9  C   UNL     1       3.691   8.401  22.061  1.00  0.00     0.004 A 
ATOM     10  C   UNL     1       3.581   5.988  22.235  1.00  0.00     0.004 A 
ENDBRANCH   2   4
ENDBRANCH   1   2
BRANCH   1  11
ATOM     11  C   UNL     1       3.314   8.150  18.244  1.00  0.00     0.028 C 
BRANCH  11  12
ATOM     12  C   UNL     1       4.754   8.507  18.516  1.00  0.00    -0.028 C 
ATOM     13  C   UNL     1       5.812   7.786  18.083  1.00  0.00    -0.080 C 
ATOM     14  C   UNL     1       7.198   8.286  18.398  1.00  0.00     0.039 C 
ATOM     15  C   UNL     1       5.642   6.497  17.314  1.00  0.00     0.039 C 
ENDBRANCH  11  12
ENDBRANCH   1  11
TORSDOF 4
ENDMDL
MODEL 3
REMARK VINA RESULT:    -6.048      1.170      1.979
REMARK INTER + INTRA:          -8.511
REMARK INTER:                  -7.656
REMARK INTRA:                  -0.855
REMARK UNBOUND:                -1.048
REMARK SMILES CC(C)=CCC[C@@H](C)c1ccc(C)cc1
REMARK SMILES IDX 6 1 7 2 8 3 9 4 13 5 12 6 11 7 14 8 10 9 15 10 5 11 4 12
REMARK SMILES IDX 2 13 1 14 3 15
REMARK H PARENT
REMARK Flexibility Score: inf
ROOT
ATOM      1  C   UNL     1       3.095   4.000  20.435  1.00  0.00     0.012 C 
ENDROOT
BRANCH   1   2
ATOM      2  C   UNL     1       2.733   5.502  20.472  1.00  0.00     0.016 C 
ATOM      3  C   UNL     1       1.213   5.745  20.456  1.00  0.00     0.013 C 
BRANCH   2   4
ATOM      4  C   UNL     1       3.448   6.241  21.593  1.00  0.00    -0.045 A 
ATOM      5  C   UNL     1       5.531   8.430  24.684  1.00  0.00     0.044 C 
ATOM      6  C   UNL     1       4.837   7.670  23.594  1.00  0.00    -0.051 A 
ATOM      7  C   UNL     1       4.164   8.354  22.572  1.00  0.00     0.004 A 
ATOM      8  C   UNL     1       4.802   6.269  23.620  1.00  0.00     0.004 A 
ATOM      9  C   UNL     1       3.487   7.646  21.575  1.00  0.00     0.004 A 
ATOM     10  C   UNL     1       4.126   5.559  22.623  1.00  0.00     0.004 A 
ENDBRANCH   2   4
ENDBRANCH   1   2
BRANCH   1  11
ATOM     11  C   UNL     1       3.445   3.460  19.039  1.00  0.00     0.028 C 
BRANCH  11  12
ATOM     12  C   UNL     1       4.487   4.328  18.379  1.00  0.00    -0.028 C 
ATOM     13  C   UNL     1       4.259   5.101  17.294  1.00  0.00    -0.080 C 
ATOM     14  C   UNL     1       5.388   5.948  16.766  1.00  0.00     0.039 C 
ATOM     15  C   UNL     1       2.920   5.124  16.595  1.00  0.00     0.039 C 
ENDBRANCH  11  12
ENDBRANCH   1  11
TORSDOF 4
ENDMDL
MODEL 4
REMARK VINA RESULT:    -5.987      1.824      4.502
REMARK INTER + INTRA:          -8.436
REMARK INTER:                  -7.168
REMARK INTRA:                  -1.267
REMARK UNBOUND:                -1.048
REMARK SMILES CC(C)=CCC[C@@H](C)c1ccc(C)cc1
REMARK SMILES IDX 6 1 7 2 8 3 9 4 13 5 12 6 11 7 14 8 10 9 15 10 5 11 4 12
REMARK SMILES IDX 2 13 1 14 3 15
REMARK H PARENT
REMARK Flexibility Score: inf
ROOT
ATOM      1  C   UNL     1       3.816   7.260  22.112  1.00  0.00     0.012 C 
ENDROOT
BRANCH   1   2
ATOM      2  C   UNL     1       2.723   6.195  21.870  1.00  0.00     0.016 C 
ATOM      3  C   UNL     1       1.498   6.762  21.130  1.00  0.00     0.013 C 
BRANCH   2   4
ATOM      4  C   UNL     1       3.280   4.932  21.231  1.00  0.00    -0.045 A 
ATOM      5  C   UNL     1       4.977   1.353  19.499  1.00  0.00     0.044 C 
ATOM      6  C   UNL     1       4.417   2.610  20.095  1.00  0.00    -0.051 A 
ATOM      7  C   UNL     1       4.495   2.834  21.477  1.00  0.00     0.004 A 
ATOM      8  C   UNL     1       3.758   3.544  19.285  1.00  0.00     0.004 A 
ATOM      9  C   UNL     1       3.942   3.989  22.037  1.00  0.00     0.004 A 
ATOM     10  C   UNL     1       3.205   4.701  19.843  1.00  0.00     0.004 A 
ENDBRANCH   2   4
ENDBRANCH   1   2
BRANCH   1  11
ATOM     11  C   UNL     1       3.880   8.367  21.046  1.00  0.00     0.028 C 
BRANCH  11  12
ATOM     12  C   UNL     1       4.936   8.052  20.017  1.00  0.00    -0.028 C 
ATOM     13  C   UNL     1       4.688   7.869  18.702  1.00  0.00    -0.080 C 
ATOM     14  C   UNL     1       5.852   7.599  17.782  1.00  0.00     0.039 C 
ATOM     15  C   UNL     1       3.287   7.911  18.138  1.00  0.00     0.039 C 
ENDBRANCH  11  12
ENDBRANCH   1  11
TORSDOF 4
ENDMDL
MODEL 5
REMARK VINA RESULT:    -5.968      1.176      5.033
REMARK INTER + INTRA:          -8.412
REMARK INTER:                  -7.585
REMARK INTRA:                  -0.827
REMARK UNBOUND:                -1.048
REMARK SMILES CC(C)=CCC[C@@H](C)c1ccc(C)cc1
REMARK SMILES IDX 6 1 7 2 8 3 9 4 13 5 12 6 11 7 14 8 10 9 15 10 5 11 4 12
REMARK SMILES IDX 2 13 1 14 3 15
REMARK H PARENT
REMARK Flexibility Score: inf
ROOT
ATOM      1  C   UNL     1       2.584   7.798  21.035  1.00  0.00     0.012 C 
ENDROOT
BRANCH   1   2
ATOM      2  C   UNL     1       2.128   6.956  19.822  1.00  0.00     0.016 C 
ATOM      3  C   UNL     1       2.177   7.746  18.502  1.00  0.00     0.013 C 
BRANCH   2   4
ATOM      4  C   UNL     1       2.844   5.616  19.748  1.00  0.00    -0.045 A 
ATOM      5  C   UNL     1       4.824   1.789  19.409  1.00  0.00     0.044 C 
ATOM      6  C   UNL     1       4.108   3.102  19.517  1.00  0.00    -0.051 A 
ATOM      7  C   UNL     1       4.090   3.988  18.431  1.00  0.00     0.004 A 
ATOM      8  C   UNL     1       3.504   3.481  20.722  1.00  0.00     0.004 A 
ATOM      9  C   UNL     1       3.454   5.228  18.542  1.00  0.00     0.004 A 
ATOM     10  C   UNL     1       2.866   4.720  20.836  1.00  0.00     0.004 A 
ENDBRANCH   2   4
ENDBRANCH   1   2
BRANCH   1  11
ATOM     11  C   UNL     1       4.104   8.010  21.133  1.00  0.00     0.028 C 
BRANCH  11  12
ATOM     12  C   UNL     1       4.487   8.482  22.513  1.00  0.00    -0.028 C 
ATOM     13  C   UNL     1       4.840   7.663  23.528  1.00  0.00    -0.080 C 
ATOM     14  C   UNL     1       5.236   8.281  24.845  1.00  0.00     0.039 C 
ATOM     15  C   UNL     1       4.831   6.159  23.384  1.00  0.00     0.039 C 
ENDBRANCH  11  12
ENDBRANCH   1  11
TORSDOF 4
ENDMDL
MODEL 6
REMARK VINA RESULT:    -5.923      1.307      5.331
REMARK INTER + INTRA:          -8.356
REMARK INTER:                  -7.791
REMARK INTRA:                  -0.565
REMARK UNBOUND:                -1.048
REMARK SMILES CC(C)=CCC[C@@H](C)c1ccc(C)cc1
REMARK SMILES IDX 6 1 7 2 8 3 9 4 13 5 12 6 11 7 14 8 10 9 15 10 5 11 4 12
REMARK SMILES IDX 2 13 1 14 3 15
REMARK H PARENT
REMARK Flexibility Score: inf
ROOT
ATOM      1  C   UNL     1       3.960   7.375  21.165  1.00  0.00     0.012 C 
ENDROOT
BRANCH   1   2
ATOM      2  C   UNL     1       2.920   6.261  21.419  1.00  0.00     0.016 C 
ATOM      3  C   UNL     1       1.517   6.632  20.906  1.00  0.00     0.013 C 
BRANCH   2   4
ATOM      4  C   UNL     1       3.399   4.902  20.932  1.00  0.00    -0.045 A 
ATOM      5  C   UNL     1       4.875   1.055  19.625  1.00  0.00     0.044 C 
ATOM      6  C   UNL     1       4.393   2.403  20.071  1.00  0.00    -0.051 A 
ATOM      7  C   UNL     1       4.506   2.786  21.415  1.00  0.00     0.004 A 
ATOM      8  C   UNL     1       3.769   3.267  19.162  1.00  0.00     0.004 A 
ATOM      9  C   UNL     1       4.025   4.028  21.838  1.00  0.00     0.004 A 
ATOM     10  C   UNL     1       3.287   4.510  19.583  1.00  0.00     0.004 A 
ENDBRANCH   2   4
ENDBRANCH   1   2
BRANCH   1  11
ATOM     11  C   UNL     1       3.885   8.558  22.145  1.00  0.00     0.028 C 
BRANCH  11  12
ATOM     12  C   UNL     1       4.208   8.107  23.547  1.00  0.00    -0.028 C 
ATOM     13  C   UNL     1       5.445   7.769  23.973  1.00  0.00    -0.080 C 
ATOM     14  C   UNL     1       5.626   7.375  25.416  1.00  0.00     0.039 C 
ATOM     15  C   UNL     1       6.637   7.760  23.043  1.00  0.00     0.039 C 
ENDBRANCH  11  12
ENDBRANCH   1  11
TORSDOF 4
ENDMDL
MODEL 7
REMARK VINA RESULT:    -5.900     14.727     16.556
REMARK INTER + INTRA:          -8.327
REMARK INTER:                  -7.316
REMARK INTRA:                  -1.011
REMARK UNBOUND:                -1.048
REMARK SMILES CC(C)=CCC[C@@H](C)c1ccc(C)cc1
REMARK SMILES IDX 6 1 7 2 8 3 9 4 13 5 12 6 11 7 14 8 10 9 15 10 5 11 4 12
REMARK SMILES IDX 2 13 1 14 3 15
REMARK H PARENT
REMARK Flexibility Score: inf
ROOT
ATOM      1  C   UNL     1      13.186  -4.246  31.125  1.00  0.00     0.012 C 
ENDROOT
BRANCH   1   2
ATOM      2  C   UNL     1      13.808  -2.904  31.570  1.00  0.00     0.016 C 
ATOM      3  C   UNL     1      14.913  -3.086  32.626  1.00  0.00     0.013 C 
BRANCH   2   4
ATOM      4  C   UNL     1      14.240  -2.047  30.389  1.00  0.00    -0.045 A 
ATOM      5  C   UNL     1      15.594   0.328  27.042  1.00  0.00     0.044 C 
ATOM      6  C   UNL     1      15.151  -0.486  28.220  1.00  0.00    -0.051 A 
ATOM      7  C   UNL     1      15.509  -1.838  28.320  1.00  0.00     0.004 A 
ATOM      8  C   UNL     1      14.325   0.079  29.201  1.00  0.00     0.004 A 
ATOM      9  C   UNL     1      15.068  -2.607  29.400  1.00  0.00     0.004 A 
ATOM     10  C   UNL     1      13.883  -0.689  30.282  1.00  0.00     0.004 A 
ENDBRANCH   2   4
ENDBRANCH   1   2
BRANCH   1  11
ATOM     11  C   UNL     1      11.758  -4.136  30.565  1.00  0.00     0.028 C 
BRANCH  11  12
ATOM     12  C   UNL     1      10.763  -3.941  31.681  1.00  0.00    -0.028 C 
ATOM     13  C   UNL     1      10.131  -2.776  31.945  1.00  0.00    -0.080 C 
ATOM     14  C   UNL     1       9.130  -2.740  33.071  1.00  0.00     0.039 C 
ATOM     15  C   UNL     1      10.412  -1.517  31.158  1.00  0.00     0.039 C 
ENDBRANCH  11  12
ENDBRANCH   1  11
TORSDOF 4
ENDMDL
MODEL 8
REMARK VINA RESULT:    -5.842     14.884     16.784
REMARK INTER + INTRA:          -8.256
REMARK INTER:                  -7.536
REMARK INTRA:                  -0.720
REMARK UNBOUND:                -1.048
REMARK SMILES CC(C)=CCC[C@@H](C)c1ccc(C)cc1
REMARK SMILES IDX 6 1 7 2 8 3 9 4 13 5 12 6 11 7 14 8 10 9 15 10 5 11 4 12
REMARK SMILES IDX 2 13 1 14 3 15
REMARK H PARENT
REMARK Flexibility Score: inf
ROOT
ATOM      1  C   UNL     1      13.558  -4.119  31.129  1.00  0.00     0.012 C 
ENDROOT
BRANCH   1   2
ATOM      2  C   UNL     1      14.743  -4.387  30.174  1.00  0.00     0.016 C 
ATOM      3  C   UNL     1      14.587  -5.704  29.393  1.00  0.00     0.013 C 
BRANCH   2   4
ATOM      4  C   UNL     1      15.049  -3.192  29.284  1.00  0.00    -0.045 A 
ATOM      5  C   UNL     1      15.798   0.264  26.798  1.00  0.00     0.044 C 
ATOM      6  C   UNL     1      15.508  -0.937  27.648  1.00  0.00    -0.051 A 
ATOM      7  C   UNL     1      15.018  -0.778  28.952  1.00  0.00     0.004 A 
ATOM      8  C   UNL     1      15.780  -2.225  27.169  1.00  0.00     0.004 A 
ATOM      9  C   UNL     1      14.779  -1.895  29.757  1.00  0.00     0.004 A 
ATOM     10  C   UNL     1      15.543  -3.344  27.973  1.00  0.00     0.004 A 
ENDBRANCH   2   4
ENDBRANCH   1   2
BRANCH   1  11
ATOM     11  C   UNL     1      12.170  -4.314  30.497  1.00  0.00     0.028 C 
BRANCH  11  12
ATOM     12  C   UNL     1      11.084  -4.086  31.519  1.00  0.00    -0.028 C 
ATOM     13  C   UNL     1      10.473  -2.899  31.730  1.00  0.00    -0.080 C 
ATOM     14  C   UNL     1       9.376  -2.830  32.761  1.00  0.00     0.039 C 
ATOM     15  C   UNL     1      10.871  -1.650  30.979  1.00  0.00     0.039 C 
ENDBRANCH  11  12
ENDBRANCH   1  11
TORSDOF 4
ENDMDL
MODEL 9
REMARK VINA RESULT:    -5.781      1.148      1.611
REMARK INTER + INTRA:          -8.181
REMARK INTER:                  -7.161
REMARK INTRA:                  -1.020
REMARK UNBOUND:                -1.048
REMARK SMILES CC(C)=CCC[C@@H](C)c1ccc(C)cc1
REMARK SMILES IDX 6 1 7 2 8 3 9 4 13 5 12 6 11 7 14 8 10 9 15 10 5 11 4 12
REMARK SMILES IDX 2 13 1 14 3 15
REMARK H PARENT
REMARK Flexibility Score: inf
ROOT
ATOM      1  C   UNL     1       3.852   6.506  18.665  1.00  0.00     0.012 C 
ENDROOT
BRANCH   1   2
ATOM      2  C   UNL     1       3.005   7.304  19.682  1.00  0.00     0.016 C 
ATOM      3  C   UNL     1       1.536   6.849  19.714  1.00  0.00     0.013 C 
BRANCH   2   4
ATOM      4  C   UNL     1       3.651   7.352  21.059  1.00  0.00    -0.045 A 
ATOM      5  C   UNL     1       5.604   7.442  24.914  1.00  0.00     0.044 C 
ATOM      6  C   UNL     1       4.938   7.380  23.572  1.00  0.00    -0.051 A 
ATOM      7  C   UNL     1       5.605   7.842  22.429  1.00  0.00     0.004 A 
ATOM      8  C   UNL     1       3.621   6.917  23.457  1.00  0.00     0.004 A 
ATOM      9  C   UNL     1       4.972   7.816  21.183  1.00  0.00     0.004 A 
ATOM     10  C   UNL     1       2.985   6.890  22.212  1.00  0.00     0.004 A 
ENDBRANCH   2   4
ENDBRANCH   1   2
BRANCH   1  11
ATOM     11  C   UNL     1       3.160   5.256  18.096  1.00  0.00     0.028 C 
BRANCH  11  12
ATOM     12  C   UNL     1       4.008   4.030  18.324  1.00  0.00    -0.028 C 
ATOM     13  C   UNL     1       3.984   3.286  19.452  1.00  0.00    -0.080 C 
ATOM     14  C   UNL     1       4.860   2.061  19.524  1.00  0.00     0.039 C 
ATOM     15  C   UNL     1       3.124   3.657  20.638  1.00  0.00     0.039 C 
ENDBRANCH  11  12
ENDBRANCH   1  11
TORSDOF 4
ENDMDL
