MODEL 1
REMARK VINA RESULT:    -4.374      0.000      0.000
REMARK INTER + INTRA:          -5.160
REMARK INTER:                  -5.141
REMARK INTRA:                  -0.019
REMARK UNBOUND:                -0.019
REMARK SMILES CCCCC(=O)[O-]
REMARK SMILES IDX 4 1 5 2 6 3 7 4 3 5 2 6 1 7
REMARK H PARENT
REMARK Flexibility Score: inf
ROOT
ATOM      1  C   UNL     1      -4.563  29.394  57.202  1.00  0.00     0.053 C 
ENDROOT
BRANCH   1   2
ATOM      2  C   UNL     1      -3.716  30.476  57.792  1.00  0.00     0.041 C 
ATOM      3  O   UNL     1      -2.502  30.262  58.048  1.00  0.00    -0.550 OA
ATOM      4  O   UNL     1      -4.279  31.707  58.106  1.00  0.00    -0.550 OA
ENDBRANCH   1   2
BRANCH   1   5
ATOM      5  C   UNL     1      -3.795  28.649  56.106  1.00  0.00     0.006 C 
BRANCH   5   6
ATOM      6  C   UNL     1      -4.671  27.573  55.456  1.00  0.00    -0.003 C 
ATOM      7  C   UNL     1      -3.868  26.727  54.473  1.00  0.00     0.004 C 
ENDBRANCH   5   6
ENDBRANCH   1   5
TORSDOF 3
ENDMDL
MODEL 2
REMARK VINA RESULT:    -4.255      2.656      4.385
REMARK INTER + INTRA:          -5.020
REMARK INTER:                  -4.998
REMARK INTRA:                  -0.022
REMARK UNBOUND:                -0.019
REMARK SMILES CCCCC(=O)[O-]
REMARK SMILES IDX 4 1 5 2 6 3 7 4 3 5 2 6 1 7
REMARK H PARENT
REMARK Flexibility Score: inf
ROOT
ATOM      1  C   UNL     1      -3.266  28.590  56.211  1.00  0.00     0.053 C 
ENDROOT
BRANCH   1   2
ATOM      2  C   UNL     1      -4.082  27.529  55.542  1.00  0.00     0.041 C 
ATOM      3  O   UNL     1      -5.328  27.667  55.426  1.00  0.00    -0.550 OA
ATOM      4  O   UNL     1      -3.472  26.365  55.092  1.00  0.00    -0.550 OA
ENDBRANCH   1   2
BRANCH   1   5
ATOM      5  C   UNL     1      -4.166  29.524  57.026  1.00  0.00     0.006 C 
BRANCH   5   6
ATOM      6  C   UNL     1      -3.341  30.366  58.005  1.00  0.00    -0.003 C 
ATOM      7  C   UNL     1      -4.116  31.597  58.463  1.00  0.00     0.004 C 
ENDBRANCH   5   6
ENDBRANCH   1   5
TORSDOF 3
ENDMDL
MODEL 3
REMARK VINA RESULT:    -4.173      3.569      4.596
REMARK INTER + INTRA:          -4.923
REMARK INTER:                  -4.868
REMARK INTRA:                  -0.056
REMARK UNBOUND:                -0.019
REMARK SMILES CCCCC(=O)[O-]
REMARK SMILES IDX 4 1 5 2 6 3 7 4 3 5 2 6 1 7
REMARK H PARENT
REMARK Flexibility Score: inf
ROOT
ATOM      1  C   UNL     1      -3.220  26.846  55.747  1.00  0.00     0.053 C 
ENDROOT
BRANCH   1   2
ATOM      2  C   UNL     1      -2.568  26.458  54.457  1.00  0.00     0.041 C 
ATOM      3  O   UNL     1      -3.227  26.478  53.384  1.00  0.00    -0.550 OA
ATOM      4  O   UNL     1      -1.248  26.027  54.448  1.00  0.00    -0.550 OA
ENDBRANCH   1   2
BRANCH   1   5
ATOM      5  C   UNL     1      -4.530  27.596  55.482  1.00  0.00     0.006 C 
BRANCH   5   6
ATOM      6  C   UNL     1      -4.739  28.715  56.507  1.00  0.00    -0.003 C 
ATOM      7  C   UNL     1      -3.416  29.383  56.872  1.00  0.00     0.004 C 
ENDBRANCH   5   6
ENDBRANCH   1   5
TORSDOF 3
ENDMDL
MODEL 4
REMARK VINA RESULT:    -4.086      1.455      2.022
REMARK INTER + INTRA:          -4.821
REMARK INTER:                  -4.757
REMARK INTRA:                  -0.064
REMARK UNBOUND:                -0.019
REMARK SMILES CCCCC(=O)[O-]
REMARK SMILES IDX 4 1 5 2 6 3 7 4 3 5 2 6 1 7
REMARK H PARENT
REMARK Flexibility Score: inf
ROOT
ATOM      1  C   UNL     1      -4.463  28.006  55.743  1.00  0.00     0.053 C 
ENDROOT
BRANCH   1   2
ATOM      2  C   UNL     1      -3.787  29.075  56.543  1.00  0.00     0.041 C 
ATOM      3  O   UNL     1      -2.544  29.252  56.440  1.00  0.00    -0.550 OA
ATOM      4  O   UNL     1      -4.521  29.842  57.439  1.00  0.00    -0.550 OA
ENDBRANCH   1   2
BRANCH   1   5
ATOM      5  C   UNL     1      -3.517  26.822  55.523  1.00  0.00     0.006 C 
BRANCH   5   6
ATOM      6  C   UNL     1      -3.338  26.533  54.028  1.00  0.00    -0.003 C 
ATOM      7  C   UNL     1      -1.872  26.281  53.688  1.00  0.00     0.004 C 
ENDBRANCH   5   6
ENDBRANCH   1   5
TORSDOF 3
ENDMDL
MODEL 5
REMARK VINA RESULT:    -4.052      2.537      3.461
REMARK INTER + INTRA:          -4.781
REMARK INTER:                  -4.730
REMARK INTRA:                  -0.051
REMARK UNBOUND:                -0.019
REMARK SMILES CCCCC(=O)[O-]
REMARK SMILES IDX 4 1 5 2 6 3 7 4 3 5 2 6 1 7
REMARK H PARENT
REMARK Flexibility Score: inf
ROOT
ATOM      1  C   UNL     1      -3.239  26.778  55.768  1.00  0.00     0.053 C 
ENDROOT
BRANCH   1   2
ATOM      2  C   UNL     1      -4.128  27.976  55.880  1.00  0.00     0.041 C 
ATOM      3  O   UNL     1      -5.351  27.886  55.592  1.00  0.00    -0.550 OA
ATOM      4  O   UNL     1      -3.596  29.204  56.253  1.00  0.00    -0.550 OA
ENDBRANCH   1   2
BRANCH   1   5
ATOM      5  C   UNL     1      -3.102  26.346  54.305  1.00  0.00     0.006 C 
BRANCH   5   6
ATOM      6  C   UNL     1      -1.628  26.266  53.892  1.00  0.00    -0.003 C 
ATOM      7  C   UNL     1      -0.725  26.073  55.106  1.00  0.00     0.004 C 
ENDBRANCH   5   6
ENDBRANCH   1   5
TORSDOF 3
ENDMDL
MODEL 6
REMARK VINA RESULT:    -3.937      2.334      3.272
REMARK INTER + INTRA:          -4.646
REMARK INTER:                  -4.626
REMARK INTRA:                  -0.020
REMARK UNBOUND:                -0.019
REMARK SMILES CCCCC(=O)[O-]
REMARK SMILES IDX 4 1 5 2 6 3 7 4 3 5 2 6 1 7
REMARK H PARENT
REMARK Flexibility Score: inf
ROOT
ATOM      1  C   UNL     1      -3.063  27.006  55.437  1.00  0.00     0.053 C 
ENDROOT
BRANCH   1   2
ATOM      2  C   UNL     1      -3.942  28.123  55.904  1.00  0.00     0.041 C 
ATOM      3  O   UNL     1      -3.443  29.113  56.503  1.00  0.00    -0.550 OA
ATOM      4  O   UNL     1      -5.317  28.050  55.721  1.00  0.00    -0.550 OA
ENDBRANCH   1   2
BRANCH   1   5
ATOM      5  C   UNL     1      -3.578  26.436  54.112  1.00  0.00     0.006 C 
BRANCH   5   6
ATOM      6  C   UNL     1      -2.443  26.312  53.089  1.00  0.00    -0.003 C 
ATOM      7  C   UNL     1      -2.990  26.194  51.670  1.00  0.00     0.004 C 
ENDBRANCH   5   6
ENDBRANCH   1   5
TORSDOF 3
ENDMDL
MODEL 7
REMARK VINA RESULT:    -3.896      4.786      5.869
REMARK INTER + INTRA:          -4.599
REMARK INTER:                  -4.578
REMARK INTRA:                  -0.020
REMARK UNBOUND:                -0.019
REMARK SMILES CCCCC(=O)[O-]
REMARK SMILES IDX 4 1 5 2 6 3 7 4 3 5 2 6 1 7
REMARK H PARENT
REMARK Flexibility Score: inf
ROOT
ATOM      1  C   UNL     1      -2.263  26.387  53.286  1.00  0.00     0.053 C 
ENDROOT
BRANCH   1   2
ATOM      2  C   UNL     1      -2.455  26.355  51.802  1.00  0.00     0.041 C 
ATOM      3  O   UNL     1      -1.486  26.592  51.033  1.00  0.00    -0.550 OA
ATOM      4  O   UNL     1      -3.714  26.113  51.269  1.00  0.00    -0.550 OA
ENDBRANCH   1   2
BRANCH   1   5
ATOM      5  C   UNL     1      -3.617  26.382  54.002  1.00  0.00     0.006 C 
BRANCH   5   6
ATOM      6  C   UNL     1      -3.495  26.970  55.412  1.00  0.00    -0.003 C 
ATOM      7  C   UNL     1      -4.660  27.905  55.721  1.00  0.00     0.004 C 
ENDBRANCH   5   6
ENDBRANCH   1   5
TORSDOF 3
ENDMDL
MODEL 8
REMARK VINA RESULT:    -3.840      3.140      4.215
REMARK INTER + INTRA:          -4.533
REMARK INTER:                  -4.489
REMARK INTRA:                  -0.044
REMARK UNBOUND:                -0.019
REMARK SMILES CCCCC(=O)[O-]
REMARK SMILES IDX 4 1 5 2 6 3 7 4 3 5 2 6 1 7
REMARK H PARENT
REMARK Flexibility Score: inf
ROOT
ATOM      1  C   UNL     1      -2.355  26.966  56.324  1.00  0.00     0.053 C 
ENDROOT
BRANCH   1   2
ATOM      2  C   UNL     1      -0.938  26.686  55.932  1.00  0.00     0.041 C 
ATOM      3  O   UNL     1       0.010  27.074  56.664  1.00  0.00    -0.550 OA
ATOM      4  O   UNL     1      -0.664  26.038  54.734  1.00  0.00    -0.550 OA
ENDBRANCH   1   2
BRANCH   1   5
ATOM      5  C   UNL     1      -3.294  26.746  55.134  1.00  0.00     0.006 C 
BRANCH   5   6
ATOM      6  C   UNL     1      -4.610  27.507  55.325  1.00  0.00    -0.003 C 
ATOM      7  C   UNL     1      -4.464  28.608  56.372  1.00  0.00     0.004 C 
ENDBRANCH   5   6
ENDBRANCH   1   5
TORSDOF 3
ENDMDL
MODEL 9
REMARK VINA RESULT:    -3.647      3.299      4.657
REMARK INTER + INTRA:          -4.306
REMARK INTER:                  -4.222
REMARK INTRA:                  -0.084
REMARK UNBOUND:                -0.019
REMARK SMILES CCCCC(=O)[O-]
REMARK SMILES IDX 4 1 5 2 6 3 7 4 3 5 2 6 1 7
REMARK H PARENT
REMARK Flexibility Score: inf
ROOT
ATOM      1  C   UNL     1      -1.885  26.804  55.291  1.00  0.00     0.053 C 
ENDROOT
BRANCH   1   2
ATOM      2  C   UNL     1      -3.199  26.782  54.577  1.00  0.00     0.041 C 
ATOM      3  O   UNL     1      -4.265  27.016  55.205  1.00  0.00    -0.550 OA
ATOM      4  O   UNL     1      -3.251  26.453  53.228  1.00  0.00    -0.550 OA
ENDBRANCH   1   2
BRANCH   1   5
ATOM      5  C   UNL     1      -2.038  27.441  56.676  1.00  0.00     0.006 C 
BRANCH   5   6
ATOM      6  C   UNL     1      -1.729  28.941  56.628  1.00  0.00    -0.003 C 
ATOM      7  C   UNL     1      -2.754  29.741  57.425  1.00  0.00     0.004 C 
ENDBRANCH   5   6
ENDBRANCH   1   5
TORSDOF 3
ENDMDL
