MODEL 1
REMARK VINA RESULT:    -4.704      0.000      0.000
REMARK INTER + INTRA:          -8.294
REMARK INTER:                  -7.317
REMARK INTRA:                  -0.977
REMARK UNBOUND:                -0.977
REMARK SMILES COc1cc(CNC(=O)CCCCC=CC(C)C)ccc1O
REMARK SMILES IDX 11 1 12 2 13 3 14 4 15 5 16 6 17 7 18 8 10 9 8 10 9 11 7 12
REMARK SMILES IDX 6 14 5 15 4 16 19 17 3 18 20 19 21 20 2 21 1 22 22 23
REMARK H PARENT 7 13 22 24
REMARK Flexibility Score: inf
ROOT
ATOM      1  C   UNL     1      69.068  96.135  10.290  1.00  0.00     0.010 C 
ENDROOT
BRANCH   1   2
ATOM      2  C   UNL     1      70.123  97.044  10.937  1.00  0.00     0.005 C 
BRANCH   2   3
ATOM      3  C   UNL     1      70.023  98.476  10.402  1.00  0.00     0.027 C 
BRANCH   3   4
ATOM      4  C   UNL     1      70.888  98.642   9.181  1.00  0.00    -0.031 C 
ATOM      5  C   UNL     1      70.482  98.988   7.940  1.00  0.00    -0.028 C 
BRANCH   5   6
ATOM      6  C   UNL     1      69.064  99.200   7.441  1.00  0.00     0.005 C 
ATOM      7  C   UNL     1      68.968 100.327   6.405  1.00  0.00     0.012 C 
ATOM      8  C   UNL     1      68.374  97.912   6.973  1.00  0.00     0.012 C 
ENDBRANCH   5   6
ENDBRANCH   3   4
ENDBRANCH   2   3
ENDBRANCH   1   2
BRANCH   1   9
ATOM      9  C   UNL     1      69.690  94.899   9.626  1.00  0.00     0.100 C 
BRANCH   9  10
ATOM     10  C   UNL     1      69.854  93.773  10.605  1.00  0.00     0.220 C 
ATOM     11  O   UNL     1      68.836  93.134  10.988  1.00  0.00    -0.275 OA
ATOM     12  N   UNL     1      71.161  93.394  11.060  1.00  0.00    -0.352 N 
ATOM     13  H   UNL     1      71.978  93.988  10.792  1.00  0.00     0.163 HD
BRANCH  12  14
ATOM     14  C   UNL     1      71.440  92.069  11.609  1.00  0.00     0.151 C 
BRANCH  14  15
ATOM     15  C   UNL     1      72.927  91.868  11.699  1.00  0.00    -0.025 A 
ATOM     16  C   UNL     1      73.537  90.795  11.031  1.00  0.00     0.056 A 
ATOM     17  C   UNL     1      73.726  92.812  12.359  1.00  0.00     0.009 A 
ATOM     18  C   UNL     1      74.940  90.660  11.021  1.00  0.00     0.160 A 
ATOM     19  C   UNL     1      75.115  92.673  12.370  1.00  0.00     0.050 A 
ATOM     20  C   UNL     1      75.725  91.604  11.707  1.00  0.00     0.157 A 
BRANCH  18  21
ATOM     21  O   UNL     1      75.580  89.616  10.335  1.00  0.00    -0.493 OA
ATOM     22  C   UNL     1      75.619  88.264  10.779  1.00  0.00     0.278 C 
ENDBRANCH  18  21
BRANCH  20  23
ATOM     23  O   UNL     1      77.116  91.504  11.731  1.00  0.00    -0.504 OA
ATOM     24  H   UNL     1      77.670  91.468  10.883  1.00  0.00     0.293 HD
ENDBRANCH  20  23
ENDBRANCH  14  15
ENDBRANCH  12  14
ENDBRANCH   9  10
ENDBRANCH   1   9
TORSDOF 10
ENDMDL
MODEL 2
REMARK VINA RESULT:    -4.673      6.464     10.088
REMARK INTER + INTRA:          -8.246
REMARK INTER:                  -6.233
REMARK INTRA:                  -2.013
REMARK UNBOUND:                -0.977
REMARK SMILES COc1cc(CNC(=O)CCCCC=CC(C)C)ccc1O
REMARK SMILES IDX 11 1 12 2 13 3 14 4 15 5 16 6 17 7 18 8 10 9 8 10 9 11 7 12
REMARK SMILES IDX 6 14 5 15 4 16 19 17 3 18 20 19 21 20 2 21 1 22 22 23
REMARK H PARENT 7 13 22 24
REMARK Flexibility Score: inf
ROOT
ATOM      1  C   UNL     1      69.107  96.698   8.596  1.00  0.00     0.010 C 
ENDROOT
BRANCH   1   2
ATOM      2  C   UNL     1      70.289  97.334   9.343  1.00  0.00     0.005 C 
BRANCH   2   3
ATOM      3  C   UNL     1      70.712  98.652   8.688  1.00  0.00     0.027 C 
BRANCH   3   4
ATOM      4  C   UNL     1      71.129  99.650   9.736  1.00  0.00    -0.031 C 
ATOM      5  C   UNL     1      70.393 100.673  10.221  1.00  0.00    -0.028 C 
BRANCH   5   6
ATOM      6  C   UNL     1      69.016 101.133   9.774  1.00  0.00     0.005 C 
ATOM      7  C   UNL     1      67.890 100.275  10.361  1.00  0.00     0.012 C 
ATOM      8  C   UNL     1      68.774 102.636   9.971  1.00  0.00     0.012 C 
ENDBRANCH   5   6
ENDBRANCH   3   4
ENDBRANCH   2   3
ENDBRANCH   1   2
BRANCH   1   9
ATOM      9  C   UNL     1      67.873  96.529   9.493  1.00  0.00     0.100 C 
BRANCH   9  10
ATOM     10  C   UNL     1      66.643  97.094   8.847  1.00  0.00     0.220 C 
ATOM     11  O   UNL     1      65.600  97.256   9.539  1.00  0.00    -0.275 OA
ATOM     12  N   UNL     1      66.667  97.497   7.470  1.00  0.00    -0.352 N 
ATOM     13  H   UNL     1      67.514  97.279   6.899  1.00  0.00     0.163 HD
BRANCH  12  14
ATOM     14  C   UNL     1      65.709  98.454   6.922  1.00  0.00     0.151 C 
BRANCH  14  15
ATOM     15  C   UNL     1      66.445  99.664   6.416  1.00  0.00    -0.025 A 
ATOM     16  C   UNL     1      65.739 100.726   5.831  1.00  0.00     0.056 A 
ATOM     17  C   UNL     1      67.825  99.787   6.626  1.00  0.00     0.009 A 
ATOM     18  C   UNL     1      66.406 101.908   5.451  1.00  0.00     0.160 A 
ATOM     19  C   UNL     1      68.496 100.947   6.234  1.00  0.00     0.050 A 
ATOM     20  C   UNL     1      67.795 102.005   5.649  1.00  0.00     0.157 A 
BRANCH  18  21
ATOM     21  O   UNL     1      65.722 103.000   4.892  1.00  0.00    -0.493 OA
ATOM     22  C   UNL     1      65.410 103.134   3.510  1.00  0.00     0.278 C 
ENDBRANCH  18  21
BRANCH  20  23
ATOM     23  O   UNL     1      68.497 103.154   5.280  1.00  0.00    -0.504 OA
ATOM     24  H   UNL     1      68.823 103.830   5.961  1.00  0.00     0.293 HD
ENDBRANCH  20  23
ENDBRANCH  14  15
ENDBRANCH  12  14
ENDBRANCH   9  10
ENDBRANCH   1   9
TORSDOF 10
ENDMDL
MODEL 3
REMARK VINA RESULT:    -4.638      1.210      2.193
REMARK INTER + INTRA:          -8.191
REMARK INTER:                  -7.294
REMARK INTRA:                  -0.897
REMARK UNBOUND:                -0.977
REMARK SMILES COc1cc(CNC(=O)CCCCC=CC(C)C)ccc1O
REMARK SMILES IDX 11 1 12 2 13 3 14 4 15 5 16 6 17 7 18 8 10 9 8 10 9 11 7 12
REMARK SMILES IDX 6 14 5 15 4 16 19 17 3 18 20 19 21 20 2 21 1 22 22 23
REMARK H PARENT 7 13 22 24
REMARK Flexibility Score: inf
ROOT
ATOM      1  C   UNL     1      70.071  96.180   9.267  1.00  0.00     0.010 C 
ENDROOT
BRANCH   1   2
ATOM      2  C   UNL     1      68.978  97.176   8.852  1.00  0.00     0.005 C 
BRANCH   2   3
ATOM      3  C   UNL     1      69.571  98.348   8.063  1.00  0.00     0.027 C 
BRANCH   3   4
ATOM      4  C   UNL     1      70.921  98.723   8.614  1.00  0.00    -0.031 C 
ATOM      5  C   UNL     1      71.174  99.382   9.765  1.00  0.00    -0.028 C 
BRANCH   5   6
ATOM      6  C   UNL     1      70.179  99.990  10.737  1.00  0.00     0.005 C 
ATOM      7  C   UNL     1      70.342  99.447  12.162  1.00  0.00     0.012 C 
ATOM      8  C   UNL     1      70.131 101.523  10.694  1.00  0.00     0.012 C 
ENDBRANCH   5   6
ENDBRANCH   3   4
ENDBRANCH   2   3
ENDBRANCH   1   2
BRANCH   1   9
ATOM      9  C   UNL     1      69.950  95.761  10.739  1.00  0.00     0.100 C 
BRANCH   9  10
ATOM     10  C   UNL     1      70.033  94.271  10.895  1.00  0.00     0.220 C 
ATOM     11  O   UNL     1      69.102  93.549  10.441  1.00  0.00    -0.275 OA
ATOM     12  N   UNL     1      71.183  93.669  11.506  1.00  0.00    -0.352 N 
ATOM     13  H   UNL     1      71.900  94.290  11.945  1.00  0.00     0.163 HD
BRANCH  12  14
ATOM     14  C   UNL     1      71.547  92.273  11.276  1.00  0.00     0.151 C 
BRANCH  14  15
ATOM     15  C   UNL     1      72.926  92.020  11.818  1.00  0.00    -0.025 A 
ATOM     16  C   UNL     1      73.757  91.062  11.216  1.00  0.00     0.056 A 
ATOM     17  C   UNL     1      73.431  92.814  12.856  1.00  0.00     0.009 A 
ATOM     18  C   UNL     1      75.087  90.892  11.649  1.00  0.00     0.160 A 
ATOM     19  C   UNL     1      74.742  92.638  13.303  1.00  0.00     0.050 A 
ATOM     20  C   UNL     1      75.571  91.683  12.707  1.00  0.00     0.157 A 
BRANCH  18  21
ATOM     21  O   UNL     1      75.952  89.965  11.045  1.00  0.00    -0.493 OA
ATOM     22  C   UNL     1      75.547  88.700  10.533  1.00  0.00     0.278 C 
ENDBRANCH  18  21
BRANCH  20  23
ATOM     23  O   UNL     1      76.878  91.543  13.172  1.00  0.00    -0.504 OA
ATOM     24  H   UNL     1      77.327  90.639  13.260  1.00  0.00     0.293 HD
ENDBRANCH  20  23
ENDBRANCH  14  15
ENDBRANCH  12  14
ENDBRANCH   9  10
ENDBRANCH   1   9
TORSDOF 10
ENDMDL
MODEL 4
REMARK VINA RESULT:    -4.611     12.423     15.639
REMARK INTER + INTRA:          -8.149
REMARK INTER:                  -6.881
REMARK INTRA:                  -1.268
REMARK UNBOUND:                -0.977
REMARK SMILES COc1cc(CNC(=O)CCCCC=CC(C)C)ccc1O
REMARK SMILES IDX 11 1 12 2 13 3 14 4 15 5 16 6 17 7 18 8 10 9 8 10 9 11 7 12
REMARK SMILES IDX 6 14 5 15 4 16 19 17 3 18 20 19 21 20 2 21 1 22 22 23
REMARK H PARENT 7 13 22 24
REMARK Flexibility Score: inf
ROOT
ATOM      1  C   UNL     1      82.556  89.958  -1.322  1.00  0.00     0.010 C 
ENDROOT
BRANCH   1   2
ATOM      2  C   UNL     1      82.062  90.745  -2.545  1.00  0.00     0.005 C 
BRANCH   2   3
ATOM      3  C   UNL     1      80.618  90.372  -2.896  1.00  0.00     0.027 C 
BRANCH   3   4
ATOM      4  C   UNL     1      80.563  89.689  -4.237  1.00  0.00    -0.031 C 
ATOM      5  C   UNL     1      80.788  88.382  -4.492  1.00  0.00    -0.028 C 
BRANCH   5   6
ATOM      6  C   UNL     1      81.240  87.301  -3.527  1.00  0.00     0.005 C 
ATOM      7  C   UNL     1      80.295  86.094  -3.511  1.00  0.00     0.012 C 
ATOM      8  C   UNL     1      82.709  86.894  -3.700  1.00  0.00     0.012 C 
ENDBRANCH   5   6
ENDBRANCH   3   4
ENDBRANCH   2   3
ENDBRANCH   1   2
BRANCH   1   9
ATOM      9  C   UNL     1      81.400  89.414  -0.472  1.00  0.00     0.100 C 
BRANCH   9  10
ATOM     10  C   UNL     1      81.645  87.993  -0.057  1.00  0.00     0.220 C 
ATOM     11  O   UNL     1      82.806  87.511  -0.157  1.00  0.00    -0.275 OA
ATOM     12  N   UNL     1      80.580  87.207   0.499  1.00  0.00    -0.352 N 
ATOM     13  H   UNL     1      79.612  87.601   0.497  1.00  0.00     0.163 HD
BRANCH  12  14
ATOM     14  C   UNL     1      80.832  86.035   1.334  1.00  0.00     0.151 C 
BRANCH  14  15
ATOM     15  C   UNL     1      81.007  86.467   2.764  1.00  0.00    -0.025 A 
ATOM     16  C   UNL     1      79.895  86.549   3.617  1.00  0.00     0.056 A 
ATOM     17  C   UNL     1      82.290  86.684   3.282  1.00  0.00     0.009 A 
ATOM     18  C   UNL     1      80.061  86.850   4.984  1.00  0.00     0.160 A 
ATOM     19  C   UNL     1      82.460  87.001   4.630  1.00  0.00     0.050 A 
ATOM     20  C   UNL     1      81.355  87.086   5.482  1.00  0.00     0.157 A 
BRANCH  18  21
ATOM     21  O   UNL     1      78.973  86.908   5.869  1.00  0.00    -0.493 OA
ATOM     22  C   UNL     1      78.677  85.918   6.848  1.00  0.00     0.278 C 
ENDBRANCH  18  21
BRANCH  20  23
ATOM     23  O   UNL     1      81.565  87.395   6.826  1.00  0.00    -0.504 OA
ATOM     24  H   UNL     1      80.925  87.977   7.354  1.00  0.00     0.293 HD
ENDBRANCH  20  23
ENDBRANCH  14  15
ENDBRANCH  12  14
ENDBRANCH   9  10
ENDBRANCH   1   9
TORSDOF 10
ENDMDL
MODEL 5
REMARK VINA RESULT:    -4.551      1.739      2.258
REMARK INTER + INTRA:          -8.056
REMARK INTER:                  -7.317
REMARK INTRA:                  -0.740
REMARK UNBOUND:                -0.977
REMARK SMILES COc1cc(CNC(=O)CCCCC=CC(C)C)ccc1O
REMARK SMILES IDX 11 1 12 2 13 3 14 4 15 5 16 6 17 7 18 8 10 9 8 10 9 11 7 12
REMARK SMILES IDX 6 14 5 15 4 16 19 17 3 18 20 19 21 20 2 21 1 22 22 23
REMARK H PARENT 7 13 22 24
REMARK Flexibility Score: inf
ROOT
ATOM      1  C   UNL     1      70.015  96.844  10.622  1.00  0.00     0.010 C 
ENDROOT
BRANCH   1   2
ATOM      2  C   UNL     1      70.270  97.245   9.162  1.00  0.00     0.005 C 
BRANCH   2   3
ATOM      3  C   UNL     1      70.368  98.766   9.014  1.00  0.00     0.027 C 
BRANCH   3   4
ATOM      4  C   UNL     1      70.435  99.150   7.560  1.00  0.00    -0.031 C 
ATOM      5  C   UNL     1      69.401  99.501   6.765  1.00  0.00    -0.028 C 
BRANCH   5   6
ATOM      6  C   UNL     1      67.919  99.506   7.099  1.00  0.00     0.005 C 
ATOM      7  C   UNL     1      67.178 100.688   6.463  1.00  0.00     0.012 C 
ATOM      8  C   UNL     1      67.222  98.165   6.836  1.00  0.00     0.012 C 
ENDBRANCH   5   6
ENDBRANCH   3   4
ENDBRANCH   2   3
ENDBRANCH   1   2
BRANCH   1   9
ATOM      9  C   UNL     1      70.077  95.325  10.830  1.00  0.00     0.100 C 
BRANCH   9  10
ATOM     10  C   UNL     1      70.226  94.975  12.282  1.00  0.00     0.220 C 
ATOM     11  O   UNL     1      69.198  94.702  12.960  1.00  0.00    -0.275 OA
ATOM     12  N   UNL     1      71.529  94.899  12.879  1.00  0.00    -0.352 N 
ATOM     13  H   UNL     1      72.356  95.207  12.320  1.00  0.00     0.163 HD
BRANCH  12  14
ATOM     14  C   UNL     1      71.783  94.134  14.098  1.00  0.00     0.151 C 
BRANCH  14  15
ATOM     15  C   UNL     1      73.056  93.350  13.939  1.00  0.00    -0.025 A 
ATOM     16  C   UNL     1      73.635  93.193  12.670  1.00  0.00     0.056 A 
ATOM     17  C   UNL     1      73.731  92.867  15.068  1.00  0.00     0.009 A 
ATOM     18  C   UNL     1      74.882  92.553  12.525  1.00  0.00     0.160 A 
ATOM     19  C   UNL     1      74.957  92.215  14.930  1.00  0.00     0.050 A 
ATOM     20  C   UNL     1      75.535  92.054  13.667  1.00  0.00     0.157 A 
BRANCH  18  21
ATOM     21  O   UNL     1      75.501  92.408  11.273  1.00  0.00    -0.493 OA
ATOM     22  C   UNL     1      74.963  91.658  10.189  1.00  0.00     0.278 C 
ENDBRANCH  18  21
BRANCH  20  23
ATOM     23  O   UNL     1      76.766  91.407  13.568  1.00  0.00    -0.504 OA
ATOM     24  H   UNL     1      77.527  91.592  14.211  1.00  0.00     0.293 HD
ENDBRANCH  20  23
ENDBRANCH  14  15
ENDBRANCH  12  14
ENDBRANCH   9  10
ENDBRANCH   1   9
TORSDOF 10
ENDMDL
MODEL 6
REMARK VINA RESULT:    -4.480      1.417      2.130
REMARK INTER + INTRA:          -7.945
REMARK INTER:                  -6.892
REMARK INTRA:                  -1.053
REMARK UNBOUND:                -0.977
REMARK SMILES COc1cc(CNC(=O)CCCCC=CC(C)C)ccc1O
REMARK SMILES IDX 11 1 12 2 13 3 14 4 15 5 16 6 17 7 18 8 10 9 8 10 9 11 7 12
REMARK SMILES IDX 6 14 5 15 4 16 19 17 3 18 20 19 21 20 2 21 1 22 22 23
REMARK H PARENT 7 13 22 24
REMARK Flexibility Score: inf
ROOT
ATOM      1  C   UNL     1      69.296  97.706  11.408  1.00  0.00     0.010 C 
ENDROOT
BRANCH   1   2
ATOM      2  C   UNL     1      70.486  98.630  11.709  1.00  0.00     0.005 C 
BRANCH   2   3
ATOM      3  C   UNL     1      70.598  99.745  10.665  1.00  0.00     0.027 C 
BRANCH   3   4
ATOM      4  C   UNL     1      71.211  99.216   9.395  1.00  0.00    -0.031 C 
ATOM      5  C   UNL     1      70.583  98.999   8.220  1.00  0.00    -0.028 C 
BRANCH   5   6
ATOM      6  C   UNL     1      69.103  99.137   7.907  1.00  0.00     0.005 C 
ATOM      7  C   UNL     1      68.790 100.399   7.094  1.00  0.00     0.012 C 
ATOM      8  C   UNL     1      68.481  97.875   7.294  1.00  0.00     0.012 C 
ENDBRANCH   5   6
ENDBRANCH   3   4
ENDBRANCH   2   3
ENDBRANCH   1   2
BRANCH   1   9
ATOM      9  C   UNL     1      69.741  96.328  10.901  1.00  0.00     0.100 C 
BRANCH   9  10
ATOM     10  C   UNL     1      69.911  95.355  12.030  1.00  0.00     0.220 C 
ATOM     11  O   UNL     1      68.928  94.654  12.396  1.00  0.00    -0.275 OA
ATOM     12  N   UNL     1      71.193  95.185  12.653  1.00  0.00    -0.352 N 
ATOM     13  H   UNL     1      71.969  95.832  12.387  1.00  0.00     0.163 HD
BRANCH  12  14
ATOM     14  C   UNL     1      71.543  93.976  13.395  1.00  0.00     0.151 C 
BRANCH  14  15
ATOM     15  C   UNL     1      72.371  93.075  12.521  1.00  0.00    -0.025 A 
ATOM     16  C   UNL     1      73.760  92.994  12.704  1.00  0.00     0.056 A 
ATOM     17  C   UNL     1      71.749  92.229  11.593  1.00  0.00     0.009 A 
ATOM     18  C   UNL     1      74.529  92.075  11.963  1.00  0.00     0.160 A 
ATOM     19  C   UNL     1      72.506  91.330  10.842  1.00  0.00     0.050 A 
ATOM     20  C   UNL     1      73.891  91.249  11.021  1.00  0.00     0.157 A 
BRANCH  18  21
ATOM     21  O   UNL     1      75.915  91.949  12.147  1.00  0.00    -0.493 OA
ATOM     22  C   UNL     1      76.534  90.947  12.947  1.00  0.00     0.278 C 
ENDBRANCH  18  21
BRANCH  20  23
ATOM     23  O   UNL     1      74.614  90.330  10.260  1.00  0.00    -0.504 OA
ATOM     24  H   UNL     1      74.365  90.104   9.304  1.00  0.00     0.293 HD
ENDBRANCH  20  23
ENDBRANCH  14  15
ENDBRANCH  12  14
ENDBRANCH   9  10
ENDBRANCH   1   9
TORSDOF 10
ENDMDL
MODEL 7
REMARK VINA RESULT:    -4.420      5.628     10.695
REMARK INTER + INTRA:          -7.853
REMARK INTER:                  -7.096
REMARK INTRA:                  -0.756
REMARK UNBOUND:                -0.977
REMARK SMILES COc1cc(CNC(=O)CCCCC=CC(C)C)ccc1O
REMARK SMILES IDX 11 1 12 2 13 3 14 4 15 5 16 6 17 7 18 8 10 9 8 10 9 11 7 12
REMARK SMILES IDX 6 14 5 15 4 16 19 17 3 18 20 19 21 20 2 21 1 22 22 23
REMARK H PARENT 7 13 22 24
REMARK Flexibility Score: inf
ROOT
ATOM      1  C   UNL     1      77.554  87.261   7.732  1.00  0.00     0.010 C 
ENDROOT
BRANCH   1   2
ATOM      2  C   UNL     1      78.778  86.397   8.072  1.00  0.00     0.005 C 
BRANCH   2   3
ATOM      3  C   UNL     1      79.594  86.076   6.815  1.00  0.00     0.027 C 
BRANCH   3   4
ATOM      4  C   UNL     1      79.136  86.927   5.660  1.00  0.00    -0.031 C 
ATOM      5  C   UNL     1      79.716  87.026   4.445  1.00  0.00    -0.028 C 
BRANCH   5   6
ATOM      6  C   UNL     1      81.012  86.393   3.969  1.00  0.00     0.005 C 
ATOM      7  C   UNL     1      81.046  86.197   2.448  1.00  0.00     0.012 C 
ATOM      8  C   UNL     1      82.272  87.089   4.500  1.00  0.00     0.012 C 
ENDBRANCH   5   6
ENDBRANCH   3   4
ENDBRANCH   2   3
ENDBRANCH   1   2
BRANCH   1   9
ATOM      9  C   UNL     1      76.240  86.622   8.203  1.00  0.00     0.100 C 
BRANCH   9  10
ATOM     10  C   UNL     1      75.829  87.141   9.550  1.00  0.00     0.220 C 
ATOM     11  O   UNL     1      75.045  86.457  10.263  1.00  0.00    -0.275 OA
ATOM     12  N   UNL     1      76.363  88.378  10.044  1.00  0.00    -0.352 N 
ATOM     13  H   UNL     1      76.945  88.964   9.404  1.00  0.00     0.163 HD
BRANCH  12  14
ATOM     14  C   UNL     1      76.390  88.701  11.468  1.00  0.00     0.151 C 
BRANCH  14  15
ATOM     15  C   UNL     1      75.702  90.018  11.696  1.00  0.00    -0.025 A 
ATOM     16  C   UNL     1      74.418  90.243  11.176  1.00  0.00     0.056 A 
ATOM     17  C   UNL     1      76.290  90.987  12.519  1.00  0.00     0.009 A 
ATOM     18  C   UNL     1      73.722  91.432  11.472  1.00  0.00     0.160 A 
ATOM     19  C   UNL     1      75.615  92.175  12.802  1.00  0.00     0.050 A 
ATOM     20  C   UNL     1      74.337  92.403  12.283  1.00  0.00     0.157 A 
BRANCH  18  21
ATOM     21  O   UNL     1      72.424  91.672  10.993  1.00  0.00    -0.493 OA
ATOM     22  C   UNL     1      71.452  90.659  10.757  1.00  0.00     0.278 C 
ENDBRANCH  18  21
BRANCH  20  23
ATOM     23  O   UNL     1      73.688  93.598  12.596  1.00  0.00    -0.504 OA
ATOM     24  H   UNL     1      72.743  93.620  12.961  1.00  0.00     0.293 HD
ENDBRANCH  20  23
ENDBRANCH  14  15
ENDBRANCH  12  14
ENDBRANCH   9  10
ENDBRANCH   1   9
TORSDOF 10
ENDMDL
MODEL 8
REMARK VINA RESULT:    -4.401      2.930      8.298
REMARK INTER + INTRA:          -7.823
REMARK INTER:                  -6.521
REMARK INTRA:                  -1.301
REMARK UNBOUND:                -0.977
REMARK SMILES COc1cc(CNC(=O)CCCCC=CC(C)C)ccc1O
REMARK SMILES IDX 11 1 12 2 13 3 14 4 15 5 16 6 17 7 18 8 10 9 8 10 9 11 7 12
REMARK SMILES IDX 6 14 5 15 4 16 19 17 3 18 20 19 21 20 2 21 1 22 22 23
REMARK H PARENT 7 13 22 24
REMARK Flexibility Score: inf
ROOT
ATOM      1  C   UNL     1      71.903  94.855  13.030  1.00  0.00     0.010 C 
ENDROOT
BRANCH   1   2
ATOM      2  C   UNL     1      72.645  94.506  14.329  1.00  0.00     0.005 C 
BRANCH   2   3
ATOM      3  C   UNL     1      72.623  92.997  14.590  1.00  0.00     0.027 C 
BRANCH   3   4
ATOM      4  C   UNL     1      74.027  92.457  14.665  1.00  0.00    -0.031 C 
ATOM      5  C   UNL     1      74.827  92.129  13.628  1.00  0.00    -0.028 C 
BRANCH   5   6
ATOM      6  C   UNL     1      74.491  92.129  12.147  1.00  0.00     0.005 C 
ATOM      7  C   UNL     1      75.738  92.247  11.262  1.00  0.00     0.012 C 
ATOM      8  C   UNL     1      73.576  90.974  11.721  1.00  0.00     0.012 C 
ENDBRANCH   5   6
ENDBRANCH   3   4
ENDBRANCH   2   3
ENDBRANCH   1   2
BRANCH   1   9
ATOM      9  C   UNL     1      71.102  93.668  12.479  1.00  0.00     0.100 C 
BRANCH   9  10
ATOM     10  C   UNL     1      70.108  94.107  11.444  1.00  0.00     0.220 C 
ATOM     11  O   UNL     1      68.904  93.747  11.551  1.00  0.00    -0.275 OA
ATOM     12  N   UNL     1      70.513  94.973  10.373  1.00  0.00    -0.352 N 
ATOM     13  H   UNL     1      71.529  95.192  10.262  1.00  0.00     0.163 HD
BRANCH  12  14
ATOM     14  C   UNL     1      69.558  95.797   9.636  1.00  0.00     0.151 C 
BRANCH  14  15
ATOM     15  C   UNL     1      69.931  97.247   9.782  1.00  0.00    -0.025 A 
ATOM     16  C   UNL     1      69.992  97.835  11.055  1.00  0.00     0.056 A 
ATOM     17  C   UNL     1      70.327  97.988   8.661  1.00  0.00     0.009 A 
ATOM     18  C   UNL     1      70.443  99.161  11.211  1.00  0.00     0.160 A 
ATOM     19  C   UNL     1      70.757  99.308   8.806  1.00  0.00     0.050 A 
ATOM     20  C   UNL     1      70.816  99.898  10.072  1.00  0.00     0.157 A 
BRANCH  18  21
ATOM     21  O   UNL     1      70.545  99.766  12.474  1.00  0.00    -0.493 OA
ATOM     22  C   UNL     1      69.436 100.207  13.248  1.00  0.00     0.278 C 
ENDBRANCH  18  21
BRANCH  20  23
ATOM     23  O   UNL     1      71.261 101.216  10.180  1.00  0.00    -0.504 OA
ATOM     24  H   UNL     1      71.282 101.708  11.065  1.00  0.00     0.293 HD
ENDBRANCH  20  23
ENDBRANCH  14  15
ENDBRANCH  12  14
ENDBRANCH   9  10
ENDBRANCH   1   9
TORSDOF 10
ENDMDL
MODEL 9
REMARK VINA RESULT:    -4.377      2.654      8.351
REMARK INTER + INTRA:          -7.786
REMARK INTER:                  -6.474
REMARK INTRA:                  -1.312
REMARK UNBOUND:                -0.977
REMARK SMILES COc1cc(CNC(=O)CCCCC=CC(C)C)ccc1O
REMARK SMILES IDX 11 1 12 2 13 3 14 4 15 5 16 6 17 7 18 8 10 9 8 10 9 11 7 12
REMARK SMILES IDX 6 14 5 15 4 16 19 17 3 18 20 19 21 20 2 21 1 22 22 23
REMARK H PARENT 7 13 22 24
REMARK Flexibility Score: inf
ROOT
ATOM      1  C   UNL     1      72.753  94.003  13.309  1.00  0.00     0.010 C 
ENDROOT
BRANCH   1   2
ATOM      2  C   UNL     1      73.292  93.419  14.624  1.00  0.00     0.005 C 
BRANCH   2   3
ATOM      3  C   UNL     1      73.325  91.888  14.576  1.00  0.00     0.027 C 
BRANCH   3   4
ATOM      4  C   UNL     1      74.745  91.391  14.625  1.00  0.00    -0.031 C 
ATOM      5  C   UNL     1      75.528  91.066  13.574  1.00  0.00    -0.028 C 
BRANCH   5   6
ATOM      6  C   UNL     1      75.155  91.025  12.102  1.00  0.00     0.005 C 
ATOM      7  C   UNL     1      75.651  92.256  11.335  1.00  0.00     0.012 C 
ATOM      8  C   UNL     1      75.529  89.709  11.407  1.00  0.00     0.012 C 
ENDBRANCH   5   6
ENDBRANCH   3   4
ENDBRANCH   2   3
ENDBRANCH   1   2
BRANCH   1   9
ATOM      9  C   UNL     1      71.978  92.967  12.485  1.00  0.00     0.100 C 
BRANCH   9  10
ATOM     10  C   UNL     1      70.650  93.502  12.037  1.00  0.00     0.220 C 
ATOM     11  O   UNL     1      69.671  93.473  12.833  1.00  0.00    -0.275 OA
ATOM     12  N   UNL     1      70.507  94.090  10.735  1.00  0.00    -0.352 N 
ATOM     13  H   UNL     1      71.309  94.030  10.067  1.00  0.00     0.163 HD
BRANCH  12  14
ATOM     14  C   UNL     1      69.429  95.023  10.416  1.00  0.00     0.151 C 
BRANCH  14  15
ATOM     15  C   UNL     1      69.977  96.423  10.369  1.00  0.00    -0.025 A 
ATOM     16  C   UNL     1      70.218  97.045   9.134  1.00  0.00     0.056 A 
ATOM     17  C   UNL     1      70.147  97.153  11.553  1.00  0.00     0.009 A 
ATOM     18  C   UNL     1      70.630  98.391   9.078  1.00  0.00     0.160 A 
ATOM     19  C   UNL     1      70.574  98.481  11.506  1.00  0.00     0.050 A 
ATOM     20  C   UNL     1      70.816  99.103  10.277  1.00  0.00     0.157 A 
BRANCH  18  21
ATOM     21  O   UNL     1      70.847  99.051   7.858  1.00  0.00    -0.493 OA
ATOM     22  C   UNL     1      69.816  99.450   6.962  1.00  0.00     0.278 C 
ENDBRANCH  18  21
BRANCH  20  23
ATOM     23  O   UNL     1      71.231 100.435  10.269  1.00  0.00    -0.504 OA
ATOM     24  H   UNL     1      71.328 100.976  11.119  1.00  0.00     0.293 HD
ENDBRANCH  20  23
ENDBRANCH  14  15
ENDBRANCH  12  14
ENDBRANCH   9  10
ENDBRANCH   1   9
TORSDOF 10
ENDMDL
