MODEL 1
REMARK VINA RESULT:    -7.275      0.000      0.000
REMARK INTER + INTRA:         -10.754
REMARK INTER:                  -9.827
REMARK INTRA:                  -0.927
REMARK UNBOUND:                -0.927
REMARK SMILES O=c1c(-c2ccc(O)cc2)coc2c([C@H]3O[C@@H](CO)[C@H](O)[C@H](O)[C@H]3O)c(O)ccc12
REMARK SMILES IDX 3 1 11 2 12 3 13 4 30 5 2 6 1 7 29 8 28 9 26 10 14 11 4 12
REMARK SMILES IDX 5 13 6 14 7 15 10 16 9 17 8 18 15 20 24 21 16 22 22 23 17 24
REMARK SMILES IDX 20 25 25 26 23 28 18 30 19 31 21 33 27 35
REMARK H PARENT 8 19 25 27 23 29 19 32 21 34 27 36
REMARK Flexibility Score: inf
ROOT
ATOM      1  C   UNL     1     -12.264 -40.353 -17.796  1.00  0.00     0.065 A 
ATOM      2  C   UNL     1     -11.440 -39.238 -18.006  1.00  0.00     0.208 A 
ATOM      3  O   UNL     1     -10.391 -39.308 -18.816  1.00  0.00    -0.463 OA
ATOM      4  C   UNL     1     -10.053 -40.414 -19.475  1.00  0.00     0.147 A 
ATOM      5  C   UNL     1     -10.836 -41.582 -19.331  1.00  0.00     0.066 A 
ATOM      6  C   UNL     1     -11.957 -41.542 -18.482  1.00  0.00     0.200 A 
ATOM      7  O   UNL     1     -12.693 -42.559 -18.351  1.00  0.00    -0.288 OA
ATOM      8  C   UNL     1     -10.489 -42.741 -20.041  1.00  0.00     0.020 A 
ATOM      9  C   UNL     1      -9.386 -42.738 -20.892  1.00  0.00     0.047 A 
ATOM     10  C   UNL     1      -8.604 -41.587 -21.046  1.00  0.00     0.125 A 
ATOM     11  C   UNL     1      -8.916 -40.413 -20.319  1.00  0.00     0.069 A 
ENDROOT
BRANCH   1  12
ATOM     12  C   UNL     1     -13.427 -40.253 -16.878  1.00  0.00    -0.011 A 
ATOM     13  C   UNL     1     -13.230 -40.020 -15.506  1.00  0.00     0.013 A 
ATOM     14  C   UNL     1     -14.322 -39.934 -14.638  1.00  0.00     0.047 A 
ATOM     15  C   UNL     1     -15.623 -40.085 -15.127  1.00  0.00     0.115 A 
ATOM     16  C   UNL     1     -14.737 -40.410 -17.362  1.00  0.00     0.013 A 
ATOM     17  C   UNL     1     -15.829 -40.325 -16.493  1.00  0.00     0.047 A 
BRANCH  15  18
ATOM     18  O   UNL     1     -16.702 -39.997 -14.251  1.00  0.00    -0.508 OA
ATOM     19  H   UNL     1     -16.632 -40.310 -13.290  1.00  0.00     0.293 HD
ENDBRANCH  15  18
ENDBRANCH   1  12
BRANCH  11  20
ATOM     20  C   UNL     1      -8.105 -39.132 -20.480  1.00  0.00     0.188 C 
ATOM     21  C   UNL     1      -8.527 -38.377 -21.766  1.00  0.00     0.179 C 
ATOM     22  O   UNL     1      -6.715 -39.415 -20.490  1.00  0.00    -0.362 OA
ATOM     23  C   UNL     1      -7.686 -37.097 -21.940  1.00  0.00     0.177 C 
ATOM     24  C   UNL     1      -5.953 -38.217 -20.463  1.00  0.00     0.176 C 
ATOM     25  C   UNL     1      -6.182 -37.394 -21.757  1.00  0.00     0.177 C 
BRANCH  21  26
ATOM     26  O   UNL     1      -8.450 -39.195 -22.909  1.00  0.00    -0.387 OA
ATOM     27  H   UNL     1      -9.141 -39.901 -22.831  1.00  0.00     0.211 HD
ENDBRANCH  21  26
BRANCH  23  28
ATOM     28  O   UNL     1      -8.110 -36.141 -20.999  1.00  0.00    -0.387 OA
ATOM     29  H   UNL     1      -7.984 -35.247 -21.412  1.00  0.00     0.211 HD
ENDBRANCH  23  28
BRANCH  24  30
ATOM     30  C   UNL     1      -4.476 -38.590 -20.283  1.00  0.00     0.191 C 
BRANCH  30  31
ATOM     31  O   UNL     1      -3.784 -37.554 -19.641  1.00  0.00    -0.394 OA
ATOM     32  H   UNL     1      -4.473 -37.015 -19.171  1.00  0.00     0.210 HD
ENDBRANCH  30  31
ENDBRANCH  24  30
BRANCH  25  33
ATOM     33  O   UNL     1      -5.474 -36.180 -21.697  1.00  0.00    -0.388 OA
ATOM     34  H   UNL     1      -5.522 -35.857 -20.759  1.00  0.00     0.211 HD
ENDBRANCH  25  33
ENDBRANCH  11  20
BRANCH  10  35
ATOM     35  O   UNL     1      -7.522 -41.616 -21.926  1.00  0.00    -0.507 OA
ATOM     36  H   UNL     1      -7.610 -41.317 -22.890  1.00  0.00     0.293 HD
ENDBRANCH  10  35
TORSDOF 9
ENDMDL
MODEL 2
REMARK VINA RESULT:    -6.838      2.139      8.775
REMARK INTER + INTRA:         -10.163
REMARK INTER:                  -9.370
REMARK INTRA:                  -0.794
REMARK UNBOUND:                -0.927
REMARK SMILES O=c1c(-c2ccc(O)cc2)coc2c([C@H]3O[C@@H](CO)[C@H](O)[C@H](O)[C@H]3O)c(O)ccc12
REMARK SMILES IDX 3 1 11 2 12 3 13 4 30 5 2 6 1 7 29 8 28 9 26 10 14 11 4 12
REMARK SMILES IDX 5 13 6 14 7 15 10 16 9 17 8 18 15 20 24 21 16 22 22 23 17 24
REMARK SMILES IDX 20 25 25 26 23 28 18 30 19 31 21 33 27 35
REMARK H PARENT 8 19 25 27 23 29 19 32 21 34 27 36
REMARK Flexibility Score: inf
ROOT
ATOM      1  C   UNL     1      -7.581 -37.886 -20.710  1.00  0.00     0.065 A 
ATOM      2  C   UNL     1      -7.966 -39.004 -19.958  1.00  0.00     0.208 A 
ATOM      3  O   UNL     1      -9.195 -39.105 -19.466  1.00  0.00    -0.463 OA
ATOM      4  C   UNL     1     -10.130 -38.175 -19.648  1.00  0.00     0.147 A 
ATOM      5  C   UNL     1      -9.830 -37.019 -20.404  1.00  0.00     0.066 A 
ATOM      6  C   UNL     1      -8.537 -36.882 -20.943  1.00  0.00     0.200 A 
ATOM      7  O   UNL     1      -8.244 -35.875 -21.645  1.00  0.00    -0.288 OA
ATOM      8  C   UNL     1     -10.822 -36.049 -20.611  1.00  0.00     0.020 A 
ATOM      9  C   UNL     1     -12.099 -36.229 -20.084  1.00  0.00     0.047 A 
ATOM     10  C   UNL     1     -12.410 -37.370 -19.335  1.00  0.00     0.125 A 
ATOM     11  C   UNL     1     -11.419 -38.351 -19.088  1.00  0.00     0.069 A 
ENDROOT
BRANCH   1  12
ATOM     12  C   UNL     1      -6.197 -37.792 -21.242  1.00  0.00    -0.011 A 
ATOM     13  C   UNL     1      -5.101 -37.738 -20.364  1.00  0.00     0.013 A 
ATOM     14  C   UNL     1      -3.798 -37.641 -20.862  1.00  0.00     0.047 A 
ATOM     15  C   UNL     1      -3.574 -37.590 -22.240  1.00  0.00     0.115 A 
ATOM     16  C   UNL     1      -5.965 -37.734 -22.628  1.00  0.00     0.013 A 
ATOM     17  C   UNL     1      -4.662 -37.636 -23.124  1.00  0.00     0.047 A 
BRANCH  15  18
ATOM     18  O   UNL     1      -2.271 -37.494 -22.723  1.00  0.00    -0.508 OA
ATOM     19  H   UNL     1      -1.846 -38.245 -23.254  1.00  0.00     0.293 HD
ENDBRANCH  15  18
ENDBRANCH   1  12
BRANCH  11  20
ATOM     20  C   UNL     1     -11.726 -39.620 -18.302  1.00  0.00     0.188 C 
ATOM     21  C   UNL     1     -12.509 -40.629 -19.179  1.00  0.00     0.179 C 
ATOM     22  O   UNL     1     -12.442 -39.316 -17.115  1.00  0.00    -0.362 OA
ATOM     23  C   UNL     1     -12.842 -41.900 -18.372  1.00  0.00     0.177 C 
ATOM     24  C   UNL     1     -12.577 -40.466 -16.295  1.00  0.00     0.176 C 
ATOM     25  C   UNL     1     -13.447 -41.540 -16.998  1.00  0.00     0.177 C 
BRANCH  21  26
ATOM     26  O   UNL     1     -13.671 -40.060 -19.731  1.00  0.00    -0.387 OA
ATOM     27  H   UNL     1     -14.166 -40.772 -20.211  1.00  0.00     0.211 HD
ENDBRANCH  21  26
BRANCH  23  28
ATOM     28  O   UNL     1     -11.666 -42.653 -18.202  1.00  0.00    -0.387 OA
ATOM     29  H   UNL     1     -10.901 -42.044 -18.371  1.00  0.00     0.211 HD
ENDBRANCH  23  28
BRANCH  24  30
ATOM     30  C   UNL     1     -13.185 -40.032 -14.954  1.00  0.00     0.191 C 
BRANCH  30  31
ATOM     31  O   UNL     1     -14.506 -40.486 -14.847  1.00  0.00    -0.394 OA
ATOM     32  H   UNL     1     -14.460 -41.477 -14.885  1.00  0.00     0.210 HD
ENDBRANCH  30  31
ENDBRANCH  24  30
BRANCH  25  33
ATOM     33  O   UNL     1     -13.526 -42.701 -16.208  1.00  0.00    -0.388 OA
ATOM     34  H   UNL     1     -14.447 -42.744 -15.837  1.00  0.00     0.211 HD
ENDBRANCH  25  33
ENDBRANCH  11  20
BRANCH  10  35
ATOM     35  O   UNL     1     -13.707 -37.527 -18.845  1.00  0.00    -0.507 OA
ATOM     36  H   UNL     1     -13.943 -37.312 -17.884  1.00  0.00     0.293 HD
ENDBRANCH  10  35
TORSDOF 9
ENDMDL
MODEL 3
REMARK VINA RESULT:    -6.597      2.186      8.803
REMARK INTER + INTRA:          -9.838
REMARK INTER:                  -8.807
REMARK INTRA:                  -1.031
REMARK UNBOUND:                -0.927
REMARK SMILES O=c1c(-c2ccc(O)cc2)coc2c([C@H]3O[C@@H](CO)[C@H](O)[C@H](O)[C@H]3O)c(O)ccc12
REMARK SMILES IDX 3 1 11 2 12 3 13 4 30 5 2 6 1 7 29 8 28 9 26 10 14 11 4 12
REMARK SMILES IDX 5 13 6 14 7 15 10 16 9 17 8 18 15 20 24 21 16 22 22 23 17 24
REMARK SMILES IDX 20 25 25 26 23 28 18 30 19 31 21 33 27 35
REMARK H PARENT 8 19 25 27 23 29 19 32 21 34 27 36
REMARK Flexibility Score: inf
ROOT
ATOM      1  C   UNL     1      -9.030 -39.750 -20.240  1.00  0.00     0.065 A 
ATOM      2  C   UNL     1      -9.497 -40.573 -19.205  1.00  0.00     0.208 A 
ATOM      3  O   UNL     1     -10.667 -40.340 -18.624  1.00  0.00    -0.463 OA
ATOM      4  C   UNL     1     -11.466 -39.334 -18.973  1.00  0.00     0.147 A 
ATOM      5  C   UNL     1     -11.079 -38.462 -20.016  1.00  0.00     0.066 A 
ATOM      6  C   UNL     1      -9.845 -38.682 -20.656  1.00  0.00     0.200 A 
ATOM      7  O   UNL     1      -9.481 -37.939 -21.609  1.00  0.00    -0.288 OA
ATOM      8  C   UNL     1     -11.930 -37.414 -20.395  1.00  0.00     0.020 A 
ATOM      9  C   UNL     1     -13.155 -37.241 -19.756  1.00  0.00     0.047 A 
ATOM     10  C   UNL     1     -13.552 -38.099 -18.723  1.00  0.00     0.125 A 
ATOM     11  C   UNL     1     -12.698 -39.147 -18.302  1.00  0.00     0.069 A 
ENDROOT
BRANCH   1  12
ATOM     12  C   UNL     1      -7.713 -40.026 -20.870  1.00  0.00    -0.011 A 
ATOM     13  C   UNL     1      -6.584 -39.271 -20.511  1.00  0.00     0.013 A 
ATOM     14  C   UNL     1      -5.345 -39.522 -21.108  1.00  0.00     0.047 A 
ATOM     15  C   UNL     1      -5.220 -40.524 -22.074  1.00  0.00     0.115 A 
ATOM     16  C   UNL     1      -7.583 -41.028 -21.847  1.00  0.00     0.013 A 
ATOM     17  C   UNL     1      -6.343 -41.277 -22.444  1.00  0.00     0.047 A 
BRANCH  15  18
ATOM     18  O   UNL     1      -3.980 -40.764 -22.661  1.00  0.00    -0.508 OA
ATOM     19  H   UNL     1      -3.751 -40.407 -23.582  1.00  0.00     0.293 HD
ENDBRANCH  15  18
ENDBRANCH   1  12
BRANCH  11  20
ATOM     20  C   UNL     1     -13.107 -40.119 -17.201  1.00  0.00     0.188 C 
ATOM     21  C   UNL     1     -13.751 -41.391 -17.807  1.00  0.00     0.179 C 
ATOM     22  O   UNL     1     -13.985 -39.494 -16.279  1.00  0.00    -0.362 OA
ATOM     23  C   UNL     1     -14.188 -42.359 -16.689  1.00  0.00     0.177 C 
ATOM     24  C   UNL     1     -14.229 -40.334 -15.160  1.00  0.00     0.176 C 
ATOM     25  C   UNL     1     -14.984 -41.617 -15.594  1.00  0.00     0.177 C 
BRANCH  21  26
ATOM     26  O   UNL     1     -14.827 -41.084 -18.661  1.00  0.00    -0.387 OA
ATOM     27  H   UNL     1     -15.194 -40.204 -18.390  1.00  0.00     0.211 HD
ENDBRANCH  21  26
BRANCH  23  28
ATOM     28  O   UNL     1     -13.043 -42.960 -16.134  1.00  0.00    -0.387 OA
ATOM     29  H   UNL     1     -12.538 -42.247 -15.662  1.00  0.00     0.211 HD
ENDBRANCH  23  28
BRANCH  24  30
ATOM     30  C   UNL     1     -15.023 -39.532 -14.121  1.00  0.00     0.191 C 
BRANCH  30  31
ATOM     31  O   UNL     1     -16.364 -39.937 -14.111  1.00  0.00    -0.394 OA
ATOM     32  H   UNL     1     -16.355 -40.920 -14.251  1.00  0.00     0.210 HD
ENDBRANCH  30  31
ENDBRANCH  24  30
BRANCH  25  33
ATOM     33  O   UNL     1     -15.167 -42.473 -14.493  1.00  0.00    -0.388 OA
ATOM     34  H   UNL     1     -16.070 -42.878 -14.581  1.00  0.00     0.211 HD
ENDBRANCH  25  33
ENDBRANCH  11  20
BRANCH  10  35
ATOM     35  O   UNL     1     -14.798 -37.908 -18.124  1.00  0.00    -0.507 OA
ATOM     36  H   UNL     1     -15.012 -37.074 -17.592  1.00  0.00     0.293 HD
ENDBRANCH  10  35
TORSDOF 9
ENDMDL
MODEL 4
REMARK VINA RESULT:    -5.969      2.532      4.505
REMARK INTER + INTRA:          -8.989
REMARK INTER:                  -9.380
REMARK INTRA:                   0.390
REMARK UNBOUND:                -0.927
REMARK SMILES O=c1c(-c2ccc(O)cc2)coc2c([C@H]3O[C@@H](CO)[C@H](O)[C@H](O)[C@H]3O)c(O)ccc12
REMARK SMILES IDX 3 1 11 2 12 3 13 4 30 5 2 6 1 7 29 8 28 9 26 10 14 11 4 12
REMARK SMILES IDX 5 13 6 14 7 15 10 16 9 17 8 18 15 20 24 21 16 22 22 23 17 24
REMARK SMILES IDX 20 25 25 26 23 28 18 30 19 31 21 33 27 35
REMARK H PARENT 8 19 25 27 23 29 19 32 21 34 27 36
REMARK Flexibility Score: inf
ROOT
ATOM      1  C   UNL     1     -13.332 -41.364 -17.915  1.00  0.00     0.065 A 
ATOM      2  C   UNL     1     -12.440 -42.254 -18.530  1.00  0.00     0.208 A 
ATOM      3  O   UNL     1     -11.424 -41.806 -19.258  1.00  0.00    -0.463 OA
ATOM      4  C   UNL     1     -11.181 -40.511 -19.451  1.00  0.00     0.147 A 
ATOM      5  C   UNL     1     -12.025 -39.545 -18.857  1.00  0.00     0.066 A 
ATOM      6  C   UNL     1     -13.110 -39.985 -18.077  1.00  0.00     0.200 A 
ATOM      7  O   UNL     1     -13.866 -39.149 -17.509  1.00  0.00    -0.288 OA
ATOM      8  C   UNL     1     -11.757 -38.181 -19.046  1.00  0.00     0.020 A 
ATOM      9  C   UNL     1     -10.660 -37.782 -19.805  1.00  0.00     0.047 A 
ATOM     10  C   UNL     1      -9.815 -38.728 -20.397  1.00  0.00     0.125 A 
ATOM     11  C   UNL     1     -10.080 -40.111 -20.245  1.00  0.00     0.069 A 
ENDROOT
BRANCH   1  12
ATOM     12  C   UNL     1     -14.466 -41.889 -17.112  1.00  0.00    -0.011 A 
ATOM     13  C   UNL     1     -15.609 -42.402 -17.749  1.00  0.00     0.013 A 
ATOM     14  C   UNL     1     -16.681 -42.888 -16.996  1.00  0.00     0.047 A 
ATOM     15  C   UNL     1     -16.629 -42.863 -15.600  1.00  0.00     0.115 A 
ATOM     16  C   UNL     1     -14.422 -41.861 -15.707  1.00  0.00     0.013 A 
ATOM     17  C   UNL     1     -15.496 -42.347 -14.955  1.00  0.00     0.047 A 
BRANCH  15  18
ATOM     18  O   UNL     1     -17.705 -43.351 -14.862  1.00  0.00    -0.508 OA
ATOM     19  H   UNL     1     -17.574 -43.770 -13.948  1.00  0.00     0.293 HD
ENDBRANCH  15  18
ENDBRANCH   1  12
BRANCH  11  20
ATOM     20  C   UNL     1      -9.168 -41.172 -20.851  1.00  0.00     0.188 C 
ATOM     21  C   UNL     1      -8.811 -40.814 -22.315  1.00  0.00     0.179 C 
ATOM     22  O   UNL     1      -9.769 -42.455 -20.773  1.00  0.00    -0.362 OA
ATOM     23  C   UNL     1      -7.911 -41.903 -22.933  1.00  0.00     0.177 C 
ATOM     24  C   UNL     1      -8.857 -43.467 -21.172  1.00  0.00     0.176 C 
ATOM     25  C   UNL     1      -8.488 -43.311 -22.670  1.00  0.00     0.177 C 
BRANCH  21  26
ATOM     26  O   UNL     1      -9.958 -40.598 -23.102  1.00  0.00    -0.387 OA
ATOM     27  H   UNL     1     -10.554 -41.384 -23.002  1.00  0.00     0.211 HD
ENDBRANCH  21  26
BRANCH  23  28
ATOM     28  O   UNL     1      -6.622 -41.796 -22.381  1.00  0.00    -0.387 OA
ATOM     29  H   UNL     1      -6.381 -42.691 -22.024  1.00  0.00     0.211 HD
ENDBRANCH  23  28
BRANCH  24  30
ATOM     30  C   UNL     1      -9.497 -44.832 -20.885  1.00  0.00     0.191 C 
BRANCH  30  31
ATOM     31  O   UNL     1     -10.272 -45.248 -21.976  1.00  0.00    -0.394 OA
ATOM     32  H   UNL     1     -10.433 -44.436 -22.524  1.00  0.00     0.210 HD
ENDBRANCH  30  31
ENDBRANCH  24  30
BRANCH  25  33
ATOM     33  O   UNL     1      -7.537 -44.278 -23.043  1.00  0.00    -0.388 OA
ATOM     34  H   UNL     1      -7.426 -44.896 -22.273  1.00  0.00     0.211 HD
ENDBRANCH  25  33
ENDBRANCH  11  20
BRANCH  10  35
ATOM     35  O   UNL     1      -8.712 -38.289 -21.130  1.00  0.00    -0.507 OA
ATOM     36  H   UNL     1      -7.891 -37.904 -20.679  1.00  0.00     0.293 HD
ENDBRANCH  10  35
TORSDOF 9
ENDMDL
MODEL 5
REMARK VINA RESULT:    -5.745      2.452      9.154
REMARK INTER + INTRA:          -8.688
REMARK INTER:                  -8.043
REMARK INTRA:                  -0.645
REMARK UNBOUND:                -0.927
REMARK SMILES O=c1c(-c2ccc(O)cc2)coc2c([C@H]3O[C@@H](CO)[C@H](O)[C@H](O)[C@H]3O)c(O)ccc12
REMARK SMILES IDX 3 1 11 2 12 3 13 4 30 5 2 6 1 7 29 8 28 9 26 10 14 11 4 12
REMARK SMILES IDX 5 13 6 14 7 15 10 16 9 17 8 18 15 20 24 21 16 22 22 23 17 24
REMARK SMILES IDX 20 25 25 26 23 28 18 30 19 31 21 33 27 35
REMARK H PARENT 8 19 25 27 23 29 19 32 21 34 27 36
REMARK Flexibility Score: inf
ROOT
ATOM      1  C   UNL     1     -10.510 -40.455 -20.226  1.00  0.00     0.065 A 
ATOM      2  C   UNL     1     -11.284 -41.472 -19.650  1.00  0.00     0.208 A 
ATOM      3  O   UNL     1     -12.427 -41.194 -19.036  1.00  0.00    -0.463 OA
ATOM      4  C   UNL     1     -12.913 -39.959 -18.926  1.00  0.00     0.147 A 
ATOM      5  C   UNL     1     -12.202 -38.875 -19.488  1.00  0.00     0.066 A 
ATOM      6  C   UNL     1     -10.987 -39.135 -20.149  1.00  0.00     0.200 A 
ATOM      7  O   UNL     1     -10.340 -38.193 -20.686  1.00  0.00    -0.288 OA
ATOM      8  C   UNL     1     -12.724 -37.577 -19.388  1.00  0.00     0.020 A 
ATOM      9  C   UNL     1     -13.942 -37.360 -18.748  1.00  0.00     0.047 A 
ATOM     10  C   UNL     1     -14.658 -38.425 -18.189  1.00  0.00     0.125 A 
ATOM     11  C   UNL     1     -14.138 -39.741 -18.252  1.00  0.00     0.069 A 
ENDROOT
BRANCH   1  12
ATOM     12  C   UNL     1      -9.229 -40.791 -20.900  1.00  0.00    -0.011 A 
ATOM     13  C   UNL     1      -8.065 -40.057 -20.615  1.00  0.00     0.013 A 
ATOM     14  C   UNL     1      -6.860 -40.365 -21.255  1.00  0.00     0.047 A 
ATOM     15  C   UNL     1      -6.805 -41.402 -22.191  1.00  0.00     0.115 A 
ATOM     16  C   UNL     1      -9.169 -41.828 -21.847  1.00  0.00     0.013 A 
ATOM     17  C   UNL     1      -7.963 -42.133 -22.486  1.00  0.00     0.047 A 
BRANCH  15  18
ATOM     18  O   UNL     1      -5.598 -41.697 -22.820  1.00  0.00    -0.508 OA
ATOM     19  H   UNL     1      -5.545 -41.847 -23.821  1.00  0.00     0.293 HD
ENDBRANCH  15  18
ENDBRANCH   1  12
BRANCH  11  20
ATOM     20  C   UNL     1     -14.901 -40.931 -17.680  1.00  0.00     0.188 C 
ATOM     21  C   UNL     1     -15.962 -41.435 -18.690  1.00  0.00     0.179 C 
ATOM     22  O   UNL     1     -15.500 -40.595 -16.438  1.00  0.00    -0.362 OA
ATOM     23  C   UNL     1     -16.750 -42.621 -18.097  1.00  0.00     0.177 C 
ATOM     24  C   UNL     1     -16.060 -41.743 -15.818  1.00  0.00     0.176 C 
ATOM     25  C   UNL     1     -17.231 -42.304 -16.665  1.00  0.00     0.177 C 
BRANCH  21  26
ATOM     26  O   UNL     1     -16.829 -40.407 -19.104  1.00  0.00    -0.387 OA
ATOM     27  H   UNL     1     -16.917 -40.456 -20.090  1.00  0.00     0.211 HD
ENDBRANCH  21  26
BRANCH  23  28
ATOM     28  O   UNL     1     -15.923 -43.760 -18.091  1.00  0.00    -0.387 OA
ATOM     29  H   UNL     1     -16.188 -44.318 -18.867  1.00  0.00     0.211 HD
ENDBRANCH  23  28
BRANCH  24  30
ATOM     30  C   UNL     1     -16.517 -41.352 -14.407  1.00  0.00     0.191 C 
BRANCH  30  31
ATOM     31  O   UNL     1     -16.191 -40.015 -14.140  1.00  0.00    -0.394 OA
ATOM     32  H   UNL     1     -15.213 -39.999 -13.969  1.00  0.00     0.210 HD
ENDBRANCH  30  31
ENDBRANCH  24  30
BRANCH  25  33
ATOM     33  O   UNL     1     -17.742 -43.476 -16.078  1.00  0.00    -0.388 OA
ATOM     34  H   UNL     1     -18.448 -43.826 -16.683  1.00  0.00     0.211 HD
ENDBRANCH  25  33
ENDBRANCH  11  20
BRANCH  10  35
ATOM     35  O   UNL     1     -15.886 -38.171 -17.578  1.00  0.00    -0.507 OA
ATOM     36  H   UNL     1     -15.976 -38.095 -16.572  1.00  0.00     0.293 HD
ENDBRANCH  10  35
TORSDOF 9
ENDMDL
MODEL 6
REMARK VINA RESULT:    -5.483      2.573      4.506
REMARK INTER + INTRA:          -8.334
REMARK INTER:                  -8.186
REMARK INTRA:                  -0.148
REMARK UNBOUND:                -0.927
REMARK SMILES O=c1c(-c2ccc(O)cc2)coc2c([C@H]3O[C@@H](CO)[C@H](O)[C@H](O)[C@H]3O)c(O)ccc12
REMARK SMILES IDX 3 1 11 2 12 3 13 4 30 5 2 6 1 7 29 8 28 9 26 10 14 11 4 12
REMARK SMILES IDX 5 13 6 14 7 15 10 16 9 17 8 18 15 20 24 21 16 22 22 23 17 24
REMARK SMILES IDX 20 25 25 26 23 28 18 30 19 31 21 33 27 35
REMARK H PARENT 8 19 25 27 23 29 19 32 21 34 27 36
REMARK Flexibility Score: inf
ROOT
ATOM      1  C   UNL     1     -14.603 -41.298 -17.178  1.00  0.00     0.065 A 
ATOM      2  C   UNL     1     -13.728 -42.131 -17.889  1.00  0.00     0.208 A 
ATOM      3  O   UNL     1     -12.895 -41.632 -18.795  1.00  0.00    -0.463 OA
ATOM      4  C   UNL     1     -12.830 -40.335 -19.086  1.00  0.00     0.147 A 
ATOM      5  C   UNL     1     -13.669 -39.422 -18.408  1.00  0.00     0.066 A 
ATOM      6  C   UNL     1     -14.561 -39.917 -17.439  1.00  0.00     0.200 A 
ATOM      7  O   UNL     1     -15.306 -39.126 -16.796  1.00  0.00    -0.288 OA
ATOM      8  C   UNL     1     -13.585 -38.053 -18.702  1.00  0.00     0.020 A 
ATOM      9  C   UNL     1     -12.672 -37.595 -19.650  1.00  0.00     0.047 A 
ATOM     10  C   UNL     1     -11.834 -38.488 -20.327  1.00  0.00     0.125 A 
ATOM     11  C   UNL     1     -11.919 -39.878 -20.068  1.00  0.00     0.069 A 
ENDROOT
BRANCH   1  12
ATOM     12  C   UNL     1     -15.531 -41.882 -16.176  1.00  0.00    -0.011 A 
ATOM     13  C   UNL     1     -15.286 -41.715 -14.802  1.00  0.00     0.013 A 
ATOM     14  C   UNL     1     -16.153 -42.271 -13.856  1.00  0.00     0.047 A 
ATOM     15  C   UNL     1     -17.269 -43.003 -14.269  1.00  0.00     0.115 A 
ATOM     16  C   UNL     1     -16.651 -42.625 -16.585  1.00  0.00     0.013 A 
ATOM     17  C   UNL     1     -17.517 -43.181 -15.637  1.00  0.00     0.047 A 
BRANCH  15  18
ATOM     18  O   UNL     1     -18.125 -43.551 -13.316  1.00  0.00    -0.508 OA
ATOM     19  H   UNL     1     -18.918 -44.123 -13.582  1.00  0.00     0.293 HD
ENDBRANCH  15  18
ENDBRANCH   1  12
BRANCH  11  20
ATOM     20  C   UNL     1     -11.003 -40.879 -20.765  1.00  0.00     0.188 C 
ATOM     21  C   UNL     1     -10.424 -41.890 -19.744  1.00  0.00     0.179 C 
ATOM     22  O   UNL     1      -9.966 -40.210 -21.464  1.00  0.00    -0.362 OA
ATOM     23  C   UNL     1      -9.477 -42.884 -20.447  1.00  0.00     0.177 C 
ATOM     24  C   UNL     1      -9.218 -41.121 -22.255  1.00  0.00     0.176 C 
ATOM     25  C   UNL     1      -8.473 -42.142 -21.356  1.00  0.00     0.177 C 
BRANCH  21  26
ATOM     26  O   UNL     1      -9.778 -41.247 -18.671  1.00  0.00    -0.387 OA
ATOM     27  H   UNL     1      -9.973 -40.277 -18.730  1.00  0.00     0.211 HD
ENDBRANCH  21  26
BRANCH  23  28
ATOM     28  O   UNL     1     -10.246 -43.785 -21.207  1.00  0.00    -0.387 OA
ATOM     29  H   UNL     1     -10.201 -44.665 -20.750  1.00  0.00     0.211 HD
ENDBRANCH  23  28
BRANCH  24  30
ATOM     30  C   UNL     1      -8.244 -40.316 -23.125  1.00  0.00     0.191 C 
BRANCH  30  31
ATOM     31  O   UNL     1      -6.990 -40.232 -22.506  1.00  0.00    -0.394 OA
ATOM     32  H   UNL     1      -6.776 -41.149 -22.193  1.00  0.00     0.210 HD
ENDBRANCH  30  31
ENDBRANCH  24  30
BRANCH  25  33
ATOM     33  O   UNL     1      -7.785 -43.080 -22.147  1.00  0.00    -0.388 OA
ATOM     34  H   UNL     1      -7.352 -42.579 -22.889  1.00  0.00     0.211 HD
ENDBRANCH  25  33
ENDBRANCH  11  20
BRANCH  10  35
ATOM     35  O   UNL     1     -10.916 -37.988 -21.251  1.00  0.00    -0.507 OA
ATOM     36  H   UNL     1     -11.032 -37.078 -21.680  1.00  0.00     0.293 HD
ENDBRANCH  10  35
TORSDOF 9
ENDMDL
MODEL 7
REMARK VINA RESULT:    -5.396      2.957      8.952
REMARK INTER + INTRA:          -8.216
REMARK INTER:                  -8.483
REMARK INTRA:                   0.267
REMARK UNBOUND:                -0.927
REMARK SMILES O=c1c(-c2ccc(O)cc2)coc2c([C@H]3O[C@@H](CO)[C@H](O)[C@H](O)[C@H]3O)c(O)ccc12
REMARK SMILES IDX 3 1 11 2 12 3 13 4 30 5 2 6 1 7 29 8 28 9 26 10 14 11 4 12
REMARK SMILES IDX 5 13 6 14 7 15 10 16 9 17 8 18 15 20 24 21 16 22 22 23 17 24
REMARK SMILES IDX 20 25 25 26 23 28 18 30 19 31 21 33 27 35
REMARK H PARENT 8 19 25 27 23 29 19 32 21 34 27 36
REMARK Flexibility Score: inf
ROOT
ATOM      1  C   UNL     1     -11.206 -41.140 -19.982  1.00  0.00     0.065 A 
ATOM      2  C   UNL     1     -12.077 -41.804 -19.107  1.00  0.00     0.208 A 
ATOM      3  O   UNL     1     -13.054 -41.150 -18.490  1.00  0.00    -0.463 OA
ATOM      4  C   UNL     1     -13.275 -39.848 -18.654  1.00  0.00     0.147 A 
ATOM      5  C   UNL     1     -12.451 -39.102 -19.527  1.00  0.00     0.066 A 
ATOM      6  C   UNL     1     -11.407 -39.765 -20.200  1.00  0.00     0.200 A 
ATOM      7  O   UNL     1     -10.669 -39.135 -21.007  1.00  0.00    -0.288 OA
ATOM      8  C   UNL     1     -12.697 -37.734 -19.713  1.00  0.00     0.020 A 
ATOM      9  C   UNL     1     -13.754 -37.116 -19.050  1.00  0.00     0.047 A 
ATOM     10  C   UNL     1     -14.580 -37.843 -18.184  1.00  0.00     0.125 A 
ATOM     11  C   UNL     1     -14.335 -39.219 -17.957  1.00  0.00     0.069 A 
ENDROOT
BRANCH   1  12
ATOM     12  C   UNL     1     -10.115 -41.891 -20.654  1.00  0.00    -0.011 A 
ATOM     13  C   UNL     1      -8.971 -41.218 -21.116  1.00  0.00     0.013 A 
ATOM     14  C   UNL     1      -7.946 -41.921 -21.757  1.00  0.00     0.047 A 
ATOM     15  C   UNL     1      -8.054 -43.301 -21.950  1.00  0.00     0.115 A 
ATOM     16  C   UNL     1     -10.221 -43.278 -20.857  1.00  0.00     0.013 A 
ATOM     17  C   UNL     1      -9.195 -43.979 -21.499  1.00  0.00     0.047 A 
BRANCH  15  18
ATOM     18  O   UNL     1      -7.026 -43.990 -22.589  1.00  0.00    -0.508 OA
ATOM     19  H   UNL     1      -7.189 -44.513 -23.442  1.00  0.00     0.293 HD
ENDBRANCH  15  18
ENDBRANCH   1  12
BRANCH  11  20
ATOM     20  C   UNL     1     -15.229 -40.051 -17.044  1.00  0.00     0.188 C 
ATOM     21  C   UNL     1     -14.633 -40.122 -15.615  1.00  0.00     0.179 C 
ATOM     22  O   UNL     1     -15.423 -41.351 -17.579  1.00  0.00    -0.362 OA
ATOM     23  C   UNL     1     -15.525 -40.987 -14.702  1.00  0.00     0.177 C 
ATOM     24  C   UNL     1     -16.391 -42.069 -16.828  1.00  0.00     0.176 C 
ATOM     25  C   UNL     1     -15.884 -42.324 -15.385  1.00  0.00     0.177 C 
BRANCH  21  26
ATOM     26  O   UNL     1     -13.306 -40.589 -15.618  1.00  0.00    -0.387 OA
ATOM     27  H   UNL     1     -12.820 -40.136 -16.353  1.00  0.00     0.211 HD
ENDBRANCH  21  26
BRANCH  23  28
ATOM     28  O   UNL     1     -16.695 -40.269 -14.395  1.00  0.00    -0.387 OA
ATOM     29  H   UNL     1     -16.883 -40.412 -13.431  1.00  0.00     0.211 HD
ENDBRANCH  23  28
BRANCH  24  30
ATOM     30  C   UNL     1     -16.693 -43.381 -17.563  1.00  0.00     0.191 C 
BRANCH  30  31
ATOM     31  O   UNL     1     -15.838 -43.533 -18.663  1.00  0.00    -0.394 OA
ATOM     32  H   UNL     1     -15.457 -42.634 -18.841  1.00  0.00     0.210 HD
ENDBRANCH  30  31
ENDBRANCH  24  30
BRANCH  25  33
ATOM     33  O   UNL     1     -16.871 -42.980 -14.628  1.00  0.00    -0.388 OA
ATOM     34  H   UNL     1     -17.719 -42.475 -14.747  1.00  0.00     0.211 HD
ENDBRANCH  25  33
ENDBRANCH  11  20
BRANCH  10  35
ATOM     35  O   UNL     1     -15.644 -37.194 -17.557  1.00  0.00    -0.507 OA
ATOM     36  H   UNL     1     -16.393 -36.765 -18.086  1.00  0.00     0.293 HD
ENDBRANCH  10  35
TORSDOF 9
ENDMDL
MODEL 8
REMARK VINA RESULT:    -5.391     14.666     16.318
REMARK INTER + INTRA:          -8.210
REMARK INTER:                  -7.476
REMARK INTRA:                  -0.733
REMARK UNBOUND:                -0.927
REMARK SMILES O=c1c(-c2ccc(O)cc2)coc2c([C@H]3O[C@@H](CO)[C@H](O)[C@H](O)[C@H]3O)c(O)ccc12
REMARK SMILES IDX 3 1 11 2 12 3 13 4 30 5 2 6 1 7 29 8 28 9 26 10 14 11 4 12
REMARK SMILES IDX 5 13 6 14 7 15 10 16 9 17 8 18 15 20 24 21 16 22 22 23 17 24
REMARK SMILES IDX 20 25 25 26 23 28 18 30 19 31 21 33 27 35
REMARK H PARENT 8 19 25 27 23 29 19 32 21 34 27 36
REMARK Flexibility Score: inf
ROOT
ATOM      1  C   UNL     1     -15.384 -42.097  -4.812  1.00  0.00     0.065 A 
ATOM      2  C   UNL     1     -14.266 -42.462  -4.048  1.00  0.00     0.208 A 
ATOM      3  O   UNL     1     -13.609 -43.588  -4.296  1.00  0.00    -0.463 OA
ATOM      4  C   UNL     1     -13.953 -44.433  -5.265  1.00  0.00     0.147 A 
ATOM      5  C   UNL     1     -15.062 -44.138  -6.091  1.00  0.00     0.066 A 
ATOM      6  C   UNL     1     -15.779 -42.950  -5.858  1.00  0.00     0.200 A 
ATOM      7  O   UNL     1     -16.758 -42.642  -6.593  1.00  0.00    -0.288 OA
ATOM      8  C   UNL     1     -15.411 -45.020  -7.124  1.00  0.00     0.020 A 
ATOM      9  C   UNL     1     -14.664 -46.175  -7.342  1.00  0.00     0.047 A 
ATOM     10  C   UNL     1     -13.562 -46.479  -6.533  1.00  0.00     0.125 A 
ATOM     11  C   UNL     1     -13.205 -45.619  -5.466  1.00  0.00     0.069 A 
ENDROOT
BRANCH   1  12
ATOM     12  C   UNL     1     -16.108 -40.836  -4.510  1.00  0.00    -0.011 A 
ATOM     13  C   UNL     1     -16.253 -39.847  -5.498  1.00  0.00     0.013 A 
ATOM     14  C   UNL     1     -16.926 -38.655  -5.215  1.00  0.00     0.047 A 
ATOM     15  C   UNL     1     -17.456 -38.433  -3.941  1.00  0.00     0.115 A 
ATOM     16  C   UNL     1     -16.638 -40.603  -3.229  1.00  0.00     0.013 A 
ATOM     17  C   UNL     1     -17.310 -39.410  -2.946  1.00  0.00     0.047 A 
BRANCH  15  18
ATOM     18  O   UNL     1     -18.125 -37.241  -3.672  1.00  0.00    -0.508 OA
ATOM     19  H   UNL     1     -18.039 -36.436  -4.281  1.00  0.00     0.293 HD
ENDBRANCH  15  18
ENDBRANCH   1  12
BRANCH  11  20
ATOM     20  C   UNL     1     -11.996 -45.900  -4.581  1.00  0.00     0.188 C 
ATOM     21  C   UNL     1     -10.695 -45.403  -5.260  1.00  0.00     0.179 C 
ATOM     22  O   UNL     1     -11.911 -47.281  -4.269  1.00  0.00    -0.362 OA
ATOM     23  C   UNL     1      -9.472 -45.714  -4.375  1.00  0.00     0.177 C 
ATOM     24  C   UNL     1     -10.896 -47.523  -3.308  1.00  0.00     0.176 C 
ATOM     25  C   UNL     1      -9.500 -47.179  -3.888  1.00  0.00     0.177 C 
BRANCH  21  26
ATOM     26  O   UNL     1     -10.536 -45.938  -6.552  1.00  0.00    -0.387 OA
ATOM     27  H   UNL     1     -10.360 -46.910  -6.465  1.00  0.00     0.211 HD
ENDBRANCH  21  26
BRANCH  23  28
ATOM     28  O   UNL     1      -9.471 -44.837  -3.275  1.00  0.00    -0.387 OA
ATOM     29  H   UNL     1      -8.544 -44.494  -3.175  1.00  0.00     0.211 HD
ENDBRANCH  23  28
BRANCH  24  30
ATOM     30  C   UNL     1     -10.983 -48.993  -2.875  1.00  0.00     0.191 C 
BRANCH  30  31
ATOM     31  O   UNL     1     -12.215 -49.542  -3.255  1.00  0.00    -0.394 OA
ATOM     32  H   UNL     1     -12.350 -50.339  -2.679  1.00  0.00     0.210 HD
ENDBRANCH  30  31
ENDBRANCH  24  30
BRANCH  25  33
ATOM     33  O   UNL     1      -8.505 -47.361  -2.911  1.00  0.00    -0.388 OA
ATOM     34  H   UNL     1      -8.823 -48.073  -2.295  1.00  0.00     0.211 HD
ENDBRANCH  25  33
ENDBRANCH  11  20
BRANCH  10  35
ATOM     35  O   UNL     1     -12.823 -47.632  -6.798  1.00  0.00    -0.507 OA
ATOM     36  H   UNL     1     -13.175 -48.364  -7.404  1.00  0.00     0.293 HD
ENDBRANCH  10  35
TORSDOF 9
ENDMDL
MODEL 9
REMARK VINA RESULT:    -5.193      2.108      3.816
REMARK INTER + INTRA:          -7.942
REMARK INTER:                  -8.035
REMARK INTRA:                   0.093
REMARK UNBOUND:                -0.927
REMARK SMILES O=c1c(-c2ccc(O)cc2)coc2c([C@H]3O[C@@H](CO)[C@H](O)[C@H](O)[C@H]3O)c(O)ccc12
REMARK SMILES IDX 3 1 11 2 12 3 13 4 30 5 2 6 1 7 29 8 28 9 26 10 14 11 4 12
REMARK SMILES IDX 5 13 6 14 7 15 10 16 9 17 8 18 15 20 24 21 16 22 22 23 17 24
REMARK SMILES IDX 20 25 25 26 23 28 18 30 19 31 21 33 27 35
REMARK H PARENT 8 19 25 27 23 29 19 32 21 34 27 36
REMARK Flexibility Score: inf
ROOT
ATOM      1  C   UNL     1     -13.603 -40.417 -18.249  1.00  0.00     0.065 A 
ATOM      2  C   UNL     1     -12.644 -41.143 -18.968  1.00  0.00     0.208 A 
ATOM      3  O   UNL     1     -11.776 -40.528 -19.763  1.00  0.00    -0.463 OA
ATOM      4  C   UNL     1     -11.752 -39.208 -19.930  1.00  0.00     0.147 A 
ATOM      5  C   UNL     1     -12.677 -38.397 -19.234  1.00  0.00     0.066 A 
ATOM      6  C   UNL     1     -13.609 -39.016 -18.381  1.00  0.00     0.200 A 
ATOM      7  O   UNL     1     -14.431 -38.320 -17.724  1.00  0.00    -0.288 OA
ATOM      8  C   UNL     1     -12.638 -37.004 -19.397  1.00  0.00     0.020 A 
ATOM      9  C   UNL     1     -11.686 -36.423 -20.231  1.00  0.00     0.047 A 
ATOM     10  C   UNL     1     -10.762 -37.214 -20.924  1.00  0.00     0.125 A 
ATOM     11  C   UNL     1     -10.799 -38.624 -20.799  1.00  0.00     0.069 A 
ENDROOT
BRANCH   1  12
ATOM     12  C   UNL     1     -14.568 -41.128 -17.373  1.00  0.00    -0.011 A 
ATOM     13  C   UNL     1     -15.883 -41.362 -17.810  1.00  0.00     0.013 A 
ATOM     14  C   UNL     1     -16.797 -42.024 -16.984  1.00  0.00     0.047 A 
ATOM     15  C   UNL     1     -16.412 -42.453 -15.711  1.00  0.00     0.115 A 
ATOM     16  C   UNL     1     -14.189 -41.557 -16.089  1.00  0.00     0.013 A 
ATOM     17  C   UNL     1     -15.104 -42.218 -15.264  1.00  0.00     0.047 A 
BRANCH  15  18
ATOM     18  O   UNL     1     -17.332 -43.111 -14.899  1.00  0.00    -0.508 OA
ATOM     19  H   UNL     1     -17.351 -42.968 -13.896  1.00  0.00     0.293 HD
ENDBRANCH  15  18
ENDBRANCH   1  12
BRANCH  11  20
ATOM     20  C   UNL     1      -9.793 -39.518 -21.516  1.00  0.00     0.188 C 
ATOM     21  C   UNL     1      -9.460 -40.763 -20.656  1.00  0.00     0.179 C 
ATOM     22  O   UNL     1      -8.617 -38.793 -21.839  1.00  0.00    -0.362 OA
ATOM     23  C   UNL     1      -8.422 -41.651 -21.372  1.00  0.00     0.177 C 
ATOM     24  C   UNL     1      -7.753 -39.567 -22.657  1.00  0.00     0.176 C 
ATOM     25  C   UNL     1      -7.234 -40.808 -21.885  1.00  0.00     0.177 C 
BRANCH  21  26
ATOM     26  O   UNL     1      -9.024 -40.413 -19.365  1.00  0.00    -0.387 OA
ATOM     27  H   UNL     1      -8.096 -40.745 -19.252  1.00  0.00     0.211 HD
ENDBRANCH  21  26
BRANCH  23  28
ATOM     28  O   UNL     1      -9.048 -42.310 -22.445  1.00  0.00    -0.387 OA
ATOM     29  H   UNL     1      -9.453 -41.611 -23.022  1.00  0.00     0.211 HD
ENDBRANCH  23  28
BRANCH  24  30
ATOM     30  C   UNL     1      -6.601 -38.668 -23.125  1.00  0.00     0.191 C 
BRANCH  30  31
ATOM     31  O   UNL     1      -5.490 -38.819 -22.284  1.00  0.00    -0.394 OA
ATOM     32  H   UNL     1      -5.736 -39.521 -21.626  1.00  0.00     0.210 HD
ENDBRANCH  30  31
ENDBRANCH  24  30
BRANCH  25  33
ATOM     33  O   UNL     1      -6.429 -41.603 -22.721  1.00  0.00    -0.388 OA
ATOM     34  H   UNL     1      -5.677 -41.033 -23.035  1.00  0.00     0.211 HD
ENDBRANCH  25  33
ENDBRANCH  11  20
BRANCH  10  35
ATOM     35  O   UNL     1      -9.808 -36.594 -21.731  1.00  0.00    -0.507 OA
ATOM     36  H   UNL     1      -9.975 -35.690 -22.156  1.00  0.00     0.293 HD
ENDBRANCH  10  35
TORSDOF 9
ENDMDL
