MODEL 1
REMARK VINA RESULT:    -6.005      0.000      0.000
REMARK INTER + INTRA:          -7.354
REMARK INTER:                  -7.058
REMARK INTRA:                  -0.297
REMARK UNBOUND:                -0.297
REMARK SMILES O=c1cc(-c2ccc(O)c(O)c2)oc2cc(O)cc(O)c12
REMARK SMILES IDX 4 1 3 2 2 3 1 4 21 5 19 6 18 7 16 8 15 9 14 10 13 11 5 12
REMARK SMILES IDX 6 13 7 14 8 15 12 16 10 17 9 18 11 20 20 22 17 24
REMARK H PARENT 9 19 11 21 20 23 17 25
REMARK Flexibility Score: inf
ROOT
ATOM      1  C   UNL     1      24.101  45.849  86.000  1.00  0.00     0.138 A 
ATOM      2  C   UNL     1      25.478  46.099  86.077  1.00  0.00     0.100 A 
ATOM      3  C   UNL     1      26.383  45.100  85.716  1.00  0.00     0.197 A 
ATOM      4  O   UNL     1      27.612  45.337  85.849  1.00  0.00    -0.289 OA
ATOM      5  C   UNL     1      25.905  43.855  85.241  1.00  0.00     0.107 A 
ATOM      6  C   UNL     1      26.734  42.774  84.813  1.00  0.00     0.134 A 
ATOM      7  C   UNL     1      26.146  41.555  84.456  1.00  0.00     0.093 A 
ATOM      8  C   UNL     1      24.758  41.394  84.458  1.00  0.00     0.123 A 
ATOM      9  C   UNL     1      23.939  42.458  84.827  1.00  0.00     0.094 A 
ATOM     10  C   UNL     1      24.495  43.677  85.220  1.00  0.00     0.146 A 
ATOM     11  O   UNL     1      23.678  44.661  85.581  1.00  0.00    -0.456 OA
ENDROOT
BRANCH   1  12
ATOM     12  C   UNL     1      23.094  46.876  86.368  1.00  0.00     0.021 A 
ATOM     13  C   UNL     1      23.258  48.230  86.025  1.00  0.00     0.016 A 
ATOM     14  C   UNL     1      22.298  49.174  86.392  1.00  0.00     0.051 A 
ATOM     15  C   UNL     1      21.162  48.796  87.115  1.00  0.00     0.157 A 
ATOM     16  C   UNL     1      21.960  46.498  87.106  1.00  0.00     0.062 A 
ATOM     17  C   UNL     1      20.992  47.440  87.479  1.00  0.00     0.158 A 
BRANCH  15  18
ATOM     18  O   UNL     1      20.240  49.789  87.450  1.00  0.00    -0.504 OA
ATOM     19  H   UNL     1      19.879  50.469  86.797  1.00  0.00     0.293 HD
ENDBRANCH  15  18
BRANCH  17  20
ATOM     20  O   UNL     1      19.888  46.987  88.204  1.00  0.00    -0.504 OA
ATOM     21  H   UNL     1      19.928  46.688  89.168  1.00  0.00     0.293 HD
ENDBRANCH  17  20
ENDBRANCH   1  12
BRANCH   6  22
ATOM     22  O   UNL     1      28.125  42.851  84.697  1.00  0.00    -0.507 OA
ATOM     23  H   UNL     1      28.770  42.121  84.956  1.00  0.00     0.293 HD
ENDBRANCH   6  22
BRANCH   8  24
ATOM     24  O   UNL     1      24.183  40.181  84.087  1.00  0.00    -0.508 OA
ATOM     25  H   UNL     1      24.569  39.295  84.393  1.00  0.00     0.293 HD
ENDBRANCH   8  24
TORSDOF 5
ENDMDL
MODEL 2
REMARK VINA RESULT:    -5.875      1.685      7.251
REMARK INTER + INTRA:          -7.202
REMARK INTER:                  -6.927
REMARK INTRA:                  -0.275
REMARK UNBOUND:                -0.297
REMARK SMILES O=c1cc(-c2ccc(O)c(O)c2)oc2cc(O)cc(O)c12
REMARK SMILES IDX 4 1 3 2 2 3 1 4 21 5 19 6 18 7 16 8 15 9 14 10 13 11 5 12
REMARK SMILES IDX 6 13 7 14 8 15 12 16 10 17 9 18 11 20 20 22 17 24
REMARK H PARENT 9 19 11 21 20 23 17 25
REMARK Flexibility Score: inf
ROOT
ATOM      1  C   UNL     1      23.799  44.050  86.683  1.00  0.00     0.138 A 
ATOM      2  C   UNL     1      23.403  43.610  87.954  1.00  0.00     0.100 A 
ATOM      3  C   UNL     1      22.560  44.406  88.730  1.00  0.00     0.197 A 
ATOM      4  O   UNL     1      22.268  44.008  89.887  1.00  0.00    -0.289 OA
ATOM      5  C   UNL     1      22.082  45.636  88.214  1.00  0.00     0.107 A 
ATOM      6  C   UNL     1      21.191  46.515  88.901  1.00  0.00     0.134 A 
ATOM      7  C   UNL     1      20.866  47.751  88.329  1.00  0.00     0.093 A 
ATOM      8  C   UNL     1      21.354  48.115  87.071  1.00  0.00     0.123 A 
ATOM      9  C   UNL     1      22.184  47.243  86.372  1.00  0.00     0.094 A 
ATOM     10  C   UNL     1      22.555  46.017  86.929  1.00  0.00     0.146 A 
ATOM     11  O   UNL     1      23.362  45.222  86.235  1.00  0.00    -0.456 OA
ENDROOT
BRANCH   1  12
ATOM     12  C   UNL     1      24.692  43.242  85.815  1.00  0.00     0.021 A 
ATOM     13  C   UNL     1      24.291  41.999  85.294  1.00  0.00     0.016 A 
ATOM     14  C   UNL     1      25.156  41.258  84.487  1.00  0.00     0.051 A 
ATOM     15  C   UNL     1      26.438  41.730  84.189  1.00  0.00     0.157 A 
ATOM     16  C   UNL     1      25.985  43.710  85.528  1.00  0.00     0.062 A 
ATOM     17  C   UNL     1      26.859  42.972  84.718  1.00  0.00     0.158 A 
BRANCH  15  18
ATOM     18  O   UNL     1      27.252  40.940  83.376  1.00  0.00    -0.504 OA
ATOM     19  H   UNL     1      27.348  39.940  83.472  1.00  0.00     0.293 HD
ENDBRANCH  15  18
BRANCH  17  20
ATOM     20  O   UNL     1      28.125  43.507  84.470  1.00  0.00    -0.504 OA
ATOM     21  H   UNL     1      28.796  43.730  85.191  1.00  0.00     0.293 HD
ENDBRANCH  17  20
ENDBRANCH   1  12
BRANCH   6  22
ATOM     22  O   UNL     1      20.583  46.217  90.124  1.00  0.00    -0.507 OA
ATOM     23  H   UNL     1      20.936  46.489  91.028  1.00  0.00     0.293 HD
ENDBRANCH   6  22
BRANCH   8  24
ATOM     24  O   UNL     1      21.012  49.341  86.504  1.00  0.00    -0.508 OA
ATOM     25  H   UNL     1      21.717  49.975  86.147  1.00  0.00     0.293 HD
ENDBRANCH   8  24
TORSDOF 5
ENDMDL
MODEL 3
REMARK VINA RESULT:    -5.734      1.179      1.457
REMARK INTER + INTRA:          -7.036
REMARK INTER:                  -6.734
REMARK INTRA:                  -0.302
REMARK UNBOUND:                -0.297
REMARK SMILES O=c1cc(-c2ccc(O)c(O)c2)oc2cc(O)cc(O)c12
REMARK SMILES IDX 4 1 3 2 2 3 1 4 21 5 19 6 18 7 16 8 15 9 14 10 13 11 5 12
REMARK SMILES IDX 6 13 7 14 8 15 12 16 10 17 9 18 11 20 20 22 17 24
REMARK H PARENT 9 19 11 21 20 23 17 25
REMARK Flexibility Score: inf
ROOT
ATOM      1  C   UNL     1      24.893  45.958  86.079  1.00  0.00     0.138 A 
ATOM      2  C   UNL     1      26.284  45.886  85.922  1.00  0.00     0.100 A 
ATOM      3  C   UNL     1      26.863  44.720  85.418  1.00  0.00     0.197 A 
ATOM      4  O   UNL     1      28.118  44.667  85.341  1.00  0.00    -0.289 OA
ATOM      5  C   UNL     1      26.039  43.633  85.037  1.00  0.00     0.107 A 
ATOM      6  C   UNL     1      26.515  42.407  84.480  1.00  0.00     0.134 A 
ATOM      7  C   UNL     1      25.612  41.366  84.234  1.00  0.00     0.093 A 
ATOM      8  C   UNL     1      24.244  41.526  84.471  1.00  0.00     0.123 A 
ATOM      9  C   UNL     1      23.764  42.735  84.967  1.00  0.00     0.094 A 
ATOM     10  C   UNL     1      24.643  43.782  85.255  1.00  0.00     0.146 A 
ATOM     11  O   UNL     1      24.145  44.912  85.744  1.00  0.00    -0.456 OA
ENDROOT
BRANCH   1  12
ATOM     12  C   UNL     1      24.224  47.174  86.607  1.00  0.00     0.021 A 
ATOM     13  C   UNL     1      24.813  47.967  87.609  1.00  0.00     0.016 A 
ATOM     14  C   UNL     1      24.156  49.100  88.092  1.00  0.00     0.051 A 
ATOM     15  C   UNL     1      22.899  49.463  87.598  1.00  0.00     0.157 A 
ATOM     16  C   UNL     1      22.955  47.531  86.122  1.00  0.00     0.062 A 
ATOM     17  C   UNL     1      22.289  48.666  86.600  1.00  0.00     0.158 A 
BRANCH  15  18
ATOM     18  O   UNL     1      22.297  50.608  88.123  1.00  0.00    -0.504 OA
ATOM     19  H   UNL     1      22.805  51.428  88.419  1.00  0.00     0.293 HD
ENDBRANCH  15  18
BRANCH  17  20
ATOM     20  O   UNL     1      21.035  48.962  86.063  1.00  0.00    -0.504 OA
ATOM     21  H   UNL     1      20.754  48.728  85.121  1.00  0.00     0.293 HD
ENDBRANCH  17  20
ENDBRANCH   1  12
BRANCH   6  22
ATOM     22  O   UNL     1      27.848  42.170  84.131  1.00  0.00    -0.507 OA
ATOM     23  H   UNL     1      28.202  41.307  83.749  1.00  0.00     0.293 HD
ENDBRANCH   6  22
BRANCH   8  24
ATOM     24  O   UNL     1      23.352  40.488  84.208  1.00  0.00    -0.508 OA
ATOM     25  H   UNL     1      23.543  39.792  83.496  1.00  0.00     0.293 HD
ENDBRANCH   8  24
TORSDOF 5
ENDMDL
MODEL 4
REMARK VINA RESULT:    -5.387      1.677      6.682
REMARK INTER + INTRA:          -6.628
REMARK INTER:                  -6.311
REMARK INTRA:                  -0.317
REMARK UNBOUND:                -0.297
REMARK SMILES O=c1cc(-c2ccc(O)c(O)c2)oc2cc(O)cc(O)c12
REMARK SMILES IDX 4 1 3 2 2 3 1 4 21 5 19 6 18 7 16 8 15 9 14 10 13 11 5 12
REMARK SMILES IDX 6 13 7 14 8 15 12 16 10 17 9 18 11 20 20 22 17 24
REMARK H PARENT 9 19 11 21 20 23 17 25
REMARK Flexibility Score: inf
ROOT
ATOM      1  C   UNL     1      25.408  45.124  85.576  1.00  0.00     0.138 A 
ATOM      2  C   UNL     1      26.503  45.905  85.968  1.00  0.00     0.100 A 
ATOM      3  C   UNL     1      26.297  47.211  86.415  1.00  0.00     0.197 A 
ATOM      4  O   UNL     1      27.306  47.903  86.707  1.00  0.00    -0.289 OA
ATOM      5  C   UNL     1      24.981  47.725  86.502  1.00  0.00     0.107 A 
ATOM      6  C   UNL     1      24.647  49.031  86.974  1.00  0.00     0.134 A 
ATOM      7  C   UNL     1      23.316  49.462  86.921  1.00  0.00     0.093 A 
ATOM      8  C   UNL     1      22.300  48.617  86.467  1.00  0.00     0.123 A 
ATOM      9  C   UNL     1      22.609  47.325  86.051  1.00  0.00     0.094 A 
ATOM     10  C   UNL     1      23.932  46.875  86.059  1.00  0.00     0.146 A 
ATOM     11  O   UNL     1      24.185  45.641  85.637  1.00  0.00    -0.456 OA
ENDROOT
BRANCH   1  12
ATOM     12  C   UNL     1      25.569  43.728  85.096  1.00  0.00     0.021 A 
ATOM     13  C   UNL     1      26.834  43.186  84.809  1.00  0.00     0.016 A 
ATOM     14  C   UNL     1      26.954  41.873  84.351  1.00  0.00     0.051 A 
ATOM     15  C   UNL     1      25.821  41.075  84.160  1.00  0.00     0.157 A 
ATOM     16  C   UNL     1      24.430  42.932  84.891  1.00  0.00     0.062 A 
ATOM     17  C   UNL     1      24.541  41.613  84.432  1.00  0.00     0.158 A 
BRANCH  15  18
ATOM     18  O   UNL     1      26.010  39.771  83.701  1.00  0.00    -0.504 OA
ATOM     19  H   UNL     1      25.659  38.950  84.172  1.00  0.00     0.293 HD
ENDBRANCH  15  18
BRANCH  17  20
ATOM     20  O   UNL     1      23.364  40.881  84.261  1.00  0.00    -0.504 OA
ATOM     21  H   UNL     1      23.160  40.321  83.446  1.00  0.00     0.293 HD
ENDBRANCH  17  20
ENDBRANCH   1  12
BRANCH   6  22
ATOM     22  O   UNL     1      25.570  49.926  87.522  1.00  0.00    -0.507 OA
ATOM     23  H   UNL     1      25.562  50.256  88.475  1.00  0.00     0.293 HD
ENDBRANCH   6  22
BRANCH   8  24
ATOM     24  O   UNL     1      20.977  49.052  86.433  1.00  0.00    -0.508 OA
ATOM     25  H   UNL     1      20.341  48.760  85.700  1.00  0.00     0.293 HD
ENDBRANCH   8  24
TORSDOF 5
ENDMDL
MODEL 5
REMARK VINA RESULT:    -5.317      1.581      3.118
REMARK INTER + INTRA:          -6.546
REMARK INTER:                  -6.261
REMARK INTRA:                  -0.286
REMARK UNBOUND:                -0.297
REMARK SMILES O=c1cc(-c2ccc(O)c(O)c2)oc2cc(O)cc(O)c12
REMARK SMILES IDX 4 1 3 2 2 3 1 4 21 5 19 6 18 7 16 8 15 9 14 10 13 11 5 12
REMARK SMILES IDX 6 13 7 14 8 15 12 16 10 17 9 18 11 20 20 22 17 24
REMARK H PARENT 9 19 11 21 20 23 17 25
REMARK Flexibility Score: inf
ROOT
ATOM      1  C   UNL     1      22.973  45.419  86.935  1.00  0.00     0.138 A 
ATOM      2  C   UNL     1      22.575  44.076  86.881  1.00  0.00     0.100 A 
ATOM      3  C   UNL     1      23.387  43.140  86.239  1.00  0.00     0.197 A 
ATOM      4  O   UNL     1      22.976  41.954  86.160  1.00  0.00    -0.289 OA
ATOM      5  C   UNL     1      24.623  43.546  85.679  1.00  0.00     0.107 A 
ATOM      6  C   UNL     1      25.549  42.675  85.030  1.00  0.00     0.134 A 
ATOM      7  C   UNL     1      26.693  43.210  84.428  1.00  0.00     0.093 A 
ATOM      8  C   UNL     1      26.974  44.577  84.500  1.00  0.00     0.123 A 
ATOM      9  C   UNL     1      26.103  45.428  85.173  1.00  0.00     0.094 A 
ATOM     10  C   UNL     1      24.935  44.931  85.756  1.00  0.00     0.146 A 
ATOM     11  O   UNL     1      24.121  45.781  86.374  1.00  0.00    -0.456 OA
ENDROOT
BRANCH   1  12
ATOM     12  C   UNL     1      22.149  46.456  87.607  1.00  0.00     0.021 A 
ATOM     13  C   UNL     1      21.685  46.293  88.924  1.00  0.00     0.016 A 
ATOM     14  C   UNL     1      20.905  47.281  89.527  1.00  0.00     0.051 A 
ATOM     15  C   UNL     1      20.563  48.446  88.832  1.00  0.00     0.157 A 
ATOM     16  C   UNL     1      21.794  47.619  86.904  1.00  0.00     0.062 A 
ATOM     17  C   UNL     1      21.013  48.616  87.502  1.00  0.00     0.158 A 
BRANCH  15  18
ATOM     18  O   UNL     1      19.782  49.395  89.493  1.00  0.00    -0.504 OA
ATOM     19  H   UNL     1      20.012  50.377  89.549  1.00  0.00     0.293 HD
ENDBRANCH  15  18
BRANCH  17  20
ATOM     20  O   UNL     1      20.709  49.748  86.743  1.00  0.00    -0.504 OA
ATOM     21  H   UNL     1      20.811  49.801  85.740  1.00  0.00     0.293 HD
ENDBRANCH  17  20
ENDBRANCH   1  12
BRANCH   6  22
ATOM     22  O   UNL     1      25.406  41.285  84.969  1.00  0.00    -0.507 OA
ATOM     23  H   UNL     1      25.880  40.627  85.568  1.00  0.00     0.293 HD
ENDBRANCH   6  22
BRANCH   8  24
ATOM     24  O   UNL     1      28.125  45.097  83.910  1.00  0.00    -0.508 OA
ATOM     25  H   UNL     1      28.676  44.556  83.255  1.00  0.00     0.293 HD
ENDBRANCH   8  24
TORSDOF 5
ENDMDL
MODEL 6
REMARK VINA RESULT:    -5.261      2.603      4.112
REMARK INTER + INTRA:          -6.480
REMARK INTER:                  -6.187
REMARK INTRA:                  -0.293
REMARK UNBOUND:                -0.297
REMARK SMILES O=c1cc(-c2ccc(O)c(O)c2)oc2cc(O)cc(O)c12
REMARK SMILES IDX 4 1 3 2 2 3 1 4 21 5 19 6 18 7 16 8 15 9 14 10 13 11 5 12
REMARK SMILES IDX 6 13 7 14 8 15 12 16 10 17 9 18 11 20 20 22 17 24
REMARK H PARENT 9 19 11 21 20 23 17 25
REMARK Flexibility Score: inf
ROOT
ATOM      1  C   UNL     1      25.585  46.158  85.896  1.00  0.00     0.138 A 
ATOM      2  C   UNL     1      24.346  45.828  86.462  1.00  0.00     0.100 A 
ATOM      3  C   UNL     1      23.852  44.529  86.335  1.00  0.00     0.197 A 
ATOM      4  O   UNL     1      22.712  44.280  86.807  1.00  0.00    -0.289 OA
ATOM      5  C   UNL     1      24.620  43.546  85.665  1.00  0.00     0.107 A 
ATOM      6  C   UNL     1      24.233  42.181  85.503  1.00  0.00     0.134 A 
ATOM      7  C   UNL     1      25.032  41.325  84.736  1.00  0.00     0.093 A 
ATOM      8  C   UNL     1      26.231  41.768  84.173  1.00  0.00     0.123 A 
ATOM      9  C   UNL     1      26.642  43.084  84.367  1.00  0.00     0.094 A 
ATOM     10  C   UNL     1      25.851  43.973  85.099  1.00  0.00     0.146 A 
ATOM     11  O   UNL     1      26.272  45.225  85.245  1.00  0.00    -0.456 OA
ENDROOT
BRANCH   1  12
ATOM     12  C   UNL     1      26.160  47.523  86.004  1.00  0.00     0.021 A 
ATOM     13  C   UNL     1      27.502  47.788  85.676  1.00  0.00     0.016 A 
ATOM     14  C   UNL     1      28.017  49.080  85.796  1.00  0.00     0.051 A 
ATOM     15  C   UNL     1      27.214  50.131  86.252  1.00  0.00     0.157 A 
ATOM     16  C   UNL     1      25.358  48.575  86.475  1.00  0.00     0.062 A 
ATOM     17  C   UNL     1      25.867  49.874  86.598  1.00  0.00     0.158 A 
BRANCH  15  18
ATOM     18  O   UNL     1      27.790  51.399  86.348  1.00  0.00    -0.504 OA
ATOM     19  H   UNL     1      28.410  51.683  87.092  1.00  0.00     0.293 HD
ENDBRANCH  15  18
BRANCH  17  20
ATOM     20  O   UNL     1      25.006  50.870  87.065  1.00  0.00    -0.504 OA
ATOM     21  H   UNL     1      24.645  50.908  88.007  1.00  0.00     0.293 HD
ENDBRANCH  17  20
ENDBRANCH   1  12
BRANCH   6  22
ATOM     22  O   UNL     1      23.097  41.614  86.088  1.00  0.00    -0.507 OA
ATOM     23  H   UNL     1      23.060  41.211  87.012  1.00  0.00     0.293 HD
ENDBRANCH   6  22
BRANCH   8  24
ATOM     24  O   UNL     1      27.026  40.903  83.424  1.00  0.00    -0.508 OA
ATOM     25  H   UNL     1      27.547  41.227  82.617  1.00  0.00     0.293 HD
ENDBRANCH   8  24
TORSDOF 5
ENDMDL
MODEL 7
REMARK VINA RESULT:    -5.105      2.472      3.721
REMARK INTER + INTRA:          -6.297
REMARK INTER:                  -6.004
REMARK INTRA:                  -0.293
REMARK UNBOUND:                -0.297
REMARK SMILES O=c1cc(-c2ccc(O)c(O)c2)oc2cc(O)cc(O)c12
REMARK SMILES IDX 4 1 3 2 2 3 1 4 21 5 19 6 18 7 16 8 15 9 14 10 13 11 5 12
REMARK SMILES IDX 6 13 7 14 8 15 12 16 10 17 9 18 11 20 20 22 17 24
REMARK H PARENT 9 19 11 21 20 23 17 25
REMARK Flexibility Score: inf
ROOT
ATOM      1  C   UNL     1      24.681  45.282  86.351  1.00  0.00     0.138 A 
ATOM      2  C   UNL     1      23.441  44.634  86.278  1.00  0.00     0.100 A 
ATOM      3  C   UNL     1      23.352  43.376  85.680  1.00  0.00     0.197 A 
ATOM      4  O   UNL     1      22.215  42.845  85.581  1.00  0.00    -0.289 OA
ATOM      5  C   UNL     1      24.520  42.749  85.183  1.00  0.00     0.107 A 
ATOM      6  C   UNL     1      24.556  41.454  84.583  1.00  0.00     0.134 A 
ATOM      7  C   UNL     1      25.756  40.980  84.040  1.00  0.00     0.093 A 
ATOM      8  C   UNL     1      26.933  41.729  84.124  1.00  0.00     0.123 A 
ATOM      9  C   UNL     1      26.918  42.972  84.751  1.00  0.00     0.094 A 
ATOM     10  C   UNL     1      25.730  43.488  85.274  1.00  0.00     0.146 A 
ATOM     11  O   UNL     1      25.757  44.686  85.848  1.00  0.00    -0.456 OA
ENDROOT
BRANCH   1  12
ATOM     12  C   UNL     1      24.834  46.619  86.979  1.00  0.00     0.021 A 
ATOM     13  C   UNL     1      24.214  46.937  88.201  1.00  0.00     0.016 A 
ATOM     14  C   UNL     1      24.369  48.206  88.763  1.00  0.00     0.051 A 
ATOM     15  C   UNL     1      25.132  49.185  88.120  1.00  0.00     0.157 A 
ATOM     16  C   UNL     1      25.588  47.607  86.326  1.00  0.00     0.062 A 
ATOM     17  C   UNL     1      25.749  48.882  86.883  1.00  0.00     0.158 A 
BRANCH  15  18
ATOM     18  O   UNL     1      25.248  50.432  88.736  1.00  0.00    -0.504 OA
ATOM     19  H   UNL     1      26.127  50.897  88.911  1.00  0.00     0.293 HD
ENDBRANCH  15  18
BRANCH  17  20
ATOM     20  O   UNL     1      26.521  49.808  86.180  1.00  0.00    -0.504 OA
ATOM     21  H   UNL     1      26.896  50.655  86.584  1.00  0.00     0.293 HD
ENDBRANCH  17  20
ENDBRANCH   1  12
BRANCH   6  22
ATOM     22  O   UNL     1      23.459  40.590  84.517  1.00  0.00    -0.507 OA
ATOM     23  H   UNL     1      22.929  40.389  83.683  1.00  0.00     0.293 HD
ENDBRANCH   6  22
BRANCH   8  24
ATOM     24  O   UNL     1      28.125  41.241  83.593  1.00  0.00    -0.508 OA
ATOM     25  H   UNL     1      28.196  40.299  83.226  1.00  0.00     0.293 HD
ENDBRANCH   8  24
TORSDOF 5
ENDMDL
MODEL 8
REMARK VINA RESULT:    -5.079      1.571      6.961
REMARK INTER + INTRA:          -6.266
REMARK INTER:                  -5.972
REMARK INTRA:                  -0.295
REMARK UNBOUND:                -0.297
REMARK SMILES O=c1cc(-c2ccc(O)c(O)c2)oc2cc(O)cc(O)c12
REMARK SMILES IDX 4 1 3 2 2 3 1 4 21 5 19 6 18 7 16 8 15 9 14 10 13 11 5 12
REMARK SMILES IDX 6 13 7 14 8 15 12 16 10 17 9 18 11 20 20 22 17 24
REMARK H PARENT 9 19 11 21 20 23 17 25
REMARK Flexibility Score: inf
ROOT
ATOM      1  C   UNL     1      24.620  45.655  85.977  1.00  0.00     0.138 A 
ATOM      2  C   UNL     1      25.499  46.747  86.003  1.00  0.00     0.100 A 
ATOM      3  C   UNL     1      25.059  47.977  86.495  1.00  0.00     0.197 A 
ATOM      4  O   UNL     1      25.855  48.950  86.454  1.00  0.00    -0.289 OA
ATOM      5  C   UNL     1      23.741  48.104  86.997  1.00  0.00     0.107 A 
ATOM      6  C   UNL     1      23.194  49.299  87.554  1.00  0.00     0.134 A 
ATOM      7  C   UNL     1      21.845  49.330  87.927  1.00  0.00     0.093 A 
ATOM      8  C   UNL     1      21.039  48.194  87.816  1.00  0.00     0.123 A 
ATOM      9  C   UNL     1      21.577  47.009  87.320  1.00  0.00     0.094 A 
ATOM     10  C   UNL     1      22.910  46.954  86.907  1.00  0.00     0.146 A 
ATOM     11  O   UNL     1      23.378  45.809  86.424  1.00  0.00    -0.456 OA
ENDROOT
BRANCH   1  12
ATOM     12  C   UNL     1      25.036  44.324  85.467  1.00  0.00     0.021 A 
ATOM     13  C   UNL     1      24.143  43.238  85.420  1.00  0.00     0.016 A 
ATOM     14  C   UNL     1      24.565  41.996  84.944  1.00  0.00     0.051 A 
ATOM     15  C   UNL     1      25.882  41.803  84.515  1.00  0.00     0.157 A 
ATOM     16  C   UNL     1      26.362  44.127  85.050  1.00  0.00     0.062 A 
ATOM     17  C   UNL     1      26.794  42.884  84.570  1.00  0.00     0.158 A 
BRANCH  15  18
ATOM     18  O   UNL     1      26.239  40.537  84.049  1.00  0.00    -0.504 OA
ATOM     19  H   UNL     1      26.722  40.371  83.178  1.00  0.00     0.293 HD
ENDBRANCH  15  18
BRANCH  17  20
ATOM     20  O   UNL     1      28.125  42.768  84.164  1.00  0.00    -0.504 OA
ATOM     21  H   UNL     1      28.457  42.080  83.503  1.00  0.00     0.293 HD
ENDBRANCH  17  20
ENDBRANCH   1  12
BRANCH   6  22
ATOM     22  O   UNL     1      23.929  50.465  87.783  1.00  0.00    -0.507 OA
ATOM     23  H   UNL     1      24.171  51.145  87.079  1.00  0.00     0.293 HD
ENDBRANCH   6  22
BRANCH   8  24
ATOM     24  O   UNL     1      19.701  48.231  88.205  1.00  0.00    -0.508 OA
ATOM     25  H   UNL     1      19.315  49.026  88.701  1.00  0.00     0.293 HD
ENDBRANCH   8  24
TORSDOF 5
ENDMDL
MODEL 9
REMARK VINA RESULT:    -5.053      1.852      7.310
REMARK INTER + INTRA:          -6.235
REMARK INTER:                  -5.921
REMARK INTRA:                  -0.314
REMARK UNBOUND:                -0.297
REMARK SMILES O=c1cc(-c2ccc(O)c(O)c2)oc2cc(O)cc(O)c12
REMARK SMILES IDX 4 1 3 2 2 3 1 4 21 5 19 6 18 7 16 8 15 9 14 10 13 11 5 12
REMARK SMILES IDX 6 13 7 14 8 15 12 16 10 17 9 18 11 20 20 22 17 24
REMARK H PARENT 9 19 11 21 20 23 17 25
REMARK Flexibility Score: inf
ROOT
ATOM      1  C   UNL     1      24.271  45.121  86.221  1.00  0.00     0.138 A 
ATOM      2  C   UNL     1      23.100  45.049  86.987  1.00  0.00     0.100 A 
ATOM      3  C   UNL     1      22.587  46.205  87.577  1.00  0.00     0.197 A 
ATOM      4  O   UNL     1      21.566  46.098  88.303  1.00  0.00    -0.289 OA
ATOM      5  C   UNL     1      23.234  47.448  87.369  1.00  0.00     0.107 A 
ATOM      6  C   UNL     1      22.784  48.698  87.892  1.00  0.00     0.134 A 
ATOM      7  C   UNL     1      23.562  49.845  87.700  1.00  0.00     0.093 A 
ATOM      8  C   UNL     1      24.744  49.800  86.956  1.00  0.00     0.123 A 
ATOM      9  C   UNL     1      25.165  48.595  86.400  1.00  0.00     0.094 A 
ATOM     10  C   UNL     1      24.430  47.425  86.601  1.00  0.00     0.146 A 
ATOM     11  O   UNL     1      24.877  46.294  86.067  1.00  0.00    -0.456 OA
ENDROOT
BRANCH   1  12
ATOM     12  C   UNL     1      24.859  43.924  85.569  1.00  0.00     0.021 A 
ATOM     13  C   UNL     1      24.118  42.743  85.385  1.00  0.00     0.016 A 
ATOM     14  C   UNL     1      24.700  41.630  84.776  1.00  0.00     0.051 A 
ATOM     15  C   UNL     1      26.030  41.663  84.347  1.00  0.00     0.157 A 
ATOM     16  C   UNL     1      26.199  43.953  85.150  1.00  0.00     0.062 A 
ATOM     17  C   UNL     1      26.791  42.840  84.538  1.00  0.00     0.158 A 
BRANCH  15  18
ATOM     18  O   UNL     1      26.551  40.517  83.744  1.00  0.00    -0.504 OA
ATOM     19  H   UNL     1      27.226  39.905  84.181  1.00  0.00     0.293 HD
ENDBRANCH  15  18
BRANCH  17  20
ATOM     20  O   UNL     1      28.125  42.948  84.140  1.00  0.00    -0.504 OA
ATOM     21  H   UNL     1      28.757  43.665  84.467  1.00  0.00     0.293 HD
ENDBRANCH  17  20
ENDBRANCH   1  12
BRANCH   6  22
ATOM     22  O   UNL     1      21.580  48.871  88.581  1.00  0.00    -0.507 OA
ATOM     23  H   UNL     1      20.695  49.100  88.154  1.00  0.00     0.293 HD
ENDBRANCH   6  22
BRANCH   8  24
ATOM     24  O   UNL     1      25.503  50.951  86.758  1.00  0.00    -0.508 OA
ATOM     25  H   UNL     1      26.055  51.085  85.919  1.00  0.00     0.293 HD
ENDBRANCH   8  24
TORSDOF 5
ENDMDL
