MODEL 1
REMARK VINA RESULT:    -2.843      0.000      0.000
REMARK INTER + INTRA:          -2.843
REMARK INTER:                  -2.843
REMARK INTRA:                   0.000
REMARK UNBOUND:                 0.000
REMARK SMILES CC(=O)[O-]
REMARK SMILES IDX 1 1 2 2 3 3 4 4
REMARK H PARENT
REMARK Flexibility Score: inf
ROOT
ATOM      1  C   UNL     1      44.005  27.087   4.934  1.00  0.00     0.063 C 
ATOM      2  C   UNL     1      44.291  27.264   6.387  1.00  0.00     0.038 C 
ATOM      3  O   UNL     1      43.495  26.805   7.247  1.00  0.00    -0.550 OA
ATOM      4  O   UNL     1      45.408  27.982   6.794  1.00  0.00    -0.550 OA
ENDROOT
TORSDOF 0
ENDMDL
MODEL 2
REMARK VINA RESULT:    -2.842      0.089      1.621
REMARK INTER + INTRA:          -2.842
REMARK INTER:                  -2.842
REMARK INTRA:                   0.000
REMARK UNBOUND:                 0.000
REMARK SMILES CC(=O)[O-]
REMARK SMILES IDX 1 1 2 2 3 3 4 4
REMARK H PARENT
REMARK Flexibility Score: inf
ROOT
ATOM      1  C   UNL     1      44.018  27.090   4.927  1.00  0.00     0.063 C 
ATOM      2  C   UNL     1      44.290  27.282   6.380  1.00  0.00     0.038 C 
ATOM      3  O   UNL     1      45.322  27.898   6.753  1.00  0.00    -0.550 OA
ATOM      4  O   UNL     1      43.434  26.734   7.328  1.00  0.00    -0.550 OA
ENDROOT
TORSDOF 0
ENDMDL
MODEL 3
REMARK VINA RESULT:    -2.789      1.428      1.766
REMARK INTER + INTRA:          -2.789
REMARK INTER:                  -2.789
REMARK INTRA:                   0.000
REMARK UNBOUND:                 0.000
REMARK SMILES CC(=O)[O-]
REMARK SMILES IDX 1 1 2 2 3 3 4 4
REMARK H PARENT
REMARK Flexibility Score: inf
ROOT
ATOM      1  C   UNL     1      45.473  27.735   6.740  1.00  0.00     0.063 C 
ATOM      2  C   UNL     1      44.139  27.162   6.397  1.00  0.00     0.038 C 
ATOM      3  O   UNL     1      43.397  26.706   7.305  1.00  0.00    -0.550 OA
ATOM      4  O   UNL     1      43.736  27.080   5.070  1.00  0.00    -0.550 OA
ENDROOT
TORSDOF 0
ENDMDL
MODEL 4
REMARK VINA RESULT:    -2.685      1.295      1.724
REMARK INTER + INTRA:          -2.685
REMARK INTER:                  -2.685
REMARK INTRA:                   0.000
REMARK UNBOUND:                 0.000
REMARK SMILES CC(=O)[O-]
REMARK SMILES IDX 1 1 2 2 3 3 4 4
REMARK H PARENT
REMARK Flexibility Score: inf
ROOT
ATOM      1  C   UNL     1      44.246  27.001   4.926  1.00  0.00     0.063 C 
ATOM      2  C   UNL     1      45.299  26.987   5.981  1.00  0.00     0.038 C 
ATOM      3  O   UNL     1      45.404  27.952   6.781  1.00  0.00    -0.550 OA
ATOM      4  O   UNL     1      46.201  25.932   6.050  1.00  0.00    -0.550 OA
ENDROOT
TORSDOF 0
ENDMDL
MODEL 5
REMARK VINA RESULT:    -2.602      3.275      3.522
REMARK INTER + INTRA:          -2.602
REMARK INTER:                  -2.602
REMARK INTRA:                   0.000
REMARK UNBOUND:                 0.000
REMARK SMILES CC(=O)[O-]
REMARK SMILES IDX 1 1 2 2 3 3 4 4
REMARK H PARENT
REMARK Flexibility Score: inf
ROOT
ATOM      1  C   UNL     1      44.556  26.993   4.772  1.00  0.00     0.063 C 
ATOM      2  C   UNL     1      44.574  26.619   3.329  1.00  0.00     0.038 C 
ATOM      3  O   UNL     1      43.742  25.789   2.881  1.00  0.00    -0.550 OA
ATOM      4  O   UNL     1      45.544  27.147   2.485  1.00  0.00    -0.550 OA
ENDROOT
TORSDOF 0
ENDMDL
MODEL 6
REMARK VINA RESULT:    -2.600      1.560      1.899
REMARK INTER + INTRA:          -2.600
REMARK INTER:                  -2.600
REMARK INTRA:                   0.000
REMARK UNBOUND:                 0.000
REMARK SMILES CC(=O)[O-]
REMARK SMILES IDX 1 1 2 2 3 3 4 4
REMARK H PARENT
REMARK Flexibility Score: inf
ROOT
ATOM      1  C   UNL     1      43.489  26.265   7.487  1.00  0.00     0.063 C 
ATOM      2  C   UNL     1      44.491  26.729   6.485  1.00  0.00     0.038 C 
ATOM      3  O   UNL     1      44.122  27.401   5.487  1.00  0.00    -0.550 OA
ATOM      4  O   UNL     1      45.828  26.375   6.621  1.00  0.00    -0.550 OA
ENDROOT
TORSDOF 0
ENDMDL
MODEL 7
REMARK VINA RESULT:    -2.556     13.067     13.341
REMARK INTER + INTRA:          -2.556
REMARK INTER:                  -2.556
REMARK INTRA:                   0.000
REMARK UNBOUND:                 0.000
REMARK SMILES CC(=O)[O-]
REMARK SMILES IDX 1 1 2 2 3 3 4 4
REMARK H PARENT
REMARK Flexibility Score: inf
ROOT
ATOM      1  C   UNL     1      38.987  22.096  16.957  1.00  0.00     0.063 C 
ATOM      2  C   UNL     1      38.198  23.246  17.486  1.00  0.00     0.038 C 
ATOM      3  O   UNL     1      36.940  23.202  17.482  1.00  0.00    -0.550 OA
ATOM      4  O   UNL     1      38.847  24.389  17.935  1.00  0.00    -0.550 OA
ENDROOT
TORSDOF 0
ENDMDL
MODEL 8
REMARK VINA RESULT:    -2.436     12.720     12.872
REMARK INTER + INTRA:          -2.436
REMARK INTER:                  -2.436
REMARK INTRA:                   0.000
REMARK UNBOUND:                 0.000
REMARK SMILES CC(=O)[O-]
REMARK SMILES IDX 1 1 2 2 3 3 4 4
REMARK H PARENT
REMARK Flexibility Score: inf
ROOT
ATOM      1  C   UNL     1      38.228  22.587  16.889  1.00  0.00     0.063 C 
ATOM      2  C   UNL     1      39.306  23.454  17.445  1.00  0.00     0.038 C 
ATOM      3  O   UNL     1      40.482  23.017  17.540  1.00  0.00    -0.550 OA
ATOM      4  O   UNL     1      39.004  24.728  17.910  1.00  0.00    -0.550 OA
ENDROOT
TORSDOF 0
ENDMDL
MODEL 9
REMARK VINA RESULT:    -2.427     13.121     13.236
REMARK INTER + INTRA:          -2.427
REMARK INTER:                  -2.427
REMARK INTRA:                   0.000
REMARK UNBOUND:                 0.000
REMARK SMILES CC(=O)[O-]
REMARK SMILES IDX 1 1 2 2 3 3 4 4
REMARK H PARENT
REMARK Flexibility Score: inf
ROOT
ATOM      1  C   UNL     1      38.907  23.984  17.875  1.00  0.00     0.063 C 
ATOM      2  C   UNL     1      38.337  22.829  17.124  1.00  0.00     0.038 C 
ATOM      3  O   UNL     1      37.139  22.854  16.742  1.00  0.00    -0.550 OA
ATOM      4  O   UNL     1      39.111  21.700  16.890  1.00  0.00    -0.550 OA
ENDROOT
TORSDOF 0
ENDMDL
