MODEL 1
REMARK VINA RESULT:    -5.190      0.000      0.000
REMARK INTER + INTRA:          -5.900
REMARK INTER:                  -8.224
REMARK INTRA:                   2.325
REMARK UNBOUND:                 2.325
REMARK SMILES C[C@H]1O[C@@H](O[C@@H]2CC[C@]3(C)[C@@H](CC[C@@]4(C)[C@@H]3C=C[C@@]35OC[C@]6(CCC(C)(C)C[C@@H]63)[C@H](O)C[C@]45C)[C@]2(C)CO)[C@H](O)[C@@H](O[C@@H]2O[C@H](CO)[C@H](O)[C@@H](O)[C@@H]2O)[C@@H]1O
REMARK SMILES IDX 1 1 2 2 54 3 41 4 39 5 4 6 3 7 55 8 42 10 43 11 52 12 44 13
REMARK SMILES IDX 50 14 45 15 48 16 53 17 51 19 46 21 47 22 49 24 5 26 6 27
REMARK SMILES IDX 7 28 35 29 8 30 11 31 36 32 9 33 12 34 10 35 16 36 13 37
REMARK SMILES IDX 14 38 17 39 15 40 33 41 18 42 19 43 32 44 34 45 29 46 20 47
REMARK SMILES IDX 30 48 22 49 28 50 21 51 23 52 25 53 24 54 26 55 27 56 37 57
REMARK SMILES IDX 38 58 31 60 40 62
REMARK H PARENT 55 9 53 18 51 20 47 23 49 25 38 59 31 61 40 63
REMARK Flexibility Score: inf
ROOT
ATOM      1  C   UNL     1      -4.823   7.019  -3.751  1.00  0.00     0.041 C 
ATOM      2  C   UNL     1      -4.817   8.482  -4.221  1.00  0.00     0.150 C 
ATOM      3  C   UNL     1      -3.527   8.858  -5.017  1.00  0.00     0.175 C 
ATOM      4  C   UNL     1      -2.830  10.081  -4.388  1.00  0.00     0.186 C 
ATOM      5  C   UNL     1      -2.687   9.870  -2.868  1.00  0.00     0.202 C 
ATOM      6  C   UNL     1      -4.070   9.573  -2.220  1.00  0.00     0.282 C 
ATOM      7  O   UNL     1      -5.120   9.389  -3.166  1.00  0.00    -0.344 OA
ENDROOT
BRANCH   3   8
ATOM      8  O   UNL     1      -3.820   9.096  -6.372  1.00  0.00    -0.388 OA
ATOM      9  H   UNL     1      -3.136   9.724  -6.724  1.00  0.00     0.211 HD
ENDBRANCH   3   8
BRANCH   4  10
ATOM     10  O   UNL     1      -1.634  10.450  -5.075  1.00  0.00    -0.341 OA
BRANCH  10  11
ATOM     11  C   UNL     1      -0.881   9.365  -5.603  1.00  0.00     0.282 C 
ATOM     12  C   UNL     1      -0.213   9.752  -6.944  1.00  0.00     0.202 C 
ATOM     13  O   UNL     1       0.049   8.884  -4.636  1.00  0.00    -0.341 OA
ATOM     14  C   UNL     1       0.975  10.703  -6.739  1.00  0.00     0.179 C 
ATOM     15  C   UNL     1       1.181   9.726  -4.417  1.00  0.00     0.178 C 
ATOM     16  C   UNL     1       1.929  10.072  -5.724  1.00  0.00     0.177 C 
BRANCH  12  17
ATOM     17  O   UNL     1      -1.154  10.291  -7.839  1.00  0.00    -0.385 OA
ATOM     18  H   UNL     1      -1.862   9.609  -7.982  1.00  0.00     0.211 HD
ENDBRANCH  12  17
BRANCH  14  19
ATOM     19  O   UNL     1       1.652  10.890  -7.956  1.00  0.00    -0.387 OA
ATOM     20  H   UNL     1       2.623  10.864  -7.753  1.00  0.00     0.211 HD
ENDBRANCH  14  19
BRANCH  15  21
ATOM     21  C   UNL     1       0.860  10.957  -3.534  1.00  0.00     0.191 C 
BRANCH  21  22
ATOM     22  O   UNL     1       0.572  10.563  -2.222  1.00  0.00    -0.394 OA
ATOM     23  H   UNL     1       1.249   9.883  -1.971  1.00  0.00     0.210 HD
ENDBRANCH  21  22
ENDBRANCH  15  21
BRANCH  16  24
ATOM     24  O   UNL     1       3.003  10.938  -5.453  1.00  0.00    -0.387 OA
ATOM     25  H   UNL     1       3.823  10.381  -5.418  1.00  0.00     0.211 HD
ENDBRANCH  16  24
ENDBRANCH  10  11
ENDBRANCH   4  10
BRANCH   6  26
ATOM     26  O   UNL     1      -3.947   8.444  -1.373  1.00  0.00    -0.346 OA
BRANCH  26  27
ATOM     27  C   UNL     1      -4.385   8.574  -0.019  1.00  0.00     0.130 C 
ATOM     28  C   UNL     1      -5.777   7.994   0.375  1.00  0.00     0.033 C 
ATOM     29  C   UNL     1      -4.129  10.030   0.494  1.00  0.00     0.020 C 
ATOM     30  C   UNL     1      -6.088   8.135   1.883  1.00  0.00     0.010 C 
ATOM     31  C   UNL     1      -4.504  10.128   2.048  1.00  0.00     0.006 C 
ATOM     32  C   UNL     1      -2.606  10.351   0.297  1.00  0.00     0.017 C 
ATOM     33  C   UNL     1      -5.943   9.594   2.445  1.00  0.00    -0.022 C 
ATOM     34  C   UNL     1      -3.373   9.490   2.936  1.00  0.00     0.005 C 
ATOM     35  C   UNL     1      -7.075  10.486   1.824  1.00  0.00     0.012 C 
ATOM     36  C   UNL     1      -6.181   9.695   4.038  1.00  0.00     0.024 C 
ATOM     37  C   UNL     1      -3.795   8.825   4.249  1.00  0.00     0.008 C 
ATOM     38  C   UNL     1      -4.919   9.563   5.011  1.00  0.00    -0.017 C 
ATOM     39  C   UNL     1      -7.411   8.912   4.485  1.00  0.00    -0.024 C 
ATOM     40  C   UNL     1      -4.358  11.012   5.276  1.00  0.00     0.013 C 
ATOM     41  C   UNL     1      -5.291   8.794   6.418  1.00  0.00     0.009 C 
ATOM     42  C   UNL     1      -7.729   8.765   5.773  1.00  0.00     0.005 C 
ATOM     43  C   UNL     1      -6.771   9.196   6.849  1.00  0.00     0.096 C 
ATOM     44  C   UNL     1      -4.293   9.149   7.595  1.00  0.00     0.043 C 
ATOM     45  C   UNL     1      -5.199   7.246   6.194  1.00  0.00     0.015 C 
ATOM     46  C   UNL     1      -7.273   8.744   8.240  1.00  0.00     0.037 C 
ATOM     47  O   UNL     1      -6.811  10.608   6.972  1.00  0.00    -0.369 OA
ATOM     48  C   UNL     1      -4.900   9.037   9.022  1.00  0.00     0.124 C 
ATOM     49  C   UNL     1      -6.377   9.581   9.102  1.00  0.00     0.026 C 
ATOM     50  C   UNL     1      -7.471   7.291   8.747  1.00  0.00     0.014 C 
ATOM     51  C   UNL     1      -6.533  10.914   8.336  1.00  0.00     0.171 C 
ATOM     52  C   UNL     1      -6.933   9.624  10.547  1.00  0.00     0.013 C 
ATOM     53  C   UNL     1      -8.008   7.279  10.216  1.00  0.00    -0.035 C 
ATOM     54  C   UNL     1      -7.141   8.207  11.125  1.00  0.00     0.007 C 
ATOM     55  C   UNL     1      -7.915   5.839  10.764  1.00  0.00     0.011 C 
ATOM     56  C   UNL     1      -9.497   7.701  10.277  1.00  0.00     0.011 C 
BRANCH  29  57
ATOM     57  C   UNL     1      -4.851  11.125  -0.377  1.00  0.00     0.165 C 
BRANCH  57  58
ATOM     58  O   UNL     1      -6.136  10.762  -0.787  1.00  0.00    -0.396 OA
ATOM     59  H   UNL     1      -6.027  10.093  -1.513  1.00  0.00     0.210 HD
ENDBRANCH  57  58
ENDBRANCH  29  57
BRANCH  48  60
ATOM     60  O   UNL     1      -4.065   9.670   9.963  1.00  0.00    -0.392 OA
ATOM     61  H   UNL     1      -4.070  10.643   9.779  1.00  0.00     0.210 HD
ENDBRANCH  48  60
ENDBRANCH  26  27
ENDBRANCH   6  26
BRANCH   5  62
ATOM     62  O   UNL     1      -2.123  11.022  -2.291  1.00  0.00    -0.385 OA
ATOM     63  H   UNL     1      -1.558  11.446  -2.988  1.00  0.00     0.211 HD
ENDBRANCH   5  62
TORSDOF 14
ENDMDL
MODEL 2
REMARK VINA RESULT:    -3.157      1.798      3.098
REMARK INTER + INTRA:          -2.678
REMARK INTER:                  -2.531
REMARK INTRA:                  -0.147
REMARK UNBOUND:                 2.325
REMARK SMILES C[C@H]1O[C@@H](O[C@@H]2CC[C@]3(C)[C@@H](CC[C@@]4(C)[C@@H]3C=C[C@@]35OC[C@]6(CCC(C)(C)C[C@@H]63)[C@H](O)C[C@]45C)[C@]2(C)CO)[C@H](O)[C@@H](O[C@@H]2O[C@H](CO)[C@H](O)[C@@H](O)[C@@H]2O)[C@@H]1O
REMARK SMILES IDX 1 1 2 2 54 3 41 4 39 5 4 6 3 7 55 8 42 10 43 11 52 12 44 13
REMARK SMILES IDX 50 14 45 15 48 16 53 17 51 19 46 21 47 22 49 24 5 26 6 27
REMARK SMILES IDX 7 28 35 29 8 30 11 31 36 32 9 33 12 34 10 35 16 36 13 37
REMARK SMILES IDX 14 38 17 39 15 40 33 41 18 42 19 43 32 44 34 45 29 46 20 47
REMARK SMILES IDX 30 48 22 49 28 50 21 51 23 52 25 53 24 54 26 55 27 56 37 57
REMARK SMILES IDX 38 58 31 60 40 62
REMARK H PARENT 55 9 53 18 51 20 47 23 49 25 38 59 31 61 40 63
REMARK Flexibility Score: inf
ROOT
ATOM      1  C   UNL     1      -4.161   9.534  -5.887  1.00  0.00     0.041 C 
ATOM      2  C   UNL     1      -2.874  10.371  -5.834  1.00  0.00     0.150 C 
ATOM      3  C   UNL     1      -1.676   9.690  -6.569  1.00  0.00     0.175 C 
ATOM      4  C   UNL     1      -0.462   9.554  -5.630  1.00  0.00     0.186 C 
ATOM      5  C   UNL     1      -0.910   8.940  -4.289  1.00  0.00     0.202 C 
ATOM      6  C   UNL     1      -2.061   9.774  -3.658  1.00  0.00     0.282 C 
ATOM      7  O   UNL     1      -2.563  10.800  -4.512  1.00  0.00    -0.344 OA
ENDROOT
BRANCH   3   8
ATOM      8  O   UNL     1      -1.327  10.401  -7.732  1.00  0.00    -0.388 OA
ATOM      9  H   UNL     1      -0.635   9.874  -8.211  1.00  0.00     0.211 HD
ENDBRANCH   3   8
BRANCH   4  10
ATOM     10  O   UNL     1       0.654   8.919  -6.256  1.00  0.00    -0.341 OA
BRANCH  10  11
ATOM     11  C   UNL     1       1.769   9.767  -6.507  1.00  0.00     0.282 C 
ATOM     12  C   UNL     1       3.057   9.194  -5.869  1.00  0.00     0.202 C 
ATOM     13  O   UNL     1       1.902  10.017  -7.903  1.00  0.00    -0.341 OA
ATOM     14  C   UNL     1       3.587   7.978  -6.642  1.00  0.00     0.179 C 
ATOM     15  C   UNL     1       2.405   8.921  -8.667  1.00  0.00     0.178 C 
ATOM     16  C   UNL     1       3.737   8.368  -8.113  1.00  0.00     0.177 C 
BRANCH  12  17
ATOM     17  O   UNL     1       2.855   8.892  -4.511  1.00  0.00    -0.385 OA
ATOM     18  H   UNL     1       1.987   8.417  -4.430  1.00  0.00     0.211 HD
ENDBRANCH  12  17
BRANCH  14  19
ATOM     19  O   UNL     1       4.841   7.599  -6.133  1.00  0.00    -0.387 OA
ATOM     20  H   UNL     1       4.898   7.958  -5.210  1.00  0.00     0.211 HD
ENDBRANCH  14  19
BRANCH  15  21
ATOM     21  C   UNL     1       1.340   7.831  -8.939  1.00  0.00     0.191 C 
BRANCH  21  22
ATOM     22  O   UNL     1       0.074   8.406  -9.107  1.00  0.00    -0.394 OA
ATOM     23  H   UNL     1      -0.400   8.314  -8.241  1.00  0.00     0.210 HD
ENDBRANCH  21  22
ENDBRANCH  15  21
BRANCH  16  24
ATOM     24  O   UNL     1       4.159   7.264  -8.874  1.00  0.00    -0.387 OA
ATOM     25  H   UNL     1       3.390   6.992  -9.441  1.00  0.00     0.211 HD
ENDBRANCH  16  24
ENDBRANCH  10  11
ENDBRANCH   4  10
BRANCH   6  26
ATOM     26  O   UNL     1      -3.098   8.897  -3.257  1.00  0.00    -0.346 OA
BRANCH  26  27
ATOM     27  C   UNL     1      -3.445   8.863  -1.870  1.00  0.00     0.130 C 
ATOM     28  C   UNL     1      -4.533   7.852  -1.396  1.00  0.00     0.033 C 
ATOM     29  C   UNL     1      -3.640  10.317  -1.326  1.00  0.00     0.020 C 
ATOM     30  C   UNL     1      -4.750   7.869   0.134  1.00  0.00     0.010 C 
ATOM     31  C   UNL     1      -3.901  10.272   0.253  1.00  0.00     0.006 C 
ATOM     32  C   UNL     1      -2.329  11.125  -1.622  1.00  0.00     0.017 C 
ATOM     33  C   UNL     1      -5.048   9.289   0.735  1.00  0.00    -0.022 C 
ATOM     34  C   UNL     1      -2.556  10.035   1.034  1.00  0.00     0.005 C 
ATOM     35  C   UNL     1      -6.457   9.763   0.230  1.00  0.00     0.012 C 
ATOM     36  C   UNL     1      -5.178   9.292   2.343  1.00  0.00     0.024 C 
ATOM     37  C   UNL     1      -2.630   9.255   2.350  1.00  0.00     0.008 C 
ATOM     38  C   UNL     1      -3.868   9.574   3.217  1.00  0.00    -0.017 C 
ATOM     39  C   UNL     1      -6.043   8.142   2.851  1.00  0.00    -0.024 C 
ATOM     40  C   UNL     1      -3.795  11.125   3.491  1.00  0.00     0.013 C 
ATOM     41  C   UNL     1      -3.853   8.713   4.620  1.00  0.00     0.009 C 
ATOM     42  C   UNL     1      -6.190   7.887   4.153  1.00  0.00     0.005 C 
ATOM     43  C   UNL     1      -5.344   8.599   5.171  1.00  0.00     0.096 C 
ATOM     44  C   UNL     1      -2.937   9.367   5.732  1.00  0.00     0.043 C 
ATOM     45  C   UNL     1      -3.276   7.284   4.335  1.00  0.00     0.015 C 
ATOM     46  C   UNL     1      -5.556   7.995   6.578  1.00  0.00     0.037 C 
ATOM     47  O   UNL     1      -5.835   9.918   5.346  1.00  0.00    -0.369 OA
ATOM     48  C   UNL     1      -3.356   9.048   7.195  1.00  0.00     0.124 C 
ATOM     49  C   UNL     1      -4.919   9.073   7.401  1.00  0.00     0.026 C 
ATOM     50  C   UNL     1      -5.225   6.554   7.047  1.00  0.00     0.014 C 
ATOM     51  C   UNL     1      -5.565  10.286   6.696  1.00  0.00     0.171 C 
ATOM     52  C   UNL     1      -5.340   8.917   8.883  1.00  0.00     0.013 C 
ATOM     53  C   UNL     1      -5.609   6.352   8.549  1.00  0.00    -0.035 C 
ATOM     54  C   UNL     1      -5.025   7.505   9.425  1.00  0.00     0.007 C 
ATOM     55  C   UNL     1      -5.004   5.017   9.039  1.00  0.00     0.011 C 
ATOM     56  C   UNL     1      -7.144   6.258   8.733  1.00  0.00     0.011 C 
BRANCH  29  57
ATOM     57  C   UNL     1      -4.750  11.120  -2.103  1.00  0.00     0.165 C 
BRANCH  57  58
ATOM     58  O   UNL     1      -5.328  10.408  -3.156  1.00  0.00    -0.396 OA
ATOM     59  H   UNL     1      -5.985   9.782  -2.752  1.00  0.00     0.210 HD
ENDBRANCH  57  58
ENDBRANCH  29  57
BRANCH  48  60
ATOM     60  O   UNL     1      -2.703   9.912   8.094  1.00  0.00    -0.392 OA
ATOM     61  H   UNL     1      -3.390  10.384   8.629  1.00  0.00     0.210 HD
ENDBRANCH  48  60
ENDBRANCH  26  27
ENDBRANCH   6  26
BRANCH   5  62
ATOM     62  O   UNL     1       0.187   8.892  -3.411  1.00  0.00    -0.385 OA
ATOM     63  H   UNL     1       0.005   8.164  -2.761  1.00  0.00     0.211 HD
ENDBRANCH   5  62
TORSDOF 14
ENDMDL
