MODEL 1
REMARK VINA RESULT:    -5.014      0.000      0.000
REMARK INTER + INTRA:          -6.039
REMARK INTER:                  -5.894
REMARK INTRA:                  -0.145
REMARK UNBOUND:                -0.145
REMARK SMILES O=C([O-])C=Cc1ccc(O)c(O)c1
REMARK SMILES IDX 6 1 13 2 7 3 11 4 8 5 9 6 5 7 4 8 2 9 1 10 3 11 12 12 10 14
REMARK H PARENT 12 13 10 15
REMARK Flexibility Score: inf
ROOT
ATOM      1  C   UNL     1       4.621 -14.606   7.472  1.00  0.00    -0.022 A 
ATOM      2  C   UNL     1       5.036 -13.894   6.328  1.00  0.00     0.058 A 
ATOM      3  C   UNL     1       5.536 -15.458   8.109  1.00  0.00     0.012 A 
ATOM      4  C   UNL     1       6.331 -14.053   5.821  1.00  0.00     0.157 A 
ATOM      5  C   UNL     1       6.829 -15.618   7.604  1.00  0.00     0.051 A 
ATOM      6  C   UNL     1       7.232 -14.921   6.458  1.00  0.00     0.157 A 
ENDROOT
BRANCH   1   7
ATOM      7  C   UNL     1       3.262 -14.462   8.053  1.00  0.00     0.010 C 
ATOM      8  C   UNL     1       2.560 -15.481   8.566  1.00  0.00     0.025 C 
BRANCH   8   9
ATOM      9  C   UNL     1       1.218 -15.298   9.146  1.00  0.00     0.064 C 
ATOM     10  O   UNL     1       0.843 -14.177   9.581  1.00  0.00    -0.545 OA
ATOM     11  O   UNL     1       0.349 -16.380   9.210  1.00  0.00    -0.545 OA
ENDBRANCH   8   9
ENDBRANCH   1   7
BRANCH   4  12
ATOM     12  O   UNL     1       6.706 -13.334   4.686  1.00  0.00    -0.504 OA
ATOM     13  H   UNL     1       6.481 -13.649   3.750  1.00  0.00     0.293 HD
ENDBRANCH   4  12
BRANCH   6  14
ATOM     14  O   UNL     1       8.521 -15.085   5.956  1.00  0.00    -0.504 OA
ATOM     15  H   UNL     1       8.741 -15.813   5.286  1.00  0.00     0.293 HD
ENDBRANCH   6  14
TORSDOF 4
ENDMDL
MODEL 2
REMARK VINA RESULT:    -5.009      8.807      9.296
REMARK INTER + INTRA:          -6.032
REMARK INTER:                  -5.902
REMARK INTRA:                  -0.131
REMARK UNBOUND:                -0.145
REMARK SMILES O=C([O-])C=Cc1ccc(O)c(O)c1
REMARK SMILES IDX 6 1 13 2 7 3 11 4 8 5 9 6 5 7 4 8 2 9 1 10 3 11 12 12 10 14
REMARK H PARENT 12 13 10 15
REMARK Flexibility Score: inf
ROOT
ATOM      1  C   UNL     1       5.359 -21.030   0.829  1.00  0.00    -0.022 A 
ATOM      2  C   UNL     1       5.784 -22.147   1.577  1.00  0.00     0.058 A 
ATOM      3  C   UNL     1       6.300 -20.047   0.484  1.00  0.00     0.012 A 
ATOM      4  C   UNL     1       7.117 -22.262   1.991  1.00  0.00     0.157 A 
ATOM      5  C   UNL     1       7.630 -20.160   0.897  1.00  0.00     0.051 A 
ATOM      6  C   UNL     1       8.044 -21.264   1.654  1.00  0.00     0.157 A 
ENDROOT
BRANCH   1   7
ATOM      7  C   UNL     1       3.960 -20.869   0.359  1.00  0.00     0.010 C 
ATOM      8  C   UNL     1       3.113 -19.951   0.842  1.00  0.00     0.025 C 
BRANCH   8   9
ATOM      9  C   UNL     1       1.734 -19.813   0.342  1.00  0.00     0.064 C 
ATOM     10  O   UNL     1       1.297 -18.704  -0.067  1.00  0.00    -0.545 OA
ATOM     11  O   UNL     1       0.902 -20.925   0.317  1.00  0.00    -0.545 OA
ENDBRANCH   8   9
ENDBRANCH   1   7
BRANCH   4  12
ATOM     12  O   UNL     1       7.501 -23.380   2.732  1.00  0.00    -0.504 OA
ATOM     13  H   UNL     1       6.959 -24.235   2.737  1.00  0.00     0.293 HD
ENDBRANCH   4  12
BRANCH   6  14
ATOM     14  O   UNL     1       9.371 -21.372   2.066  1.00  0.00    -0.504 OA
ATOM     15  H   UNL     1       9.988 -22.081   1.687  1.00  0.00     0.293 HD
ENDBRANCH   6  14
TORSDOF 4
ENDMDL
MODEL 3
REMARK VINA RESULT:    -4.911      3.055      6.975
REMARK INTER + INTRA:          -5.918
REMARK INTER:                  -5.794
REMARK INTRA:                  -0.124
REMARK UNBOUND:                -0.145
REMARK SMILES O=C([O-])C=Cc1ccc(O)c(O)c1
REMARK SMILES IDX 6 1 13 2 7 3 11 4 8 5 9 6 5 7 4 8 2 9 1 10 3 11 12 12 10 14
REMARK H PARENT 12 13 10 15
REMARK Flexibility Score: inf
ROOT
ATOM      1  C   UNL     1       8.423 -15.550   6.560  1.00  0.00    -0.022 A 
ATOM      2  C   UNL     1       7.947 -14.684   5.553  1.00  0.00     0.058 A 
ATOM      3  C   UNL     1       7.612 -15.802   7.676  1.00  0.00     0.012 A 
ATOM      4  C   UNL     1       6.696 -14.067   5.678  1.00  0.00     0.157 A 
ATOM      5  C   UNL     1       6.364 -15.186   7.803  1.00  0.00     0.051 A 
ATOM      6  C   UNL     1       5.902 -14.315   6.808  1.00  0.00     0.157 A 
ENDROOT
BRANCH   1   7
ATOM      7  C   UNL     1       9.736 -16.235   6.466  1.00  0.00     0.010 C 
ATOM      8  C   UNL     1      10.913 -15.593   6.453  1.00  0.00     0.025 C 
BRANCH   8   9
ATOM      9  C   UNL     1      12.198 -16.308   6.373  1.00  0.00     0.064 C 
ATOM     10  O   UNL     1      12.316 -17.487   6.800  1.00  0.00    -0.545 OA
ATOM     11  O   UNL     1      13.299 -15.672   5.812  1.00  0.00    -0.545 OA
ENDBRANCH   8   9
ENDBRANCH   1   7
BRANCH   4  12
ATOM     12  O   UNL     1       6.258 -13.215   4.664  1.00  0.00    -0.504 OA
ATOM     13  H   UNL     1       5.598 -13.515   3.956  1.00  0.00     0.293 HD
ENDBRANCH   4  12
BRANCH   6  14
ATOM     14  O   UNL     1       4.658 -13.701   6.938  1.00  0.00    -0.504 OA
ATOM     15  H   UNL     1       3.952 -14.060   7.570  1.00  0.00     0.293 HD
ENDBRANCH   6  14
TORSDOF 4
ENDMDL
MODEL 4
REMARK VINA RESULT:    -4.898      1.302      5.889
REMARK INTER + INTRA:          -5.902
REMARK INTER:                  -5.775
REMARK INTRA:                  -0.127
REMARK UNBOUND:                -0.145
REMARK SMILES O=C([O-])C=Cc1ccc(O)c(O)c1
REMARK SMILES IDX 6 1 13 2 7 3 11 4 8 5 9 6 5 7 4 8 2 9 1 10 3 11 12 12 10 14
REMARK H PARENT 12 13 10 15
REMARK Flexibility Score: inf
ROOT
ATOM      1  C   UNL     1       4.242 -14.734   6.893  1.00  0.00    -0.022 A 
ATOM      2  C   UNL     1       3.489 -15.871   6.535  1.00  0.00     0.058 A 
ATOM      3  C   UNL     1       3.849 -13.987   8.014  1.00  0.00     0.012 A 
ATOM      4  C   UNL     1       2.353 -16.235   7.270  1.00  0.00     0.157 A 
ATOM      5  C   UNL     1       2.717 -14.348   8.749  1.00  0.00     0.051 A 
ATOM      6  C   UNL     1       1.962 -15.469   8.379  1.00  0.00     0.157 A 
ENDROOT
BRANCH   1   7
ATOM      7  C   UNL     1       5.458 -14.316   6.151  1.00  0.00     0.010 C 
ATOM      8  C   UNL     1       6.642 -14.934   6.255  1.00  0.00     0.025 C 
BRANCH   8   9
ATOM      9  C   UNL     1       7.826 -14.499   5.494  1.00  0.00     0.064 C 
ATOM     10  O   UNL     1       8.011 -13.284   5.214  1.00  0.00    -0.545 OA
ATOM     11  O   UNL     1       8.756 -15.443   5.079  1.00  0.00    -0.545 OA
ENDBRANCH   8   9
ENDBRANCH   1   7
BRANCH   4  12
ATOM     12  O   UNL     1       1.631 -17.364   6.885  1.00  0.00    -0.504 OA
ATOM     13  H   UNL     1       2.081 -18.252   6.695  1.00  0.00     0.293 HD
ENDBRANCH   4  12
BRANCH   6  14
ATOM     14  O   UNL     1       0.832 -15.825   9.113  1.00  0.00    -0.504 OA
ATOM     15  H   UNL     1      -0.054 -16.020   8.661  1.00  0.00     0.293 HD
ENDBRANCH   6  14
TORSDOF 4
ENDMDL
MODEL 5
REMARK VINA RESULT:    -4.860      0.870      2.028
REMARK INTER + INTRA:          -5.857
REMARK INTER:                  -5.703
REMARK INTRA:                  -0.154
REMARK UNBOUND:                -0.145
REMARK SMILES O=C([O-])C=Cc1ccc(O)c(O)c1
REMARK SMILES IDX 6 1 13 2 7 3 11 4 8 5 9 6 5 7 4 8 2 9 1 10 3 11 12 12 10 14
REMARK H PARENT 12 13 10 15
REMARK Flexibility Score: inf
ROOT
ATOM      1  C   UNL     1       5.058 -14.915   7.475  1.00  0.00    -0.022 A 
ATOM      2  C   UNL     1       6.345 -15.489   7.496  1.00  0.00     0.058 A 
ATOM      3  C   UNL     1       4.744 -13.994   6.463  1.00  0.00     0.012 A 
ATOM      4  C   UNL     1       7.303 -15.129   6.540  1.00  0.00     0.157 A 
ATOM      5  C   UNL     1       5.698 -13.633   5.508  1.00  0.00     0.051 A 
ATOM      6  C   UNL     1       6.981 -14.194   5.543  1.00  0.00     0.157 A 
ENDROOT
BRANCH   1   7
ATOM      7  C   UNL     1       4.007 -15.273   8.460  1.00  0.00     0.010 C 
ATOM      8  C   UNL     1       2.748 -14.819   8.404  1.00  0.00     0.025 C 
BRANCH   8   9
ATOM      9  C   UNL     1       1.728 -15.206   9.393  1.00  0.00     0.064 C 
ATOM     10  O   UNL     1       1.855 -16.251  10.086  1.00  0.00    -0.545 OA
ATOM     11  O   UNL     1       0.606 -14.405   9.567  1.00  0.00    -0.545 OA
ENDBRANCH   8   9
ENDBRANCH   1   7
BRANCH   4  12
ATOM     12  O   UNL     1       8.567 -15.716   6.594  1.00  0.00    -0.504 OA
ATOM     13  H   UNL     1       8.984 -16.018   7.466  1.00  0.00     0.293 HD
ENDBRANCH   4  12
BRANCH   6  14
ATOM     14  O   UNL     1       7.931 -13.831   4.591  1.00  0.00    -0.504 OA
ATOM     15  H   UNL     1       8.803 -14.337   4.491  1.00  0.00     0.293 HD
ENDBRANCH   6  14
TORSDOF 4
ENDMDL
MODEL 6
REMARK VINA RESULT:    -4.793      2.899      4.392
REMARK INTER + INTRA:          -5.779
REMARK INTER:                  -5.635
REMARK INTRA:                  -0.143
REMARK UNBOUND:                -0.145
REMARK SMILES O=C([O-])C=Cc1ccc(O)c(O)c1
REMARK SMILES IDX 6 1 13 2 7 3 11 4 8 5 9 6 5 7 4 8 2 9 1 10 3 11 12 12 10 14
REMARK H PARENT 12 13 10 15
REMARK Flexibility Score: inf
ROOT
ATOM      1  C   UNL     1       8.045 -15.731   6.892  1.00  0.00    -0.022 A 
ATOM      2  C   UNL     1       8.888 -16.573   7.647  1.00  0.00     0.058 A 
ATOM      3  C   UNL     1       8.552 -15.129   5.731  1.00  0.00     0.012 A 
ATOM      4  C   UNL     1      10.216 -16.785   7.258  1.00  0.00     0.157 A 
ATOM      5  C   UNL     1       9.878 -15.338   5.342  1.00  0.00     0.051 A 
ATOM      6  C   UNL     1      10.716 -16.162   6.104  1.00  0.00     0.157 A 
ENDROOT
BRANCH   1   7
ATOM      7  C   UNL     1       6.627 -15.486   7.258  1.00  0.00     0.010 C 
ATOM      8  C   UNL     1       5.669 -15.190   6.369  1.00  0.00     0.025 C 
BRANCH   8   9
ATOM      9  C   UNL     1       4.269 -14.965   6.767  1.00  0.00     0.064 C 
ATOM     10  O   UNL     1       3.363 -15.783   6.455  1.00  0.00    -0.545 OA
ATOM     11  O   UNL     1       3.942 -13.833   7.503  1.00  0.00    -0.545 OA
ENDBRANCH   8   9
ENDBRANCH   1   7
BRANCH   4  12
ATOM     12  O   UNL     1      11.022 -17.622   8.030  1.00  0.00    -0.504 OA
ATOM     13  H   UNL     1      11.340 -17.361   8.956  1.00  0.00     0.293 HD
ENDBRANCH   4  12
BRANCH   6  14
ATOM     14  O   UNL     1      12.039 -16.367   5.714  1.00  0.00    -0.504 OA
ATOM     15  H   UNL     1      12.331 -17.224   5.259  1.00  0.00     0.293 HD
ENDBRANCH   6  14
TORSDOF 4
ENDMDL
MODEL 7
REMARK VINA RESULT:    -4.780      8.270      9.457
REMARK INTER + INTRA:          -5.763
REMARK INTER:                  -5.612
REMARK INTRA:                  -0.152
REMARK UNBOUND:                -0.145
REMARK SMILES O=C([O-])C=Cc1ccc(O)c(O)c1
REMARK SMILES IDX 6 1 13 2 7 3 11 4 8 5 9 6 5 7 4 8 2 9 1 10 3 11 12 12 10 14
REMARK H PARENT 12 13 10 15
REMARK Flexibility Score: inf
ROOT
ATOM      1  C   UNL     1       8.264 -13.230  14.542  1.00  0.00    -0.022 A 
ATOM      2  C   UNL     1       7.954 -12.857  13.218  1.00  0.00     0.058 A 
ATOM      3  C   UNL     1       7.670 -12.528  15.602  1.00  0.00     0.012 A 
ATOM      4  C   UNL     1       7.086 -11.787  12.964  1.00  0.00     0.157 A 
ATOM      5  C   UNL     1       6.805 -11.460  15.350  1.00  0.00     0.051 A 
ATOM      6  C   UNL     1       6.512 -11.082  14.034  1.00  0.00     0.157 A 
ENDROOT
BRANCH   1   7
ATOM      7  C   UNL     1       9.168 -14.364  14.860  1.00  0.00     0.010 C 
ATOM      8  C   UNL     1       9.217 -14.964  16.058  1.00  0.00     0.025 C 
BRANCH   8   9
ATOM      9  C   UNL     1      10.119 -16.095  16.334  1.00  0.00     0.064 C 
ATOM     10  O   UNL     1      10.270 -16.539  17.503  1.00  0.00    -0.545 OA
ATOM     11  O   UNL     1      10.814 -16.686  15.286  1.00  0.00    -0.545 OA
ENDBRANCH   8   9
ENDBRANCH   1   7
BRANCH   4  12
ATOM     12  O   UNL     1       6.804 -11.445  11.642  1.00  0.00    -0.504 OA
ATOM     13  H   UNL     1       6.360 -10.568  11.396  1.00  0.00     0.293 HD
ENDBRANCH   4  12
BRANCH   6  14
ATOM     14  O   UNL     1       5.650 -10.015  13.786  1.00  0.00    -0.504 OA
ATOM     15  H   UNL     1       4.692 -10.019  14.115  1.00  0.00     0.293 HD
ENDBRANCH   6  14
TORSDOF 4
ENDMDL
MODEL 8
REMARK VINA RESULT:    -4.767      1.335      6.192
REMARK INTER + INTRA:          -5.748
REMARK INTER:                  -5.597
REMARK INTRA:                  -0.151
REMARK UNBOUND:                -0.145
REMARK SMILES O=C([O-])C=Cc1ccc(O)c(O)c1
REMARK SMILES IDX 6 1 13 2 7 3 11 4 8 5 9 6 5 7 4 8 2 9 1 10 3 11 12 12 10 14
REMARK H PARENT 12 13 10 15
REMARK Flexibility Score: inf
ROOT
ATOM      1  C   UNL     1       2.730 -15.062   8.055  1.00  0.00    -0.022 A 
ATOM      2  C   UNL     1       1.924 -14.597   9.114  1.00  0.00     0.058 A 
ATOM      3  C   UNL     1       2.269 -16.131   7.272  1.00  0.00     0.012 A 
ATOM      4  C   UNL     1       0.696 -15.207   9.397  1.00  0.00     0.157 A 
ATOM      5  C   UNL     1       1.044 -16.742   7.553  1.00  0.00     0.051 A 
ATOM      6  C   UNL     1       0.255 -16.287   8.616  1.00  0.00     0.157 A 
ENDROOT
BRANCH   1   7
ATOM      7  C   UNL     1       4.033 -14.440   7.711  1.00  0.00     0.010 C 
ATOM      8  C   UNL     1       4.704 -14.693   6.579  1.00  0.00     0.025 C 
BRANCH   8   9
ATOM      9  C   UNL     1       5.989 -14.047   6.265  1.00  0.00     0.064 C 
ATOM     10  O   UNL     1       6.927 -14.018   7.106  1.00  0.00    -0.545 OA
ATOM     11  O   UNL     1       6.173 -13.461   5.019  1.00  0.00    -0.545 OA
ENDBRANCH   8   9
ENDBRANCH   1   7
BRANCH   4  12
ATOM     12  O   UNL     1      -0.074 -14.722  10.454  1.00  0.00    -0.504 OA
ATOM     13  H   UNL     1      -1.040 -14.441  10.332  1.00  0.00     0.293 HD
ENDBRANCH   4  12
BRANCH   6  14
ATOM     14  O   UNL     1      -0.965 -16.900   8.895  1.00  0.00    -0.504 OA
ATOM     15  H   UNL     1      -1.397 -17.545   8.243  1.00  0.00     0.293 HD
ENDBRANCH   6  14
TORSDOF 4
ENDMDL
MODEL 9
REMARK VINA RESULT:    -4.732     14.429     15.963
REMARK INTER + INTRA:          -5.707
REMARK INTER:                  -5.557
REMARK INTRA:                  -0.150
REMARK UNBOUND:                -0.145
REMARK SMILES O=C([O-])C=Cc1ccc(O)c(O)c1
REMARK SMILES IDX 6 1 13 2 7 3 11 4 8 5 9 6 5 7 4 8 2 9 1 10 3 11 12 12 10 14
REMARK H PARENT 12 13 10 15
REMARK Flexibility Score: inf
ROOT
ATOM      1  C   UNL     1      13.522 -24.456  14.556  1.00  0.00    -0.022 A 
ATOM      2  C   UNL     1      12.188 -24.414  15.011  1.00  0.00     0.058 A 
ATOM      3  C   UNL     1      14.007 -25.643  13.986  1.00  0.00     0.012 A 
ATOM      4  C   UNL     1      11.368 -25.546  14.919  1.00  0.00     0.157 A 
ATOM      5  C   UNL     1      13.190 -26.773  13.894  1.00  0.00     0.051 A 
ATOM      6  C   UNL     1      11.871 -26.732  14.362  1.00  0.00     0.157 A 
ENDROOT
BRANCH   1   7
ATOM      7  C   UNL     1      14.425 -23.280  14.622  1.00  0.00     0.010 C 
ATOM      8  C   UNL     1      15.577 -23.186  13.944  1.00  0.00     0.025 C 
BRANCH   8   9
ATOM      9  C   UNL     1      16.442 -21.997  14.024  1.00  0.00     0.064 C 
ATOM     10  O   UNL     1      16.060 -20.881  13.580  1.00  0.00    -0.545 OA
ATOM     11  O   UNL     1      17.701 -22.106  14.603  1.00  0.00    -0.545 OA
ENDBRANCH   8   9
ENDBRANCH   1   7
BRANCH   4  12
ATOM     12  O   UNL     1      10.055 -25.469  15.382  1.00  0.00    -0.504 OA
ATOM     13  H   UNL     1       9.639 -26.198  15.949  1.00  0.00     0.293 HD
ENDBRANCH   4  12
BRANCH   6  14
ATOM     14  O   UNL     1      11.060 -27.862  14.271  1.00  0.00    -0.504 OA
ATOM     15  H   UNL     1      10.629 -28.273  15.090  1.00  0.00     0.293 HD
ENDBRANCH   6  14
TORSDOF 4
ENDMDL
