MODEL 1
REMARK VINA RESULT:    -9.688      0.000      0.000
REMARK INTER + INTRA:         -11.737
REMARK INTER:                 -11.103
REMARK INTRA:                  -0.634
REMARK UNBOUND:                -0.634
REMARK SMILES C=C(C)[C@H]1CC[C@]2(C(=O)[O-])CC[C@]3(C)[C@@H](CC[C@H]4[C@@]5(C)CC[C@@H](O)C(C)(C)[C@@H]5CC[C@]43C)[C@H]12
REMARK SMILES IDX 7 1 6 2 33 3 11 4 5 5 15 6 4 7 12 8 16 9 13 10 17 11 31 12
REMARK SMILES IDX 14 13 18 14 30 15 32 16 19 17 29 18 21 19 20 20 28 21 22 22
REMARK SMILES IDX 25 23 23 24 26 25 27 26 8 27 9 28 10 29 2 30 3 31 1 32 24 33
REMARK H PARENT 24 34
REMARK Flexibility Score: inf
ROOT
ATOM      1  C   UNL     1       7.934  13.348   8.066  1.00  0.00     0.014 C 
ATOM      2  C   UNL     1       6.769  12.558   8.720  1.00  0.00     0.014 C 
ATOM      3  C   UNL     1       9.227  12.538   8.414  1.00  0.00     0.012 C 
ATOM      4  C   UNL     1       7.707  13.487   6.541  1.00  0.00     0.014 C 
ATOM      5  C   UNL     1       7.259  11.151   9.010  1.00  0.00     0.009 C 
ATOM      6  C   UNL     1      10.247  12.300   7.225  1.00  0.00     0.000 C 
ATOM      7  C   UNL     1       8.779  11.219   9.108  1.00  0.00     0.018 C 
ATOM      8  C   UNL     1       8.097  12.234   5.766  1.00  0.00     0.008 C 
ATOM      9  C   UNL     1      11.297  13.427   7.151  1.00  0.00     0.005 C 
ATOM     10  C   UNL     1       9.634  11.874   5.814  1.00  0.00    -0.024 C 
ATOM     11  C   UNL     1      11.005  14.524   6.146  1.00  0.00     0.005 C 
ATOM     12  C   UNL     1      10.451  12.498   4.541  1.00  0.00    -0.024 C 
ATOM     13  C   UNL     1       9.703  10.302   5.752  1.00  0.00     0.012 C 
ATOM     14  C   UNL     1      10.656  14.083   4.678  1.00  0.00     0.002 C 
ATOM     15  C   UNL     1      11.853  11.797   4.393  1.00  0.00     0.008 C 
ATOM     16  C   UNL     1       9.659  12.180   3.219  1.00  0.00     0.012 C 
ATOM     17  C   UNL     1      11.640  14.749   3.594  1.00  0.00    -0.026 C 
ATOM     18  C   UNL     1      12.870  12.483   3.458  1.00  0.00     0.005 C 
ATOM     19  C   UNL     1      11.800  16.302   3.830  1.00  0.00     0.010 C 
ATOM     20  C   UNL     1      11.019  14.649   2.156  1.00  0.00     0.012 C 
ATOM     21  C   UNL     1      13.023  14.005   3.725  1.00  0.00     0.003 C 
ATOM     22  C   UNL     1      12.975  16.937   3.064  1.00  0.00     0.033 C 
ATOM     23  C   UNL     1      14.252  14.678   2.990  1.00  0.00    -0.006 C 
ATOM     24  C   UNL     1      14.308  16.213   3.308  1.00  0.00     0.120 C 
ATOM     25  C   UNL     1      14.226  14.471   1.452  1.00  0.00     0.014 C 
ATOM     26  C   UNL     1      15.582  14.047   3.490  1.00  0.00     0.014 C 
ENDROOT
BRANCH   1  27
ATOM     27  C   UNL     1       7.953  14.760   8.641  1.00  0.00     0.048 C 
ATOM     28  O   UNL     1       8.218  15.758   7.917  1.00  0.00    -0.550 OA
ATOM     29  O   UNL     1       7.576  14.975   9.962  1.00  0.00    -0.550 OA
ENDBRANCH   1  27
BRANCH   7  30
ATOM     30  C   UNL     1       9.247  11.122  10.563  1.00  0.00    -0.077 C 
ATOM     31  C   UNL     1       9.775   9.829  11.134  1.00  0.00     0.039 C 
ATOM     32  C   UNL     1       9.206  12.201  11.361  1.00  0.00     0.008 C 
ENDBRANCH   7  30
BRANCH  24  33
ATOM     33  O   UNL     1      14.782  16.479   4.608  1.00  0.00    -0.393 OA
ATOM     34  H   UNL     1      15.493  17.167   4.548  1.00  0.00     0.210 HD
ENDBRANCH  24  33
TORSDOF 3
ENDMDL
MODEL 2
REMARK VINA RESULT:    -8.781      2.543      8.322
REMARK INTER + INTRA:         -10.699
REMARK INTER:                 -10.093
REMARK INTRA:                  -0.606
REMARK UNBOUND:                -0.634
REMARK SMILES C=C(C)[C@H]1CC[C@]2(C(=O)[O-])CC[C@]3(C)[C@@H](CC[C@H]4[C@@]5(C)CC[C@@H](O)C(C)(C)[C@@H]5CC[C@]43C)[C@H]12
REMARK SMILES IDX 7 1 6 2 33 3 11 4 5 5 15 6 4 7 12 8 16 9 13 10 17 11 31 12
REMARK SMILES IDX 14 13 18 14 30 15 32 16 19 17 29 18 21 19 20 20 28 21 22 22
REMARK SMILES IDX 25 23 23 24 26 25 27 26 8 27 9 28 10 29 2 30 3 31 1 32 24 33
REMARK H PARENT 24 34
REMARK Flexibility Score: inf
ROOT
ATOM      1  C   UNL     1      14.586  17.638   2.738  1.00  0.00     0.014 C 
ATOM      2  C   UNL     1      15.961  18.209   2.303  1.00  0.00     0.014 C 
ATOM      3  C   UNL     1      14.129  16.719   1.556  1.00  0.00     0.012 C 
ATOM      4  C   UNL     1      14.715  16.871   4.077  1.00  0.00     0.014 C 
ATOM      5  C   UNL     1      16.505  17.333   1.189  1.00  0.00     0.009 C 
ATOM      6  C   UNL     1      13.554  15.297   1.954  1.00  0.00     0.000 C 
ATOM      7  C   UNL     1      15.310  16.639   0.545  1.00  0.00     0.018 C 
ATOM      8  C   UNL     1      15.266  15.461   3.902  1.00  0.00     0.008 C 
ATOM      9  C   UNL     1      12.025  15.346   2.152  1.00  0.00     0.005 C 
ATOM     10  C   UNL     1      14.341  14.482   3.078  1.00  0.00    -0.024 C 
ATOM     11  C   UNL     1      11.558  15.489   3.587  1.00  0.00     0.005 C 
ATOM     12  C   UNL     1      13.355  13.606   4.047  1.00  0.00    -0.024 C 
ATOM     13  C   UNL     1      15.321  13.509   2.322  1.00  0.00     0.012 C 
ATOM     14  C   UNL     1      12.158  14.490   4.643  1.00  0.00     0.002 C 
ATOM     15  C   UNL     1      12.762  12.379   3.259  1.00  0.00     0.008 C 
ATOM     16  C   UNL     1      14.204  13.001   5.226  1.00  0.00     0.012 C 
ATOM     17  C   UNL     1      11.013  13.670   5.420  1.00  0.00    -0.026 C 
ATOM     18  C   UNL     1      11.574  11.647   3.919  1.00  0.00     0.005 C 
ATOM     19  C   UNL     1       9.867  14.624   5.942  1.00  0.00     0.010 C 
ATOM     20  C   UNL     1      11.593  13.028   6.730  1.00  0.00     0.012 C 
ATOM     21  C   UNL     1      10.453  12.606   4.403  1.00  0.00     0.003 C 
ATOM     22  C   UNL     1       8.589  13.887   6.382  1.00  0.00     0.033 C 
ATOM     23  C   UNL     1       9.107  11.882   4.817  1.00  0.00    -0.006 C 
ATOM     24  C   UNL     1       8.049  12.931   5.307  1.00  0.00     0.120 C 
ATOM     25  C   UNL     1       9.312  10.804   5.915  1.00  0.00     0.014 C 
ATOM     26  C   UNL     1       8.502  11.143   3.591  1.00  0.00     0.014 C 
ENDROOT
BRANCH   1  27
ATOM     27  C   UNL     1      13.627  18.798   2.983  1.00  0.00     0.048 C 
ATOM     28  O   UNL     1      13.483  19.718   2.132  1.00  0.00    -0.550 OA
ATOM     29  O   UNL     1      12.818  18.801   4.113  1.00  0.00    -0.550 OA
ENDBRANCH   1  27
BRANCH   7  30
ATOM     30  C   UNL     1      14.975  17.259  -0.814  1.00  0.00    -0.077 C 
ATOM     31  C   UNL     1      14.877  18.755  -0.994  1.00  0.00     0.039 C 
ATOM     32  C   UNL     1      14.771  16.475  -1.885  1.00  0.00     0.008 C 
ENDBRANCH   7  30
BRANCH  24  33
ATOM     33  O   UNL     1       7.475  13.658   4.245  1.00  0.00    -0.393 OA
ATOM     34  H   UNL     1       8.008  13.490   3.426  1.00  0.00     0.210 HD
ENDBRANCH  24  33
TORSDOF 3
ENDMDL
MODEL 3
REMARK VINA RESULT:    -8.563      3.545      6.212
REMARK INTER + INTRA:         -10.448
REMARK INTER:                  -9.779
REMARK INTRA:                  -0.670
REMARK UNBOUND:                -0.634
REMARK SMILES C=C(C)[C@H]1CC[C@]2(C(=O)[O-])CC[C@]3(C)[C@@H](CC[C@H]4[C@@]5(C)CC[C@@H](O)C(C)(C)[C@@H]5CC[C@]43C)[C@H]12
REMARK SMILES IDX 7 1 6 2 33 3 11 4 5 5 15 6 4 7 12 8 16 9 13 10 17 11 31 12
REMARK SMILES IDX 14 13 18 14 30 15 32 16 19 17 29 18 21 19 20 20 28 21 22 22
REMARK SMILES IDX 25 23 23 24 26 25 27 26 8 27 9 28 10 29 2 30 3 31 1 32 24 33
REMARK H PARENT 24 34
REMARK Flexibility Score: inf
ROOT
ATOM      1  C   UNL     1      11.271  15.548   4.742  1.00  0.00     0.014 C 
ATOM      2  C   UNL     1       9.823  15.016   4.577  1.00  0.00     0.014 C 
ATOM      3  C   UNL     1      12.175  14.525   3.976  1.00  0.00     0.012 C 
ATOM      4  C   UNL     1      11.389  16.987   4.183  1.00  0.00     0.014 C 
ATOM      5  C   UNL     1       9.808  14.044   3.411  1.00  0.00     0.009 C 
ATOM      6  C   UNL     1      13.284  15.142   3.027  1.00  0.00     0.000 C 
ATOM      7  C   UNL     1      11.232  13.526   3.245  1.00  0.00     0.018 C 
ATOM      8  C   UNL     1      11.529  17.024   2.666  1.00  0.00     0.008 C 
ATOM      9  C   UNL     1      14.615  15.346   3.777  1.00  0.00     0.005 C 
ATOM     10  C   UNL     1      12.851  16.370   2.103  1.00  0.00    -0.024 C 
ATOM     11  C   UNL     1      14.859  16.747   4.302  1.00  0.00     0.005 C 
ATOM     12  C   UNL     1      14.043  17.471   1.895  1.00  0.00    -0.024 C 
ATOM     13  C   UNL     1      12.460  15.761   0.704  1.00  0.00     0.012 C 
ATOM     14  C   UNL     1      14.679  17.938   3.291  1.00  0.00     0.002 C 
ATOM     15  C   UNL     1      15.174  16.887   0.969  1.00  0.00     0.008 C 
ATOM     16  C   UNL     1      13.457  18.720   1.138  1.00  0.00     0.012 C 
ATOM     17  C   UNL     1      16.004  18.843   3.179  1.00  0.00    -0.026 C 
ATOM     18  C   UNL     1      16.507  17.663   0.939  1.00  0.00     0.005 C 
ATOM     19  C   UNL     1      16.570  19.224   4.603  1.00  0.00     0.010 C 
ATOM     20  C   UNL     1      15.666  20.229   2.525  1.00  0.00     0.012 C 
ATOM     21  C   UNL     1      17.052  18.007   2.351  1.00  0.00     0.003 C 
ATOM     22  C   UNL     1      18.004  19.786   4.579  1.00  0.00     0.033 C 
ATOM     23  C   UNL     1      18.542  18.541   2.366  1.00  0.00    -0.006 C 
ATOM     24  C   UNL     1      18.990  18.876   3.831  1.00  0.00     0.120 C 
ATOM     25  C   UNL     1      18.747  19.788   1.466  1.00  0.00     0.014 C 
ATOM     26  C   UNL     1      19.503  17.448   1.819  1.00  0.00     0.014 C 
ENDROOT
BRANCH   1  27
ATOM     27  C   UNL     1      11.601  15.622   6.229  1.00  0.00     0.048 C 
ATOM     28  O   UNL     1      12.281  14.723   6.794  1.00  0.00    -0.550 OA
ATOM     29  O   UNL     1      11.236  16.745   6.963  1.00  0.00    -0.550 OA
ENDBRANCH   1  27
BRANCH   7  30
ATOM     30  C   UNL     1      11.365  12.092   3.764  1.00  0.00    -0.077 C 
ATOM     31  C   UNL     1      10.157  11.206   3.946  1.00  0.00     0.039 C 
ATOM     32  C   UNL     1      12.574  11.587   4.057  1.00  0.00     0.008 C 
ENDBRANCH   7  30
BRANCH  24  33
ATOM     33  O   UNL     1      19.267  17.720   4.590  1.00  0.00    -0.393 OA
ATOM     34  H   UNL     1      19.176  17.946   5.550  1.00  0.00     0.210 HD
ENDBRANCH  24  33
TORSDOF 3
ENDMDL
MODEL 4
REMARK VINA RESULT:    -8.334      2.311      4.159
REMARK INTER + INTRA:         -10.186
REMARK INTER:                  -9.484
REMARK INTRA:                  -0.702
REMARK UNBOUND:                -0.634
REMARK SMILES C=C(C)[C@H]1CC[C@]2(C(=O)[O-])CC[C@]3(C)[C@@H](CC[C@H]4[C@@]5(C)CC[C@@H](O)C(C)(C)[C@@H]5CC[C@]43C)[C@H]12
REMARK SMILES IDX 7 1 6 2 33 3 11 4 5 5 15 6 4 7 12 8 16 9 13 10 17 11 31 12
REMARK SMILES IDX 14 13 18 14 30 15 32 16 19 17 29 18 21 19 20 20 28 21 22 22
REMARK SMILES IDX 25 23 23 24 26 25 27 26 8 27 9 28 10 29 2 30 3 31 1 32 24 33
REMARK H PARENT 24 34
REMARK Flexibility Score: inf
ROOT
ATOM      1  C   UNL     1       9.471  12.295   5.142  1.00  0.00     0.014 C 
ATOM      2  C   UNL     1       8.956  11.378   6.283  1.00  0.00     0.014 C 
ATOM      3  C   UNL     1       9.636  13.709   5.794  1.00  0.00     0.012 C 
ATOM      4  C   UNL     1      10.796  11.746   4.559  1.00  0.00     0.014 C 
ATOM      5  C   UNL     1       9.255  12.058   7.606  1.00  0.00     0.009 C 
ATOM      6  C   UNL     1      10.980  14.480   5.463  1.00  0.00     0.000 C 
ATOM      7  C   UNL     1       9.382  13.551   7.321  1.00  0.00     0.018 C 
ATOM      8  C   UNL     1      12.009  12.094   5.413  1.00  0.00     0.008 C 
ATOM      9  C   UNL     1      10.823  15.371   4.214  1.00  0.00     0.005 C 
ATOM     10  C   UNL     1      12.335  13.636   5.508  1.00  0.00    -0.024 C 
ATOM     11  C   UNL     1      11.324  14.768   2.916  1.00  0.00     0.005 C 
ATOM     12  C   UNL     1      13.423  14.106   4.380  1.00  0.00    -0.024 C 
ATOM     13  C   UNL     1      12.949  13.852   6.941  1.00  0.00     0.012 C 
ATOM     14  C   UNL     1      12.779  14.170   2.913  1.00  0.00     0.002 C 
ATOM     15  C   UNL     1      14.027  15.511   4.752  1.00  0.00     0.008 C 
ATOM     16  C   UNL     1      14.630  13.096   4.383  1.00  0.00     0.012 C 
ATOM     17  C   UNL     1      13.705  14.837   1.780  1.00  0.00    -0.026 C 
ATOM     18  C   UNL     1      14.814  16.238   3.642  1.00  0.00     0.005 C 
ATOM     19  C   UNL     1      12.972  14.881   0.381  1.00  0.00     0.010 C 
ATOM     20  C   UNL     1      14.970  13.946   1.513  1.00  0.00     0.012 C 
ATOM     21  C   UNL     1      14.062  16.286   2.285  1.00  0.00     0.003 C 
ATOM     22  C   UNL     1      13.646  15.801  -0.653  1.00  0.00     0.033 C 
ATOM     23  C   UNL     1      14.703  17.261   1.216  1.00  0.00    -0.006 C 
ATOM     24  C   UNL     1      13.884  17.223  -0.122  1.00  0.00     0.120 C 
ATOM     25  C   UNL     1      16.192  16.941   0.918  1.00  0.00     0.014 C 
ATOM     26  C   UNL     1      14.672  18.723   1.744  1.00  0.00     0.014 C 
ENDROOT
BRANCH   1  27
ATOM     27  C   UNL     1       8.451  12.288   4.008  1.00  0.00     0.048 C 
ATOM     28  O   UNL     1       7.542  13.159   3.940  1.00  0.00    -0.550 OA
ATOM     29  O   UNL     1       8.576  11.370   2.971  1.00  0.00    -0.550 OA
ENDBRANCH   1  27
BRANCH   7  30
ATOM     30  C   UNL     1       8.146  14.315   7.802  1.00  0.00    -0.077 C 
ATOM     31  C   UNL     1       7.686  14.243   9.238  1.00  0.00     0.039 C 
ATOM     32  C   UNL     1       7.449  15.083   6.948  1.00  0.00     0.008 C 
ENDBRANCH   7  30
BRANCH  24  33
ATOM     33  O   UNL     1      12.666  17.926  -0.030  1.00  0.00    -0.393 OA
ATOM     34  H   UNL     1      12.016  17.364   0.464  1.00  0.00     0.210 HD
ENDBRANCH  24  33
TORSDOF 3
ENDMDL
MODEL 5
REMARK VINA RESULT:    -8.285      1.971      7.949
REMARK INTER + INTRA:         -10.130
REMARK INTER:                  -9.540
REMARK INTRA:                  -0.590
REMARK UNBOUND:                -0.634
REMARK SMILES C=C(C)[C@H]1CC[C@]2(C(=O)[O-])CC[C@]3(C)[C@@H](CC[C@H]4[C@@]5(C)CC[C@@H](O)C(C)(C)[C@@H]5CC[C@]43C)[C@H]12
REMARK SMILES IDX 7 1 6 2 33 3 11 4 5 5 15 6 4 7 12 8 16 9 13 10 17 11 31 12
REMARK SMILES IDX 14 13 18 14 30 15 32 16 19 17 29 18 21 19 20 20 28 21 22 22
REMARK SMILES IDX 25 23 23 24 26 25 27 26 8 27 9 28 10 29 2 30 3 31 1 32 24 33
REMARK H PARENT 24 34
REMARK Flexibility Score: inf
ROOT
ATOM      1  C   UNL     1      14.575  14.850   2.373  1.00  0.00     0.014 C 
ATOM      2  C   UNL     1      15.366  15.543   1.232  1.00  0.00     0.014 C 
ATOM      3  C   UNL     1      14.339  15.965   3.446  1.00  0.00     0.012 C 
ATOM      4  C   UNL     1      13.254  14.251   1.831  1.00  0.00     0.014 C 
ATOM      5  C   UNL     1      15.192  17.043   1.381  1.00  0.00     0.009 C 
ATOM      6  C   UNL     1      12.876  16.061   4.047  1.00  0.00     0.000 C 
ATOM      7  C   UNL     1      14.841  17.308   2.840  1.00  0.00     0.018 C 
ATOM      8  C   UNL     1      12.152  15.291   1.673  1.00  0.00     0.008 C 
ATOM      9  C   UNL     1      12.730  15.190   5.310  1.00  0.00     0.005 C 
ATOM     10  C   UNL     1      11.658  15.948   3.021  1.00  0.00    -0.024 C 
ATOM     11  C   UNL     1      12.114  13.822   5.091  1.00  0.00     0.005 C 
ATOM     12  C   UNL     1      10.360  15.171   3.645  1.00  0.00    -0.024 C 
ATOM     13  C   UNL     1      11.248  17.422   2.649  1.00  0.00     0.012 C 
ATOM     14  C   UNL     1      10.760  13.760   4.293  1.00  0.00     0.002 C 
ATOM     15  C   UNL     1       9.653  16.067   4.729  1.00  0.00     0.008 C 
ATOM     16  C   UNL     1       9.302  14.946   2.503  1.00  0.00     0.012 C 
ATOM     17  C   UNL     1       9.597  13.029   5.130  1.00  0.00    -0.026 C 
ATOM     18  C   UNL     1       8.622  15.365   5.636  1.00  0.00     0.005 C 
ATOM     19  C   UNL     1      10.096  11.666   5.752  1.00  0.00     0.010 C 
ATOM     20  C   UNL     1       8.425  12.600   4.178  1.00  0.00     0.012 C 
ATOM     21  C   UNL     1       9.146  14.039   6.252  1.00  0.00     0.003 C 
ATOM     22  C   UNL     1       9.165  11.091   6.834  1.00  0.00     0.033 C 
ATOM     23  C   UNL     1       8.235  13.447   7.402  1.00  0.00    -0.006 C 
ATOM     24  C   UNL     1       8.838  12.104   7.943  1.00  0.00     0.120 C 
ATOM     25  C   UNL     1       6.768  13.210   6.953  1.00  0.00     0.014 C 
ATOM     26  C   UNL     1       8.167  14.444   8.594  1.00  0.00     0.014 C 
ENDROOT
BRANCH   1  27
ATOM     27  C   UNL     1      15.402  13.686   2.908  1.00  0.00     0.048 C 
ATOM     28  O   UNL     1      15.902  12.827   2.132  1.00  0.00    -0.550 OA
ATOM     29  O   UNL     1      15.702  13.616   4.264  1.00  0.00    -0.550 OA
ENDBRANCH   1  27
BRANCH   7  30
ATOM     30  C   UNL     1      16.033  17.896   3.600  1.00  0.00    -0.077 C 
ATOM     31  C   UNL     1      17.442  17.764   3.077  1.00  0.00     0.039 C 
ATOM     32  C   UNL     1      15.841  18.558   4.753  1.00  0.00     0.008 C 
ENDBRANCH   7  30
BRANCH  24  33
ATOM     33  O   UNL     1       9.961  12.309   8.769  1.00  0.00    -0.393 OA
ATOM     34  H   UNL     1      10.768  11.997   8.286  1.00  0.00     0.210 HD
ENDBRANCH  24  33
TORSDOF 3
ENDMDL
MODEL 6
REMARK VINA RESULT:    -8.282      2.467      4.656
REMARK INTER + INTRA:         -10.127
REMARK INTER:                  -9.403
REMARK INTRA:                  -0.724
REMARK UNBOUND:                -0.634
REMARK SMILES C=C(C)[C@H]1CC[C@]2(C(=O)[O-])CC[C@]3(C)[C@@H](CC[C@H]4[C@@]5(C)CC[C@@H](O)C(C)(C)[C@@H]5CC[C@]43C)[C@H]12
REMARK SMILES IDX 7 1 6 2 33 3 11 4 5 5 15 6 4 7 12 8 16 9 13 10 17 11 31 12
REMARK SMILES IDX 14 13 18 14 30 15 32 16 19 17 29 18 21 19 20 20 28 21 22 22
REMARK SMILES IDX 25 23 23 24 26 25 27 26 8 27 9 28 10 29 2 30 3 31 1 32 24 33
REMARK H PARENT 24 34
REMARK Flexibility Score: inf
ROOT
ATOM      1  C   UNL     1       9.682  15.301   4.337  1.00  0.00     0.014 C 
ATOM      2  C   UNL     1       8.421  14.403   4.222  1.00  0.00     0.014 C 
ATOM      3  C   UNL     1      10.835  14.337   4.775  1.00  0.00     0.012 C 
ATOM      4  C   UNL     1       9.971  16.006   2.990  1.00  0.00     0.014 C 
ATOM      5  C   UNL     1       8.878  12.960   4.120  1.00  0.00     0.009 C 
ATOM      6  C   UNL     1      12.208  14.487   3.999  1.00  0.00     0.000 C 
ATOM      7  C   UNL     1      10.268  12.887   4.741  1.00  0.00     0.018 C 
ATOM      8  C   UNL     1      10.682  15.104   1.988  1.00  0.00     0.008 C 
ATOM      9  C   UNL     1      13.144  15.490   4.703  1.00  0.00     0.005 C 
ATOM     10  C   UNL     1      12.134  14.652   2.413  1.00  0.00    -0.024 C 
ATOM     11  C   UNL     1      13.134  16.897   4.137  1.00  0.00     0.005 C 
ATOM     12  C   UNL     1      13.288  15.646   1.814  1.00  0.00    -0.024 C 
ATOM     13  C   UNL     1      12.324  13.213   1.804  1.00  0.00     0.012 C 
ATOM     14  C   UNL     1      13.328  17.052   2.585  1.00  0.00     0.002 C 
ATOM     15  C   UNL     1      14.701  14.958   1.898  1.00  0.00     0.008 C 
ATOM     16  C   UNL     1      13.008  15.889   0.285  1.00  0.00     0.012 C 
ATOM     17  C   UNL     1      14.572  18.004   2.221  1.00  0.00    -0.026 C 
ATOM     18  C   UNL     1      15.925  15.872   1.682  1.00  0.00     0.005 C 
ATOM     19  C   UNL     1      14.539  19.347   3.052  1.00  0.00     0.010 C 
ATOM     20  C   UNL     1      14.478  18.482   0.729  1.00  0.00     0.012 C 
ATOM     21  C   UNL     1      15.877  17.175   2.525  1.00  0.00     0.003 C 
ATOM     22  C   UNL     1      15.858  20.140   3.016  1.00  0.00     0.033 C 
ATOM     23  C   UNL     1      17.234  17.989   2.549  1.00  0.00    -0.006 C 
ATOM     24  C   UNL     1      17.077  19.292   3.408  1.00  0.00     0.120 C 
ATOM     25  C   UNL     1      17.740  18.365   1.131  1.00  0.00     0.014 C 
ATOM     26  C   UNL     1      18.358  17.132   3.197  1.00  0.00     0.014 C 
ENDROOT
BRANCH   1  27
ATOM     27  C   UNL     1       9.413  16.397   5.363  1.00  0.00     0.048 C 
ATOM     28  O   UNL     1       8.401  17.144   5.271  1.00  0.00    -0.550 OA
ATOM     29  O   UNL     1      10.235  16.519   6.477  1.00  0.00    -0.550 OA
ENDBRANCH   1  27
BRANCH   7  30
ATOM     30  C   UNL     1      10.226  12.230   6.123  1.00  0.00    -0.077 C 
ATOM     31  C   UNL     1       9.846  10.780   6.294  1.00  0.00     0.039 C 
ATOM     32  C   UNL     1      10.542  12.938   7.220  1.00  0.00     0.008 C 
ENDBRANCH   7  30
BRANCH  24  33
ATOM     33  O   UNL     1      17.069  19.028   4.793  1.00  0.00    -0.393 OA
ATOM     34  H   UNL     1      17.827  19.511   5.209  1.00  0.00     0.210 HD
ENDBRANCH  24  33
TORSDOF 3
ENDMDL
MODEL 7
REMARK VINA RESULT:    -8.256      3.739      9.742
REMARK INTER + INTRA:         -10.096
REMARK INTER:                  -9.511
REMARK INTRA:                  -0.585
REMARK UNBOUND:                -0.634
REMARK SMILES C=C(C)[C@H]1CC[C@]2(C(=O)[O-])CC[C@]3(C)[C@@H](CC[C@H]4[C@@]5(C)CC[C@@H](O)C(C)(C)[C@@H]5CC[C@]43C)[C@H]12
REMARK SMILES IDX 7 1 6 2 33 3 11 4 5 5 15 6 4 7 12 8 16 9 13 10 17 11 31 12
REMARK SMILES IDX 14 13 18 14 30 15 32 16 19 17 29 18 21 19 20 20 28 21 22 22
REMARK SMILES IDX 25 23 23 24 26 25 27 26 8 27 9 28 10 29 2 30 3 31 1 32 24 33
REMARK H PARENT 24 34
REMARK Flexibility Score: inf
ROOT
ATOM      1  C   UNL     1      17.093  19.416   1.652  1.00  0.00     0.014 C 
ATOM      2  C   UNL     1      17.577  20.506   0.659  1.00  0.00     0.014 C 
ATOM      3  C   UNL     1      15.661  19.867   2.094  1.00  0.00     0.012 C 
ATOM      4  C   UNL     1      17.100  18.023   0.975  1.00  0.00     0.014 C 
ATOM      5  C   UNL     1      16.361  21.274   0.174  1.00  0.00     0.009 C 
ATOM      6  C   UNL     1      14.544  18.743   2.106  1.00  0.00     0.000 C 
ATOM      7  C   UNL     1      15.275  21.103   1.231  1.00  0.00     0.018 C 
ATOM      8  C   UNL     1      15.881  17.787   0.092  1.00  0.00     0.008 C 
ATOM      9  C   UNL     1      14.458  18.052   3.481  1.00  0.00     0.005 C 
ATOM     10  C   UNL     1      14.501  17.745   0.860  1.00  0.00    -0.024 C 
ATOM     11  C   UNL     1      15.209  16.740   3.599  1.00  0.00     0.005 C 
ATOM     12  C   UNL     1      14.071  16.221   1.271  1.00  0.00    -0.024 C 
ATOM     13  C   UNL     1      13.439  18.329  -0.145  1.00  0.00     0.012 C 
ATOM     14  C   UNL     1      14.948  15.657   2.489  1.00  0.00     0.002 C 
ATOM     15  C   UNL     1      12.545  16.165   1.650  1.00  0.00     0.008 C 
ATOM     16  C   UNL     1      14.246  15.286   0.017  1.00  0.00     0.012 C 
ATOM     17  C   UNL     1      14.450  14.260   3.110  1.00  0.00    -0.026 C 
ATOM     18  C   UNL     1      12.060  14.888   2.366  1.00  0.00     0.005 C 
ATOM     19  C   UNL     1      15.357  13.805   4.321  1.00  0.00     0.010 C 
ATOM     20  C   UNL     1      14.617  13.104   2.062  1.00  0.00     0.012 C 
ATOM     21  C   UNL     1      12.957  14.476   3.564  1.00  0.00     0.003 C 
ATOM     22  C   UNL     1      14.749  12.677   5.173  1.00  0.00     0.033 C 
ATOM     23  C   UNL     1      12.337  13.350   4.489  1.00  0.00    -0.006 C 
ATOM     24  C   UNL     1      13.324  12.993   5.654  1.00  0.00     0.120 C 
ATOM     25  C   UNL     1      11.969  12.059   3.710  1.00  0.00     0.014 C 
ATOM     26  C   UNL     1      11.016  13.860   5.132  1.00  0.00     0.014 C 
ENDROOT
BRANCH   1  27
ATOM     27  C   UNL     1      18.072  19.345   2.819  1.00  0.00     0.048 C 
ATOM     28  O   UNL     1      19.309  19.186   2.627  1.00  0.00    -0.550 OA
ATOM     29  O   UNL     1      17.620  19.560   4.116  1.00  0.00    -0.550 OA
ENDBRANCH   1  27
BRANCH   7  30
ATOM     30  C   UNL     1      15.102  22.379   2.060  1.00  0.00    -0.077 C 
ATOM     31  C   UNL     1      16.227  23.372   2.221  1.00  0.00     0.039 C 
ATOM     32  C   UNL     1      13.928  22.645   2.655  1.00  0.00     0.008 C 
ENDBRANCH   7  30
BRANCH  24  33
ATOM     33  O   UNL     1      13.351  13.979   6.662  1.00  0.00    -0.393 OA
ATOM     34  H   UNL     1      13.628  14.837   6.253  1.00  0.00     0.210 HD
ENDBRANCH  24  33
TORSDOF 3
ENDMDL
MODEL 8
REMARK VINA RESULT:    -8.223      1.793      7.638
REMARK INTER + INTRA:         -10.059
REMARK INTER:                  -9.469
REMARK INTRA:                  -0.590
REMARK UNBOUND:                -0.634
REMARK SMILES C=C(C)[C@H]1CC[C@]2(C(=O)[O-])CC[C@]3(C)[C@@H](CC[C@H]4[C@@]5(C)CC[C@@H](O)C(C)(C)[C@@H]5CC[C@]43C)[C@H]12
REMARK SMILES IDX 7 1 6 2 33 3 11 4 5 5 15 6 4 7 12 8 16 9 13 10 17 11 31 12
REMARK SMILES IDX 14 13 18 14 30 15 32 16 19 17 29 18 21 19 20 20 28 21 22 22
REMARK SMILES IDX 25 23 23 24 26 25 27 26 8 27 9 28 10 29 2 30 3 31 1 32 24 33
REMARK H PARENT 24 34
REMARK Flexibility Score: inf
ROOT
ATOM      1  C   UNL     1      12.973  13.823   3.539  1.00  0.00     0.014 C 
ATOM      2  C   UNL     1      13.507  14.317   2.168  1.00  0.00     0.014 C 
ATOM      3  C   UNL     1      12.847  15.111   4.420  1.00  0.00     0.012 C 
ATOM      4  C   UNL     1      11.623  13.085   3.362  1.00  0.00     0.014 C 
ATOM      5  C   UNL     1      13.257  15.811   2.076  1.00  0.00     0.009 C 
ATOM      6  C   UNL     1      11.505  15.265   5.249  1.00  0.00     0.000 C 
ATOM      7  C   UNL     1      13.143  16.333   3.504  1.00  0.00     0.018 C 
ATOM      8  C   UNL     1      10.441  14.036   3.222  1.00  0.00     0.008 C 
ATOM      9  C   UNL     1      11.638  14.643   6.653  1.00  0.00     0.005 C 
ATOM     10  C   UNL     1      10.140  14.916   4.497  1.00  0.00    -0.024 C 
ATOM     11  C   UNL     1      11.090  13.236   6.797  1.00  0.00     0.005 C 
ATOM     12  C   UNL     1       9.026  14.223   5.475  1.00  0.00    -0.024 C 
ATOM     13  C   UNL     1       9.571  16.277   3.948  1.00  0.00     0.012 C 
ATOM     14  C   UNL     1       9.628  12.975   6.282  1.00  0.00     0.002 C 
ATOM     15  C   UNL     1       8.454  15.281   6.490  1.00  0.00     0.008 C 
ATOM     16  C   UNL     1       7.806  13.748   4.602  1.00  0.00     0.012 C 
ATOM     17  C   UNL     1       8.679  12.373   7.432  1.00  0.00    -0.026 C 
ATOM     18  C   UNL     1       7.645  14.725   7.681  1.00  0.00     0.005 C 
ATOM     19  C   UNL     1       9.371  11.171   8.188  1.00  0.00     0.010 C 
ATOM     20  C   UNL     1       7.394  11.729   6.801  1.00  0.00     0.012 C 
ATOM     21  C   UNL     1       8.358  13.559   8.418  1.00  0.00     0.003 C 
ATOM     22  C   UNL     1       8.681  10.776   9.506  1.00  0.00     0.033 C 
ATOM     23  C   UNL     1       7.700  13.161   9.802  1.00  0.00    -0.006 C 
ATOM     24  C   UNL     1       8.479  11.967  10.455  1.00  0.00     0.120 C 
ATOM     25  C   UNL     1       6.198  12.790   9.675  1.00  0.00     0.014 C 
ATOM     26  C   UNL     1       7.768  14.361  10.788  1.00  0.00     0.014 C 
ENDROOT
BRANCH   1  27
ATOM     27  C   UNL     1      13.958  12.812   4.115  1.00  0.00     0.048 C 
ATOM     28  O   UNL     1      13.578  11.672   4.495  1.00  0.00    -0.550 OA
ATOM     29  O   UNL     1      15.317  13.104   4.134  1.00  0.00    -0.550 OA
ENDBRANCH   1  27
BRANCH   7  30
ATOM     30  C   UNL     1      14.403  17.098   3.918  1.00  0.00    -0.077 C 
ATOM     31  C   UNL     1      15.746  16.795   3.298  1.00  0.00     0.039 C 
ATOM     32  C   UNL     1      14.333  18.070   4.841  1.00  0.00     0.008 C 
ENDBRANCH   7  30
BRANCH  24  33
ATOM     33  O   UNL     1       9.710  12.365  11.015  1.00  0.00    -0.393 OA
ATOM     34  H   UNL     1      10.192  12.919  10.350  1.00  0.00     0.210 HD
ENDBRANCH  24  33
TORSDOF 3
ENDMDL
MODEL 9
REMARK VINA RESULT:    -8.063      3.043      5.780
REMARK INTER + INTRA:          -9.875
REMARK INTER:                  -9.173
REMARK INTRA:                  -0.702
REMARK UNBOUND:                -0.634
REMARK SMILES C=C(C)[C@H]1CC[C@]2(C(=O)[O-])CC[C@]3(C)[C@@H](CC[C@H]4[C@@]5(C)CC[C@@H](O)C(C)(C)[C@@H]5CC[C@]43C)[C@H]12
REMARK SMILES IDX 7 1 6 2 33 3 11 4 5 5 15 6 4 7 12 8 16 9 13 10 17 11 31 12
REMARK SMILES IDX 14 13 18 14 30 15 32 16 19 17 29 18 21 19 20 20 28 21 22 22
REMARK SMILES IDX 25 23 23 24 26 25 27 26 8 27 9 28 10 29 2 30 3 31 1 32 24 33
REMARK H PARENT 24 34
REMARK Flexibility Score: inf
ROOT
ATOM      1  C   UNL     1      11.908  13.512   5.507  1.00  0.00     0.014 C 
ATOM      2  C   UNL     1      11.286  12.977   6.824  1.00  0.00     0.014 C 
ATOM      3  C   UNL     1      10.691  13.933   4.618  1.00  0.00     0.012 C 
ATOM      4  C   UNL     1      12.870  14.689   5.801  1.00  0.00     0.014 C 
ATOM      5  C   UNL     1       9.859  13.486   6.912  1.00  0.00     0.009 C 
ATOM      6  C   UNL     1      10.804  15.337   3.893  1.00  0.00     0.000 C 
ATOM      7  C   UNL     1       9.408  13.796   5.489  1.00  0.00     0.018 C 
ATOM      8  C   UNL     1      12.143  16.011   6.016  1.00  0.00     0.008 C 
ATOM      9  C   UNL     1      11.434  15.197   2.493  1.00  0.00     0.005 C 
ATOM     10  C   UNL     1      11.369  16.558   4.754  1.00  0.00    -0.024 C 
ATOM     11  C   UNL     1      12.919  15.491   2.414  1.00  0.00     0.005 C 
ATOM     12  C   UNL     1      12.279  17.597   3.876  1.00  0.00    -0.024 C 
ATOM     13  C   UNL     1      10.115  17.322   5.323  1.00  0.00     0.012 C 
ATOM     14  C   UNL     1      13.422  16.840   3.046  1.00  0.00     0.002 C 
ATOM     15  C   UNL     1      11.371  18.424   2.892  1.00  0.00     0.008 C 
ATOM     16  C   UNL     1      12.938  18.644   4.849  1.00  0.00     0.012 C 
ATOM     17  C   UNL     1      14.219  17.747   1.982  1.00  0.00    -0.026 C 
ATOM     18  C   UNL     1      12.098  19.204   1.777  1.00  0.00     0.005 C 
ATOM     19  C   UNL     1      15.299  16.906   1.195  1.00  0.00     0.010 C 
ATOM     20  C   UNL     1      15.062  18.844   2.722  1.00  0.00     0.012 C 
ATOM     21  C   UNL     1      13.139  18.348   1.005  1.00  0.00     0.003 C 
ATOM     22  C   UNL     1      15.851  17.608  -0.059  1.00  0.00     0.033 C 
ATOM     23  C   UNL     1      13.689  19.023  -0.317  1.00  0.00    -0.006 C 
ATOM     24  C   UNL     1      14.744  18.091  -1.009  1.00  0.00     0.120 C 
ATOM     25  C   UNL     1      14.319  20.419  -0.068  1.00  0.00     0.014 C 
ATOM     26  C   UNL     1      12.526  19.245  -1.324  1.00  0.00     0.014 C 
ENDROOT
BRANCH   1  27
ATOM     27  C   UNL     1      12.743  12.405   4.873  1.00  0.00     0.048 C 
ATOM     28  O   UNL     1      12.242  11.605   4.037  1.00  0.00    -0.550 OA
ATOM     29  O   UNL     1      14.106  12.329   5.136  1.00  0.00    -0.550 OA
ENDBRANCH   1  27
BRANCH   7  30
ATOM     30  C   UNL     1       8.444  12.728   4.966  1.00  0.00    -0.077 C 
ATOM     31  C   UNL     1       8.586  12.150   3.579  1.00  0.00     0.039 C 
ATOM     32  C   UNL     1       7.450  12.272   5.746  1.00  0.00     0.008 C 
ENDBRANCH   7  30
BRANCH  24  33
ATOM     33  O   UNL     1      14.149  16.997  -1.669  1.00  0.00    -0.393 OA
ATOM     34  H   UNL     1      13.603  17.343  -2.420  1.00  0.00     0.210 HD
ENDBRANCH  24  33
TORSDOF 3
ENDMDL
