MODEL 1
REMARK VINA RESULT:    -4.595      0.000      0.000
REMARK INTER + INTRA:          -9.616
REMARK INTER:                  -7.818
REMARK INTRA:                  -1.798
REMARK UNBOUND:                -1.798
REMARK SMILES CCCCCCCCCCCCCC(=O)[O-]
REMARK SMILES IDX 8 1 9 2 10 3 11 4 12 5 13 6 14 7 15 8 16 9 7 10 6 11 5 12
REMARK SMILES IDX 4 13 3 14 2 15 1 16
REMARK H PARENT
REMARK Flexibility Score: inf
ROOT
ATOM      1  C   UNL     1      12.551  12.150   4.699  1.00  0.00     0.000 C 
ENDROOT
BRANCH   1   2
ATOM      2  C   UNL     1      12.175  12.166   3.212  1.00  0.00     0.000 C 
BRANCH   2   3
ATOM      3  C   UNL     1      12.350  13.570   2.615  1.00  0.00     0.000 C 
BRANCH   3   4
ATOM      4  C   UNL     1      13.389  13.608   1.483  1.00  0.00     0.000 C 
BRANCH   4   5
ATOM      5  C   UNL     1      14.734  14.197   1.935  1.00  0.00     0.006 C 
BRANCH   5   6
ATOM      6  C   UNL     1      15.718  13.085   2.315  1.00  0.00     0.053 C 
BRANCH   6   7
ATOM      7  C   UNL     1      16.434  13.430   3.582  1.00  0.00     0.041 C 
ATOM      8  O   UNL     1      17.631  13.819   3.547  1.00  0.00    -0.550 OA
ATOM      9  O   UNL     1      15.765  13.370   4.798  1.00  0.00    -0.550 OA
ENDBRANCH   6   7
ENDBRANCH   5   6
ENDBRANCH   4   5
ENDBRANCH   3   4
ENDBRANCH   2   3
ENDBRANCH   1   2
BRANCH   1  10
ATOM     10  C   UNL     1      12.285  13.515   5.349  1.00  0.00     0.000 C 
BRANCH  10  11
ATOM     11  C   UNL     1      11.372  13.425   6.585  1.00  0.00    -0.000 C 
BRANCH  11  12
ATOM     12  C   UNL     1      10.528  12.141   6.684  1.00  0.00    -0.000 C 
BRANCH  12  13
ATOM     13  C   UNL     1       9.104  12.315   6.127  1.00  0.00    -0.000 C 
BRANCH  13  14
ATOM     14  C   UNL     1       8.795  11.336   4.983  1.00  0.00    -0.000 C 
BRANCH  14  15
ATOM     15  C   UNL     1       8.560  12.048   3.642  1.00  0.00    -0.003 C 
ATOM     16  C   UNL     1       8.718  13.559   3.789  1.00  0.00     0.004 C 
ENDBRANCH  14  15
ENDBRANCH  13  14
ENDBRANCH  12  13
ENDBRANCH  11  12
ENDBRANCH  10  11
ENDBRANCH   1  10
TORSDOF 12
ENDMDL
MODEL 2
REMARK VINA RESULT:    -4.575      1.473      2.809
REMARK INTER + INTRA:          -9.583
REMARK INTER:                  -7.885
REMARK INTRA:                  -1.698
REMARK UNBOUND:                -1.798
REMARK SMILES CCCCCCCCCCCCCC(=O)[O-]
REMARK SMILES IDX 8 1 9 2 10 3 11 4 12 5 13 6 14 7 15 8 16 9 7 10 6 11 5 12
REMARK SMILES IDX 4 13 3 14 2 15 1 16
REMARK H PARENT
REMARK Flexibility Score: inf
ROOT
ATOM      1  C   UNL     1      10.994  10.602   4.725  1.00  0.00     0.000 C 
ENDROOT
BRANCH   1   2
ATOM      2  C   UNL     1      10.845  11.694   3.658  1.00  0.00     0.000 C 
BRANCH   2   3
ATOM      3  C   UNL     1      12.110  12.560   3.576  1.00  0.00     0.000 C 
BRANCH   3   4
ATOM      4  C   UNL     1      13.350  11.854   4.147  1.00  0.00     0.000 C 
BRANCH   4   5
ATOM      5  C   UNL     1      14.286  12.816   4.896  1.00  0.00     0.006 C 
BRANCH   5   6
ATOM      6  C   UNL     1      14.849  13.880   3.948  1.00  0.00     0.053 C 
BRANCH   6   7
ATOM      7  C   UNL     1      16.055  13.359   3.232  1.00  0.00     0.041 C 
ATOM      8  O   UNL     1      15.941  12.851   2.085  1.00  0.00    -0.550 OA
ATOM      9  O   UNL     1      17.312  13.480   3.810  1.00  0.00    -0.550 OA
ENDBRANCH   6   7
ENDBRANCH   5   6
ENDBRANCH   4   5
ENDBRANCH   3   4
ENDBRANCH   2   3
ENDBRANCH   1   2
BRANCH   1  10
ATOM     10  C   UNL     1       9.670  10.374   5.469  1.00  0.00     0.000 C 
BRANCH  10  11
ATOM     11  C   UNL     1       8.581  11.392   5.085  1.00  0.00    -0.000 C 
BRANCH  11  12
ATOM     12  C   UNL     1       7.706  11.886   6.252  1.00  0.00    -0.000 C 
BRANCH  12  13
ATOM     13  C   UNL     1       7.927  13.374   6.577  1.00  0.00    -0.000 C 
BRANCH  13  14
ATOM     14  C   UNL     1       8.986  14.024   5.671  1.00  0.00    -0.000 C 
BRANCH  14  15
ATOM     15  C   UNL     1      10.168  14.602   6.463  1.00  0.00    -0.003 C 
ATOM     16  C   UNL     1      11.045  13.489   7.031  1.00  0.00     0.004 C 
ENDBRANCH  14  15
ENDBRANCH  13  14
ENDBRANCH  12  13
ENDBRANCH  11  12
ENDBRANCH  10  11
ENDBRANCH   1  10
TORSDOF 12
ENDMDL
MODEL 3
REMARK VINA RESULT:    -4.422      1.285      2.337
REMARK INTER + INTRA:          -9.321
REMARK INTER:                  -7.442
REMARK INTRA:                  -1.879
REMARK UNBOUND:                -1.798
REMARK SMILES CCCCCCCCCCCCCC(=O)[O-]
REMARK SMILES IDX 8 1 9 2 10 3 11 4 12 5 13 6 14 7 15 8 16 9 7 10 6 11 5 12
REMARK SMILES IDX 4 13 3 14 2 15 1 16
REMARK H PARENT
REMARK Flexibility Score: inf
ROOT
ATOM      1  C   UNL     1      12.204  13.251   6.243  1.00  0.00     0.000 C 
ENDROOT
BRANCH   1   2
ATOM      2  C   UNL     1      13.337  12.996   5.241  1.00  0.00     0.000 C 
BRANCH   2   3
ATOM      3  C   UNL     1      12.935  11.926   4.216  1.00  0.00     0.000 C 
BRANCH   3   4
ATOM      4  C   UNL     1      12.624  12.518   2.832  1.00  0.00     0.000 C 
BRANCH   4   5
ATOM      5  C   UNL     1      13.104  13.970   2.689  1.00  0.00     0.006 C 
BRANCH   5   6
ATOM      6  C   UNL     1      14.250  14.070   1.675  1.00  0.00     0.053 C 
BRANCH   6   7
ATOM      7  C   UNL     1      15.570  14.097   2.377  1.00  0.00     0.041 C 
ATOM      8  O   UNL     1      16.217  13.030   2.551  1.00  0.00    -0.550 OA
ATOM      9  O   UNL     1      16.111  15.306   2.796  1.00  0.00    -0.550 OA
ENDBRANCH   6   7
ENDBRANCH   5   6
ENDBRANCH   4   5
ENDBRANCH   3   4
ENDBRANCH   2   3
ENDBRANCH   1   2
BRANCH   1  10
ATOM     10  C   UNL     1      11.391  14.492   5.851  1.00  0.00     0.000 C 
BRANCH  10  11
ATOM     11  C   UNL     1       9.886  14.203   5.701  1.00  0.00    -0.000 C 
BRANCH  11  12
ATOM     12  C   UNL     1       9.369  14.154   4.252  1.00  0.00    -0.000 C 
BRANCH  12  13
ATOM     13  C   UNL     1       8.482  12.928   3.974  1.00  0.00    -0.000 C 
BRANCH  13  14
ATOM     14  C   UNL     1       9.277  11.612   3.981  1.00  0.00    -0.000 C 
BRANCH  14  15
ATOM     15  C   UNL     1       9.043  10.786   5.254  1.00  0.00    -0.003 C 
ATOM     16  C   UNL     1      10.139   9.740   5.438  1.00  0.00     0.004 C 
ENDBRANCH  14  15
ENDBRANCH  13  14
ENDBRANCH  12  13
ENDBRANCH  11  12
ENDBRANCH  10  11
ENDBRANCH   1  10
TORSDOF 12
ENDMDL
MODEL 4
REMARK VINA RESULT:    -4.388      4.018      6.567
REMARK INTER + INTRA:          -9.265
REMARK INTER:                  -7.960
REMARK INTRA:                  -1.305
REMARK UNBOUND:                -1.798
REMARK SMILES CCCCCCCCCCCCCC(=O)[O-]
REMARK SMILES IDX 8 1 9 2 10 3 11 4 12 5 13 6 14 7 15 8 16 9 7 10 6 11 5 12
REMARK SMILES IDX 4 13 3 14 2 15 1 16
REMARK H PARENT
REMARK Flexibility Score: inf
ROOT
ATOM      1  C   UNL     1      12.707  12.554   5.063  1.00  0.00     0.000 C 
ENDROOT
BRANCH   1   2
ATOM      2  C   UNL     1      12.286  11.456   4.078  1.00  0.00     0.000 C 
BRANCH   2   3
ATOM      3  C   UNL     1      10.758  11.395   3.942  1.00  0.00     0.000 C 
BRANCH   3   4
ATOM      4  C   UNL     1      10.104  10.491   5.000  1.00  0.00     0.000 C 
BRANCH   4   5
ATOM      5  C   UNL     1       8.747  11.029   5.480  1.00  0.00     0.006 C 
BRANCH   5   6
ATOM      6  C   UNL     1       8.855  11.598   6.899  1.00  0.00     0.053 C 
BRANCH   6   7
ATOM      7  C   UNL     1       7.494  11.799   7.487  1.00  0.00     0.041 C 
ATOM      8  O   UNL     1       7.317  11.678   8.728  1.00  0.00    -0.550 OA
ATOM      9  O   UNL     1       6.432  12.169   6.673  1.00  0.00    -0.550 OA
ENDBRANCH   6   7
ENDBRANCH   5   6
ENDBRANCH   4   5
ENDBRANCH   3   4
ENDBRANCH   2   3
ENDBRANCH   1   2
BRANCH   1  10
ATOM     10  C   UNL     1      14.229  12.757   5.045  1.00  0.00     0.000 C 
BRANCH  10  11
ATOM     11  C   UNL     1      14.684  13.804   4.012  1.00  0.00    -0.000 C 
BRANCH  11  12
ATOM     12  C   UNL     1      15.278  13.228   2.714  1.00  0.00    -0.000 C 
BRANCH  12  13
ATOM     13  C   UNL     1      14.639  13.824   1.448  1.00  0.00    -0.000 C 
BRANCH  13  14
ATOM     14  C   UNL     1      13.135  13.518   1.348  1.00  0.00    -0.000 C 
BRANCH  14  15
ATOM     15  C   UNL     1      12.274  14.789   1.312  1.00  0.00    -0.003 C 
ATOM     16  C   UNL     1      11.295  14.822   2.483  1.00  0.00     0.004 C 
ENDBRANCH  14  15
ENDBRANCH  13  14
ENDBRANCH  12  13
ENDBRANCH  11  12
ENDBRANCH  10  11
ENDBRANCH   1  10
TORSDOF 12
ENDMDL
MODEL 5
REMARK VINA RESULT:    -4.366      1.244      2.287
REMARK INTER + INTRA:          -9.227
REMARK INTER:                  -7.789
REMARK INTRA:                  -1.438
REMARK UNBOUND:                -1.798
REMARK SMILES CCCCCCCCCCCCCC(=O)[O-]
REMARK SMILES IDX 8 1 9 2 10 3 11 4 12 5 13 6 14 7 15 8 16 9 7 10 6 11 5 12
REMARK SMILES IDX 4 13 3 14 2 15 1 16
REMARK H PARENT
REMARK Flexibility Score: inf
ROOT
ATOM      1  C   UNL     1      11.593  11.755   4.746  1.00  0.00     0.000 C 
ENDROOT
BRANCH   1   2
ATOM      2  C   UNL     1      12.254  11.868   3.367  1.00  0.00     0.000 C 
BRANCH   2   3
ATOM      3  C   UNL     1      12.671  13.317   3.074  1.00  0.00     0.000 C 
BRANCH   3   4
ATOM      4  C   UNL     1      13.096  13.528   1.612  1.00  0.00     0.000 C 
BRANCH   4   5
ATOM      5  C   UNL     1      14.555  13.989   1.481  1.00  0.00     0.006 C 
BRANCH   5   6
ATOM      6  C   UNL     1      15.461  13.217   2.447  1.00  0.00     0.053 C 
BRANCH   6   7
ATOM      7  C   UNL     1      16.350  14.158   3.197  1.00  0.00     0.041 C 
ATOM      8  O   UNL     1      17.562  13.872   3.383  1.00  0.00    -0.550 OA
ATOM      9  O   UNL     1      15.853  15.373   3.648  1.00  0.00    -0.550 OA
ENDBRANCH   6   7
ENDBRANCH   5   6
ENDBRANCH   4   5
ENDBRANCH   3   4
ENDBRANCH   2   3
ENDBRANCH   1   2
BRANCH   1  10
ATOM     10  C   UNL     1      10.573  10.608   4.776  1.00  0.00     0.000 C 
BRANCH  10  11
ATOM     11  C   UNL     1       9.124  11.095   4.959  1.00  0.00    -0.000 C 
BRANCH  11  12
ATOM     12  C   UNL     1       8.558  11.920   3.788  1.00  0.00    -0.000 C 
BRANCH  12  13
ATOM     13  C   UNL     1       8.215  13.366   4.186  1.00  0.00    -0.000 C 
BRANCH  13  14
ATOM     14  C   UNL     1       9.204  14.388   3.601  1.00  0.00    -0.000 C 
BRANCH  14  15
ATOM     15  C   UNL     1       9.673  15.417   4.640  1.00  0.00    -0.003 C 
ATOM     16  C   UNL     1       9.943  14.752   5.988  1.00  0.00     0.004 C 
ENDBRANCH  14  15
ENDBRANCH  13  14
ENDBRANCH  12  13
ENDBRANCH  11  12
ENDBRANCH  10  11
ENDBRANCH   1  10
TORSDOF 12
ENDMDL
MODEL 6
REMARK VINA RESULT:    -4.341      3.192      4.811
REMARK INTER + INTRA:          -9.184
REMARK INTER:                  -7.401
REMARK INTRA:                  -1.783
REMARK UNBOUND:                -1.798
REMARK SMILES CCCCCCCCCCCCCC(=O)[O-]
REMARK SMILES IDX 8 1 9 2 10 3 11 4 12 5 13 6 14 7 15 8 16 9 7 10 6 11 5 12
REMARK SMILES IDX 4 13 3 14 2 15 1 16
REMARK H PARENT
REMARK Flexibility Score: inf
ROOT
ATOM      1  C   UNL     1      10.659  11.305   3.827  1.00  0.00     0.000 C 
ENDROOT
BRANCH   1   2
ATOM      2  C   UNL     1      12.130  11.734   3.904  1.00  0.00     0.000 C 
BRANCH   2   3
ATOM      3  C   UNL     1      12.264  13.134   4.520  1.00  0.00     0.000 C 
BRANCH   3   4
ATOM      4  C   UNL     1      12.487  13.094   6.040  1.00  0.00     0.000 C 
BRANCH   4   5
ATOM      5  C   UNL     1      11.274  13.609   6.830  1.00  0.00     0.006 C 
BRANCH   5   6
ATOM      6  C   UNL     1      10.459  14.601   5.994  1.00  0.00     0.053 C 
BRANCH   6   7
ATOM      7  C   UNL     1      10.639  15.994   6.510  1.00  0.00     0.041 C 
ATOM      8  O   UNL     1      11.784  16.406   6.832  1.00  0.00    -0.550 OA
ATOM      9  O   UNL     1       9.551  16.853   6.587  1.00  0.00    -0.550 OA
ENDBRANCH   6   7
ENDBRANCH   5   6
ENDBRANCH   4   5
ENDBRANCH   3   4
ENDBRANCH   2   3
ENDBRANCH   1   2
BRANCH   1  10
ATOM     10  C   UNL     1      10.366  10.165   4.812  1.00  0.00     0.000 C 
BRANCH  10  11
ATOM     11  C   UNL     1       9.408  10.579   5.944  1.00  0.00    -0.000 C 
BRANCH  11  12
ATOM     12  C   UNL     1       8.292  11.557   5.533  1.00  0.00    -0.000 C 
BRANCH  12  13
ATOM     13  C   UNL     1       7.305  11.853   6.676  1.00  0.00    -0.000 C 
BRANCH  13  14
ATOM     14  C   UNL     1       7.263  13.345   7.047  1.00  0.00    -0.000 C 
BRANCH  14  15
ATOM     15  C   UNL     1       7.759  13.614   8.475  1.00  0.00    -0.003 C 
ATOM     16  C   UNL     1       7.486  15.058   8.888  1.00  0.00     0.004 C 
ENDBRANCH  14  15
ENDBRANCH  13  14
ENDBRANCH  12  13
ENDBRANCH  11  12
ENDBRANCH  10  11
ENDBRANCH   1  10
TORSDOF 12
ENDMDL
MODEL 7
REMARK VINA RESULT:    -4.331      3.507      4.849
REMARK INTER + INTRA:          -9.167
REMARK INTER:                  -7.432
REMARK INTRA:                  -1.735
REMARK UNBOUND:                -1.798
REMARK SMILES CCCCCCCCCCCCCC(=O)[O-]
REMARK SMILES IDX 8 1 9 2 10 3 11 4 12 5 13 6 14 7 15 8 16 9 7 10 6 11 5 12
REMARK SMILES IDX 4 13 3 14 2 15 1 16
REMARK H PARENT
REMARK Flexibility Score: inf
ROOT
ATOM      1  C   UNL     1      13.146  12.064   4.564  1.00  0.00     0.000 C 
ENDROOT
BRANCH   1   2
ATOM      2  C   UNL     1      13.171  13.470   5.177  1.00  0.00     0.000 C 
BRANCH   2   3
ATOM      3  C   UNL     1      12.465  13.488   6.541  1.00  0.00     0.000 C 
BRANCH   3   4
ATOM      4  C   UNL     1      11.069  14.129   6.477  1.00  0.00     0.000 C 
BRANCH   4   5
ATOM      5  C   UNL     1      10.873  14.994   5.223  1.00  0.00     0.006 C 
BRANCH   5   6
ATOM      6  C   UNL     1      11.351  16.429   5.469  1.00  0.00     0.053 C 
BRANCH   6   7
ATOM      7  C   UNL     1      10.415  17.142   6.393  1.00  0.00     0.041 C 
ATOM      8  O   UNL     1       9.212  17.316   6.065  1.00  0.00    -0.550 OA
ATOM      9  O   UNL     1      10.858  17.571   7.637  1.00  0.00    -0.550 OA
ENDBRANCH   6   7
ENDBRANCH   5   6
ENDBRANCH   4   5
ENDBRANCH   3   4
ENDBRANCH   2   3
ENDBRANCH   1   2
BRANCH   1  10
ATOM     10  C   UNL     1      12.175  11.999   3.377  1.00  0.00     0.000 C 
BRANCH  10  11
ATOM     11  C   UNL     1      10.771  11.506   3.773  1.00  0.00    -0.000 C 
BRANCH  11  12
ATOM     12  C   UNL     1      10.747  10.299   4.729  1.00  0.00    -0.000 C 
BRANCH  12  13
ATOM     13  C   UNL     1       9.771  10.485   5.904  1.00  0.00    -0.000 C 
BRANCH  13  14
ATOM     14  C   UNL     1       8.477  11.202   5.487  1.00  0.00    -0.000 C 
BRANCH  14  15
ATOM     15  C   UNL     1       7.947  12.149   6.574  1.00  0.00    -0.003 C 
ATOM     16  C   UNL     1       8.400  11.699   7.961  1.00  0.00     0.004 C 
ENDBRANCH  14  15
ENDBRANCH  13  14
ENDBRANCH  12  13
ENDBRANCH  11  12
ENDBRANCH  10  11
ENDBRANCH   1  10
TORSDOF 12
ENDMDL
MODEL 8
REMARK VINA RESULT:    -4.282      1.610      2.802
REMARK INTER + INTRA:          -9.084
REMARK INTER:                  -7.534
REMARK INTRA:                  -1.550
REMARK UNBOUND:                -1.798
REMARK SMILES CCCCCCCCCCCCCC(=O)[O-]
REMARK SMILES IDX 8 1 9 2 10 3 11 4 12 5 13 6 14 7 15 8 16 9 7 10 6 11 5 12
REMARK SMILES IDX 4 13 3 14 2 15 1 16
REMARK H PARENT
REMARK Flexibility Score: inf
ROOT
ATOM      1  C   UNL     1      11.949  16.189   2.372  1.00  0.00     0.000 C 
ENDROOT
BRANCH   1   2
ATOM      2  C   UNL     1      12.167  15.142   1.274  1.00  0.00     0.000 C 
BRANCH   2   3
ATOM      3  C   UNL     1      13.663  14.962   0.974  1.00  0.00     0.000 C 
BRANCH   3   4
ATOM      4  C   UNL     1      14.118  13.498   1.085  1.00  0.00     0.000 C 
BRANCH   4   5
ATOM      5  C   UNL     1      15.010  13.248   2.310  1.00  0.00     0.006 C 
BRANCH   5   6
ATOM      6  C   UNL     1      15.440  14.571   2.953  1.00  0.00     0.053 C 
BRANCH   6   7
ATOM      7  C   UNL     1      16.905  14.556   3.253  1.00  0.00     0.041 C 
ATOM      8  O   UNL     1      17.449  13.513   3.703  1.00  0.00    -0.550 OA
ATOM      9  O   UNL     1      17.680  15.678   2.991  1.00  0.00    -0.550 OA
ENDBRANCH   6   7
ENDBRANCH   5   6
ENDBRANCH   4   5
ENDBRANCH   3   4
ENDBRANCH   2   3
ENDBRANCH   1   2
BRANCH   1  10
ATOM     10  C   UNL     1      11.598  15.521   3.709  1.00  0.00     0.000 C 
BRANCH  10  11
ATOM     11  C   UNL     1      11.176  14.049   3.553  1.00  0.00    -0.000 C 
BRANCH  11  12
ATOM     12  C   UNL     1      12.028  13.036   4.341  1.00  0.00    -0.000 C 
BRANCH  12  13
ATOM     13  C   UNL     1      11.922  11.605   3.786  1.00  0.00    -0.000 C 
BRANCH  13  14
ATOM     14  C   UNL     1      10.492  11.045   3.870  1.00  0.00    -0.000 C 
BRANCH  14  15
ATOM     15  C   UNL     1      10.291  10.114   5.075  1.00  0.00    -0.003 C 
ATOM     16  C   UNL     1       9.398  10.765   6.128  1.00  0.00     0.004 C 
ENDBRANCH  14  15
ENDBRANCH  13  14
ENDBRANCH  12  13
ENDBRANCH  11  12
ENDBRANCH  10  11
ENDBRANCH   1  10
TORSDOF 12
ENDMDL
MODEL 9
REMARK VINA RESULT:    -4.253      4.263      6.498
REMARK INTER + INTRA:          -9.034
REMARK INTER:                  -6.973
REMARK INTRA:                  -2.061
REMARK UNBOUND:                -1.798
REMARK SMILES CCCCCCCCCCCCCC(=O)[O-]
REMARK SMILES IDX 8 1 9 2 10 3 11 4 12 5 13 6 14 7 15 8 16 9 7 10 6 11 5 12
REMARK SMILES IDX 4 13 3 14 2 15 1 16
REMARK H PARENT
REMARK Flexibility Score: inf
ROOT
ATOM      1  C   UNL     1      10.737  11.612   3.782  1.00  0.00     0.000 C 
ENDROOT
BRANCH   1   2
ATOM      2  C   UNL     1      10.800  10.653   4.977  1.00  0.00     0.000 C 
BRANCH   2   3
ATOM      3  C   UNL     1       9.642  10.912   5.952  1.00  0.00     0.000 C 
BRANCH   3   4
ATOM      4  C   UNL     1       8.383  11.444   5.250  1.00  0.00     0.000 C 
BRANCH   4   5
ATOM      5  C   UNL     1       7.385  12.081   6.229  1.00  0.00     0.006 C 
BRANCH   5   6
ATOM      6  C   UNL     1       8.115  12.712   7.420  1.00  0.00     0.053 C 
BRANCH   6   7
ATOM      7  C   UNL     1       7.488  12.279   8.707  1.00  0.00     0.041 C 
ATOM      8  O   UNL     1       7.680  12.943   9.760  1.00  0.00    -0.550 OA
ATOM      9  O   UNL     1       6.653  11.170   8.736  1.00  0.00    -0.550 OA
ENDBRANCH   6   7
ENDBRANCH   5   6
ENDBRANCH   4   5
ENDBRANCH   3   4
ENDBRANCH   2   3
ENDBRANCH   1   2
BRANCH   1  10
ATOM     10  C   UNL     1      12.145  12.035   3.339  1.00  0.00     0.000 C 
BRANCH  10  11
ATOM     11  C   UNL     1      13.158  12.059   4.498  1.00  0.00    -0.000 C 
BRANCH  11  12
ATOM     12  C   UNL     1      13.365  13.434   5.159  1.00  0.00    -0.000 C 
BRANCH  12  13
ATOM     13  C   UNL     1      12.707  13.536   6.546  1.00  0.00    -0.000 C 
BRANCH  13  14
ATOM     14  C   UNL     1      11.338  14.235   6.499  1.00  0.00    -0.000 C 
BRANCH  14  15
ATOM     15  C   UNL     1      11.234  15.253   5.353  1.00  0.00    -0.003 C 
ATOM     16  C   UNL     1       9.957  15.041   4.545  1.00  0.00     0.004 C 
ENDBRANCH  14  15
ENDBRANCH  13  14
ENDBRANCH  12  13
ENDBRANCH  11  12
ENDBRANCH  10  11
ENDBRANCH   1  10
TORSDOF 12
ENDMDL
