MODEL 1
REMARK VINA RESULT:    -2.333      0.000      0.000
REMARK INTER + INTRA:          -2.333
REMARK INTER:                  -2.333
REMARK INTRA:                   0.000
REMARK UNBOUND:                 0.000
REMARK SMILES CC(=O)[O-]
REMARK SMILES IDX 1 1 2 2 3 3 4 4
REMARK H PARENT
REMARK Flexibility Score: inf
ROOT
ATOM      1  C   UNL     1     -45.178 -12.667   9.435  1.00  0.00     0.063 C 
ATOM      2  C   UNL     1     -46.489 -12.656   8.724  1.00  0.00     0.038 C 
ATOM      3  O   UNL     1     -46.997 -11.565   8.355  1.00  0.00    -0.550 OA
ATOM      4  O   UNL     1     -47.125 -13.851   8.417  1.00  0.00    -0.550 OA
ENDROOT
TORSDOF 0
ENDMDL
MODEL 2
REMARK VINA RESULT:    -2.303      1.440      1.707
REMARK INTER + INTRA:          -2.303
REMARK INTER:                  -2.303
REMARK INTRA:                   0.000
REMARK UNBOUND:                 0.000
REMARK SMILES CC(=O)[O-]
REMARK SMILES IDX 1 1 2 2 3 3 4 4
REMARK H PARENT
REMARK Flexibility Score: inf
ROOT
ATOM      1  C   UNL     1     -46.730 -11.629   8.739  1.00  0.00     0.063 C 
ATOM      2  C   UNL     1     -46.274 -13.046   8.831  1.00  0.00     0.038 C 
ATOM      3  O   UNL     1     -45.146 -13.316   9.320  1.00  0.00    -0.550 OA
ATOM      4  O   UNL     1     -47.115 -14.075   8.428  1.00  0.00    -0.550 OA
ENDROOT
TORSDOF 0
ENDMDL
MODEL 3
REMARK VINA RESULT:    -2.107     16.894     17.376
REMARK INTER + INTRA:          -2.107
REMARK INTER:                  -2.107
REMARK INTRA:                   0.000
REMARK UNBOUND:                 0.000
REMARK SMILES CC(=O)[O-]
REMARK SMILES IDX 1 1 2 2 3 3 4 4
REMARK H PARENT
REMARK Flexibility Score: inf
ROOT
ATOM      1  C   UNL     1     -42.601 -27.874  -0.325  1.00  0.00     0.063 C 
ATOM      2  C   UNL     1     -43.901 -27.150  -0.414  1.00  0.00     0.038 C 
ATOM      3  O   UNL     1     -44.342 -26.520   0.582  1.00  0.00    -0.550 OA
ATOM      4  O   UNL     1     -44.602 -27.122  -1.612  1.00  0.00    -0.550 OA
ENDROOT
TORSDOF 0
ENDMDL
MODEL 4
REMARK VINA RESULT:    -2.064     24.299     24.451
REMARK INTER + INTRA:          -2.064
REMARK INTER:                  -2.064
REMARK INTRA:                   0.000
REMARK UNBOUND:                 0.000
REMARK SMILES CC(=O)[O-]
REMARK SMILES IDX 1 1 2 2 3 3 4 4
REMARK H PARENT
REMARK Flexibility Score: inf
ROOT
ATOM      1  C   UNL     1     -29.250 -11.526  -8.061  1.00  0.00     0.063 C 
ATOM      2  C   UNL     1     -28.036 -11.801  -7.239  1.00  0.00     0.038 C 
ATOM      3  O   UNL     1     -27.758 -11.063  -6.258  1.00  0.00    -0.550 OA
ATOM      4  O   UNL     1     -27.240 -12.903  -7.519  1.00  0.00    -0.550 OA
ENDROOT
TORSDOF 0
ENDMDL
MODEL 5
REMARK VINA RESULT:    -2.048     19.039     19.450
REMARK INTER + INTRA:          -2.048
REMARK INTER:                  -2.048
REMARK INTRA:                   0.000
REMARK UNBOUND:                 0.000
REMARK SMILES CC(=O)[O-]
REMARK SMILES IDX 1 1 2 2 3 3 4 4
REMARK H PARENT
REMARK Flexibility Score: inf
ROOT
ATOM      1  C   UNL     1     -34.602 -26.097  -1.837  1.00  0.00     0.063 C 
ATOM      2  C   UNL     1     -35.161 -24.929  -1.099  1.00  0.00     0.038 C 
ATOM      3  O   UNL     1     -36.231 -24.390  -1.487  1.00  0.00    -0.550 OA
ATOM      4  O   UNL     1     -34.534 -24.465   0.050  1.00  0.00    -0.550 OA
ENDROOT
TORSDOF 0
ENDMDL
MODEL 6
REMARK VINA RESULT:    -1.980     14.828     15.079
REMARK INTER + INTRA:          -1.980
REMARK INTER:                  -1.980
REMARK INTRA:                   0.000
REMARK UNBOUND:                 0.000
REMARK SMILES CC(=O)[O-]
REMARK SMILES IDX 1 1 2 2 3 3 4 4
REMARK H PARENT
REMARK Flexibility Score: inf
ROOT
ATOM      1  C   UNL     1     -46.352 -26.699   2.846  1.00  0.00     0.063 C 
ATOM      2  C   UNL     1     -46.067 -25.893   1.624  1.00  0.00     0.038 C 
ATOM      3  O   UNL     1     -46.956 -25.143   1.141  1.00  0.00    -0.550 OA
ATOM      4  O   UNL     1     -44.805 -25.926   1.047  1.00  0.00    -0.550 OA
ENDROOT
TORSDOF 0
ENDMDL
MODEL 7
REMARK VINA RESULT:    -1.912     13.997     14.532
REMARK INTER + INTRA:          -1.912
REMARK INTER:                  -1.912
REMARK INTRA:                   0.000
REMARK UNBOUND:                 0.000
REMARK SMILES CC(=O)[O-]
REMARK SMILES IDX 1 1 2 2 3 3 4 4
REMARK H PARENT
REMARK Flexibility Score: inf
ROOT
ATOM      1  C   UNL     1     -45.264 -28.290   6.698  1.00  0.00     0.063 C 
ATOM      2  C   UNL     1     -45.673 -26.887   6.403  1.00  0.00     0.038 C 
ATOM      3  O   UNL     1     -45.675 -26.024   7.319  1.00  0.00    -0.550 OA
ATOM      4  O   UNL     1     -46.000 -26.515   5.106  1.00  0.00    -0.550 OA
ENDROOT
TORSDOF 0
ENDMDL
MODEL 8
REMARK VINA RESULT:    -0.909      1.397      1.832
REMARK INTER + INTRA:          -0.909
REMARK INTER:                  -0.909
REMARK INTRA:                   0.000
REMARK UNBOUND:                 0.000
REMARK SMILES CC(=O)[O-]
REMARK SMILES IDX 1 1 2 2 3 3 4 4
REMARK H PARENT
REMARK Flexibility Score: inf
ROOT
ATOM      1  C   UNL     1     -45.263 -12.865   9.304  1.00  0.00     0.063 C 
ATOM      2  C   UNL     1     -46.131 -14.056   9.077  1.00  0.00     0.038 C 
ATOM      3  O   UNL     1     -47.125 -13.976   8.309  1.00  0.00    -0.550 OA
ATOM      4  O   UNL     1     -45.814 -15.272   9.669  1.00  0.00    -0.550 OA
ENDROOT
TORSDOF 0
ENDMDL
