MODEL 1
REMARK VINA RESULT:    -5.474      0.000      0.000
REMARK INTER + INTRA:          -6.324
REMARK INTER:                  -6.274
REMARK INTRA:                  -0.049
REMARK UNBOUND:                -0.049
REMARK SMILES O=C([O-])c1cc(O)c(O)c(O)c1
REMARK SMILES IDX 4 1 5 2 12 3 6 4 10 5 8 6 2 7 1 8 3 9 7 10 11 12 9 14
REMARK H PARENT 7 11 11 13 9 15
REMARK Flexibility Score: inf
ROOT
ATOM      1  C   UNL     1      31.113 -90.889  37.680  1.00  0.00     0.005 A 
ATOM      2  C   UNL     1      29.887 -90.320  38.066  1.00  0.00     0.060 A 
ATOM      3  C   UNL     1      32.112 -90.060  37.147  1.00  0.00     0.060 A 
ATOM      4  C   UNL     1      29.663 -88.943  37.923  1.00  0.00     0.162 A 
ATOM      5  C   UNL     1      31.897 -88.685  37.001  1.00  0.00     0.162 A 
ATOM      6  C   UNL     1      30.669 -88.121  37.389  1.00  0.00     0.200 A 
ENDROOT
BRANCH   1   7
ATOM      7  C   UNL     1      31.350 -92.342  37.831  1.00  0.00     0.072 C 
ATOM      8  O   UNL     1      32.475 -92.773  38.200  1.00  0.00    -0.545 OA
ATOM      9  O   UNL     1      30.334 -93.254  37.566  1.00  0.00    -0.545 OA
ENDBRANCH   1   7
BRANCH   4  10
ATOM     10  O   UNL     1      28.443 -88.391  38.310  1.00  0.00    -0.504 OA
ATOM     11  H   UNL     1      28.393 -87.536  38.851  1.00  0.00     0.293 HD
ENDBRANCH   4  10
BRANCH   5  12
ATOM     12  O   UNL     1      32.915 -87.895  36.468  1.00  0.00    -0.504 OA
ATOM     13  H   UNL     1      33.663 -88.284  35.907  1.00  0.00     0.293 HD
ENDBRANCH   5  12
BRANCH   6  14
ATOM     14  O   UNL     1      30.464 -86.749  37.239  1.00  0.00    -0.502 OA
ATOM     15  H   UNL     1      31.148 -86.145  36.798  1.00  0.00     0.293 HD
ENDBRANCH   6  14
TORSDOF 4
ENDMDL
MODEL 2
REMARK VINA RESULT:    -5.474      0.030      2.429
REMARK INTER + INTRA:          -6.324
REMARK INTER:                  -6.275
REMARK INTRA:                  -0.049
REMARK UNBOUND:                -0.049
REMARK SMILES O=C([O-])c1cc(O)c(O)c(O)c1
REMARK SMILES IDX 4 1 5 2 12 3 6 4 10 5 8 6 2 7 1 8 3 9 7 10 11 12 9 14
REMARK H PARENT 7 11 11 13 9 15
REMARK Flexibility Score: inf
ROOT
ATOM      1  C   UNL     1      31.122 -90.905  37.677  1.00  0.00     0.005 A 
ATOM      2  C   UNL     1      32.129 -90.078  37.152  1.00  0.00     0.060 A 
ATOM      3  C   UNL     1      29.896 -90.332  38.055  1.00  0.00     0.060 A 
ATOM      4  C   UNL     1      31.917 -88.699  37.007  1.00  0.00     0.162 A 
ATOM      5  C   UNL     1      29.677 -88.958  37.912  1.00  0.00     0.162 A 
ATOM      6  C   UNL     1      30.688 -88.136  37.387  1.00  0.00     0.200 A 
ENDROOT
BRANCH   1   7
ATOM      7  C   UNL     1      31.344 -92.360  37.832  1.00  0.00     0.072 C 
ATOM      8  O   UNL     1      32.451 -92.799  38.243  1.00  0.00    -0.545 OA
ATOM      9  O   UNL     1      30.333 -93.264  37.525  1.00  0.00    -0.545 OA
ENDBRANCH   1   7
BRANCH   4  10
ATOM     10  O   UNL     1      32.925 -87.890  36.485  1.00  0.00    -0.504 OA
ATOM     11  H   UNL     1      33.481 -87.285  37.076  1.00  0.00     0.293 HD
ENDBRANCH   4  10
BRANCH   5  12
ATOM     12  O   UNL     1      28.446 -88.427  38.299  1.00  0.00    -0.504 OA
ATOM     13  H   UNL     1      27.615 -88.520  37.727  1.00  0.00     0.293 HD
ENDBRANCH   5  12
BRANCH   6  14
ATOM     14  O   UNL     1      30.460 -86.766  37.249  1.00  0.00    -0.502 OA
ATOM     15  H   UNL     1      31.038 -86.073  37.710  1.00  0.00     0.293 HD
ENDBRANCH   6  14
TORSDOF 4
ENDMDL
MODEL 3
REMARK VINA RESULT:    -4.686     13.433     15.542
REMARK INTER + INTRA:          -5.421
REMARK INTER:                  -5.368
REMARK INTRA:                  -0.052
REMARK UNBOUND:                -0.049
REMARK SMILES O=C([O-])c1cc(O)c(O)c(O)c1
REMARK SMILES IDX 4 1 5 2 12 3 6 4 10 5 8 6 2 7 1 8 3 9 7 10 11 12 9 14
REMARK H PARENT 7 11 11 13 9 15
REMARK Flexibility Score: inf
ROOT
ATOM      1  C   UNL     1      42.037 -78.637  40.142  1.00  0.00     0.005 A 
ATOM      2  C   UNL     1      41.092 -79.449  40.791  1.00  0.00     0.060 A 
ATOM      3  C   UNL     1      42.443 -78.968  38.839  1.00  0.00     0.060 A 
ATOM      4  C   UNL     1      40.558 -80.575  40.148  1.00  0.00     0.162 A 
ATOM      5  C   UNL     1      41.914 -80.090  38.191  1.00  0.00     0.162 A 
ATOM      6  C   UNL     1      40.969 -80.898  38.844  1.00  0.00     0.200 A 
ENDROOT
BRANCH   1   7
ATOM      7  C   UNL     1      42.602 -77.448  40.819  1.00  0.00     0.072 C 
ATOM      8  O   UNL     1      43.627 -76.875  40.361  1.00  0.00    -0.545 OA
ATOM      9  O   UNL     1      42.010 -76.946  41.973  1.00  0.00    -0.545 OA
ENDBRANCH   1   7
BRANCH   4  10
ATOM     10  O   UNL     1      39.620 -81.373  40.802  1.00  0.00    -0.504 OA
ATOM     11  H   UNL     1      39.832 -81.830  41.681  1.00  0.00     0.293 HD
ENDBRANCH   4  10
BRANCH   5  12
ATOM     12  O   UNL     1      42.341 -80.385  36.896  1.00  0.00    -0.504 OA
ATOM     13  H   UNL     1      42.903 -81.201  36.686  1.00  0.00     0.293 HD
ENDBRANCH   5  12
BRANCH   6  14
ATOM     14  O   UNL     1      40.448 -82.016  38.189  1.00  0.00    -0.502 OA
ATOM     15  H   UNL     1      40.240 -82.879  38.677  1.00  0.00     0.293 HD
ENDBRANCH   6  14
TORSDOF 4
ENDMDL
MODEL 4
REMARK VINA RESULT:    -4.555     13.130     15.046
REMARK INTER + INTRA:          -5.270
REMARK INTER:                  -5.218
REMARK INTRA:                  -0.052
REMARK UNBOUND:                -0.049
REMARK SMILES O=C([O-])c1cc(O)c(O)c(O)c1
REMARK SMILES IDX 4 1 5 2 12 3 6 4 10 5 8 6 2 7 1 8 3 9 7 10 11 12 9 14
REMARK H PARENT 7 11 11 13 9 15
REMARK Flexibility Score: inf
ROOT
ATOM      1  C   UNL     1      40.930 -79.444  40.518  1.00  0.00     0.005 A 
ATOM      2  C   UNL     1      40.398 -80.574  39.874  1.00  0.00     0.060 A 
ATOM      3  C   UNL     1      41.978 -78.739  39.904  1.00  0.00     0.060 A 
ATOM      4  C   UNL     1      40.904 -80.993  38.635  1.00  0.00     0.162 A 
ATOM      5  C   UNL     1      42.487 -79.150  38.668  1.00  0.00     0.162 A 
ATOM      6  C   UNL     1      41.951 -80.281  38.028  1.00  0.00     0.200 A 
ENDROOT
BRANCH   1   7
ATOM      7  C   UNL     1      40.398 -79.001  41.826  1.00  0.00     0.072 C 
ATOM      8  O   UNL     1      39.606 -79.733  42.478  1.00  0.00    -0.545 OA
ATOM      9  O   UNL     1      40.764 -77.768  42.354  1.00  0.00    -0.545 OA
ENDBRANCH   1   7
BRANCH   4  10
ATOM     10  O   UNL     1      40.367 -82.116  38.006  1.00  0.00    -0.504 OA
ATOM     11  H   UNL     1      39.411 -82.409  38.166  1.00  0.00     0.293 HD
ENDBRANCH   4  10
BRANCH   5  12
ATOM     12  O   UNL     1      43.527 -78.422  38.090  1.00  0.00    -0.504 OA
ATOM     13  H   UNL     1      44.379 -78.864  37.765  1.00  0.00     0.293 HD
ENDBRANCH   5  12
BRANCH   6  14
ATOM     14  O   UNL     1      42.467 -80.684  36.795  1.00  0.00    -0.502 OA
ATOM     15  H   UNL     1      41.919 -81.216  36.129  1.00  0.00     0.293 HD
ENDBRANCH   6  14
TORSDOF 4
ENDMDL
MODEL 5
REMARK VINA RESULT:    -4.531     13.141     15.158
REMARK INTER + INTRA:          -5.242
REMARK INTER:                  -5.190
REMARK INTRA:                  -0.053
REMARK UNBOUND:                -0.049
REMARK SMILES O=C([O-])c1cc(O)c(O)c(O)c1
REMARK SMILES IDX 4 1 5 2 12 3 6 4 10 5 8 6 2 7 1 8 3 9 7 10 11 12 9 14
REMARK H PARENT 7 11 11 13 9 15
REMARK Flexibility Score: inf
ROOT
ATOM      1  C   UNL     1      40.923 -79.472  40.504  1.00  0.00     0.005 A 
ATOM      2  C   UNL     1      41.975 -78.750  39.915  1.00  0.00     0.060 A 
ATOM      3  C   UNL     1      40.402 -80.589  39.830  1.00  0.00     0.060 A 
ATOM      4  C   UNL     1      42.499 -79.137  38.674  1.00  0.00     0.162 A 
ATOM      5  C   UNL     1      40.920 -80.981  38.592  1.00  0.00     0.162 A 
ATOM      6  C   UNL     1      41.972 -80.255  38.008  1.00  0.00     0.200 A 
ENDROOT
BRANCH   1   7
ATOM      7  C   UNL     1      40.368 -79.065  41.814  1.00  0.00     0.072 C 
ATOM      8  O   UNL     1      39.588 -79.828  42.445  1.00  0.00    -0.545 OA
ATOM      9  O   UNL     1      40.700 -77.834  42.368  1.00  0.00    -0.545 OA
ENDBRANCH   1   7
BRANCH   4  10
ATOM     10  O   UNL     1      43.543 -78.411  38.101  1.00  0.00    -0.504 OA
ATOM     11  H   UNL     1      43.986 -77.642  38.588  1.00  0.00     0.293 HD
ENDBRANCH   4  10
BRANCH   5  12
ATOM     12  O   UNL     1      40.376 -82.097  37.955  1.00  0.00    -0.504 OA
ATOM     13  H   UNL     1      40.485 -82.257  36.961  1.00  0.00     0.293 HD
ENDBRANCH   5  12
BRANCH   6  14
ATOM     14  O   UNL     1      42.482 -80.654  36.771  1.00  0.00    -0.502 OA
ATOM     15  H   UNL     1      42.085 -80.335  35.895  1.00  0.00     0.293 HD
ENDBRANCH   6  14
TORSDOF 4
ENDMDL
MODEL 6
REMARK VINA RESULT:    -4.341      1.194      4.641
REMARK INTER + INTRA:          -5.025
REMARK INTER:                  -4.977
REMARK INTRA:                  -0.048
REMARK UNBOUND:                -0.049
REMARK SMILES O=C([O-])c1cc(O)c(O)c(O)c1
REMARK SMILES IDX 4 1 5 2 12 3 6 4 10 5 8 6 2 7 1 8 3 9 7 10 11 12 9 14
REMARK H PARENT 7 11 11 13 9 15
REMARK Flexibility Score: inf
ROOT
ATOM      1  C   UNL     1      31.588 -89.102  37.169  1.00  0.00     0.005 A 
ATOM      2  C   UNL     1      32.531 -90.115  37.420  1.00  0.00     0.060 A 
ATOM      3  C   UNL     1      30.231 -89.445  37.060  1.00  0.00     0.060 A 
ATOM      4  C   UNL     1      32.124 -91.449  37.560  1.00  0.00     0.162 A 
ATOM      5  C   UNL     1      29.818 -90.774  37.199  1.00  0.00     0.162 A 
ATOM      6  C   UNL     1      30.764 -91.782  37.449  1.00  0.00     0.200 A 
ENDROOT
BRANCH   1   7
ATOM      7  C   UNL     1      32.016 -87.693  37.021  1.00  0.00     0.072 C 
ATOM      8  O   UNL     1      32.987 -87.392  36.276  1.00  0.00    -0.545 OA
ATOM      9  O   UNL     1      31.353 -86.680  37.704  1.00  0.00    -0.545 OA
ENDBRANCH   1   7
BRANCH   4  10
ATOM     10  O   UNL     1      33.068 -92.444  37.809  1.00  0.00    -0.504 OA
ATOM     11  H   UNL     1      33.027 -93.344  37.347  1.00  0.00     0.293 HD
ENDBRANCH   4  10
BRANCH   5  12
ATOM     12  O   UNL     1      28.460 -91.074  37.084  1.00  0.00    -0.504 OA
ATOM     13  H   UNL     1      27.739 -90.447  37.418  1.00  0.00     0.293 HD
ENDBRANCH   5  12
BRANCH   6  14
ATOM     14  O   UNL     1      30.341 -93.106  37.586  1.00  0.00    -0.502 OA
ATOM     15  H   UNL     1      29.387 -93.390  37.397  1.00  0.00     0.293 HD
ENDBRANCH   6  14
TORSDOF 4
ENDMDL
MODEL 7
REMARK VINA RESULT:    -4.326      1.199      4.105
REMARK INTER + INTRA:          -5.007
REMARK INTER:                  -4.960
REMARK INTRA:                  -0.048
REMARK UNBOUND:                -0.049
REMARK SMILES O=C([O-])c1cc(O)c(O)c(O)c1
REMARK SMILES IDX 4 1 5 2 12 3 6 4 10 5 8 6 2 7 1 8 3 9 7 10 11 12 9 14
REMARK H PARENT 7 11 11 13 9 15
REMARK Flexibility Score: inf
ROOT
ATOM      1  C   UNL     1      31.567 -89.112  37.244  1.00  0.00     0.005 A 
ATOM      2  C   UNL     1      30.207 -89.445  37.119  1.00  0.00     0.060 A 
ATOM      3  C   UNL     1      32.501 -90.135  37.477  1.00  0.00     0.060 A 
ATOM      4  C   UNL     1      29.786 -90.778  37.225  1.00  0.00     0.162 A 
ATOM      5  C   UNL     1      32.088 -91.467  37.584  1.00  0.00     0.162 A 
ATOM      6  C   UNL     1      30.727 -91.794  37.458  1.00  0.00     0.200 A 
ENDROOT
BRANCH   1   7
ATOM      7  C   UNL     1      32.014 -87.705  37.132  1.00  0.00     0.072 C 
ATOM      8  O   UNL     1      32.972 -87.395  36.376  1.00  0.00    -0.545 OA
ATOM      9  O   UNL     1      31.380 -86.705  37.862  1.00  0.00    -0.545 OA
ENDBRANCH   1   7
BRANCH   4  10
ATOM     10  O   UNL     1      28.434 -91.094  37.099  1.00  0.00    -0.504 OA
ATOM     11  H   UNL     1      28.091 -91.674  36.342  1.00  0.00     0.293 HD
ENDBRANCH   4  10
BRANCH   5  12
ATOM     12  O   UNL     1      33.046 -92.454  37.815  1.00  0.00    -0.504 OA
ATOM     13  H   UNL     1      33.196 -92.857  38.733  1.00  0.00     0.293 HD
ENDBRANCH   5  12
BRANCH   6  14
ATOM     14  O   UNL     1      30.325 -93.126  37.567  1.00  0.00    -0.502 OA
ATOM     15  H   UNL     1      29.820 -93.474  38.373  1.00  0.00     0.293 HD
ENDBRANCH   6  14
TORSDOF 4
ENDMDL
MODEL 8
REMARK VINA RESULT:    -4.269     10.998     12.902
REMARK INTER + INTRA:          -4.943
REMARK INTER:                  -4.892
REMARK INTRA:                  -0.051
REMARK UNBOUND:                -0.049
REMARK SMILES O=C([O-])c1cc(O)c(O)c(O)c1
REMARK SMILES IDX 4 1 5 2 12 3 6 4 10 5 8 6 2 7 1 8 3 9 7 10 11 12 9 14
REMARK H PARENT 7 11 11 13 9 15
REMARK Flexibility Score: inf
ROOT
ATOM      1  C   UNL     1      26.908 -80.017  42.309  1.00  0.00     0.005 A 
ATOM      2  C   UNL     1      26.416 -78.880  41.645  1.00  0.00     0.060 A 
ATOM      3  C   UNL     1      26.510 -80.260  43.634  1.00  0.00     0.060 A 
ATOM      4  C   UNL     1      25.539 -77.999  42.293  1.00  0.00     0.162 A 
ATOM      5  C   UNL     1      25.635 -79.385  44.287  1.00  0.00     0.162 A 
ATOM      6  C   UNL     1      25.146 -78.250  43.618  1.00  0.00     0.200 A 
ENDROOT
BRANCH   1   7
ATOM      7  C   UNL     1      27.834 -80.949  41.627  1.00  0.00     0.072 C 
ATOM      8  O   UNL     1      28.623 -80.532  40.737  1.00  0.00    -0.545 OA
ATOM      9  O   UNL     1      27.846 -82.299  41.957  1.00  0.00    -0.545 OA
ENDBRANCH   1   7
BRANCH   4  10
ATOM     10  O   UNL     1      25.059 -76.875  41.623  1.00  0.00    -0.504 OA
ATOM     11  H   UNL     1      25.568 -76.455  40.855  1.00  0.00     0.293 HD
ENDBRANCH   4  10
BRANCH   5  12
ATOM     12  O   UNL     1      25.262 -79.661  45.603  1.00  0.00    -0.504 OA
ATOM     13  H   UNL     1      24.721 -80.481  45.850  1.00  0.00     0.293 HD
ENDBRANCH   5  12
BRANCH   6  14
ATOM     14  O   UNL     1      24.274 -77.383  44.278  1.00  0.00    -0.502 OA
ATOM     15  H   UNL     1      23.724 -76.691  43.784  1.00  0.00     0.293 HD
ENDBRANCH   6  14
TORSDOF 4
ENDMDL
MODEL 9
REMARK VINA RESULT:    -3.994     10.980     12.824
REMARK INTER + INTRA:          -4.628
REMARK INTER:                  -4.575
REMARK INTRA:                  -0.052
REMARK UNBOUND:                -0.049
REMARK SMILES O=C([O-])c1cc(O)c(O)c(O)c1
REMARK SMILES IDX 4 1 5 2 12 3 6 4 10 5 8 6 2 7 1 8 3 9 7 10 11 12 9 14
REMARK H PARENT 7 11 11 13 9 15
REMARK Flexibility Score: inf
ROOT
ATOM      1  C   UNL     1      26.892 -80.025  42.288  1.00  0.00     0.005 A 
ATOM      2  C   UNL     1      26.504 -80.329  43.604  1.00  0.00     0.060 A 
ATOM      3  C   UNL     1      26.389 -78.864  41.679  1.00  0.00     0.060 A 
ATOM      4  C   UNL     1      25.627 -79.487  44.302  1.00  0.00     0.162 A 
ATOM      5  C   UNL     1      25.514 -78.019  42.369  1.00  0.00     0.162 A 
ATOM      6  C   UNL     1      25.129 -78.328  43.685  1.00  0.00     0.200 A 
ENDROOT
BRANCH   1   7
ATOM      7  C   UNL     1      27.818 -80.914  41.550  1.00  0.00     0.072 C 
ATOM      8  O   UNL     1      28.408 -80.507  40.513  1.00  0.00    -0.545 OA
ATOM      9  O   UNL     1      28.050 -82.212  41.991  1.00  0.00    -0.545 OA
ENDBRANCH   1   7
BRANCH   4  10
ATOM     10  O   UNL     1      25.250 -79.800  45.607  1.00  0.00    -0.504 OA
ATOM     11  H   UNL     1      25.733 -80.509  46.145  1.00  0.00     0.293 HD
ENDBRANCH   4  10
BRANCH   5  12
ATOM     12  O   UNL     1      25.036 -76.875  41.729  1.00  0.00    -0.504 OA
ATOM     13  H   UNL     1      24.695 -76.892  40.776  1.00  0.00     0.293 HD
ENDBRANCH   5  12
BRANCH   6  14
ATOM     14  O   UNL     1      24.255 -77.478  44.365  1.00  0.00    -0.502 OA
ATOM     15  H   UNL     1      24.564 -76.610  44.786  1.00  0.00     0.293 HD
ENDBRANCH   6  14
TORSDOF 4
ENDMDL
