MODEL 1
REMARK VINA RESULT:    -4.205      0.000      0.000
REMARK INTER + INTRA:          -6.000
REMARK INTER:                  -5.679
REMARK INTRA:                  -0.321
REMARK UNBOUND:                -0.321
REMARK SMILES CCCCCCC=CC(=O)[O-]
REMARK SMILES IDX 5 1 6 2 7 3 8 4 9 5 10 6 11 7 4 8 3 9 2 10 1 11
REMARK H PARENT
REMARK Flexibility Score: inf
ROOT
ATOM      1  C   UNL     1     147.938 146.407 144.271  1.00  0.00     0.004 C 
ENDROOT
BRANCH   1   2
ATOM      2  C   UNL     1     148.191 146.159 145.766  1.00  0.00     0.027 C 
BRANCH   2   3
ATOM      3  C   UNL     1     148.413 147.435 146.530  1.00  0.00    -0.025 C 
ATOM      4  C   UNL     1     149.056 147.445 147.701  1.00  0.00     0.020 C 
BRANCH   4   5
ATOM      5  C   UNL     1     149.286 148.687 148.455  1.00  0.00     0.064 C 
ATOM      6  O   UNL     1     150.463 149.038 148.730  1.00  0.00    -0.545 OA
ATOM      7  O   UNL     1     148.222 149.480 148.869  1.00  0.00    -0.545 OA
ENDBRANCH   4   5
ENDBRANCH   2   3
ENDBRANCH   1   2
BRANCH   1   8
ATOM      8  C   UNL     1     146.465 146.181 143.888  1.00  0.00     0.000 C 
BRANCH   8   9
ATOM      9  C   UNL     1     145.523 147.244 144.479  1.00  0.00    -0.000 C 
BRANCH   9  10
ATOM     10  C   UNL     1     144.520 146.715 145.519  1.00  0.00    -0.003 C 
ATOM     11  C   UNL     1     143.706 147.826 146.183  1.00  0.00     0.004 C 
ENDBRANCH   9  10
ENDBRANCH   8   9
ENDBRANCH   1   8
TORSDOF 6
ENDMDL
MODEL 2
REMARK VINA RESULT:    -4.185      2.799      4.722
REMARK INTER + INTRA:          -5.973
REMARK INTER:                  -5.896
REMARK INTRA:                  -0.077
REMARK UNBOUND:                -0.321
REMARK SMILES CCCCCCC=CC(=O)[O-]
REMARK SMILES IDX 5 1 6 2 7 3 8 4 9 5 10 6 11 7 4 8 3 9 2 10 1 11
REMARK H PARENT
REMARK Flexibility Score: inf
ROOT
ATOM      1  C   UNL     1     148.058 146.020 144.187  1.00  0.00     0.004 C 
ENDROOT
BRANCH   1   2
ATOM      2  C   UNL     1     146.562 145.808 143.913  1.00  0.00     0.027 C 
BRANCH   2   3
ATOM      3  C   UNL     1     145.723 146.967 144.376  1.00  0.00    -0.025 C 
ATOM      4  C   UNL     1     144.807 146.827 145.339  1.00  0.00     0.020 C 
BRANCH   4   5
ATOM      5  C   UNL     1     143.986 147.954 145.806  1.00  0.00     0.064 C 
ATOM      6  O   UNL     1     143.370 147.862 146.899  1.00  0.00    -0.545 OA
ATOM      7  O   UNL     1     143.879 149.120 145.057  1.00  0.00    -0.545 OA
ENDBRANCH   4   5
ENDBRANCH   2   3
ENDBRANCH   1   2
BRANCH   1   8
ATOM      8  C   UNL     1     148.392 145.928 145.686  1.00  0.00     0.000 C 
BRANCH   8   9
ATOM      9  C   UNL     1     148.271 147.279 146.411  1.00  0.00    -0.000 C 
BRANCH   9  10
ATOM     10  C   UNL     1     149.076 147.388 147.718  1.00  0.00    -0.003 C 
ATOM     11  C   UNL     1     149.069 148.798 148.308  1.00  0.00     0.004 C 
ENDBRANCH   9  10
ENDBRANCH   8   9
ENDBRANCH   1   8
TORSDOF 6
ENDMDL
MODEL 3
REMARK VINA RESULT:    -3.568      8.272      9.414
REMARK INTER + INTRA:          -5.141
REMARK INTER:                  -4.562
REMARK INTRA:                  -0.578
REMARK UNBOUND:                -0.321
REMARK SMILES CCCCCCC=CC(=O)[O-]
REMARK SMILES IDX 5 1 6 2 7 3 8 4 9 5 10 6 11 7 4 8 3 9 2 10 1 11
REMARK H PARENT
REMARK Flexibility Score: inf
ROOT
ATOM      1  C   UNL     1     151.086 141.207 148.345  1.00  0.00     0.004 C 
ENDROOT
BRANCH   1   2
ATOM      2  C   UNL     1     152.300 141.291 147.407  1.00  0.00     0.027 C 
BRANCH   2   3
ATOM      3  C   UNL     1     153.605 141.293 148.154  1.00  0.00    -0.025 C 
ATOM      4  C   UNL     1     154.617 142.085 147.789  1.00  0.00     0.020 C 
BRANCH   4   5
ATOM      5  C   UNL     1     155.895 142.102 148.516  1.00  0.00     0.064 C 
ATOM      6  O   UNL     1     156.890 141.497 148.038  1.00  0.00    -0.545 OA
ATOM      7  O   UNL     1     156.024 142.776 149.725  1.00  0.00    -0.545 OA
ENDBRANCH   4   5
ENDBRANCH   2   3
ENDBRANCH   1   2
BRANCH   1   8
ATOM      8  C   UNL     1     151.426 140.501 149.669  1.00  0.00     0.000 C 
BRANCH   8   9
ATOM      9  C   UNL     1     150.999 141.311 150.906  1.00  0.00    -0.000 C 
BRANCH   9  10
ATOM     10  C   UNL     1     152.143 141.677 151.868  1.00  0.00    -0.003 C 
ATOM     11  C   UNL     1     153.008 142.829 151.356  1.00  0.00     0.004 C 
ENDBRANCH   9  10
ENDBRANCH   8   9
ENDBRANCH   1   8
TORSDOF 6
ENDMDL
MODEL 4
REMARK VINA RESULT:    -3.371      8.676      9.386
REMARK INTER + INTRA:          -4.874
REMARK INTER:                  -4.567
REMARK INTRA:                  -0.307
REMARK UNBOUND:                -0.321
REMARK SMILES CCCCCCC=CC(=O)[O-]
REMARK SMILES IDX 5 1 6 2 7 3 8 4 9 5 10 6 11 7 4 8 3 9 2 10 1 11
REMARK H PARENT
REMARK Flexibility Score: inf
ROOT
ATOM      1  C   UNL     1     152.062 141.252 147.945  1.00  0.00     0.004 C 
ENDROOT
BRANCH   1   2
ATOM      2  C   UNL     1     153.548 141.636 147.870  1.00  0.00     0.027 C 
BRANCH   2   3
ATOM      3  C   UNL     1     153.964 142.059 146.489  1.00  0.00    -0.025 C 
ATOM      4  C   UNL     1     155.199 142.499 146.235  1.00  0.00     0.020 C 
BRANCH   4   5
ATOM      5  C   UNL     1     155.620 142.909 144.887  1.00  0.00     0.064 C 
ATOM      6  O   UNL     1     156.531 143.768 144.755  1.00  0.00    -0.545 OA
ATOM      7  O   UNL     1     155.027 142.364 143.754  1.00  0.00    -0.545 OA
ENDBRANCH   4   5
ENDBRANCH   2   3
ENDBRANCH   1   2
BRANCH   1   8
ATOM      8  C   UNL     1     151.728 140.482 149.234  1.00  0.00     0.000 C 
BRANCH   8   9
ATOM      9  C   UNL     1     151.035 141.357 150.293  1.00  0.00    -0.000 C 
BRANCH   9  10
ATOM     10  C   UNL     1     151.854 141.596 151.574  1.00  0.00    -0.003 C 
ATOM     11  C   UNL     1     152.986 142.605 151.379  1.00  0.00     0.004 C 
ENDBRANCH   9  10
ENDBRANCH   8   9
ENDBRANCH   1   8
TORSDOF 6
ENDMDL
MODEL 5
REMARK VINA RESULT:    -3.130      8.679      9.515
REMARK INTER + INTRA:          -4.548
REMARK INTER:                  -4.308
REMARK INTRA:                  -0.240
REMARK UNBOUND:                -0.321
REMARK SMILES CCCCCCC=CC(=O)[O-]
REMARK SMILES IDX 5 1 6 2 7 3 8 4 9 5 10 6 11 7 4 8 3 9 2 10 1 11
REMARK H PARENT
REMARK Flexibility Score: inf
ROOT
ATOM      1  C   UNL     1     153.575 141.648 147.605  1.00  0.00     0.004 C 
ENDROOT
BRANCH   1   2
ATOM      2  C   UNL     1     155.014 142.020 147.992  1.00  0.00     0.027 C 
BRANCH   2   3
ATOM      3  C   UNL     1     155.854 142.388 146.800  1.00  0.00    -0.025 C 
ATOM      4  C   UNL     1     155.299 142.723 145.632  1.00  0.00     0.020 C 
BRANCH   4   5
ATOM      5  C   UNL     1     156.109 143.092 144.461  1.00  0.00     0.064 C 
ATOM      6  O   UNL     1     156.074 142.370 143.430  1.00  0.00    -0.545 OA
ATOM      7  O   UNL     1     156.913 144.225 144.474  1.00  0.00    -0.545 OA
ENDBRANCH   4   5
ENDBRANCH   2   3
ENDBRANCH   1   2
BRANCH   1   8
ATOM      8  C   UNL     1     152.859 140.865 148.720  1.00  0.00     0.000 C 
BRANCH   8   9
ATOM      9  C   UNL     1     151.326 140.933 148.610  1.00  0.00    -0.000 C 
BRANCH   9  10
ATOM     10  C   UNL     1     150.593 141.200 149.936  1.00  0.00    -0.003 C 
ATOM     11  C   UNL     1     151.542 141.528 151.088  1.00  0.00     0.004 C 
ENDBRANCH   9  10
ENDBRANCH   8   9
ENDBRANCH   1   8
TORSDOF 6
ENDMDL
MODEL 6
REMARK VINA RESULT:    -3.076      8.181      9.698
REMARK INTER + INTRA:          -4.475
REMARK INTER:                  -4.076
REMARK INTRA:                  -0.399
REMARK UNBOUND:                -0.321
REMARK SMILES CCCCCCC=CC(=O)[O-]
REMARK SMILES IDX 5 1 6 2 7 3 8 4 9 5 10 6 11 7 4 8 3 9 2 10 1 11
REMARK H PARENT
REMARK Flexibility Score: inf
ROOT
ATOM      1  C   UNL     1     153.229 141.986 151.306  1.00  0.00     0.004 C 
ENDROOT
BRANCH   1   2
ATOM      2  C   UNL     1     153.734 143.101 150.378  1.00  0.00     0.027 C 
BRANCH   2   3
ATOM      3  C   UNL     1     155.013 142.732 149.679  1.00  0.00    -0.025 C 
ATOM      4  C   UNL     1     155.013 142.222 148.444  1.00  0.00     0.020 C 
BRANCH   4   5
ATOM      5  C   UNL     1     156.257 141.864 147.746  1.00  0.00     0.064 C 
ATOM      6  O   UNL     1     156.509 142.376 146.624  1.00  0.00    -0.545 OA
ATOM      7  O   UNL     1     157.160 140.968 148.306  1.00  0.00    -0.545 OA
ENDBRANCH   4   5
ENDBRANCH   2   3
ENDBRANCH   1   2
BRANCH   1   8
ATOM      8  C   UNL     1     151.696 141.988 151.433  1.00  0.00     0.000 C 
BRANCH   8   9
ATOM      9  C   UNL     1     151.025 140.886 150.595  1.00  0.00    -0.000 C 
BRANCH   9  10
ATOM     10  C   UNL     1     151.581 140.726 149.169  1.00  0.00    -0.003 C 
ATOM     11  C   UNL     1     150.642 141.278 148.096  1.00  0.00     0.004 C 
ENDBRANCH   9  10
ENDBRANCH   8   9
ENDBRANCH   1   8
TORSDOF 6
ENDMDL
MODEL 7
REMARK VINA RESULT:    -2.763      8.781     10.599
REMARK INTER + INTRA:          -4.052
REMARK INTER:                  -3.828
REMARK INTRA:                  -0.224
REMARK UNBOUND:                -0.321
REMARK SMILES CCCCCCC=CC(=O)[O-]
REMARK SMILES IDX 5 1 6 2 7 3 8 4 9 5 10 6 11 7 4 8 3 9 2 10 1 11
REMARK H PARENT
REMARK Flexibility Score: inf
ROOT
ATOM      1  C   UNL     1     156.427 141.755 148.097  1.00  0.00     0.004 C 
ENDROOT
BRANCH   1   2
ATOM      2  C   UNL     1     155.026 142.011 147.521  1.00  0.00     0.027 C 
BRANCH   2   3
ATOM      3  C   UNL     1     153.941 141.826 148.545  1.00  0.00    -0.025 C 
ATOM      4  C   UNL     1     152.772 141.261 148.231  1.00  0.00     0.020 C 
BRANCH   4   5
ATOM      5  C   UNL     1     151.706 141.068 149.225  1.00  0.00     0.064 C 
ATOM      6  O   UNL     1     150.617 140.543 148.874  1.00  0.00    -0.545 OA
ATOM      7  O   UNL     1     151.881 141.457 150.548  1.00  0.00    -0.545 OA
ENDBRANCH   4   5
ENDBRANCH   2   3
ENDBRANCH   1   2
BRANCH   1   8
ATOM      8  C   UNL     1     157.534 141.999 147.057  1.00  0.00     0.000 C 
BRANCH   8   9
ATOM      9  C   UNL     1     157.022 142.708 145.791  1.00  0.00    -0.000 C 
BRANCH   9  10
ATOM     10  C   UNL     1     157.763 142.338 144.495  1.00  0.00    -0.003 C 
ATOM     11  C   UNL     1     157.786 143.476 143.474  1.00  0.00     0.004 C 
ENDBRANCH   9  10
ENDBRANCH   8   9
ENDBRANCH   1   8
TORSDOF 6
ENDMDL
MODEL 8
REMARK VINA RESULT:    -2.744      3.283      5.188
REMARK INTER + INTRA:          -4.027
REMARK INTER:                  -3.750
REMARK INTRA:                  -0.278
REMARK UNBOUND:                -0.321
REMARK SMILES CCCCCCC=CC(=O)[O-]
REMARK SMILES IDX 5 1 6 2 7 3 8 4 9 5 10 6 11 7 4 8 3 9 2 10 1 11
REMARK H PARENT
REMARK Flexibility Score: inf
ROOT
ATOM      1  C   UNL     1     148.311 147.339 147.466  1.00  0.00     0.004 C 
ENDROOT
BRANCH   1   2
ATOM      2  C   UNL     1     148.782 146.219 146.526  1.00  0.00     0.027 C 
BRANCH   2   3
ATOM      3  C   UNL     1     148.099 146.268 145.187  1.00  0.00    -0.025 C 
ATOM      4  C   UNL     1     147.062 147.079 144.961  1.00  0.00     0.020 C 
BRANCH   4   5
ATOM      5  C   UNL     1     146.391 147.141 143.654  1.00  0.00     0.064 C 
ATOM      6  O   UNL     1     146.443 146.149 142.881  1.00  0.00    -0.545 OA
ATOM      7  O   UNL     1     145.700 148.280 143.257  1.00  0.00    -0.545 OA
ENDBRANCH   4   5
ENDBRANCH   2   3
ENDBRANCH   1   2
BRANCH   1   8
ATOM      8  C   UNL     1     149.440 148.332 147.794  1.00  0.00     0.000 C 
BRANCH   8   9
ATOM      9  C   UNL     1     149.273 148.993 149.174  1.00  0.00    -0.000 C 
BRANCH   9  10
ATOM     10  C   UNL     1     148.447 150.292 149.175  1.00  0.00    -0.003 C 
ATOM     11  C   UNL     1     146.999 150.077 149.617  1.00  0.00     0.004 C 
ENDBRANCH   9  10
ENDBRANCH   8   9
ENDBRANCH   1   8
TORSDOF 6
ENDMDL
MODEL 9
REMARK VINA RESULT:    -2.489      1.474      2.088
REMARK INTER + INTRA:          -3.682
REMARK INTER:                  -3.433
REMARK INTRA:                  -0.249
REMARK UNBOUND:                -0.321
REMARK SMILES CCCCCCC=CC(=O)[O-]
REMARK SMILES IDX 5 1 6 2 7 3 8 4 9 5 10 6 11 7 4 8 3 9 2 10 1 11
REMARK H PARENT
REMARK Flexibility Score: inf
ROOT
ATOM      1  C   UNL     1     148.746 145.368 145.438  1.00  0.00     0.004 C 
ENDROOT
BRANCH   1   2
ATOM      2  C   UNL     1     147.965 146.486 146.143  1.00  0.00     0.027 C 
BRANCH   2   3
ATOM      3  C   UNL     1     148.828 147.290 147.076  1.00  0.00    -0.025 C 
ATOM      4  C   UNL     1     148.354 148.364 147.715  1.00  0.00     0.020 C 
BRANCH   4   5
ATOM      5  C   UNL     1     149.186 149.154 148.635  1.00  0.00     0.064 C 
ATOM      6  O   UNL     1     148.667 150.100 149.284  1.00  0.00    -0.545 OA
ATOM      7  O   UNL     1     150.537 148.875 148.799  1.00  0.00    -0.545 OA
ENDBRANCH   4   5
ENDBRANCH   2   3
ENDBRANCH   1   2
BRANCH   1   8
ATOM      8  C   UNL     1     148.317 145.198 143.970  1.00  0.00     0.000 C 
BRANCH   8   9
ATOM      9  C   UNL     1     146.904 145.740 143.693  1.00  0.00    -0.000 C 
BRANCH   9  10
ATOM     10  C   UNL     1     146.860 147.123 143.021  1.00  0.00    -0.003 C 
ATOM     11  C   UNL     1     145.776 148.034 143.599  1.00  0.00     0.004 C 
ENDBRANCH   9  10
ENDBRANCH   8   9
ENDBRANCH   1   8
TORSDOF 6
ENDMDL
