MODEL 1
REMARK VINA RESULT:    -3.394      0.000      0.000
REMARK INTER + INTRA:          -4.100
REMARK INTER:                  -4.088
REMARK INTRA:                  -0.012
REMARK UNBOUND:                -0.012
REMARK SMILES CCCCCO
REMARK SMILES IDX 4 1 3 2 2 3 1 4 5 5 6 6
REMARK H PARENT 6 7
REMARK Flexibility Score: inf
ROOT
ATOM      1  C   UNL     1       2.431  -2.454 -22.586  1.00  0.00     0.028 C 
ENDROOT
BRANCH   1   2
ATOM      2  C   UNL     1       3.300  -3.254 -21.600  1.00  0.00     0.002 C 
BRANCH   2   3
ATOM      3  C   UNL     1       3.885  -4.533 -22.219  1.00  0.00    -0.003 C 
ATOM      4  C   UNL     1       4.702  -5.315 -21.195  1.00  0.00     0.004 C 
ENDBRANCH   2   3
ENDBRANCH   1   2
BRANCH   1   5
ATOM      5  C   UNL     1       1.601  -1.354 -21.915  1.00  0.00     0.156 C 
BRANCH   5   6
ATOM      6  O   UNL     1       0.628  -1.918 -21.081  1.00  0.00    -0.396 OA
ATOM      7  H   UNL     1       1.054  -2.706 -20.654  1.00  0.00     0.210 HD
ENDBRANCH   5   6
ENDBRANCH   1   5
TORSDOF 4
ENDMDL
MODEL 2
REMARK VINA RESULT:    -3.339      2.469      4.133
REMARK INTER + INTRA:          -4.034
REMARK INTER:                  -4.025
REMARK INTRA:                  -0.010
REMARK UNBOUND:                -0.012
REMARK SMILES CCCCCO
REMARK SMILES IDX 4 1 3 2 2 3 1 4 5 5 6 6
REMARK H PARENT 6 7
REMARK Flexibility Score: inf
ROOT
ATOM      1  C   UNL     1       2.394  -0.607 -21.979  1.00  0.00     0.028 C 
ENDROOT
BRANCH   1   2
ATOM      2  C   UNL     1       2.013   0.100 -23.292  1.00  0.00     0.002 C 
BRANCH   2   3
ATOM      3  C   UNL     1       3.126   0.042 -24.349  1.00  0.00    -0.003 C 
ATOM      4  C   UNL     1       3.834   1.387 -24.476  1.00  0.00     0.004 C 
ENDBRANCH   2   3
ENDBRANCH   1   2
BRANCH   1   5
ATOM      5  C   UNL     1       1.774  -2.001 -21.833  1.00  0.00     0.156 C 
BRANCH   5   6
ATOM      6  O   UNL     1       0.616  -1.939 -21.048  1.00  0.00    -0.396 OA
ATOM      7  H   UNL     1       0.921  -1.957 -20.105  1.00  0.00     0.210 HD
ENDBRANCH   5   6
ENDBRANCH   1   5
TORSDOF 4
ENDMDL
MODEL 3
REMARK VINA RESULT:    -3.202      2.995      3.907
REMARK INTER + INTRA:          -3.868
REMARK INTER:                  -3.831
REMARK INTRA:                  -0.038
REMARK UNBOUND:                -0.012
REMARK SMILES CCCCCO
REMARK SMILES IDX 4 1 3 2 2 3 1 4 5 5 6 6
REMARK H PARENT 6 7
REMARK Flexibility Score: inf
ROOT
ATOM      1  C   UNL     1       2.135   0.208 -23.616  1.00  0.00     0.028 C 
ENDROOT
BRANCH   1   2
ATOM      2  C   UNL     1       2.237  -0.170 -22.128  1.00  0.00     0.002 C 
BRANCH   2   3
ATOM      3  C   UNL     1       1.608  -1.536 -21.813  1.00  0.00    -0.003 C 
ATOM      4  C   UNL     1       2.602  -2.668 -22.054  1.00  0.00     0.004 C 
ENDBRANCH   2   3
ENDBRANCH   1   2
BRANCH   1   5
ATOM      5  C   UNL     1       3.491   0.507 -24.265  1.00  0.00     0.156 C 
BRANCH   5   6
ATOM      6  O   UNL     1       3.847   1.846 -24.056  1.00  0.00    -0.396 OA
ATOM      7  H   UNL     1       3.267   2.381 -24.657  1.00  0.00     0.210 HD
ENDBRANCH   5   6
ENDBRANCH   1   5
TORSDOF 4
ENDMDL
MODEL 4
REMARK VINA RESULT:    -3.154      9.832     10.818
REMARK INTER + INTRA:          -3.810
REMARK INTER:                  -3.784
REMARK INTRA:                  -0.026
REMARK UNBOUND:                -0.012
REMARK SMILES CCCCCO
REMARK SMILES IDX 4 1 3 2 2 3 1 4 5 5 6 6
REMARK H PARENT 6 7
REMARK Flexibility Score: inf
ROOT
ATOM      1  C   UNL     1      -5.448   2.124 -21.301  1.00  0.00     0.028 C 
ENDROOT
BRANCH   1   2
ATOM      2  C   UNL     1      -5.585   3.294 -22.291  1.00  0.00     0.002 C 
BRANCH   2   3
ATOM      3  C   UNL     1      -6.997   3.416 -22.882  1.00  0.00    -0.003 C 
ATOM      4  C   UNL     1      -7.632   2.043 -23.077  1.00  0.00     0.004 C 
ENDBRANCH   2   3
ENDBRANCH   1   2
BRANCH   1   5
ATOM      5  C   UNL     1      -4.913   2.545 -19.928  1.00  0.00     0.156 C 
BRANCH   5   6
ATOM      6  O   UNL     1      -3.559   2.891 -20.017  1.00  0.00    -0.396 OA
ATOM      7  H   UNL     1      -3.124   2.167 -20.538  1.00  0.00     0.210 HD
ENDBRANCH   5   6
ENDBRANCH   1   5
TORSDOF 4
ENDMDL
MODEL 5
REMARK VINA RESULT:    -3.111      9.771     10.990
REMARK INTER + INTRA:          -3.759
REMARK INTER:                  -3.712
REMARK INTRA:                  -0.047
REMARK UNBOUND:                -0.012
REMARK SMILES CCCCCO
REMARK SMILES IDX 4 1 3 2 2 3 1 4 5 5 6 6
REMARK H PARENT 6 7
REMARK Flexibility Score: inf
ROOT
ATOM      1  C   UNL     1      -5.427   1.911 -21.096  1.00  0.00     0.028 C 
ENDROOT
BRANCH   1   2
ATOM      2  C   UNL     1      -6.192   2.689 -22.181  1.00  0.00     0.002 C 
BRANCH   2   3
ATOM      3  C   UNL     1      -5.708   4.139 -22.331  1.00  0.00    -0.003 C 
ATOM      4  C   UNL     1      -6.842   5.127 -22.070  1.00  0.00     0.004 C 
ENDBRANCH   2   3
ENDBRANCH   1   2
BRANCH   1   5
ATOM      5  C   UNL     1      -4.945   2.792 -19.937  1.00  0.00     0.156 C 
BRANCH   5   6
ATOM      6  O   UNL     1      -3.547   2.868 -19.932  1.00  0.00    -0.396 OA
ATOM      7  H   UNL     1      -3.222   1.956 -19.714  1.00  0.00     0.210 HD
ENDBRANCH   5   6
ENDBRANCH   1   5
TORSDOF 4
ENDMDL
MODEL 6
REMARK VINA RESULT:    -3.050      2.445      4.082
REMARK INTER + INTRA:          -3.685
REMARK INTER:                  -3.676
REMARK INTRA:                  -0.010
REMARK UNBOUND:                -0.012
REMARK SMILES CCCCCO
REMARK SMILES IDX 4 1 3 2 2 3 1 4 5 5 6 6
REMARK H PARENT 6 7
REMARK Flexibility Score: inf
ROOT
ATOM      1  C   UNL     1       3.830  -3.620 -21.512  1.00  0.00     0.028 C 
ENDROOT
BRANCH   1   2
ATOM      2  C   UNL     1       2.713  -3.072 -22.418  1.00  0.00     0.002 C 
BRANCH   2   3
ATOM      3  C   UNL     1       1.867  -1.987 -21.735  1.00  0.00    -0.003 C 
ATOM      4  C   UNL     1       2.129  -0.616 -22.350  1.00  0.00     0.004 C 
ENDBRANCH   2   3
ENDBRANCH   1   2
BRANCH   1   5
ATOM      5  C   UNL     1       4.263  -5.046 -21.872  1.00  0.00     0.156 C 
BRANCH   5   6
ATOM      6  O   UNL     1       5.016  -5.604 -20.831  1.00  0.00    -0.396 OA
ATOM      7  H   UNL     1       5.606  -4.879 -20.499  1.00  0.00     0.210 HD
ENDBRANCH   5   6
ENDBRANCH   1   5
TORSDOF 4
ENDMDL
MODEL 7
REMARK VINA RESULT:    -3.013      2.345      4.068
REMARK INTER + INTRA:          -3.641
REMARK INTER:                  -3.602
REMARK INTRA:                  -0.040
REMARK UNBOUND:                -0.012
REMARK SMILES CCCCCO
REMARK SMILES IDX 4 1 3 2 2 3 1 4 5 5 6 6
REMARK H PARENT 6 7
REMARK Flexibility Score: inf
ROOT
ATOM      1  C   UNL     1       1.909  -2.040 -22.082  1.00  0.00     0.028 C 
ENDROOT
BRANCH   1   2
ATOM      2  C   UNL     1       2.356  -0.568 -22.083  1.00  0.00     0.002 C 
BRANCH   2   3
ATOM      3  C   UNL     1       2.104   0.134 -23.426  1.00  0.00    -0.003 C 
ATOM      4  C   UNL     1       3.418   0.537 -24.090  1.00  0.00     0.004 C 
ENDBRANCH   2   3
ENDBRANCH   1   2
BRANCH   1   5
ATOM      5  C   UNL     1       3.045  -3.024 -21.779  1.00  0.00     0.156 C 
BRANCH   5   6
ATOM      6  O   UNL     1       3.496  -3.627 -22.960  1.00  0.00    -0.396 OA
ATOM      7  H   UNL     1       4.484  -3.667 -22.888  1.00  0.00     0.210 HD
ENDBRANCH   5   6
ENDBRANCH   1   5
TORSDOF 4
ENDMDL
MODEL 8
REMARK VINA RESULT:    -2.968      8.647      9.547
REMARK INTER + INTRA:          -3.587
REMARK INTER:                  -3.578
REMARK INTRA:                  -0.009
REMARK UNBOUND:                -0.012
REMARK SMILES CCCCCO
REMARK SMILES IDX 4 1 3 2 2 3 1 4 5 5 6 6
REMARK H PARENT 6 7
REMARK Flexibility Score: inf
ROOT
ATOM      1  C   UNL     1      -3.715   3.464 -22.492  1.00  0.00     0.028 C 
ENDROOT
BRANCH   1   2
ATOM      2  C   UNL     1      -4.103   2.463 -21.389  1.00  0.00     0.002 C 
BRANCH   2   3
ATOM      3  C   UNL     1      -5.023   3.076 -20.322  1.00  0.00    -0.003 C 
ATOM      4  C   UNL     1      -5.039   2.224 -19.056  1.00  0.00     0.004 C 
ENDBRANCH   2   3
ENDBRANCH   1   2
BRANCH   1   5
ATOM      5  C   UNL     1      -2.245   3.366 -22.915  1.00  0.00     0.156 C 
BRANCH   5   6
ATOM      6  O   UNL     1      -1.647   4.632 -22.894  1.00  0.00    -0.396 OA
ATOM      7  H   UNL     1      -1.715   4.984 -23.819  1.00  0.00     0.210 HD
ENDBRANCH   5   6
ENDBRANCH   1   5
TORSDOF 4
ENDMDL
MODEL 9
REMARK VINA RESULT:    -2.903      8.269      9.092
REMARK INTER + INTRA:          -3.508
REMARK INTER:                  -3.473
REMARK INTRA:                  -0.035
REMARK UNBOUND:                -0.012
REMARK SMILES CCCCCO
REMARK SMILES IDX 4 1 3 2 2 3 1 4 5 5 6 6
REMARK H PARENT 6 7
REMARK Flexibility Score: inf
ROOT
ATOM      1  C   UNL     1      -4.618   2.149 -21.205  1.00  0.00     0.028 C 
ENDROOT
BRANCH   1   2
ATOM      2  C   UNL     1      -3.889   3.198 -22.063  1.00  0.00     0.002 C 
BRANCH   2   3
ATOM      3  C   UNL     1      -2.450   2.793 -22.411  1.00  0.00    -0.003 C 
ATOM      4  C   UNL     1      -1.786   3.835 -23.306  1.00  0.00     0.004 C 
ENDBRANCH   2   3
ENDBRANCH   1   2
BRANCH   1   5
ATOM      5  C   UNL     1      -4.924   2.629 -19.782  1.00  0.00     0.156 C 
BRANCH   5   6
ATOM      6  O   UNL     1      -3.889   2.264 -18.911  1.00  0.00    -0.396 OA
ATOM      7  H   UNL     1      -3.889   1.273 -18.885  1.00  0.00     0.210 HD
ENDBRANCH   5   6
ENDBRANCH   1   5
TORSDOF 4
ENDMDL
