MODEL 1
REMARK VINA RESULT:    66.177      0.000      0.000
REMARK INTER + INTRA:          87.391
REMARK INTER:                  87.455
REMARK INTRA:                  -0.063
REMARK UNBOUND:                -0.063
REMARK SMILES CC[C@H](C=C[C@H](C)[C@H]1CC[C@@H]2C3=CC[C@@H]4C[C@H](O)CC[C@@]4(C)[C@@H]3CC[C@]21C)C(C)C
REMARK SMILES IDX 6 1 7 2 5 3 4 4 3 5 2 6 1 7 28 8 29 9 30 10 8 11 9 12 26 13
REMARK SMILES IDX 10 14 11 15 25 16 27 17 12 18 24 19 23 20 13 21 21 22 14 23
REMARK SMILES IDX 15 24 20 25 22 26 16 27 19 28 17 29 18 30
REMARK H PARENT 18 31
REMARK Flexibility Score: inf
ROOT
ATOM      1  C   UNL     1     -13.800  -2.636  13.156  1.00  0.00     0.012 C 
ATOM      2  C   UNL     1     -12.924  -3.880  13.402  1.00  0.00     0.012 C 
ENDROOT
BRANCH   1   3
ATOM      3  C   UNL     1     -14.730  -2.458  14.337  1.00  0.00    -0.028 C 
ATOM      4  C   UNL     1     -15.489  -3.468  14.792  1.00  0.00    -0.027 C 
BRANCH   4   5
ATOM      5  C   UNL     1     -16.479  -3.269  15.922  1.00  0.00     0.014 C 
BRANCH   5   6
ATOM      6  C   UNL     1     -15.760  -2.721  17.181  1.00  0.00     0.004 C 
ATOM      7  C   UNL     1     -15.252  -3.842  18.090  1.00  0.00     0.004 C 
ENDBRANCH   5   6
BRANCH   5   8
ATOM      8  C   UNL     1     -17.669  -2.376  15.452  1.00  0.00    -0.011 C 
ATOM      9  C   UNL     1     -17.434  -0.876  15.700  1.00  0.00     0.008 C 
ATOM     10  C   UNL     1     -19.005  -2.816  16.068  1.00  0.00     0.008 C 
ENDBRANCH   5   8
ENDBRANCH   4   5
ENDBRANCH   1   3
BRANCH   1  11
ATOM     11  C   UNL     1     -13.039  -1.289  12.895  1.00  0.00     0.002 C 
ATOM     12  C   UNL     1     -13.795  -0.030  13.402  1.00  0.00     0.005 C 
ATOM     13  C   UNL     1     -11.606  -1.133  13.485  1.00  0.00    -0.023 C 
ATOM     14  C   UNL     1     -12.940   0.599  14.517  1.00  0.00     0.009 C 
ATOM     15  C   UNL     1     -11.874  -0.450  14.826  1.00  0.00     0.021 C 
ATOM     16  C   UNL     1     -10.794  -2.426  13.749  1.00  0.00     0.008 C 
ATOM     17  C   UNL     1     -10.794  -0.209  12.516  1.00  0.00     0.012 C 
ATOM     18  C   UNL     1     -10.583  -0.060  15.518  1.00  0.00    -0.067 C 
ATOM     19  C   UNL     1      -9.439  -2.109  14.422  1.00  0.00     0.009 C 
ATOM     20  C   UNL     1      -9.555  -1.192  15.687  1.00  0.00     0.021 C 
ATOM     21  C   UNL     1     -10.506   1.077  16.248  1.00  0.00    -0.027 C 
ATOM     22  C   UNL     1      -8.167  -0.671  16.215  1.00  0.00    -0.023 C 
ATOM     23  C   UNL     1      -9.308   1.446  17.083  1.00  0.00     0.031 C 
ATOM     24  C   UNL     1      -8.468   0.217  17.467  1.00  0.00     0.002 C 
ATOM     25  C   UNL     1      -7.286  -1.876  16.664  1.00  0.00     0.010 C 
ATOM     26  C   UNL     1      -7.421   0.133  15.108  1.00  0.00     0.012 C 
ATOM     27  C   UNL     1      -7.203   0.634  18.245  1.00  0.00     0.036 C 
ATOM     28  C   UNL     1      -6.023  -1.443  17.424  1.00  0.00     0.032 C 
ATOM     29  C   UNL     1      -6.374  -0.596  18.652  1.00  0.00     0.114 C 
BRANCH  29  30
ATOM     30  O   UNL     1      -5.188  -0.185  19.279  1.00  0.00    -0.393 OA
ATOM     31  H   UNL     1      -4.858   0.605  18.776  1.00  0.00     0.210 HD
ENDBRANCH  29  30
ENDBRANCH   1  11
TORSDOF 6
ENDMDL
MODEL 2
REMARK VINA RESULT:    67.557     11.429     14.609
REMARK INTER + INTRA:          89.215
REMARK INTER:                  89.726
REMARK INTRA:                  -0.511
REMARK UNBOUND:                -0.063
REMARK SMILES CC[C@H](C=C[C@H](C)[C@H]1CC[C@@H]2C3=CC[C@@H]4C[C@H](O)CC[C@@]4(C)[C@@H]3CC[C@]21C)C(C)C
REMARK SMILES IDX 6 1 7 2 5 3 4 4 3 5 2 6 1 7 28 8 29 9 30 10 8 11 9 12 26 13
REMARK SMILES IDX 10 14 11 15 25 16 27 17 12 18 24 19 23 20 13 21 21 22 14 23
REMARK SMILES IDX 15 24 20 25 22 26 16 27 19 28 17 29 18 30
REMARK H PARENT 18 31
REMARK Flexibility Score: inf
ROOT
ATOM      1  C   UNL     1     -10.992 -15.880  21.123  1.00  0.00     0.012 C 
ATOM      2  C   UNL     1      -9.608 -15.621  20.496  1.00  0.00     0.012 C 
ENDROOT
BRANCH   1   3
ATOM      3  C   UNL     1     -10.890 -15.681  22.620  1.00  0.00    -0.028 C 
ATOM      4  C   UNL     1     -10.361 -16.622  23.420  1.00  0.00    -0.027 C 
BRANCH   4   5
ATOM      5  C   UNL     1     -10.332 -16.457  24.926  1.00  0.00     0.014 C 
BRANCH   5   6
ATOM      6  C   UNL     1     -10.169 -14.963  25.304  1.00  0.00     0.004 C 
ATOM      7  C   UNL     1      -8.852 -14.693  26.035  1.00  0.00     0.004 C 
ENDBRANCH   5   6
BRANCH   5   8
ATOM      8  C   UNL     1     -11.587 -17.124  25.571  1.00  0.00    -0.011 C 
ATOM      9  C   UNL     1     -12.913 -16.508  25.093  1.00  0.00     0.008 C 
ATOM     10  C   UNL     1     -11.521 -17.124  27.106  1.00  0.00     0.008 C 
ENDBRANCH   5   8
ENDBRANCH   4   5
ENDBRANCH   1   3
BRANCH   1  11
ATOM     11  C   UNL     1     -12.180 -15.017  20.571  1.00  0.00     0.002 C 
ATOM     12  C   UNL     1     -13.577 -15.466  21.084  1.00  0.00     0.005 C 
ATOM     13  C   UNL     1     -12.154 -13.482  20.839  1.00  0.00    -0.023 C 
ATOM     14  C   UNL     1     -14.146 -14.312  21.928  1.00  0.00     0.009 C 
ATOM     15  C   UNL     1     -12.971 -13.359  22.125  1.00  0.00     0.021 C 
ATOM     16  C   UNL     1     -10.775 -12.817  21.070  1.00  0.00     0.008 C 
ATOM     17  C   UNL     1     -12.865 -12.781  19.632  1.00  0.00     0.012 C 
ATOM     18  C   UNL     1     -13.205 -11.908  22.496  1.00  0.00    -0.067 C 
ATOM     19  C   UNL     1     -10.926 -11.319  21.416  1.00  0.00     0.009 C 
ATOM     20  C   UNL     1     -11.942 -11.032  22.573  1.00  0.00     0.021 C 
ATOM     21  C   UNL     1     -14.368 -11.520  23.070  1.00  0.00    -0.027 C 
ATOM     22  C   UNL     1     -12.278  -9.505  22.751  1.00  0.00    -0.023 C 
ATOM     23  C   UNL     1     -14.607 -10.131  23.601  1.00  0.00     0.031 C 
ATOM     24  C   UNL     1     -13.295  -9.405  23.935  1.00  0.00     0.002 C 
ATOM     25  C   UNL     1     -10.988  -8.721  23.138  1.00  0.00     0.010 C 
ATOM     26  C   UNL     1     -12.870  -8.913  21.437  1.00  0.00     0.012 C 
ATOM     27  C   UNL     1     -13.566  -7.956  24.393  1.00  0.00     0.036 C 
ATOM     28  C   UNL     1     -11.275  -7.277  23.577  1.00  0.00     0.032 C 
ATOM     29  C   UNL     1     -12.257  -7.235  24.753  1.00  0.00     0.114 C 
BRANCH  29  30
ATOM     30  O   UNL     1     -12.524  -5.897  25.079  1.00  0.00    -0.393 OA
ATOM     31  H   UNL     1     -12.071  -5.718  25.945  1.00  0.00     0.210 HD
ENDBRANCH  29  30
ENDBRANCH   1  11
TORSDOF 6
ENDMDL
