MODEL 1
REMARK VINA RESULT:    -5.130      0.000      0.000
REMARK INTER + INTRA:          -7.505
REMARK INTER:                  -6.930
REMARK INTRA:                  -0.576
REMARK UNBOUND:                -0.576
REMARK SMILES CC(=O)CCC=C(C)CCC=C(C)C
REMARK SMILES IDX 7 1 6 2 8 3 9 4 10 5 11 6 13 7 12 8 14 9 5 10 4 11 2 12 3 13
REMARK SMILES IDX 1 14
REMARK H PARENT
REMARK Flexibility Score: inf
ROOT
ATOM      1  C   UNL     1      11.484  18.865  58.308  1.00  0.00    -0.077 C 
ATOM      2  C   UNL     1      12.816  18.840  58.524  1.00  0.00    -0.028 C 
ATOM      3  C   UNL     1      10.899  19.518  57.077  1.00  0.00     0.039 C 
ENDROOT
BRANCH   1   4
ATOM      4  C   UNL     1      10.558  18.225  59.317  1.00  0.00     0.034 C 
BRANCH   4   5
ATOM      5  C   UNL     1       9.513  19.231  59.815  1.00  0.00     0.032 C 
BRANCH   5   6
ATOM      6  C   UNL     1       8.183  18.555  60.037  1.00  0.00    -0.028 C 
ATOM      7  C   UNL     1       5.933  17.748  59.470  1.00  0.00     0.039 C 
ATOM      8  C   UNL     1       7.195  18.493  59.118  1.00  0.00    -0.080 C 
ATOM      9  C   UNL     1       7.313  19.160  57.768  1.00  0.00     0.039 C 
ENDBRANCH   5   6
ENDBRANCH   4   5
ENDBRANCH   1   4
BRANCH   2  10
ATOM     10  C   UNL     1      13.820  19.457  57.578  1.00  0.00     0.035 C 
BRANCH  10  11
ATOM     11  C   UNL     1      14.344  18.444  56.552  1.00  0.00     0.079 C 
BRANCH  11  12
ATOM     12  C   UNL     1      15.393  19.054  55.655  1.00  0.00     0.130 C 
ATOM     13  O   UNL     1      15.070  19.487  54.560  1.00  0.00    -0.300 OA
ATOM     14  C   UNL     1      16.831  19.130  56.076  1.00  0.00     0.087 C 
ENDBRANCH  11  12
ENDBRANCH  10  11
ENDBRANCH   2  10
TORSDOF 6
ENDMDL
MODEL 2
REMARK VINA RESULT:    -5.002     11.584     13.386
REMARK INTER + INTRA:          -7.332
REMARK INTER:                  -6.212
REMARK INTRA:                  -1.120
REMARK UNBOUND:                -0.576
REMARK SMILES CC(=O)CCC=C(C)CCC=C(C)C
REMARK SMILES IDX 7 1 6 2 8 3 9 4 10 5 11 6 13 7 12 8 14 9 5 10 4 11 2 12 3 13
REMARK SMILES IDX 1 14
REMARK H PARENT
REMARK Flexibility Score: inf
ROOT
ATOM      1  C   UNL     1      20.987  11.053  52.745  1.00  0.00    -0.077 C 
ATOM      2  C   UNL     1      20.341  10.297  53.659  1.00  0.00    -0.028 C 
ATOM      3  C   UNL     1      21.506  10.458  51.458  1.00  0.00     0.039 C 
ENDROOT
BRANCH   1   4
ATOM      4  C   UNL     1      21.192  12.527  53.016  1.00  0.00     0.034 C 
BRANCH   4   5
ATOM      5  C   UNL     1      19.849  13.265  53.064  1.00  0.00     0.032 C 
BRANCH   5   6
ATOM      6  C   UNL     1      19.542  13.905  51.733  1.00  0.00    -0.028 C 
ATOM      7  C   UNL     1      18.433  14.183  49.559  1.00  0.00     0.039 C 
ATOM      8  C   UNL     1      18.667  13.410  50.831  1.00  0.00    -0.080 C 
ATOM      9  C   UNL     1      17.938  12.106  51.054  1.00  0.00     0.039 C 
ENDBRANCH   5   6
ENDBRANCH   4   5
ENDBRANCH   1   4
BRANCH   2  10
ATOM     10  C   UNL     1      20.094   8.816  53.482  1.00  0.00     0.035 C 
BRANCH  10  11
ATOM     11  C   UNL     1      18.682   8.527  52.958  1.00  0.00     0.079 C 
BRANCH  11  12
ATOM     12  C   UNL     1      17.652   8.614  54.058  1.00  0.00     0.130 C 
ATOM     13  O   UNL     1      17.647   7.775  54.944  1.00  0.00    -0.300 OA
ATOM     14  C   UNL     1      16.625   9.707  54.080  1.00  0.00     0.087 C 
ENDBRANCH  11  12
ENDBRANCH  10  11
ENDBRANCH   2  10
TORSDOF 6
ENDMDL
MODEL 3
REMARK VINA RESULT:    -4.954      1.863      2.936
REMARK INTER + INTRA:          -7.267
REMARK INTER:                  -6.495
REMARK INTRA:                  -0.772
REMARK UNBOUND:                -0.576
REMARK SMILES CC(=O)CCC=C(C)CCC=C(C)C
REMARK SMILES IDX 7 1 6 2 8 3 9 4 10 5 11 6 13 7 12 8 14 9 5 10 4 11 2 12 3 13
REMARK SMILES IDX 1 14
REMARK H PARENT
REMARK Flexibility Score: inf
ROOT
ATOM      1  C   UNL     1      11.278  17.600  55.407  1.00  0.00    -0.077 C 
ATOM      2  C   UNL     1      12.422  18.249  55.711  1.00  0.00    -0.028 C 
ATOM      3  C   UNL     1      11.293  16.283  54.667  1.00  0.00     0.039 C 
ENDROOT
BRANCH   1   4
ATOM      4  C   UNL     1       9.954  18.203  55.819  1.00  0.00     0.034 C 
BRANCH   4   5
ATOM      5  C   UNL     1      10.162  19.346  56.820  1.00  0.00     0.032 C 
BRANCH   5   6
ATOM      6  C   UNL     1       9.328  19.133  58.058  1.00  0.00    -0.028 C 
ATOM      7  C   UNL     1       8.854  18.504  60.385  1.00  0.00     0.039 C 
ATOM      8  C   UNL     1       9.798  18.621  59.217  1.00  0.00    -0.080 C 
ATOM      9  C   UNL     1      11.226  18.152  59.365  1.00  0.00     0.039 C 
ENDBRANCH   5   6
ENDBRANCH   4   5
ENDBRANCH   1   4
BRANCH   2  10
ATOM     10  C   UNL     1      13.792  17.731  55.337  1.00  0.00     0.035 C 
BRANCH  10  11
ATOM     11  C   UNL     1      14.787  18.869  55.077  1.00  0.00     0.079 C 
BRANCH  11  12
ATOM     12  C   UNL     1      15.680  19.109  56.269  1.00  0.00     0.130 C 
ATOM     13  O   UNL     1      16.882  18.917  56.168  1.00  0.00    -0.300 OA
ATOM     14  C   UNL     1      15.122  19.570  57.582  1.00  0.00     0.087 C 
ENDBRANCH  11  12
ENDBRANCH  10  11
ENDBRANCH   2  10
TORSDOF 6
ENDMDL
MODEL 4
REMARK VINA RESULT:    -4.931      2.355      6.580
REMARK INTER + INTRA:          -7.236
REMARK INTER:                  -6.300
REMARK INTRA:                  -0.936
REMARK UNBOUND:                -0.576
REMARK SMILES CC(=O)CCC=C(C)CCC=C(C)C
REMARK SMILES IDX 7 1 6 2 8 3 9 4 10 5 11 6 13 7 12 8 14 9 5 10 4 11 2 12 3 13
REMARK SMILES IDX 1 14
REMARK H PARENT
REMARK Flexibility Score: inf
ROOT
ATOM      1  C   UNL     1      11.500  18.770  54.840  1.00  0.00    -0.077 C 
ATOM      2  C   UNL     1      11.111  18.140  55.969  1.00  0.00    -0.028 C 
ATOM      3  C   UNL     1      10.673  19.879  54.233  1.00  0.00     0.039 C 
ENDROOT
BRANCH   1   4
ATOM      4  C   UNL     1      12.793  18.360  54.172  1.00  0.00     0.034 C 
BRANCH   4   5
ATOM      5  C   UNL     1      13.724  17.660  55.170  1.00  0.00     0.032 C 
BRANCH   5   6
ATOM      6  C   UNL     1      14.929  18.517  55.469  1.00  0.00    -0.028 C 
ATOM      7  C   UNL     1      16.416  19.937  56.813  1.00  0.00     0.039 C 
ATOM      8  C   UNL     1      15.144  19.147  56.645  1.00  0.00    -0.080 C 
ATOM      9  C   UNL     1      14.145  19.096  57.776  1.00  0.00     0.039 C 
ENDBRANCH   5   6
ENDBRANCH   4   5
ENDBRANCH   1   4
BRANCH   2  10
ATOM     10  C   UNL     1       9.833  18.474  56.705  1.00  0.00     0.035 C 
BRANCH  10  11
ATOM     11  C   UNL     1      10.089  19.364  57.927  1.00  0.00     0.079 C 
BRANCH  11  12
ATOM     12  C   UNL     1      10.171  18.554  59.197  1.00  0.00     0.130 C 
ATOM     13  O   UNL     1      11.217  17.995  59.487  1.00  0.00    -0.300 OA
ATOM     14  C   UNL     1       8.989  18.412  60.110  1.00  0.00     0.087 C 
ENDBRANCH  11  12
ENDBRANCH  10  11
ENDBRANCH   2  10
TORSDOF 6
ENDMDL
MODEL 5
REMARK VINA RESULT:    -4.895      4.761      6.608
REMARK INTER + INTRA:          -7.187
REMARK INTER:                  -6.379
REMARK INTRA:                  -0.808
REMARK UNBOUND:                -0.576
REMARK SMILES CC(=O)CCC=C(C)CCC=C(C)C
REMARK SMILES IDX 7 1 6 2 8 3 9 4 10 5 11 6 13 7 12 8 14 9 5 10 4 11 2 12 3 13
REMARK SMILES IDX 1 14
REMARK H PARENT
REMARK Flexibility Score: inf
ROOT
ATOM      1  C   UNL     1       9.629  21.873  56.448  1.00  0.00    -0.077 C 
ATOM      2  C   UNL     1       8.646  22.771  56.666  1.00  0.00    -0.028 C 
ATOM      3  C   UNL     1       9.784  21.185  55.112  1.00  0.00     0.039 C 
ENDROOT
BRANCH   1   4
ATOM      4  C   UNL     1      10.599  21.552  57.563  1.00  0.00     0.034 C 
BRANCH   4   5
ATOM      5  C   UNL     1      10.684  20.038  57.792  1.00  0.00     0.032 C 
BRANCH   5   6
ATOM      6  C   UNL     1       9.861  19.630  58.988  1.00  0.00    -0.028 C 
ATOM      7  C   UNL     1       8.021  18.548  60.204  1.00  0.00     0.039 C 
ATOM      8  C   UNL     1       8.715  18.917  58.918  1.00  0.00    -0.080 C 
ATOM      9  C   UNL     1       8.109  18.500  57.599  1.00  0.00     0.039 C 
ENDBRANCH   5   6
ENDBRANCH   4   5
ENDBRANCH   1   4
BRANCH   2  10
ATOM     10  C   UNL     1       7.626  23.154  55.617  1.00  0.00     0.035 C 
BRANCH  10  11
ATOM     11  C   UNL     1       8.024  24.429  54.865  1.00  0.00     0.079 C 
BRANCH  11  12
ATOM     12  C   UNL     1       6.967  25.499  54.988  1.00  0.00     0.130 C 
ATOM     13  O   UNL     1       6.195  25.690  54.062  1.00  0.00    -0.300 OA
ATOM     14  C   UNL     1       6.850  26.343  56.222  1.00  0.00     0.087 C 
ENDBRANCH  11  12
ENDBRANCH  10  11
ENDBRANCH   2  10
TORSDOF 6
ENDMDL
MODEL 6
REMARK VINA RESULT:    -4.886      4.072      5.913
REMARK INTER + INTRA:          -7.176
REMARK INTER:                  -6.351
REMARK INTRA:                  -0.825
REMARK UNBOUND:                -0.576
REMARK SMILES CC(=O)CCC=C(C)CCC=C(C)C
REMARK SMILES IDX 7 1 6 2 8 3 9 4 10 5 11 6 13 7 12 8 14 9 5 10 4 11 2 12 3 13
REMARK SMILES IDX 1 14
REMARK H PARENT
REMARK Flexibility Score: inf
ROOT
ATOM      1  C   UNL     1       9.541  20.517  56.751  1.00  0.00    -0.077 C 
ATOM      2  C   UNL     1       9.718  21.854  56.828  1.00  0.00    -0.028 C 
ATOM      3  C   UNL     1       8.217  19.922  56.332  1.00  0.00     0.039 C 
ENDROOT
BRANCH   1   4
ATOM      4  C   UNL     1      10.693  19.598  57.089  1.00  0.00     0.034 C 
BRANCH   4   5
ATOM      5  C   UNL     1      10.272  18.559  58.135  1.00  0.00     0.032 C 
BRANCH   5   6
ATOM      6  C   UNL     1      10.196  19.181  59.508  1.00  0.00    -0.028 C 
ATOM      7  C   UNL     1       9.177  19.810  61.652  1.00  0.00     0.039 C 
ATOM      8  C   UNL     1       9.090  19.184  60.284  1.00  0.00    -0.080 C 
ATOM      9  C   UNL     1       7.779  18.600  59.815  1.00  0.00     0.039 C 
ENDBRANCH   5   6
ENDBRANCH   4   5
ENDBRANCH   1   4
BRANCH   2  10
ATOM     10  C   UNL     1       8.627  22.853  56.516  1.00  0.00     0.035 C 
BRANCH  10  11
ATOM     11  C   UNL     1       8.810  23.493  55.134  1.00  0.00     0.079 C 
BRANCH  11  12
ATOM     12  C   UNL     1       7.728  24.503  54.842  1.00  0.00     0.130 C 
ATOM     13  O   UNL     1       7.084  24.413  53.809  1.00  0.00    -0.300 OA
ATOM     14  C   UNL     1       7.433  25.626  55.792  1.00  0.00     0.087 C 
ENDBRANCH  11  12
ENDBRANCH  10  11
ENDBRANCH   2  10
TORSDOF 6
ENDMDL
MODEL 7
REMARK VINA RESULT:    -4.876      3.046      7.034
REMARK INTER + INTRA:          -7.161
REMARK INTER:                  -6.504
REMARK INTRA:                  -0.657
REMARK UNBOUND:                -0.576
REMARK SMILES CC(=O)CCC=C(C)CCC=C(C)C
REMARK SMILES IDX 7 1 6 2 8 3 9 4 10 5 11 6 13 7 12 8 14 9 5 10 4 11 2 12 3 13
REMARK SMILES IDX 1 14
REMARK H PARENT
REMARK Flexibility Score: inf
ROOT
ATOM      1  C   UNL     1      10.350  20.360  58.207  1.00  0.00    -0.077 C 
ATOM      2  C   UNL     1      10.101  19.514  59.230  1.00  0.00    -0.028 C 
ATOM      3  C   UNL     1       9.348  21.414  57.796  1.00  0.00     0.039 C 
ENDROOT
BRANCH   1   4
ATOM      4  C   UNL     1      11.659  20.251  57.459  1.00  0.00     0.034 C 
BRANCH   4   5
ATOM      5  C   UNL     1      12.502  19.090  58.000  1.00  0.00     0.032 C 
BRANCH   5   6
ATOM      6  C   UNL     1      13.974  19.366  57.818  1.00  0.00    -0.028 C 
ATOM      7  C   UNL     1      16.154  19.355  56.685  1.00  0.00     0.039 C 
ATOM      8  C   UNL     1      14.698  18.970  56.748  1.00  0.00    -0.080 C 
ATOM      9  C   UNL     1      14.098  18.146  55.635  1.00  0.00     0.039 C 
ENDBRANCH   5   6
ENDBRANCH   4   5
ENDBRANCH   1   4
BRANCH   2  10
ATOM     10  C   UNL     1       8.821  19.540  60.033  1.00  0.00     0.035 C 
BRANCH  10  11
ATOM     11  C   UNL     1       8.122  18.175  60.048  1.00  0.00     0.079 C 
BRANCH  11  12
ATOM     12  C   UNL     1       6.864  18.185  59.215  1.00  0.00     0.130 C 
ATOM     13  O   UNL     1       5.823  17.765  59.694  1.00  0.00    -0.300 OA
ATOM     14  C   UNL     1       6.866  18.693  57.804  1.00  0.00     0.087 C 
ENDBRANCH  11  12
ENDBRANCH  10  11
ENDBRANCH   2  10
TORSDOF 6
ENDMDL
MODEL 8
REMARK VINA RESULT:    -4.863      7.005      9.446
REMARK INTER + INTRA:          -7.145
REMARK INTER:                  -5.641
REMARK INTRA:                  -1.504
REMARK UNBOUND:                -0.576
REMARK SMILES CC(=O)CCC=C(C)CCC=C(C)C
REMARK SMILES IDX 7 1 6 2 8 3 9 4 10 5 11 6 13 7 12 8 14 9 5 10 4 11 2 12 3 13
REMARK SMILES IDX 1 14
REMARK H PARENT
REMARK Flexibility Score: inf
ROOT
ATOM      1  C   UNL     1       5.140  25.274  54.126  1.00  0.00    -0.077 C 
ATOM      2  C   UNL     1       5.590  25.198  52.855  1.00  0.00    -0.028 C 
ATOM      3  C   UNL     1       4.115  24.300  54.657  1.00  0.00     0.039 C 
ENDROOT
BRANCH   1   4
ATOM      4  C   UNL     1       5.676  26.355  55.037  1.00  0.00     0.034 C 
BRANCH   4   5
ATOM      5  C   UNL     1       7.182  26.178  55.265  1.00  0.00     0.032 C 
BRANCH   5   6
ATOM      6  C   UNL     1       7.461  24.924  56.056  1.00  0.00    -0.028 C 
ATOM      7  C   UNL     1       8.454  22.730  56.541  1.00  0.00     0.039 C 
ATOM      8  C   UNL     1       8.232  23.904  55.621  1.00  0.00    -0.080 C 
ATOM      9  C   UNL     1       8.858  23.900  54.247  1.00  0.00     0.039 C 
ENDBRANCH   5   6
ENDBRANCH   4   5
ENDBRANCH   1   4
BRANCH   2  10
ATOM     10  C   UNL     1       5.110  24.158  51.868  1.00  0.00     0.035 C 
BRANCH  10  11
ATOM     11  C   UNL     1       6.148  23.052  51.647  1.00  0.00     0.079 C 
BRANCH  11  12
ATOM     12  C   UNL     1       5.724  21.754  52.291  1.00  0.00     0.130 C 
ATOM     13  O   UNL     1       4.982  20.997  51.685  1.00  0.00    -0.300 OA
ATOM     14  C   UNL     1       6.187  21.379  53.667  1.00  0.00     0.087 C 
ENDBRANCH  11  12
ENDBRANCH  10  11
ENDBRANCH   2  10
TORSDOF 6
ENDMDL
MODEL 9
REMARK VINA RESULT:    -4.801      5.019      6.763
REMARK INTER + INTRA:          -7.061
REMARK INTER:                  -6.600
REMARK INTRA:                  -0.461
REMARK UNBOUND:                -0.576
REMARK SMILES CC(=O)CCC=C(C)CCC=C(C)C
REMARK SMILES IDX 7 1 6 2 8 3 9 4 10 5 11 6 13 7 12 8 14 9 5 10 4 11 2 12 3 13
REMARK SMILES IDX 1 14
REMARK H PARENT
REMARK Flexibility Score: inf
ROOT
ATOM      1  C   UNL     1       9.187  22.229  56.275  1.00  0.00    -0.077 C 
ATOM      2  C   UNL     1       9.522  21.566  57.402  1.00  0.00    -0.028 C 
ATOM      3  C   UNL     1       9.756  21.835  54.932  1.00  0.00     0.039 C 
ENDROOT
BRANCH   1   4
ATOM      4  C   UNL     1       8.220  23.388  56.359  1.00  0.00     0.034 C 
BRANCH   4   5
ATOM      5  C   UNL     1       8.319  24.273  55.110  1.00  0.00     0.032 C 
BRANCH   5   6
ATOM      6  C   UNL     1       7.419  25.477  55.234  1.00  0.00    -0.028 C 
ATOM      7  C   UNL     1       5.499  26.926  54.736  1.00  0.00     0.039 C 
ATOM      8  C   UNL     1       6.327  25.695  54.470  1.00  0.00    -0.080 C 
ATOM      9  C   UNL     1       5.927  24.757  53.356  1.00  0.00     0.039 C 
ENDBRANCH   5   6
ENDBRANCH   4   5
ENDBRANCH   1   4
BRANCH   2  10
ATOM     10  C   UNL     1      10.484  20.399  57.422  1.00  0.00     0.035 C 
BRANCH  10  11
ATOM     11  C   UNL     1       9.769  19.068  57.683  1.00  0.00     0.079 C 
BRANCH  11  12
ATOM     12  C   UNL     1      10.047  18.551  59.073  1.00  0.00     0.130 C 
ATOM     13  O   UNL     1      11.168  18.157  59.355  1.00  0.00    -0.300 OA
ATOM     14  C   UNL     1       8.970  18.501  60.116  1.00  0.00     0.087 C 
ENDBRANCH  11  12
ENDBRANCH  10  11
ENDBRANCH   2  10
TORSDOF 6
ENDMDL
