MODEL 1
REMARK VINA RESULT:    -3.697      0.000      0.000
REMARK INTER + INTRA:          -4.799
REMARK INTER:                  -4.562
REMARK INTRA:                  -0.237
REMARK UNBOUND:                -0.237
REMARK SMILES CCCCC=CC(C)=O
REMARK SMILES IDX 4 1 3 2 2 3 1 4 5 5 6 6 7 7 9 8 8 9
REMARK H PARENT
REMARK Flexibility Score: inf
ROOT
ATOM      1  C   UNL     1      -6.244   4.492   2.213  1.00  0.00     0.027 C 
ENDROOT
BRANCH   1   2
ATOM      2  C   UNL     1      -5.356   4.159   1.006  1.00  0.00     0.004 C 
BRANCH   2   3
ATOM      3  C   UNL     1      -5.684   2.788   0.394  1.00  0.00    -0.003 C 
ATOM      4  C   UNL     1      -7.126   2.354   0.653  1.00  0.00     0.004 C 
ENDBRANCH   2   3
ENDBRANCH   1   2
BRANCH   1   5
ATOM      5  C   UNL     1      -7.122   5.677   1.930  1.00  0.00    -0.023 C 
ATOM      6  C   UNL     1      -6.946   6.434   0.842  1.00  0.00     0.042 C 
BRANCH   6   7
ATOM      7  C   UNL     1      -7.805   7.594   0.538  1.00  0.00     0.152 C 
ATOM      8  O   UNL     1      -7.592   8.304  -0.481  1.00  0.00    -0.295 OA
ATOM      9  C   UNL     1      -8.942   7.930   1.447  1.00  0.00     0.093 C 
ENDBRANCH   6   7
ENDBRANCH   1   5
TORSDOF 4
ENDMDL
MODEL 2
REMARK VINA RESULT:    -3.691      1.636      2.536
REMARK INTER + INTRA:          -4.792
REMARK INTER:                  -4.520
REMARK INTRA:                  -0.272
REMARK UNBOUND:                -0.237
REMARK SMILES CCCCC=CC(C)=O
REMARK SMILES IDX 4 1 3 2 2 3 1 4 5 5 6 6 7 7 9 8 8 9
REMARK H PARENT
REMARK Flexibility Score: inf
ROOT
ATOM      1  C   UNL     1      -7.339   6.672   1.890  1.00  0.00     0.027 C 
ENDROOT
BRANCH   1   2
ATOM      2  C   UNL     1      -7.392   5.156   1.647  1.00  0.00     0.004 C 
BRANCH   2   3
ATOM      3  C   UNL     1      -6.097   4.446   2.074  1.00  0.00    -0.003 C 
ATOM      4  C   UNL     1      -5.162   4.165   0.899  1.00  0.00     0.004 C 
ENDBRANCH   2   3
ENDBRANCH   1   2
BRANCH   1   5
ATOM      5  C   UNL     1      -7.461   7.433   0.601  1.00  0.00    -0.023 C 
ATOM      6  C   UNL     1      -8.027   6.887  -0.481  1.00  0.00     0.042 C 
BRANCH   6   7
ATOM      7  C   UNL     1      -8.169   7.622  -1.753  1.00  0.00     0.152 C 
ATOM      8  O   UNL     1      -8.261   7.003  -2.847  1.00  0.00    -0.295 OA
ATOM      9  C   UNL     1      -8.206   9.115  -1.744  1.00  0.00     0.093 C 
ENDBRANCH   6   7
ENDBRANCH   1   5
TORSDOF 4
ENDMDL
MODEL 3
REMARK VINA RESULT:    -3.647     13.764     14.993
REMARK INTER + INTRA:          -4.737
REMARK INTER:                  -4.555
REMARK INTRA:                  -0.182
REMARK UNBOUND:                -0.237
REMARK SMILES CCCCC=CC(C)=O
REMARK SMILES IDX 4 1 3 2 2 3 1 4 5 5 6 6 7 7 9 8 8 9
REMARK H PARENT
REMARK Flexibility Score: inf
ROOT
ATOM      1  C   UNL     1       4.855  -0.560  -1.913  1.00  0.00     0.027 C 
ENDROOT
BRANCH   1   2
ATOM      2  C   UNL     1       5.664  -0.829  -0.636  1.00  0.00     0.004 C 
BRANCH   2   3
ATOM      3  C   UNL     1       4.811  -0.715   0.637  1.00  0.00    -0.003 C 
ATOM      4  C   UNL     1       5.180  -1.757   1.693  1.00  0.00     0.004 C 
ENDBRANCH   2   3
ENDBRANCH   1   2
BRANCH   1   5
ATOM      5  C   UNL     1       4.575  -1.835  -2.656  1.00  0.00    -0.023 C 
ATOM      6  C   UNL     1       4.464  -3.005  -2.019  1.00  0.00     0.042 C 
BRANCH   6   7
ATOM      7  C   UNL     1       4.176  -4.267  -2.727  1.00  0.00     0.152 C 
ATOM      8  O   UNL     1       2.992  -4.585  -3.021  1.00  0.00    -0.295 OA
ATOM      9  C   UNL     1       5.300  -5.177  -3.103  1.00  0.00     0.093 C 
ENDBRANCH   6   7
ENDBRANCH   1   5
TORSDOF 4
ENDMDL
MODEL 4
REMARK VINA RESULT:    -3.606     13.975     14.950
REMARK INTER + INTRA:          -4.687
REMARK INTER:                  -4.480
REMARK INTRA:                  -0.207
REMARK UNBOUND:                -0.237
REMARK SMILES CCCCC=CC(C)=O
REMARK SMILES IDX 4 1 3 2 2 3 1 4 5 5 6 6 7 7 9 8 8 9
REMARK H PARENT
REMARK Flexibility Score: inf
ROOT
ATOM      1  C   UNL     1       4.977  -0.615  -1.771  1.00  0.00     0.027 C 
ENDROOT
BRANCH   1   2
ATOM      2  C   UNL     1       5.640  -1.103  -0.475  1.00  0.00     0.004 C 
BRANCH   2   3
ATOM      3  C   UNL     1       4.810  -0.765   0.774  1.00  0.00    -0.003 C 
ATOM      4  C   UNL     1       5.165  -1.640   1.975  1.00  0.00     0.004 C 
ENDBRANCH   2   3
ENDBRANCH   1   2
BRANCH   1   5
ATOM      5  C   UNL     1       4.765  -1.749  -2.733  1.00  0.00    -0.023 C 
ATOM      6  C   UNL     1       4.353  -2.951  -2.315  1.00  0.00     0.042 C 
BRANCH   6   7
ATOM      7  C   UNL     1       4.125  -4.075  -3.244  1.00  0.00     0.152 C 
ATOM      8  O   UNL     1       4.390  -5.258  -2.900  1.00  0.00    -0.295 OA
ATOM      9  C   UNL     1       3.572  -3.807  -4.606  1.00  0.00     0.093 C 
ENDBRANCH   6   7
ENDBRANCH   1   5
TORSDOF 4
ENDMDL
MODEL 5
REMARK VINA RESULT:    -3.531     14.186     15.585
REMARK INTER + INTRA:          -4.594
REMARK INTER:                  -4.278
REMARK INTRA:                  -0.316
REMARK UNBOUND:                -0.237
REMARK SMILES CCCCC=CC(C)=O
REMARK SMILES IDX 4 1 3 2 2 3 1 4 5 5 6 6 7 7 9 8 8 9
REMARK H PARENT
REMARK Flexibility Score: inf
ROOT
ATOM      1  C   UNL     1       5.135  -0.666  -1.497  1.00  0.00     0.027 C 
ENDROOT
BRANCH   1   2
ATOM      2  C   UNL     1       6.401  -0.931  -0.669  1.00  0.00     0.004 C 
BRANCH   2   3
ATOM      3  C   UNL     1       7.609  -1.304  -1.543  1.00  0.00    -0.003 C 
ATOM      4  C   UNL     1       8.205  -2.664  -1.180  1.00  0.00     0.004 C 
ENDBRANCH   2   3
ENDBRANCH   1   2
BRANCH   1   5
ATOM      5  C   UNL     1       4.789  -1.851  -2.353  1.00  0.00    -0.023 C 
ATOM      6  C   UNL     1       4.337  -2.990  -1.818  1.00  0.00     0.042 C 
BRANCH   6   7
ATOM      7  C   UNL     1       3.978  -4.161  -2.641  1.00  0.00     0.152 C 
ATOM      8  O   UNL     1       2.815  -4.645  -2.601  1.00  0.00    -0.295 OA
ATOM      9  C   UNL     1       5.004  -4.780  -3.534  1.00  0.00     0.093 C 
ENDBRANCH   6   7
ENDBRANCH   1   5
TORSDOF 4
ENDMDL
MODEL 6
REMARK VINA RESULT:    -3.453     14.115     15.254
REMARK INTER + INTRA:          -4.498
REMARK INTER:                  -4.273
REMARK INTRA:                  -0.226
REMARK UNBOUND:                -0.237
REMARK SMILES CCCCC=CC(C)=O
REMARK SMILES IDX 4 1 3 2 2 3 1 4 5 5 6 6 7 7 9 8 8 9
REMARK H PARENT
REMARK Flexibility Score: inf
ROOT
ATOM      1  C   UNL     1       6.707  -1.931  -2.071  1.00  0.00     0.027 C 
ENDROOT
BRANCH   1   2
ATOM      2  C   UNL     1       6.525  -0.859  -0.986  1.00  0.00     0.004 C 
BRANCH   2   3
ATOM      3  C   UNL     1       5.116  -0.876  -0.372  1.00  0.00    -0.003 C 
ATOM      4  C   UNL     1       5.115  -1.304   1.095  1.00  0.00     0.004 C 
ENDBRANCH   2   3
ENDBRANCH   1   2
BRANCH   1   5
ATOM      5  C   UNL     1       5.386  -2.334  -2.663  1.00  0.00    -0.023 C 
ATOM      6  C   UNL     1       5.093  -3.614  -2.912  1.00  0.00     0.042 C 
BRANCH   6   7
ATOM      7  C   UNL     1       3.797  -4.032  -3.480  1.00  0.00     0.152 C 
ATOM      8  O   UNL     1       2.949  -4.640  -2.772  1.00  0.00    -0.295 OA
ATOM      9  C   UNL     1       3.485  -3.731  -4.910  1.00  0.00     0.093 C 
ENDBRANCH   6   7
ENDBRANCH   1   5
TORSDOF 4
ENDMDL
MODEL 7
REMARK VINA RESULT:    -3.407     13.933     15.249
REMARK INTER + INTRA:          -4.441
REMARK INTER:                  -4.174
REMARK INTRA:                  -0.267
REMARK UNBOUND:                -0.237
REMARK SMILES CCCCC=CC(C)=O
REMARK SMILES IDX 4 1 3 2 2 3 1 4 5 5 6 6 7 7 9 8 8 9
REMARK H PARENT
REMARK Flexibility Score: inf
ROOT
ATOM      1  C   UNL     1       6.024  -1.521  -2.246  1.00  0.00     0.027 C 
ENDROOT
BRANCH   1   2
ATOM      2  C   UNL     1       4.878  -0.617  -1.769  1.00  0.00     0.004 C 
BRANCH   2   3
ATOM      3  C   UNL     1       4.679  -0.672  -0.246  1.00  0.00    -0.003 C 
ATOM      4  C   UNL     1       5.640  -1.641   0.441  1.00  0.00     0.004 C 
ENDBRANCH   2   3
ENDBRANCH   1   2
BRANCH   1   5
ATOM      5  C   UNL     1       5.599  -2.364  -3.414  1.00  0.00    -0.023 C 
ATOM      6  C   UNL     1       4.467  -3.076  -3.387  1.00  0.00     0.042 C 
BRANCH   6   7
ATOM      7  C   UNL     1       4.025  -3.900  -4.528  1.00  0.00     0.152 C 
ATOM      8  O   UNL     1       4.482  -5.063  -4.699  1.00  0.00    -0.295 OA
ATOM      9  C   UNL     1       3.023  -3.352  -5.492  1.00  0.00     0.093 C 
ENDBRANCH   6   7
ENDBRANCH   1   5
TORSDOF 4
ENDMDL
MODEL 8
REMARK VINA RESULT:    -3.375     14.051     15.901
REMARK INTER + INTRA:          -4.401
REMARK INTER:                  -4.204
REMARK INTRA:                  -0.198
REMARK UNBOUND:                -0.237
REMARK SMILES CCCCC=CC(C)=O
REMARK SMILES IDX 4 1 3 2 2 3 1 4 5 5 6 6 7 7 9 8 8 9
REMARK H PARENT
REMARK Flexibility Score: inf
ROOT
ATOM      1  C   UNL     1       4.905  -0.729  -0.871  1.00  0.00     0.027 C 
ENDROOT
BRANCH   1   2
ATOM      2  C   UNL     1       4.587  -0.709   0.631  1.00  0.00     0.004 C 
BRANCH   2   3
ATOM      3  C   UNL     1       5.295  -1.837   1.399  1.00  0.00    -0.003 C 
ATOM      4  C   UNL     1       4.881  -1.904   2.868  1.00  0.00     0.004 C 
ENDBRANCH   2   3
ENDBRANCH   1   2
BRANCH   1   5
ATOM      5  C   UNL     1       6.367  -0.978  -1.112  1.00  0.00    -0.023 C 
ATOM      6  C   UNL     1       6.784  -1.863  -2.024  1.00  0.00     0.042 C 
BRANCH   6   7
ATOM      7  C   UNL     1       8.214  -2.112  -2.286  1.00  0.00     0.152 C 
ATOM      8  O   UNL     1       8.584  -3.141  -2.914  1.00  0.00    -0.295 OA
ATOM      9  C   UNL     1       9.236  -1.134  -1.804  1.00  0.00     0.093 C 
ENDBRANCH   6   7
ENDBRANCH   1   5
TORSDOF 4
ENDMDL
MODEL 9
REMARK VINA RESULT:    -3.334     14.118     15.617
REMARK INTER + INTRA:          -4.351
REMARK INTER:                  -4.055
REMARK INTRA:                  -0.297
REMARK UNBOUND:                -0.237
REMARK SMILES CCCCC=CC(C)=O
REMARK SMILES IDX 4 1 3 2 2 3 1 4 5 5 6 6 7 7 9 8 8 9
REMARK H PARENT
REMARK Flexibility Score: inf
ROOT
ATOM      1  C   UNL     1       4.551  -0.818  -1.315  1.00  0.00     0.027 C 
ENDROOT
BRANCH   1   2
ATOM      2  C   UNL     1       5.680  -0.822  -0.274  1.00  0.00     0.004 C 
BRANCH   2   3
ATOM      3  C   UNL     1       5.330  -1.652   0.972  1.00  0.00    -0.003 C 
ATOM      4  C   UNL     1       5.591  -3.145   0.781  1.00  0.00     0.004 C 
ENDBRANCH   2   3
ENDBRANCH   1   2
BRANCH   1   5
ATOM      5  C   UNL     1       5.022  -1.373  -2.629  1.00  0.00    -0.023 C 
ATOM      6  C   UNL     1       6.265  -1.840  -2.784  1.00  0.00     0.042 C 
BRANCH   6   7
ATOM      7  C   UNL     1       6.744  -2.401  -4.062  1.00  0.00     0.152 C 
ATOM      8  O   UNL     1       7.911  -2.162  -4.474  1.00  0.00    -0.295 OA
ATOM      9  C   UNL     1       5.836  -3.264  -4.877  1.00  0.00     0.093 C 
ENDBRANCH   6   7
ENDBRANCH   1   5
TORSDOF 4
ENDMDL
