MODEL 1
REMARK VINA RESULT:    84.018      0.000      0.000
REMARK INTER + INTRA:          88.930
REMARK INTER:                  88.930
REMARK INTRA:                   0.000
REMARK UNBOUND:                 0.000
REMARK SMILES CC1(C)[C@H](O)CC[C@@]2(C)[C@H]1CC[C@@]1(C)[C@H]2C=CC2=C(O)C(=O)C(=O)[C@@]21C
REMARK SMILES IDX 1 1 2 2 10 3 11 4 12 5 13 6 15 7 8 8 7 9 6 10 4 11 9 12
REMARK SMILES IDX 16 13 17 14 18 15 19 16 21 17 22 18 23 19 24 20 25 21 26 22
REMARK SMILES IDX 14 23 3 24 5 25 20 27
REMARK H PARENT 5 26 20 28
REMARK Flexibility Score: inf
ROOT
ATOM      1  C   UNL     1      19.613  16.806  16.680  1.00  0.00     0.014 C 
ATOM      2  C   UNL     1      18.287  16.458  17.422  1.00  0.00    -0.006 C 
ATOM      3  C   UNL     1      18.343  14.945  17.876  1.00  0.00     0.004 C 
ATOM      4  C   UNL     1      18.237  13.859  16.788  1.00  0.00     0.005 C 
ATOM      5  C   UNL     1      18.963  12.575  17.255  1.00  0.00     0.009 C 
ATOM      6  C   UNL     1      18.744  12.201  18.774  1.00  0.00    -0.009 C 
ATOM      7  C   UNL     1      17.518  12.997  19.375  1.00  0.00     0.025 C 
ATOM      8  C   UNL     1      17.480  14.573  19.137  1.00  0.00    -0.022 C 
ATOM      9  C   UNL     1      18.032  15.392  20.352  1.00  0.00     0.010 C 
ATOM     10  C   UNL     1      18.702  16.741  19.973  1.00  0.00     0.033 C 
ATOM     11  C   UNL     1      18.135  17.393  18.692  1.00  0.00     0.120 C 
ATOM     12  C   UNL     1      15.969  14.932  18.950  1.00  0.00     0.012 C 
ATOM     13  C   UNL     1      17.170  12.564  20.799  1.00  0.00    -0.022 C 
ATOM     14  C   UNL     1      17.431  11.330  21.258  1.00  0.00     0.005 C 
ATOM     15  C   UNL     1      18.203  10.382  20.432  1.00  0.00     0.012 C 
ATOM     16  C   UNL     1      18.995   9.414  20.906  1.00  0.00     0.171 C 
ATOM     17  C   UNL     1      19.876   8.950  19.856  1.00  0.00     0.264 C 
ATOM     18  O   UNL     1      20.754   8.055  19.964  1.00  0.00    -0.282 OA
ATOM     19  C   UNL     1      19.595   9.735  18.674  1.00  0.00     0.217 C 
ATOM     20  O   UNL     1      20.201   9.632  17.575  1.00  0.00    -0.289 OA
ATOM     21  C   UNL     1      18.430  10.649  18.954  1.00  0.00     0.069 C 
ATOM     22  C   UNL     1      17.191  10.102  18.189  1.00  0.00     0.026 C 
ATOM     23  C   UNL     1      20.051  12.542  19.575  1.00  0.00     0.013 C 
ATOM     24  C   UNL     1      17.132  16.730  16.426  1.00  0.00     0.014 C 
ENDROOT
BRANCH  11  25
ATOM     25  O   UNL     1      18.777  18.631  18.507  1.00  0.00    -0.393 OA
ATOM     26  H   UNL     1      19.494  18.491  17.835  1.00  0.00     0.210 HD
ENDBRANCH  11  25
BRANCH  16  27
ATOM     27  O   UNL     1      19.051   8.967  22.226  1.00  0.00    -0.504 OA
ATOM     28  H   UNL     1      19.837   9.165  22.831  1.00  0.00     0.293 HD
ENDBRANCH  16  27
TORSDOF 2
ENDMDL
