MODEL 1
REMARK VINA RESULT:    17.492      0.000      0.000
REMARK INTER + INTRA:          24.281
REMARK INTER:                  24.650
REMARK INTRA:                  -0.368
REMARK UNBOUND:                -0.368
REMARK SMILES O=C(C=Cc1ccc(O)cc1)CC(=O)C=Cc1ccc(O)cc1
REMARK SMILES IDX 12 1 2 2 1 3 3 4 4 5 5 6 6 7 7 8 8 9 11 10 10 11 9 12 13 14
REMARK SMILES IDX 14 15 15 16 16 17 17 18 18 19 23 20 19 21 22 22 20 23 21 24
REMARK H PARENT 9 13 21 25
REMARK Flexibility Score: inf
ROOT
ATOM      1  C   UNL     1      18.937 -12.470 -16.579  1.00  0.00     0.160 C 
ENDROOT
BRANCH   1   2
ATOM      2  C   UNL     1      18.726 -12.770 -15.126  1.00  0.00     0.163 C 
ATOM      3  O   UNL     1      18.768 -13.968 -14.737  1.00  0.00    -0.294 OA
BRANCH   2   4
ATOM      4  C   UNL     1      18.592 -11.657 -14.159  1.00  0.00     0.048 C 
ATOM      5  C   UNL     1      17.475 -11.337 -13.487  1.00  0.00     0.012 C 
BRANCH   5   6
ATOM      6  C   UNL     1      16.138 -11.916 -13.727  1.00  0.00    -0.025 A 
ATOM      7  C   UNL     1      15.786 -13.118 -13.094  1.00  0.00     0.012 A 
ATOM      8  C   UNL     1      14.509 -13.660 -13.269  1.00  0.00     0.047 A 
ATOM      9  C   UNL     1      13.564 -12.996 -14.059  1.00  0.00     0.115 A 
ATOM     10  C   UNL     1      15.176 -11.236 -14.495  1.00  0.00     0.012 A 
ATOM     11  C   UNL     1      13.900 -11.780 -14.669  1.00  0.00     0.047 A 
BRANCH   9  12
ATOM     12  O   UNL     1      12.297 -13.548 -14.225  1.00  0.00    -0.508 OA
ATOM     13  H   UNL     1      12.098 -14.204 -14.972  1.00  0.00     0.293 HD
ENDBRANCH   9  12
ENDBRANCH   5   6
ENDBRANCH   2   4
ENDBRANCH   1   2
BRANCH   1  14
ATOM     14  C   UNL     1      20.395 -12.559 -16.907  1.00  0.00     0.163 C 
ATOM     15  O   UNL     1      21.243 -12.412 -15.985  1.00  0.00    -0.294 OA
BRANCH  14  16
ATOM     16  C   UNL     1      20.828 -12.816 -18.297  1.00  0.00     0.048 C 
ATOM     17  C   UNL     1      21.938 -12.318 -18.863  1.00  0.00     0.012 C 
BRANCH  17  18
ATOM     18  C   UNL     1      22.806 -11.282 -18.264  1.00  0.00    -0.025 A 
ATOM     19  C   UNL     1      23.989 -11.623 -17.584  1.00  0.00     0.012 A 
ATOM     20  C   UNL     1      22.394  -9.942 -18.290  1.00  0.00     0.012 A 
ATOM     21  C   UNL     1      24.772 -10.630 -16.987  1.00  0.00     0.047 A 
ATOM     22  C   UNL     1      23.178  -8.949 -17.693  1.00  0.00     0.047 A 
ATOM     23  C   UNL     1      24.370  -9.292 -17.043  1.00  0.00     0.115 A 
BRANCH  23  24
ATOM     24  O   UNL     1      25.160  -8.312 -16.445  1.00  0.00    -0.508 OA
ATOM     25  H   UNL     1      26.171  -8.331 -16.515  1.00  0.00     0.293 HD
ENDBRANCH  23  24
ENDBRANCH  17  18
ENDBRANCH  14  16
ENDBRANCH   1  14
TORSDOF 8
ENDMDL
MODEL 2
REMARK VINA RESULT:    17.737      0.063      8.848
REMARK INTER + INTRA:          24.627
REMARK INTER:                  24.988
REMARK INTRA:                  -0.361
REMARK UNBOUND:                -0.368
REMARK SMILES O=C(C=Cc1ccc(O)cc1)CC(=O)C=Cc1ccc(O)cc1
REMARK SMILES IDX 12 1 2 2 1 3 3 4 4 5 5 6 6 7 7 8 8 9 11 10 10 11 9 12 13 14
REMARK SMILES IDX 14 15 15 16 16 17 17 18 18 19 23 20 19 21 22 22 20 23 21 24
REMARK H PARENT 9 13 21 25
REMARK Flexibility Score: inf
ROOT
ATOM      1  C   UNL     1      18.913 -12.562 -16.582  1.00  0.00     0.160 C 
ENDROOT
BRANCH   1   2
ATOM      2  C   UNL     1      20.373 -12.536 -16.917  1.00  0.00     0.163 C 
ATOM      3  O   UNL     1      21.212 -12.411 -15.985  1.00  0.00    -0.294 OA
BRANCH   2   4
ATOM      4  C   UNL     1      20.810 -12.777 -18.311  1.00  0.00     0.048 C 
ATOM      5  C   UNL     1      21.920 -12.278 -18.877  1.00  0.00     0.012 C 
BRANCH   5   6
ATOM      6  C   UNL     1      22.804 -11.258 -18.275  1.00  0.00    -0.025 A 
ATOM      7  C   UNL     1      22.400  -9.914 -18.276  1.00  0.00     0.012 A 
ATOM      8  C   UNL     1      23.198  -8.938 -17.671  1.00  0.00     0.047 A 
ATOM      9  C   UNL     1      24.394  -9.297 -17.042  1.00  0.00     0.115 A 
ATOM     10  C   UNL     1      23.991 -11.619 -17.616  1.00  0.00     0.012 A 
ATOM     11  C   UNL     1      24.787 -10.642 -17.012  1.00  0.00     0.047 A 
BRANCH   9  12
ATOM     12  O   UNL     1      25.180  -8.314 -16.445  1.00  0.00    -0.508 OA
ATOM     13  H   UNL     1      26.129  -8.504 -16.144  1.00  0.00     0.293 HD
ENDBRANCH   9  12
ENDBRANCH   5   6
ENDBRANCH   2   4
ENDBRANCH   1   2
BRANCH   1  14
ATOM     14  C   UNL     1      18.734 -12.839 -15.122  1.00  0.00     0.163 C 
ATOM     15  O   UNL     1      18.656 -14.034 -14.727  1.00  0.00    -0.294 OA
BRANCH  14  16
ATOM     16  C   UNL     1      18.649 -11.719 -14.160  1.00  0.00     0.048 C 
ATOM     17  C   UNL     1      17.549 -11.378 -13.472  1.00  0.00     0.012 C 
BRANCH  17  18
ATOM     18  C   UNL     1      16.196 -11.932 -13.699  1.00  0.00    -0.025 A 
ATOM     19  C   UNL     1      15.248 -11.247 -14.480  1.00  0.00     0.012 A 
ATOM     20  C   UNL     1      15.821 -13.114 -13.045  1.00  0.00     0.012 A 
ATOM     21  C   UNL     1      13.961 -11.768 -14.644  1.00  0.00     0.047 A 
ATOM     22  C   UNL     1      14.532 -13.634 -13.210  1.00  0.00     0.047 A 
ATOM     23  C   UNL     1      13.602 -12.963 -14.013  1.00  0.00     0.115 A 
BRANCH  23  24
ATOM     24  O   UNL     1      12.316 -13.472 -14.187  1.00  0.00    -0.508 OA
ATOM     25  H   UNL     1      12.047 -14.371 -13.806  1.00  0.00     0.293 HD
ENDBRANCH  23  24
ENDBRANCH  17  18
ENDBRANCH  14  16
ENDBRANCH   1  14
TORSDOF 8
ENDMDL
MODEL 3
REMARK VINA RESULT:    18.772      2.655      3.331
REMARK INTER + INTRA:          26.086
REMARK INTER:                  25.527
REMARK INTRA:                   0.560
REMARK UNBOUND:                -0.368
REMARK SMILES O=C(C=Cc1ccc(O)cc1)CC(=O)C=Cc1ccc(O)cc1
REMARK SMILES IDX 12 1 2 2 1 3 3 4 4 5 5 6 6 7 7 8 8 9 11 10 10 11 9 12 13 14
REMARK SMILES IDX 14 15 15 16 16 17 17 18 18 19 23 20 19 21 22 22 20 23 21 24
REMARK H PARENT 9 13 21 25
REMARK Flexibility Score: inf
ROOT
ATOM      1  C   UNL     1      19.292 -13.103 -16.614  1.00  0.00     0.160 C 
ENDROOT
BRANCH   1   2
ATOM      2  C   UNL     1      19.259 -13.156 -15.117  1.00  0.00     0.163 C 
ATOM      3  O   UNL     1      18.329 -12.565 -14.505  1.00  0.00    -0.294 OA
BRANCH   2   4
ATOM      4  C   UNL     1      20.239 -13.994 -14.390  1.00  0.00     0.048 C 
ATOM      5  C   UNL     1      20.119 -15.311 -14.160  1.00  0.00     0.012 C 
BRANCH   5   6
ATOM      6  C   UNL     1      18.912 -16.120 -14.425  1.00  0.00    -0.025 A 
ATOM      7  C   UNL     1      19.045 -17.361 -15.066  1.00  0.00     0.012 A 
ATOM      8  C   UNL     1      17.922 -18.165 -15.286  1.00  0.00     0.047 A 
ATOM      9  C   UNL     1      16.661 -17.748 -14.848  1.00  0.00     0.115 A 
ATOM     10  C   UNL     1      17.648 -15.718 -13.960  1.00  0.00     0.012 A 
ATOM     11  C   UNL     1      16.527 -16.523 -14.181  1.00  0.00     0.047 A 
BRANCH   9  12
ATOM     12  O   UNL     1      15.551 -18.559 -15.075  1.00  0.00    -0.508 OA
ATOM     13  H   UNL     1      15.277 -19.279 -14.417  1.00  0.00     0.293 HD
ENDBRANCH   9  12
ENDBRANCH   5   6
ENDBRANCH   2   4
ENDBRANCH   1   2
BRANCH   1  14
ATOM     14  C   UNL     1      20.651 -12.678 -17.076  1.00  0.00     0.163 C 
ATOM     15  O   UNL     1      21.495 -12.284 -16.225  1.00  0.00    -0.294 OA
BRANCH  14  16
ATOM     16  C   UNL     1      20.992 -12.721 -18.513  1.00  0.00     0.048 C 
ATOM     17  C   UNL     1      22.017 -12.066 -19.082  1.00  0.00     0.012 C 
BRANCH  17  18
ATOM     18  C   UNL     1      22.852 -11.047 -18.410  1.00  0.00    -0.025 A 
ATOM     19  C   UNL     1      24.034 -11.400 -17.734  1.00  0.00     0.012 A 
ATOM     20  C   UNL     1      22.408  -9.717 -18.365  1.00  0.00     0.012 A 
ATOM     21  C   UNL     1      24.784 -10.426 -17.069  1.00  0.00     0.047 A 
ATOM     22  C   UNL     1      23.159  -8.743 -17.699  1.00  0.00     0.047 A 
ATOM     23  C   UNL     1      24.351  -9.096 -17.052  1.00  0.00     0.115 A 
BRANCH  23  24
ATOM     24  O   UNL     1      25.109  -8.135 -16.387  1.00  0.00    -0.508 OA
ATOM     25  H   UNL     1      24.673  -7.407 -15.832  1.00  0.00     0.293 HD
ENDBRANCH  23  24
ENDBRANCH  17  18
ENDBRANCH  14  16
ENDBRANCH   1  14
TORSDOF 8
ENDMDL
MODEL 4
REMARK VINA RESULT:    18.796      2.642      8.739
REMARK INTER + INTRA:          26.120
REMARK INTER:                  25.623
REMARK INTRA:                   0.497
REMARK UNBOUND:                -0.368
REMARK SMILES O=C(C=Cc1ccc(O)cc1)CC(=O)C=Cc1ccc(O)cc1
REMARK SMILES IDX 12 1 2 2 1 3 3 4 4 5 5 6 6 7 7 8 8 9 11 10 10 11 9 12 13 14
REMARK SMILES IDX 14 15 15 16 16 17 17 18 18 19 23 20 19 21 22 22 20 23 21 24
REMARK H PARENT 9 13 21 25
REMARK Flexibility Score: inf
ROOT
ATOM      1  C   UNL     1      19.272 -13.075 -16.597  1.00  0.00     0.160 C 
ENDROOT
BRANCH   1   2
ATOM      2  C   UNL     1      20.640 -12.646 -17.031  1.00  0.00     0.163 C 
ATOM      3  O   UNL     1      21.489 -12.331 -16.154  1.00  0.00    -0.294 OA
BRANCH   2   4
ATOM      4  C   UNL     1      21.011 -12.714 -18.462  1.00  0.00     0.048 C 
ATOM      5  C   UNL     1      22.041 -12.069 -19.032  1.00  0.00     0.012 C 
BRANCH   5   6
ATOM      6  C   UNL     1      22.872 -11.038 -18.378  1.00  0.00    -0.025 A 
ATOM      7  C   UNL     1      22.417  -9.711 -18.340  1.00  0.00     0.012 A 
ATOM      8  C   UNL     1      23.164  -8.727 -17.686  1.00  0.00     0.047 A 
ATOM      9  C   UNL     1      24.362  -9.062 -17.045  1.00  0.00     0.115 A 
ATOM     10  C   UNL     1      24.061 -11.376 -17.708  1.00  0.00     0.012 A 
ATOM     11  C   UNL     1      24.807 -10.391 -17.055  1.00  0.00     0.047 A 
BRANCH   9  12
ATOM     12  O   UNL     1      25.097  -8.071 -16.399  1.00  0.00    -0.508 OA
ATOM     13  H   UNL     1      25.599  -8.260 -15.539  1.00  0.00     0.293 HD
ENDBRANCH   9  12
ENDBRANCH   5   6
ENDBRANCH   2   4
ENDBRANCH   1   2
BRANCH   1  14
ATOM     14  C   UNL     1      19.223 -13.180 -15.104  1.00  0.00     0.163 C 
ATOM     15  O   UNL     1      18.328 -12.556 -14.473  1.00  0.00    -0.294 OA
BRANCH  14  16
ATOM     16  C   UNL     1      20.216 -14.007 -14.387  1.00  0.00     0.048 C 
ATOM     17  C   UNL     1      20.105 -15.326 -14.167  1.00  0.00     0.012 C 
BRANCH  17  18
ATOM     18  C   UNL     1      18.893 -16.133 -14.428  1.00  0.00    -0.025 A 
ATOM     19  C   UNL     1      17.629 -15.721 -13.970  1.00  0.00     0.012 A 
ATOM     20  C   UNL     1      19.022 -17.378 -15.060  1.00  0.00     0.012 A 
ATOM     21  C   UNL     1      16.504 -16.522 -14.190  1.00  0.00     0.047 A 
ATOM     22  C   UNL     1      17.895 -18.178 -15.280  1.00  0.00     0.047 A 
ATOM     23  C   UNL     1      16.634 -17.750 -14.847  1.00  0.00     0.115 A 
BRANCH  23  24
ATOM     24  O   UNL     1      15.505 -18.538 -15.061  1.00  0.00    -0.508 OA
ATOM     25  H   UNL     1      15.581 -19.501 -15.367  1.00  0.00     0.293 HD
ENDBRANCH  23  24
ENDBRANCH  17  18
ENDBRANCH  14  16
ENDBRANCH   1  14
TORSDOF 8
ENDMDL
MODEL 5
REMARK VINA RESULT:    19.005      3.119      3.895
REMARK INTER + INTRA:          26.415
REMARK INTER:                  25.820
REMARK INTRA:                   0.595
REMARK UNBOUND:                -0.368
REMARK SMILES O=C(C=Cc1ccc(O)cc1)CC(=O)C=Cc1ccc(O)cc1
REMARK SMILES IDX 12 1 2 2 1 3 3 4 4 5 5 6 6 7 7 8 8 9 11 10 10 11 9 12 13 14
REMARK SMILES IDX 14 15 15 16 16 17 17 18 18 19 23 20 19 21 22 22 20 23 21 24
REMARK H PARENT 9 13 21 25
REMARK Flexibility Score: inf
ROOT
ATOM      1  C   UNL     1      20.374 -12.378 -15.181  1.00  0.00     0.160 C 
ENDROOT
BRANCH   1   2
ATOM      2  C   UNL     1      19.750 -13.681 -14.783  1.00  0.00     0.163 C 
ATOM      3  O   UNL     1      18.555 -13.913 -15.111  1.00  0.00    -0.294 OA
BRANCH   2   4
ATOM      4  C   UNL     1      20.575 -14.718 -14.122  1.00  0.00     0.048 C 
ATOM      5  C   UNL     1      20.248 -16.014 -14.001  1.00  0.00     0.012 C 
BRANCH   5   6
ATOM      6  C   UNL     1      18.936 -16.601 -14.339  1.00  0.00    -0.025 A 
ATOM      7  C   UNL     1      18.883 -17.735 -15.163  1.00  0.00     0.012 A 
ATOM      8  C   UNL     1      17.655 -18.336 -15.459  1.00  0.00     0.047 A 
ATOM      9  C   UNL     1      16.472 -17.824 -14.916  1.00  0.00     0.115 A 
ATOM     10  C   UNL     1      17.748 -16.107 -13.772  1.00  0.00     0.012 A 
ATOM     11  C   UNL     1      16.522 -16.709 -14.068  1.00  0.00     0.047 A 
BRANCH   9  12
ATOM     12  O   UNL     1      15.256 -18.431 -15.220  1.00  0.00    -0.508 OA
ATOM     13  H   UNL     1      15.175 -19.110 -15.968  1.00  0.00     0.293 HD
ENDBRANCH   9  12
ENDBRANCH   5   6
ENDBRANCH   2   4
ENDBRANCH   1   2
BRANCH   1  14
ATOM     14  C   UNL     1      20.982 -12.504 -16.543  1.00  0.00     0.163 C 
ATOM     15  O   UNL     1      20.247 -12.376 -17.560  1.00  0.00    -0.294 OA
BRANCH  14  16
ATOM     16  C   UNL     1      22.428 -12.775 -16.686  1.00  0.00     0.048 C 
ATOM     17  C   UNL     1      23.333 -11.901 -17.153  1.00  0.00     0.012 C 
BRANCH  17  18
ATOM     18  C   UNL     1      23.014 -10.600 -17.781  1.00  0.00    -0.025 A 
ATOM     19  C   UNL     1      23.045  -9.405 -17.040  1.00  0.00     0.012 A 
ATOM     20  C   UNL     1      22.581 -10.570 -19.114  1.00  0.00     0.012 A 
ATOM     21  C   UNL     1      22.696  -8.193 -17.643  1.00  0.00     0.047 A 
ATOM     22  C   UNL     1      22.233  -9.356 -19.716  1.00  0.00     0.047 A 
ATOM     23  C   UNL     1      22.293  -8.164 -18.982  1.00  0.00     0.115 A 
BRANCH  23  24
ATOM     24  O   UNL     1      21.950  -6.949 -19.571  1.00  0.00    -0.508 OA
ATOM     25  H   UNL     1      22.529  -6.125 -19.462  1.00  0.00     0.293 HD
ENDBRANCH  23  24
ENDBRANCH  17  18
ENDBRANCH  14  16
ENDBRANCH   1  14
TORSDOF 8
ENDMDL
MODEL 6
REMARK VINA RESULT:    19.127      3.010      8.163
REMARK INTER + INTRA:          26.586
REMARK INTER:                  26.009
REMARK INTRA:                   0.576
REMARK UNBOUND:                -0.368
REMARK SMILES O=C(C=Cc1ccc(O)cc1)CC(=O)C=Cc1ccc(O)cc1
REMARK SMILES IDX 12 1 2 2 1 3 3 4 4 5 5 6 6 7 7 8 8 9 11 10 10 11 9 12 13 14
REMARK SMILES IDX 14 15 15 16 16 17 17 18 18 19 23 20 19 21 22 22 20 23 21 24
REMARK H PARENT 9 13 21 25
REMARK Flexibility Score: inf
ROOT
ATOM      1  C   UNL     1      20.527 -11.991 -17.947  1.00  0.00     0.160 C 
ENDROOT
BRANCH   1   2
ATOM      2  C   UNL     1      21.637 -12.855 -18.462  1.00  0.00     0.163 C 
ATOM      3  O   UNL     1      21.422 -13.600 -19.456  1.00  0.00    -0.294 OA
BRANCH   2   4
ATOM      4  C   UNL     1      22.993 -12.735 -17.880  1.00  0.00     0.048 C 
ATOM      5  C   UNL     1      23.628 -11.582 -17.615  1.00  0.00     0.012 C 
BRANCH   5   6
ATOM      6  C   UNL     1      23.170 -10.239 -18.024  1.00  0.00    -0.025 A 
ATOM      7  C   UNL     1      22.643 -10.056 -19.312  1.00  0.00     0.012 A 
ATOM      8  C   UNL     1      22.160  -8.804 -19.706  1.00  0.00     0.047 A 
ATOM      9  C   UNL     1      22.178  -7.729 -18.810  1.00  0.00     0.115 A 
ATOM     10  C   UNL     1      23.159  -9.165 -17.118  1.00  0.00     0.012 A 
ATOM     11  C   UNL     1      22.676  -7.914 -17.513  1.00  0.00     0.047 A 
BRANCH   9  12
ATOM     12  O   UNL     1      21.695  -6.488 -19.216  1.00  0.00    -0.508 OA
ATOM     13  H   UNL     1      20.884  -6.405 -19.817  1.00  0.00     0.293 HD
ENDBRANCH   9  12
ENDBRANCH   5   6
ENDBRANCH   2   4
ENDBRANCH   1   2
BRANCH   1  14
ATOM     14  C   UNL     1      19.828 -12.684 -16.819  1.00  0.00     0.163 C 
ATOM     15  O   UNL     1      18.905 -13.502 -17.078  1.00  0.00    -0.294 OA
BRANCH  14  16
ATOM     16  C   UNL     1      20.221 -12.405 -15.422  1.00  0.00     0.048 C 
ATOM     17  C   UNL     1      20.083 -13.262 -14.398  1.00  0.00     0.012 C 
BRANCH  17  18
ATOM     18  C   UNL     1      19.344 -14.542 -14.453  1.00  0.00    -0.025 A 
ATOM     19  C   UNL     1      17.938 -14.574 -14.450  1.00  0.00     0.012 A 
ATOM     20  C   UNL     1      20.057 -15.748 -14.411  1.00  0.00     0.012 A 
ATOM     21  C   UNL     1      17.260 -15.797 -14.457  1.00  0.00     0.047 A 
ATOM     22  C   UNL     1      19.378 -16.971 -14.419  1.00  0.00     0.047 A 
ATOM     23  C   UNL     1      17.977 -16.997 -14.445  1.00  0.00     0.115 A 
BRANCH  23  24
ATOM     24  O   UNL     1      17.290 -18.209 -14.455  1.00  0.00    -0.508 OA
ATOM     25  H   UNL     1      16.642 -18.456 -13.715  1.00  0.00     0.293 HD
ENDBRANCH  23  24
ENDBRANCH  17  18
ENDBRANCH  14  16
ENDBRANCH   1  14
TORSDOF 8
ENDMDL
