MODEL 1
REMARK VINA RESULT:    -3.391      0.000      0.000
REMARK INTER + INTRA:          -4.217
REMARK INTER:                  -4.085
REMARK INTRA:                  -0.132
REMARK UNBOUND:                -0.132
REMARK SMILES CC[C@H](C)[C@@H]([NH3+])C(=O)[O-]
REMARK SMILES IDX 3 1 4 2 5 3 6 4 7 8 8 9 9 10 2 11 1 12
REMARK H PARENT 6 5 6 6 6 7
REMARK Flexibility Score: inf
ROOT
ATOM      1  C   UNL     1      12.334  -0.222   0.016  1.00  0.00     0.050 C 
ATOM      2  C   UNL     1      13.142  -1.262   0.815  1.00  0.00     0.014 C 
ENDROOT
BRANCH   1   3
ATOM      3  C   UNL     1      12.703   1.251   0.389  1.00  0.00     0.230 C 
BRANCH   3   4
ATOM      4  N   UNL     1      14.149   1.516   0.329  1.00  0.00    -0.350 N 
ATOM      5  H   UNL     1      14.389   2.022  -0.552  1.00  0.00     0.345 HD
ATOM      6  H   UNL     1      14.670   0.609   0.320  1.00  0.00     0.345 HD
ATOM      7  H   UNL     1      14.470   2.075   1.152  1.00  0.00     0.345 HD
ENDBRANCH   3   4
BRANCH   3   8
ATOM      8  C   UNL     1      11.945   2.233  -0.472  1.00  0.00     0.099 C 
ATOM      9  O   UNL     1      11.128   3.031   0.060  1.00  0.00    -0.544 OA
ATOM     10  O   UNL     1      12.101   2.237  -1.853  1.00  0.00    -0.544 OA
ENDBRANCH   3   8
ENDBRANCH   1   3
BRANCH   1  11
ATOM     11  C   UNL     1      10.823  -0.538   0.144  1.00  0.00     0.006 C 
ATOM     12  C   UNL     1      10.349  -0.682   1.590  1.00  0.00     0.004 C 
ENDBRANCH   1  11
TORSDOF 4
ENDMDL
MODEL 2
REMARK VINA RESULT:    -3.299      1.773      2.635
REMARK INTER + INTRA:          -4.106
REMARK INTER:                  -4.167
REMARK INTRA:                   0.060
REMARK UNBOUND:                -0.132
REMARK SMILES CC[C@H](C)[C@@H]([NH3+])C(=O)[O-]
REMARK SMILES IDX 3 1 4 2 5 3 6 4 7 8 8 9 9 10 2 11 1 12
REMARK H PARENT 6 5 6 6 6 7
REMARK Flexibility Score: inf
ROOT
ATOM      1  C   UNL     1      10.644  -0.363   1.090  1.00  0.00     0.050 C 
ATOM      2  C   UNL     1       9.312  -0.980   0.627  1.00  0.00     0.014 C 
ENDROOT
BRANCH   1   3
ATOM      3  C   UNL     1      10.466   1.040   1.756  1.00  0.00     0.230 C 
BRANCH   3   4
ATOM      4  N   UNL     1      11.648   1.471   2.519  1.00  0.00    -0.350 N 
ATOM      5  H   UNL     1      12.520   1.107   2.074  1.00  0.00     0.345 HD
ATOM      6  H   UNL     1      11.604   1.075   3.486  1.00  0.00     0.345 HD
ATOM      7  H   UNL     1      11.700   2.512   2.589  1.00  0.00     0.345 HD
ENDBRANCH   3   4
BRANCH   3   8
ATOM      8  C   UNL     1      10.085   2.081   0.732  1.00  0.00     0.099 C 
ATOM      9  O   UNL     1       8.876   2.233   0.412  1.00  0.00    -0.544 OA
ATOM     10  O   UNL     1      11.057   2.847   0.099  1.00  0.00    -0.544 OA
ENDBRANCH   3   8
ENDBRANCH   1   3
BRANCH   1  11
ATOM     11  C   UNL     1      11.650  -0.370  -0.088  1.00  0.00     0.006 C 
ATOM     12  C   UNL     1      13.011  -0.966   0.274  1.00  0.00     0.004 C 
ENDBRANCH   1  11
TORSDOF 4
ENDMDL
MODEL 3
REMARK VINA RESULT:    -3.282      1.246      1.695
REMARK INTER + INTRA:          -4.085
REMARK INTER:                  -3.987
REMARK INTRA:                  -0.097
REMARK UNBOUND:                -0.132
REMARK SMILES CC[C@H](C)[C@@H]([NH3+])C(=O)[O-]
REMARK SMILES IDX 3 1 4 2 5 3 6 4 7 8 8 9 9 10 2 11 1 12
REMARK H PARENT 6 5 6 6 6 7
REMARK Flexibility Score: inf
ROOT
ATOM      1  C   UNL     1      11.358  -0.165   0.789  1.00  0.00     0.050 C 
ATOM      2  C   UNL     1      12.588  -1.084   0.899  1.00  0.00     0.014 C 
ENDROOT
BRANCH   1   3
ATOM      3  C   UNL     1      11.639   1.289   1.292  1.00  0.00     0.230 C 
BRANCH   3   4
ATOM      4  N   UNL     1      13.074   1.603   1.372  1.00  0.00    -0.350 N 
ATOM      5  H   UNL     1      13.566   1.276   0.511  1.00  0.00     0.345 HD
ATOM      6  H   UNL     1      13.498   1.098   2.184  1.00  0.00     0.345 HD
ATOM      7  H   UNL     1      13.235   2.628   1.499  1.00  0.00     0.345 HD
ENDBRANCH   3   4
BRANCH   3   8
ATOM      8  C   UNL     1      10.917   2.305   0.440  1.00  0.00     0.099 C 
ATOM      9  O   UNL     1      11.577   3.104  -0.277  1.00  0.00    -0.544 OA
ATOM     10  O   UNL     1       9.531   2.404   0.471  1.00  0.00    -0.544 OA
ENDBRANCH   3   8
ENDBRANCH   1   3
BRANCH   1  11
ATOM     11  C   UNL     1      10.148  -0.841   1.481  1.00  0.00     0.006 C 
ATOM     12  C   UNL     1       8.982  -1.123   0.534  1.00  0.00     0.004 C 
ENDBRANCH   1  11
TORSDOF 4
ENDMDL
MODEL 4
REMARK VINA RESULT:    -3.277      1.718      2.380
REMARK INTER + INTRA:          -4.079
REMARK INTER:                  -3.958
REMARK INTRA:                  -0.121
REMARK UNBOUND:                -0.132
REMARK SMILES CC[C@H](C)[C@@H]([NH3+])C(=O)[O-]
REMARK SMILES IDX 3 1 4 2 5 3 6 4 7 8 8 9 9 10 2 11 1 12
REMARK H PARENT 6 5 6 6 6 7
REMARK Flexibility Score: inf
ROOT
ATOM      1  C   UNL     1      10.028  -0.208   1.362  1.00  0.00     0.050 C 
ATOM      2  C   UNL     1       9.192  -1.080   0.407  1.00  0.00     0.014 C 
ENDROOT
BRANCH   1   3
ATOM      3  C   UNL     1      11.274   0.432   0.667  1.00  0.00     0.230 C 
BRANCH   3   4
ATOM      4  N   UNL     1      11.920  -0.469  -0.301  1.00  0.00    -0.350 N 
ATOM      5  H   UNL     1      11.911  -1.451   0.055  1.00  0.00     0.345 HD
ATOM      6  H   UNL     1      12.921  -0.192  -0.423  1.00  0.00     0.345 HD
ATOM      7  H   UNL     1      11.448  -0.431  -1.233  1.00  0.00     0.345 HD
ENDBRANCH   3   4
BRANCH   3   8
ATOM      8  C   UNL     1      10.915   1.745   0.015  1.00  0.00     0.099 C 
ATOM      9  O   UNL     1       9.935   2.410   0.443  1.00  0.00    -0.544 OA
ATOM     10  O   UNL     1      11.626   2.211  -1.084  1.00  0.00    -0.544 OA
ENDBRANCH   3   8
ENDBRANCH   1   3
BRANCH   1  11
ATOM     11  C   UNL     1      10.374  -1.025   2.632  1.00  0.00     0.006 C 
ATOM     12  C   UNL     1      11.392  -0.337   3.542  1.00  0.00     0.004 C 
ENDBRANCH   1  11
TORSDOF 4
ENDMDL
MODEL 5
REMARK VINA RESULT:    -3.174      2.365      2.719
REMARK INTER + INTRA:          -3.956
REMARK INTER:                  -3.810
REMARK INTRA:                  -0.146
REMARK UNBOUND:                -0.132
REMARK SMILES CC[C@H](C)[C@@H]([NH3+])C(=O)[O-]
REMARK SMILES IDX 3 1 4 2 5 3 6 4 7 8 8 9 9 10 2 11 1 12
REMARK H PARENT 6 5 6 6 6 7
REMARK Flexibility Score: inf
ROOT
ATOM      1  C   UNL     1      10.631   0.578   1.824  1.00  0.00     0.050 C 
ATOM      2  C   UNL     1      10.392   1.168   3.226  1.00  0.00     0.014 C 
ENDROOT
BRANCH   1   3
ATOM      3  C   UNL     1      10.144   1.522   0.676  1.00  0.00     0.230 C 
BRANCH   3   4
ATOM      4  N   UNL     1       9.454   2.723   1.172  1.00  0.00    -0.350 N 
ATOM      5  H   UNL     1       8.448   2.708   0.888  1.00  0.00     0.345 HD
ATOM      6  H   UNL     1       9.885   3.575   0.745  1.00  0.00     0.345 HD
ATOM      7  H   UNL     1       9.522   2.802   2.212  1.00  0.00     0.345 HD
ENDBRANCH   3   4
BRANCH   3   8
ATOM      8  C   UNL     1      11.286   1.901  -0.234  1.00  0.00     0.099 C 
ATOM      9  O   UNL     1      11.639   3.107  -0.329  1.00  0.00    -0.544 OA
ATOM     10  O   UNL     1      11.928   0.941  -1.009  1.00  0.00    -0.544 OA
ENDBRANCH   3   8
ENDBRANCH   1   3
BRANCH   1  11
ATOM     11  C   UNL     1      10.027  -0.847   1.757  1.00  0.00     0.006 C 
ATOM     12  C   UNL     1       9.123  -1.071   0.545  1.00  0.00     0.004 C 
ENDBRANCH   1  11
TORSDOF 4
ENDMDL
MODEL 6
REMARK VINA RESULT:    -3.171      1.927      2.552
REMARK INTER + INTRA:          -3.952
REMARK INTER:                  -3.829
REMARK INTRA:                  -0.123
REMARK UNBOUND:                -0.132
REMARK SMILES CC[C@H](C)[C@@H]([NH3+])C(=O)[O-]
REMARK SMILES IDX 3 1 4 2 5 3 6 4 7 8 8 9 9 10 2 11 1 12
REMARK H PARENT 6 5 6 6 6 7
REMARK Flexibility Score: inf
ROOT
ATOM      1  C   UNL     1      10.990   0.285   0.665  1.00  0.00     0.050 C 
ATOM      2  C   UNL     1       9.771  -0.643   0.814  1.00  0.00     0.014 C 
ENDROOT
BRANCH   1   3
ATOM      3  C   UNL     1      10.604   1.723   0.186  1.00  0.00     0.230 C 
BRANCH   3   4
ATOM      4  N   UNL     1       9.497   2.309   0.958  1.00  0.00    -0.350 N 
ATOM      5  H   UNL     1       8.837   1.563   1.271  1.00  0.00     0.345 HD
ATOM      6  H   UNL     1       8.957   2.968   0.351  1.00  0.00     0.345 HD
ATOM      7  H   UNL     1       9.848   2.837   1.790  1.00  0.00     0.345 HD
ENDBRANCH   3   4
BRANCH   3   8
ATOM      8  C   UNL     1      11.805   2.638   0.197  1.00  0.00     0.099 C 
ATOM      9  O   UNL     1      12.498   2.750   1.243  1.00  0.00    -0.544 OA
ATOM     10  O   UNL     1      12.131   3.397  -0.921  1.00  0.00    -0.544 OA
ENDBRANCH   3   8
ENDBRANCH   1   3
BRANCH   1  11
ATOM     11  C   UNL     1      12.054  -0.403  -0.226  1.00  0.00     0.006 C 
ATOM     12  C   UNL     1      13.174  -1.075   0.569  1.00  0.00     0.004 C 
ENDBRANCH   1  11
TORSDOF 4
ENDMDL
MODEL 7
REMARK VINA RESULT:    -3.113      2.231      2.932
REMARK INTER + INTRA:          -3.882
REMARK INTER:                  -3.737
REMARK INTRA:                  -0.145
REMARK UNBOUND:                -0.132
REMARK SMILES CC[C@H](C)[C@@H]([NH3+])C(=O)[O-]
REMARK SMILES IDX 3 1 4 2 5 3 6 4 7 8 8 9 9 10 2 11 1 12
REMARK H PARENT 6 5 6 6 6 7
REMARK Flexibility Score: inf
ROOT
ATOM      1  C   UNL     1      11.296  -0.195   1.881  1.00  0.00     0.050 C 
ATOM      2  C   UNL     1      10.502  -1.062   2.876  1.00  0.00     0.014 C 
ENDROOT
BRANCH   1   3
ATOM      3  C   UNL     1      10.576  -0.038   0.502  1.00  0.00     0.230 C 
BRANCH   3   4
ATOM      4  N   UNL     1       9.305  -0.777   0.428  1.00  0.00    -0.350 N 
ATOM      5  H   UNL     1       8.945  -0.782  -0.552  1.00  0.00     0.345 HD
ATOM      6  H   UNL     1       8.588  -0.299   1.021  1.00  0.00     0.345 HD
ATOM      7  H   UNL     1       9.414  -1.759   0.766  1.00  0.00     0.345 HD
ENDBRANCH   3   4
BRANCH   3   8
ATOM      8  C   UNL     1      10.366   1.419   0.164  1.00  0.00     0.099 C 
ATOM      9  O   UNL     1       9.273   1.976   0.446  1.00  0.00    -0.544 OA
ATOM     10  O   UNL     1      11.350   2.144  -0.499  1.00  0.00    -0.544 OA
ENDBRANCH   3   8
ENDBRANCH   1   3
BRANCH   1  11
ATOM     11  C   UNL     1      12.743  -0.736   1.770  1.00  0.00     0.006 C 
ATOM     12  C   UNL     1      13.159  -1.081   0.339  1.00  0.00     0.004 C 
ENDBRANCH   1  11
TORSDOF 4
ENDMDL
MODEL 8
REMARK VINA RESULT:    -2.934      2.899      3.741
REMARK INTER + INTRA:          -3.666
REMARK INTER:                  -3.522
REMARK INTRA:                  -0.144
REMARK UNBOUND:                -0.132
REMARK SMILES CC[C@H](C)[C@@H]([NH3+])C(=O)[O-]
REMARK SMILES IDX 3 1 4 2 5 3 6 4 7 8 8 9 9 10 2 11 1 12
REMARK H PARENT 6 5 6 6 6 7
REMARK Flexibility Score: inf
ROOT
ATOM      1  C   UNL     1      11.565   0.343  -0.254  1.00  0.00     0.050 C 
ATOM      2  C   UNL     1      12.308   1.647  -0.599  1.00  0.00     0.014 C 
ENDROOT
BRANCH   1   3
ATOM      3  C   UNL     1      10.443   0.547   0.815  1.00  0.00     0.230 C 
BRANCH   3   4
ATOM      4  N   UNL     1       9.545   1.670   0.500  1.00  0.00    -0.350 N 
ATOM      5  H   UNL     1       9.481   2.322   1.313  1.00  0.00     0.345 HD
ATOM      6  H   UNL     1       8.582   1.307   0.315  1.00  0.00     0.345 HD
ATOM      7  H   UNL     1       9.870   2.194  -0.344  1.00  0.00     0.345 HD
ENDBRANCH   3   4
BRANCH   3   8
ATOM      8  C   UNL     1       9.654  -0.723   1.022  1.00  0.00     0.099 C 
ATOM      9  O   UNL     1       8.866  -1.125   0.125  1.00  0.00    -0.544 OA
ATOM     10  O   UNL     1       9.751  -1.435   2.212  1.00  0.00    -0.544 OA
ENDBRANCH   3   8
ENDBRANCH   1   3
BRANCH   1  11
ATOM     11  C   UNL     1      12.596  -0.750   0.126  1.00  0.00     0.006 C 
ATOM     12  C   UNL     1      13.410  -0.414   1.376  1.00  0.00     0.004 C 
ENDBRANCH   1  11
TORSDOF 4
ENDMDL
MODEL 9
REMARK VINA RESULT:    -2.908      2.410      3.107
REMARK INTER + INTRA:          -3.634
REMARK INTER:                  -3.612
REMARK INTRA:                  -0.023
REMARK UNBOUND:                -0.132
REMARK SMILES CC[C@H](C)[C@@H]([NH3+])C(=O)[O-]
REMARK SMILES IDX 3 1 4 2 5 3 6 4 7 8 8 9 9 10 2 11 1 12
REMARK H PARENT 6 5 6 6 6 7
REMARK Flexibility Score: inf
ROOT
ATOM      1  C   UNL     1      11.569  -0.623   0.321  1.00  0.00     0.050 C 
ATOM      2  C   UNL     1      11.894   0.328  -0.846  1.00  0.00     0.014 C 
ENDROOT
BRANCH   1   3
ATOM      3  C   UNL     1      10.275  -0.214   1.097  1.00  0.00     0.230 C 
BRANCH   3   4
ATOM      4  N   UNL     1      10.174  -0.845   2.422  1.00  0.00    -0.350 N 
ATOM      5  H   UNL     1       9.195  -1.164   2.599  1.00  0.00     0.345 HD
ATOM      6  H   UNL     1      10.412  -0.144   3.162  1.00  0.00     0.345 HD
ATOM      7  H   UNL     1      10.827  -1.656   2.510  1.00  0.00     0.345 HD
ENDBRANCH   3   4
BRANCH   3   8
ATOM      8  C   UNL     1      10.164   1.287   1.211  1.00  0.00     0.099 C 
ATOM      9  O   UNL     1      10.821   1.899   2.095  1.00  0.00    -0.544 OA
ATOM     10  O   UNL     1       9.309   2.003   0.382  1.00  0.00    -0.544 OA
ENDBRANCH   3   8
ENDBRANCH   1   3
BRANCH   1  11
ATOM     11  C   UNL     1      12.818  -0.770   1.226  1.00  0.00     0.006 C 
ATOM     12  C   UNL     1      13.890  -1.692   0.643  1.00  0.00     0.004 C 
ENDBRANCH   1  11
TORSDOF 4
ENDMDL
