MODEL 1
REMARK VINA RESULT:   113.153      0.000      0.000
REMARK INTER + INTRA:         167.201
REMARK INTER:                 166.073
REMARK INTRA:                   1.128
REMARK UNBOUND:                 1.128
REMARK SMILES Cc1cc2c(C(C)C)c(O)c(O)c(C=O)c2c(O)c1-c1c(C)cc2c(C(C)C)c(O)c(O)c(C=O)c2c1O
REMARK SMILES IDX 1 1 2 2 3 3 4 4 16 5 13 6 11 7 9 8 5 9 17 10 19 11 20 12
REMARK SMILES IDX 37 13 21 14 36 15 23 16 22 17 24 18 33 19 25 20 31 21 29 22
REMARK SMILES IDX 38 23 34 25 35 26 26 27 27 28 28 29 32 30 30 32 18 34 6 36
REMARK SMILES IDX 7 37 8 38 14 39 15 40 10 41 12 43
REMARK H PARENT 38 24 32 31 30 33 18 35 10 42 12 44
REMARK Flexibility Score: inf
ROOT
ATOM      1  C   UNL     1      -2.759  14.262   9.073  1.00  0.00     0.045 C 
ATOM      2  C   UNL     1      -2.896  12.770   9.264  1.00  0.00    -0.039 A 
ATOM      3  C   UNL     1      -2.056  12.113  10.167  1.00  0.00     0.013 A 
ATOM      4  C   UNL     1      -2.134  10.723  10.379  1.00  0.00    -0.006 A 
ATOM      5  C   UNL     1      -3.205  10.003   9.773  1.00  0.00     0.039 A 
ATOM      6  C   UNL     1      -3.455   8.661  10.183  1.00  0.00     0.072 A 
ATOM      7  C   UNL     1      -2.606   8.049  11.126  1.00  0.00     0.169 A 
ATOM      8  C   UNL     1      -1.503   8.729  11.640  1.00  0.00     0.162 A 
ATOM      9  C   UNL     1      -1.187  10.039  11.204  1.00  0.00     0.008 A 
ATOM     10  C   UNL     1      -3.974  10.644   8.757  1.00  0.00     0.132 A 
ATOM     11  C   UNL     1      -3.823  12.026   8.517  1.00  0.00     0.031 A 
ENDROOT
BRANCH  11  12
ATOM     12  C   UNL     1      -4.658  12.699   7.488  1.00  0.00     0.031 A 
ATOM     13  C   UNL     1      -5.653  13.621   7.872  1.00  0.00     0.132 A 
ATOM     14  C   UNL     1      -4.473  12.394   6.130  1.00  0.00    -0.039 A 
ATOM     15  C   UNL     1      -6.451  14.273   6.887  1.00  0.00     0.039 A 
ATOM     16  C   UNL     1      -5.343  12.932   5.180  1.00  0.00     0.013 A 
ATOM     17  C   UNL     1      -3.409  11.418   5.687  1.00  0.00     0.045 C 
ATOM     18  C   UNL     1      -6.375  13.826   5.532  1.00  0.00    -0.006 A 
ATOM     19  C   UNL     1      -7.351  15.327   7.219  1.00  0.00     0.072 A 
ATOM     20  C   UNL     1      -7.328  14.290   4.569  1.00  0.00     0.008 A 
ATOM     21  C   UNL     1      -8.233  15.830   6.244  1.00  0.00     0.169 A 
ATOM     22  C   UNL     1      -8.228  15.311   4.946  1.00  0.00     0.162 A 
BRANCH  13  23
ATOM     23  O   UNL     1      -5.885  13.854   9.234  1.00  0.00    -0.507 OA
ATOM     24  H   UNL     1      -5.464  13.314   9.978  1.00  0.00     0.293 HD
ENDBRANCH  13  23
BRANCH  19  25
ATOM     25  C   UNL     1      -7.323  15.999   8.535  1.00  0.00     0.264 C 
ATOM     26  O   UNL     1      -8.381  16.464   9.036  1.00  0.00    -0.298 OA
ENDBRANCH  19  25
BRANCH  20  27
ATOM     27  C   UNL     1      -7.451  13.723   3.139  1.00  0.00     0.017 C 
ATOM     28  C   UNL     1      -6.310  12.756   2.798  1.00  0.00     0.012 C 
ATOM     29  C   UNL     1      -8.847  13.163   2.796  1.00  0.00     0.012 C 
ENDBRANCH  20  27
BRANCH  21  30
ATOM     30  O   UNL     1      -9.125  16.870   6.534  1.00  0.00    -0.504 OA
ATOM     31  H   UNL     1      -9.932  16.775   7.135  1.00  0.00     0.293 HD
ENDBRANCH  21  30
BRANCH  22  32
ATOM     32  O   UNL     1      -9.122  15.832   4.003  1.00  0.00    -0.504 OA
ATOM     33  H   UNL     1      -9.254  15.430   3.083  1.00  0.00     0.293 HD
ENDBRANCH  22  32
ENDBRANCH  11  12
BRANCH  10  34
ATOM     34  O   UNL     1      -4.854   9.898   7.964  1.00  0.00    -0.507 OA
ATOM     35  H   UNL     1      -4.607   9.029   7.510  1.00  0.00     0.293 HD
ENDBRANCH  10  34
BRANCH   9  36
ATOM     36  C   UNL     1       0.199  10.613  11.560  1.00  0.00     0.017 C 
ATOM     37  C   UNL     1       0.938  11.285  10.386  1.00  0.00     0.012 C 
ATOM     38  C   UNL     1       0.170  11.483  12.823  1.00  0.00     0.012 C 
ENDBRANCH   9  36
BRANCH   6  39
ATOM     39  C   UNL     1      -4.658   7.912   9.760  1.00  0.00     0.264 C 
ATOM     40  O   UNL     1      -5.244   7.138  10.562  1.00  0.00    -0.298 OA
ENDBRANCH   6  39
BRANCH   8  41
ATOM     41  O   UNL     1      -0.755   8.066  12.621  1.00  0.00    -0.504 OA
ATOM     42  H   UNL     1      -0.887   8.188  13.615  1.00  0.00     0.293 HD
ENDBRANCH   8  41
BRANCH   7  43
ATOM     43  O   UNL     1      -2.845   6.755  11.602  1.00  0.00    -0.504 OA
ATOM     44  H   UNL     1      -2.756   6.483  12.573  1.00  0.00     0.293 HD
ENDBRANCH   7  43
TORSDOF 11
ENDMDL
MODEL 2
REMARK VINA RESULT:   114.195      1.698      3.049
REMARK INTER + INTRA:         168.730
REMARK INTER:                 167.169
REMARK INTRA:                   1.561
REMARK UNBOUND:                 1.128
REMARK SMILES Cc1cc2c(C(C)C)c(O)c(O)c(C=O)c2c(O)c1-c1c(C)cc2c(C(C)C)c(O)c(O)c(C=O)c2c1O
REMARK SMILES IDX 1 1 2 2 3 3 4 4 16 5 13 6 11 7 9 8 5 9 17 10 19 11 20 12
REMARK SMILES IDX 37 13 21 14 36 15 23 16 22 17 24 18 33 19 25 20 31 21 29 22
REMARK SMILES IDX 38 23 34 25 35 26 26 27 27 28 28 29 32 30 30 32 18 34 6 36
REMARK SMILES IDX 7 37 8 38 14 39 15 40 10 41 12 43
REMARK H PARENT 38 24 32 31 30 33 18 35 10 42 12 44
REMARK Flexibility Score: inf
ROOT
ATOM      1  C   UNL     1      -5.695  10.055   8.125  1.00  0.00     0.045 C 
ATOM      2  C   UNL     1      -4.407  10.662   8.628  1.00  0.00    -0.039 A 
ATOM      3  C   UNL     1      -3.681  10.006   9.625  1.00  0.00     0.013 A 
ATOM      4  C   UNL     1      -2.479  10.531  10.138  1.00  0.00    -0.006 A 
ATOM      5  C   UNL     1      -1.914  11.677   9.504  1.00  0.00     0.039 A 
ATOM      6  C   UNL     1      -0.581  12.061   9.831  1.00  0.00     0.072 A 
ATOM      7  C   UNL     1       0.129  11.347  10.815  1.00  0.00     0.169 A 
ATOM      8  C   UNL     1      -0.466  10.288  11.499  1.00  0.00     0.162 A 
ATOM      9  C   UNL     1      -1.812   9.923  11.246  1.00  0.00     0.008 A 
ATOM     10  C   UNL     1      -2.714  12.415   8.583  1.00  0.00     0.132 A 
ATOM     11  C   UNL     1      -3.950  11.898   8.141  1.00  0.00     0.031 A 
ENDROOT
BRANCH  11  12
ATOM     12  C   UNL     1      -4.761  12.650   7.148  1.00  0.00     0.031 A 
ATOM     13  C   UNL     1      -5.739  13.570   7.580  1.00  0.00     0.132 A 
ATOM     14  C   UNL     1      -4.571  12.422   5.775  1.00  0.00    -0.039 A 
ATOM     15  C   UNL     1      -6.513  14.297   6.630  1.00  0.00     0.039 A 
ATOM     16  C   UNL     1      -5.421  13.037   4.854  1.00  0.00     0.013 A 
ATOM     17  C   UNL     1      -3.525  11.451   5.283  1.00  0.00     0.045 C 
ATOM     18  C   UNL     1      -6.435  13.931   5.251  1.00  0.00    -0.006 A 
ATOM     19  C   UNL     1      -7.392  15.350   7.018  1.00  0.00     0.072 A 
ATOM     20  C   UNL     1      -7.370  14.474   4.311  1.00  0.00     0.008 A 
ATOM     21  C   UNL     1      -8.254  15.931   6.069  1.00  0.00     0.169 A 
ATOM     22  C   UNL     1      -8.250  15.491   4.742  1.00  0.00     0.162 A 
BRANCH  13  23
ATOM     23  O   UNL     1      -5.977  13.726   8.951  1.00  0.00    -0.507 OA
ATOM     24  H   UNL     1      -5.380  13.346   9.674  1.00  0.00     0.293 HD
ENDBRANCH  13  23
BRANCH  19  25
ATOM     25  C   UNL     1      -7.360  15.942   8.372  1.00  0.00     0.264 C 
ATOM     26  O   UNL     1      -6.801  17.053   8.571  1.00  0.00    -0.298 OA
ENDBRANCH  19  25
BRANCH  20  27
ATOM     27  C   UNL     1      -7.493  13.997   2.849  1.00  0.00     0.017 C 
ATOM     28  C   UNL     1      -7.188  12.501   2.698  1.00  0.00     0.012 C 
ATOM     29  C   UNL     1      -8.800  14.424   2.149  1.00  0.00     0.012 C 
ENDBRANCH  20  27
BRANCH  21  30
ATOM     30  O   UNL     1      -9.125  16.972   6.414  1.00  0.00    -0.504 OA
ATOM     31  H   UNL     1     -10.133  16.906   6.376  1.00  0.00     0.293 HD
ENDBRANCH  21  30
BRANCH  22  32
ATOM     32  O   UNL     1      -9.124  16.088   3.826  1.00  0.00    -0.504 OA
ATOM     33  H   UNL     1      -9.837  15.573   3.325  1.00  0.00     0.293 HD
ENDBRANCH  22  32
ENDBRANCH  11  12
BRANCH  10  34
ATOM     34  O   UNL     1      -2.298  13.677   8.141  1.00  0.00    -0.507 OA
ATOM     35  H   UNL     1      -2.455  14.535   8.654  1.00  0.00     0.293 HD
ENDBRANCH  10  34
BRANCH   9  36
ATOM     36  C   UNL     1      -2.508   8.971  12.238  1.00  0.00     0.017 C 
ATOM     37  C   UNL     1      -3.951   8.587  11.857  1.00  0.00     0.012 C 
ATOM     38  C   UNL     1      -1.643   7.755  12.593  1.00  0.00     0.012 C 
ENDBRANCH   9  36
BRANCH   6  39
ATOM     39  C   UNL     1       0.151  13.105   9.082  1.00  0.00     0.264 C 
ATOM     40  O   UNL     1       0.500  12.909   7.888  1.00  0.00    -0.298 OA
ENDBRANCH   6  39
BRANCH   8  41
ATOM     41  O   UNL     1       0.338   9.595  12.411  1.00  0.00    -0.504 OA
ATOM     42  H   UNL     1       0.087   9.423  13.374  1.00  0.00     0.293 HD
ENDBRANCH   8  41
BRANCH   7  43
ATOM     43  O   UNL     1       1.460  11.650  11.129  1.00  0.00    -0.504 OA
ATOM     44  H   UNL     1       2.052  12.249  10.568  1.00  0.00     0.293 HD
ENDBRANCH   7  43
TORSDOF 11
ENDMDL
MODEL 3
REMARK VINA RESULT:   115.844     11.938     14.585
REMARK INTER + INTRA:         171.150
REMARK INTER:                 170.152
REMARK INTRA:                   0.999
REMARK UNBOUND:                 1.128
REMARK SMILES Cc1cc2c(C(C)C)c(O)c(O)c(C=O)c2c(O)c1-c1c(C)cc2c(C(C)C)c(O)c(O)c(C=O)c2c1O
REMARK SMILES IDX 1 1 2 2 3 3 4 4 16 5 13 6 11 7 9 8 5 9 17 10 19 11 20 12
REMARK SMILES IDX 37 13 21 14 36 15 23 16 22 17 24 18 33 19 25 20 31 21 29 22
REMARK SMILES IDX 38 23 34 25 35 26 26 27 27 28 28 29 32 30 30 32 18 34 6 36
REMARK SMILES IDX 7 37 8 38 14 39 15 40 10 41 12 43
REMARK H PARENT 38 24 32 31 30 33 18 35 10 42 12 44
REMARK Flexibility Score: inf
ROOT
ATOM      1  C   UNL     1       1.469  -1.788   5.101  1.00  0.00     0.045 C 
ATOM      2  C   UNL     1       2.326  -0.653   4.594  1.00  0.00    -0.039 A 
ATOM      3  C   UNL     1       3.584  -0.434   5.163  1.00  0.00     0.013 A 
ATOM      4  C   UNL     1       4.421   0.614   4.735  1.00  0.00    -0.006 A 
ATOM      5  C   UNL     1       4.037   1.364   3.585  1.00  0.00     0.039 A 
ATOM      6  C   UNL     1       4.985   2.242   2.983  1.00  0.00     0.072 A 
ATOM      7  C   UNL     1       6.256   2.404   3.568  1.00  0.00     0.169 A 
ATOM      8  C   UNL     1       6.588   1.740   4.749  1.00  0.00     0.162 A 
ATOM      9  C   UNL     1       5.647   0.913   5.409  1.00  0.00     0.008 A 
ATOM     10  C   UNL     1       2.706   1.228   3.091  1.00  0.00     0.132 A 
ATOM     11  C   UNL     1       1.863   0.212   3.590  1.00  0.00     0.031 A 
ENDROOT
BRANCH  11  12
ATOM     12  C   UNL     1       0.491   0.047   3.042  1.00  0.00     0.031 A 
ATOM     13  C   UNL     1      -0.633   0.356   3.836  1.00  0.00     0.132 A 
ATOM     14  C   UNL     1       0.315  -0.446   1.739  1.00  0.00    -0.039 A 
ATOM     15  C   UNL     1      -1.949   0.203   3.311  1.00  0.00     0.039 A 
ATOM     16  C   UNL     1      -0.974  -0.719   1.277  1.00  0.00     0.013 A 
ATOM     17  C   UNL     1       1.499  -0.777   0.862  1.00  0.00     0.045 C 
ATOM     18  C   UNL     1      -2.120  -0.460   2.057  1.00  0.00    -0.006 A 
ATOM     19  C   UNL     1      -3.102   0.657   4.016  1.00  0.00     0.072 A 
ATOM     20  C   UNL     1      -3.429  -0.841   1.619  1.00  0.00     0.008 A 
ATOM     21  C   UNL     1      -4.387   0.343   3.537  1.00  0.00     0.169 A 
ATOM     22  C   UNL     1      -4.546  -0.403   2.365  1.00  0.00     0.162 A 
BRANCH  13  23
ATOM     23  O   UNL     1      -0.445   0.766   5.162  1.00  0.00    -0.507 OA
ATOM     24  H   UNL     1      -1.143   1.261   5.703  1.00  0.00     0.293 HD
ENDBRANCH  13  23
BRANCH  19  25
ATOM     25  C   UNL     1      -3.004   1.549   5.191  1.00  0.00     0.264 C 
ATOM     26  O   UNL     1      -4.026   2.140   5.631  1.00  0.00    -0.298 OA
ENDBRANCH  19  25
BRANCH  20  27
ATOM     27  C   UNL     1      -3.699  -1.728   0.386  1.00  0.00     0.017 C 
ATOM     28  C   UNL     1      -4.213  -3.120   0.772  1.00  0.00     0.012 C 
ATOM     29  C   UNL     1      -4.546  -1.049  -0.711  1.00  0.00     0.012 C 
ENDBRANCH  20  27
BRANCH  21  30
ATOM     30  O   UNL     1      -5.540   0.779   4.201  1.00  0.00    -0.504 OA
ATOM     31  H   UNL     1      -5.544   1.187   5.125  1.00  0.00     0.293 HD
ENDBRANCH  21  30
BRANCH  22  32
ATOM     32  O   UNL     1      -5.839  -0.701   1.920  1.00  0.00    -0.504 OA
ATOM     33  H   UNL     1      -6.627  -0.079   2.052  1.00  0.00     0.293 HD
ENDBRANCH  22  32
ENDBRANCH  11  12
BRANCH  10  34
ATOM     34  O   UNL     1       2.213   2.126   2.137  1.00  0.00    -0.507 OA
ATOM     35  H   UNL     1       1.407   1.943   1.553  1.00  0.00     0.293 HD
ENDBRANCH  10  34
BRANCH   9  36
ATOM     36  C   UNL     1       5.953   0.465   6.852  1.00  0.00     0.017 C 
ATOM     37  C   UNL     1       4.727  -0.022   7.649  1.00  0.00     0.012 C 
ATOM     38  C   UNL     1       7.138  -0.506   6.928  1.00  0.00     0.012 C 
ENDBRANCH   9  36
BRANCH   6  39
ATOM     39  C   UNL     1       4.743   2.900   1.682  1.00  0.00     0.264 C 
ATOM     40  O   UNL     1       5.691   3.440   1.052  1.00  0.00    -0.298 OA
ENDBRANCH   6  39
BRANCH   8  41
ATOM     41  O   UNL     1       7.896   1.909   5.220  1.00  0.00    -0.504 OA
ATOM     42  H   UNL     1       8.572   2.534   4.805  1.00  0.00     0.293 HD
ENDBRANCH   8  41
BRANCH   7  43
ATOM     43  O   UNL     1       7.240   3.209   2.983  1.00  0.00    -0.504 OA
ATOM     44  H   UNL     1       7.680   3.009   2.094  1.00  0.00     0.293 HD
ENDBRANCH   7  43
TORSDOF 11
ENDMDL
