MODEL 1
REMARK VINA RESULT:     7.363      0.000      0.000
REMARK INTER + INTRA:           9.858
REMARK INTER:                   9.946
REMARK INTRA:                  -0.088
REMARK UNBOUND:                -0.088
REMARK SMILES O=c1c(-c2ccc(O)cc2)coc2c([C@H]3O[C@@H](CO)[C@H](O)[C@@H](O)[C@H]3O)c(O)ccc12
REMARK SMILES IDX 3 1 11 2 12 3 13 4 30 5 2 6 1 7 29 8 28 9 26 10 14 11 4 12
REMARK SMILES IDX 5 13 6 14 7 15 10 16 9 17 8 18 15 20 24 21 16 22 22 23 17 24
REMARK SMILES IDX 20 25 25 26 23 28 18 30 19 31 21 33 27 35
REMARK H PARENT 8 19 25 27 23 29 19 32 21 34 27 36
REMARK Flexibility Score: inf
ROOT
ATOM      1  C   UNL     1      13.199  11.904  26.384  1.00  0.00     0.065 A 
ATOM      2  C   UNL     1      13.980  10.750  26.527  1.00  0.00     0.208 A 
ATOM      3  O   UNL     1      13.712   9.860  27.474  1.00  0.00    -0.463 OA
ATOM      4  C   UNL     1      12.708   9.988  28.339  1.00  0.00     0.147 A 
ATOM      5  C   UNL     1      11.873  11.128  28.270  1.00  0.00     0.066 A 
ATOM      6  C   UNL     1      12.128  12.094  27.277  1.00  0.00     0.200 A 
ATOM      7  O   UNL     1      11.420  13.137  27.207  1.00  0.00    -0.288 OA
ATOM      8  C   UNL     1      10.833  11.279  29.196  1.00  0.00     0.020 A 
ATOM      9  C   UNL     1      10.638  10.330  30.194  1.00  0.00     0.047 A 
ATOM     10  C   UNL     1      11.463   9.207  30.291  1.00  0.00     0.125 A 
ATOM     11  C   UNL     1      12.485   8.990  29.327  1.00  0.00     0.069 A 
ENDROOT
BRANCH   1  12
ATOM     12  C   UNL     1      13.525  12.894  25.324  1.00  0.00    -0.011 A 
ATOM     13  C   UNL     1      13.594  12.491  23.978  1.00  0.00     0.013 A 
ATOM     14  C   UNL     1      13.894  13.421  22.974  1.00  0.00     0.047 A 
ATOM     15  C   UNL     1      14.125  14.760  23.300  1.00  0.00     0.115 A 
ATOM     16  C   UNL     1      13.752  14.246  25.644  1.00  0.00     0.013 A 
ATOM     17  C   UNL     1      14.053  15.171  24.638  1.00  0.00     0.047 A 
BRANCH  15  18
ATOM     18  O   UNL     1      14.422  15.672  22.288  1.00  0.00    -0.508 OA
ATOM     19  H   UNL     1      13.899  16.534  22.180  1.00  0.00     0.293 HD
ENDBRANCH  15  18
ENDBRANCH   1  12
BRANCH  11  20
ATOM     20  C   UNL     1      13.377   7.752  29.401  1.00  0.00     0.188 C 
ATOM     21  C   UNL     1      13.513   7.114  28.000  1.00  0.00     0.179 C 
ATOM     22  O   UNL     1      12.851   6.814  30.330  1.00  0.00    -0.362 OA
ATOM     23  C   UNL     1      14.402   5.864  28.094  1.00  0.00     0.177 C 
ATOM     24  C   UNL     1      13.739   5.723  30.519  1.00  0.00     0.176 C 
ATOM     25  C   UNL     1      13.895   4.925  29.200  1.00  0.00     0.177 C 
BRANCH  21  26
ATOM     26  O   UNL     1      12.241   6.772  27.504  1.00  0.00    -0.387 OA
ATOM     27  H   UNL     1      12.326   5.874  27.089  1.00  0.00     0.211 HD
ENDBRANCH  21  26
BRANCH  23  28
ATOM     28  O   UNL     1      14.412   5.198  26.858  1.00  0.00    -0.387 OA
ATOM     29  H   UNL     1      13.729   4.479  26.908  1.00  0.00     0.211 HD
ENDBRANCH  23  28
BRANCH  24  30
ATOM     30  C   UNL     1      13.169   4.848  31.650  1.00  0.00     0.191 C 
BRANCH  30  31
ATOM     31  O   UNL     1      14.095   3.884  32.077  1.00  0.00    -0.394 OA
ATOM     32  H   UNL     1      14.902   4.378  32.390  1.00  0.00     0.210 HD
ENDBRANCH  30  31
ENDBRANCH  24  30
BRANCH  25  33
ATOM     33  O   UNL     1      14.817   3.876  29.364  1.00  0.00    -0.388 OA
ATOM     34  H   UNL     1      15.727   4.278  29.332  1.00  0.00     0.211 HD
ENDBRANCH  25  33
ENDBRANCH  11  20
BRANCH  10  35
ATOM     35  O   UNL     1      11.240   8.345  31.368  1.00  0.00    -0.507 OA
ATOM     36  H   UNL     1      11.621   8.476  32.297  1.00  0.00     0.293 HD
ENDBRANCH  10  35
TORSDOF 9
ENDMDL
MODEL 2
REMARK VINA RESULT:     9.878      0.879      2.167
REMARK INTER + INTRA:          13.254
REMARK INTER:                  12.500
REMARK INTRA:                   0.754
REMARK UNBOUND:                -0.088
REMARK SMILES O=c1c(-c2ccc(O)cc2)coc2c([C@H]3O[C@@H](CO)[C@H](O)[C@@H](O)[C@H]3O)c(O)ccc12
REMARK SMILES IDX 3 1 11 2 12 3 13 4 30 5 2 6 1 7 29 8 28 9 26 10 14 11 4 12
REMARK SMILES IDX 5 13 6 14 7 15 10 16 9 17 8 18 15 20 24 21 16 22 22 23 17 24
REMARK SMILES IDX 20 25 25 26 23 28 18 30 19 31 21 33 27 35
REMARK H PARENT 8 19 25 27 23 29 19 32 21 34 27 36
REMARK Flexibility Score: inf
ROOT
ATOM      1  C   UNL     1      12.952  11.739  26.547  1.00  0.00     0.065 A 
ATOM      2  C   UNL     1      13.354  10.398  26.536  1.00  0.00     0.208 A 
ATOM      3  O   UNL     1      12.950   9.559  27.482  1.00  0.00    -0.463 OA
ATOM      4  C   UNL     1      12.150   9.914  28.485  1.00  0.00     0.147 A 
ATOM      5  C   UNL     1      11.701  11.252  28.575  1.00  0.00     0.066 A 
ATOM      6  C   UNL     1      12.112  12.171  27.590  1.00  0.00     0.200 A 
ATOM      7  O   UNL     1      11.753  13.380  27.657  1.00  0.00    -0.288 OA
ATOM      8  C   UNL     1      10.883  11.636  29.645  1.00  0.00     0.020 A 
ATOM      9  C   UNL     1      10.534  10.716  30.629  1.00  0.00     0.047 A 
ATOM     10  C   UNL     1      10.982   9.393  30.567  1.00  0.00     0.125 A 
ATOM     11  C   UNL     1      11.760   8.955  29.460  1.00  0.00     0.069 A 
ENDROOT
BRANCH   1  12
ATOM     12  C   UNL     1      13.428  12.665  25.485  1.00  0.00    -0.011 A 
ATOM     13  C   UNL     1      13.509  12.227  24.150  1.00  0.00     0.013 A 
ATOM     14  C   UNL     1      13.949  13.097  23.145  1.00  0.00     0.047 A 
ATOM     15  C   UNL     1      14.313  14.409  23.457  1.00  0.00     0.115 A 
ATOM     16  C   UNL     1      13.788  13.991  25.791  1.00  0.00     0.013 A 
ATOM     17  C   UNL     1      14.231  14.855  24.783  1.00  0.00     0.047 A 
BRANCH  15  18
ATOM     18  O   UNL     1      14.750  15.262  22.443  1.00  0.00    -0.508 OA
ATOM     19  H   UNL     1      15.373  16.039  22.635  1.00  0.00     0.293 HD
ENDBRANCH  15  18
ENDBRANCH   1  12
BRANCH  11  20
ATOM     20  C   UNL     1      12.233   7.506  29.364  1.00  0.00     0.188 C 
ATOM     21  C   UNL     1      12.943   7.093  30.672  1.00  0.00     0.179 C 
ATOM     22  O   UNL     1      13.100   7.339  28.249  1.00  0.00    -0.362 OA
ATOM     23  C   UNL     1      13.423   5.639  30.554  1.00  0.00     0.177 C 
ATOM     24  C   UNL     1      13.435   5.973  28.059  1.00  0.00     0.176 C 
ATOM     25  C   UNL     1      14.246   5.447  29.270  1.00  0.00     0.177 C 
BRANCH  21  26
ATOM     26  O   UNL     1      14.033   7.950  30.916  1.00  0.00    -0.387 OA
ATOM     27  H   UNL     1      14.463   7.637  31.754  1.00  0.00     0.211 HD
ENDBRANCH  21  26
BRANCH  23  28
ATOM     28  O   UNL     1      14.195   5.304  31.679  1.00  0.00    -0.387 OA
ATOM     29  H   UNL     1      13.753   4.530  32.116  1.00  0.00     0.211 HD
ENDBRANCH  23  28
BRANCH  24  30
ATOM     30  C   UNL     1      14.235   5.868  26.748  1.00  0.00     0.191 C 
BRANCH  30  31
ATOM     31  O   UNL     1      14.907   7.064  26.454  1.00  0.00    -0.394 OA
ATOM     32  H   UNL     1      15.701   7.103  27.055  1.00  0.00     0.210 HD
ENDBRANCH  30  31
ENDBRANCH  24  30
BRANCH  25  33
ATOM     33  O   UNL     1      14.533   4.079  29.114  1.00  0.00    -0.388 OA
ATOM     34  H   UNL     1      14.825   3.738  30.002  1.00  0.00     0.211 HD
ENDBRANCH  25  33
ENDBRANCH  11  20
BRANCH  10  35
ATOM     35  O   UNL     1      10.645   8.558  31.635  1.00  0.00    -0.507 OA
ATOM     36  H   UNL     1      11.110   8.559  32.535  1.00  0.00     0.293 HD
ENDBRANCH  10  35
TORSDOF 9
ENDMDL
