MODEL 1
REMARK VINA RESULT:    -3.993      0.000      0.000
REMARK INTER + INTRA:          -5.902
REMARK INTER:                  -5.626
REMARK INTRA:                  -0.276
REMARK UNBOUND:                -0.276
REMARK SMILES C=CCCCCCCC(=O)[O-]
REMARK SMILES IDX 6 1 7 2 8 3 9 4 10 5 11 6 5 7 4 8 3 9 2 10 1 11
REMARK H PARENT
REMARK Flexibility Score: inf
ROOT
ATOM      1  C   UNL     1      46.601  42.910  33.527  1.00  0.00     0.000 C 
ENDROOT
BRANCH   1   2
ATOM      2  C   UNL     1      47.040  44.381  33.520  1.00  0.00     0.006 C 
BRANCH   2   3
ATOM      3  C   UNL     1      47.779  44.729  32.223  1.00  0.00     0.053 C 
BRANCH   3   4
ATOM      4  C   UNL     1      46.931  44.405  31.035  1.00  0.00     0.041 C 
ATOM      5  O   UNL     1      47.394  43.701  30.100  1.00  0.00    -0.550 OA
ATOM      6  O   UNL     1      45.645  44.922  30.936  1.00  0.00    -0.550 OA
ENDBRANCH   3   4
ENDBRANCH   2   3
ENDBRANCH   1   2
BRANCH   1   7
ATOM      7  C   UNL     1      46.665  42.288  34.937  1.00  0.00     0.000 C 
BRANCH   7   8
ATOM      8  C   UNL     1      47.742  42.916  35.839  1.00  0.00     0.004 C 
BRANCH   8   9
ATOM      9  C   UNL     1      47.631  42.468  37.303  1.00  0.00     0.027 C 
BRANCH   9  10
ATOM     10  C   UNL     1      48.511  41.278  37.575  1.00  0.00    -0.035 C 
ATOM     11  C   UNL     1      48.623  40.753  38.798  1.00  0.00     0.004 C 
ENDBRANCH   9  10
ENDBRANCH   8   9
ENDBRANCH   7   8
ENDBRANCH   1   7
TORSDOF 7
ENDMDL
MODEL 2
REMARK VINA RESULT:    -3.928      3.401      5.510
REMARK INTER + INTRA:          -5.811
REMARK INTER:                  -5.070
REMARK INTRA:                  -0.741
REMARK UNBOUND:                -0.276
REMARK SMILES C=CCCCCCCC(=O)[O-]
REMARK SMILES IDX 6 1 7 2 8 3 9 4 10 5 11 6 5 7 4 8 3 9 2 10 1 11
REMARK H PARENT
REMARK Flexibility Score: inf
ROOT
ATOM      1  C   UNL     1      46.866  43.321  33.583  1.00  0.00     0.000 C 
ENDROOT
BRANCH   1   2
ATOM      2  C   UNL     1      45.516  43.397  34.313  1.00  0.00     0.006 C 
BRANCH   2   3
ATOM      3  C   UNL     1      44.750  44.664  33.919  1.00  0.00     0.053 C 
BRANCH   3   4
ATOM      4  C   UNL     1      43.289  44.374  33.791  1.00  0.00     0.041 C 
ATOM      5  O   UNL     1      42.458  44.973  34.523  1.00  0.00    -0.550 OA
ATOM      6  O   UNL     1      42.847  43.406  32.898  1.00  0.00    -0.550 OA
ENDBRANCH   3   4
ENDBRANCH   2   3
ENDBRANCH   1   2
BRANCH   1   7
ATOM      7  C   UNL     1      47.402  44.716  33.201  1.00  0.00     0.000 C 
BRANCH   7   8
ATOM      8  C   UNL     1      47.989  44.782  31.780  1.00  0.00     0.004 C 
BRANCH   8   9
ATOM      9  C   UNL     1      47.543  43.610  30.895  1.00  0.00     0.027 C 
BRANCH   9  10
ATOM     10  C   UNL     1      46.469  44.035  29.931  1.00  0.00    -0.035 C 
ATOM     11  C   UNL     1      45.178  44.036  30.275  1.00  0.00     0.004 C 
ENDBRANCH   9  10
ENDBRANCH   8   9
ENDBRANCH   7   8
ENDBRANCH   1   7
TORSDOF 7
ENDMDL
MODEL 3
REMARK VINA RESULT:    -3.926      3.318      6.135
REMARK INTER + INTRA:          -5.809
REMARK INTER:                  -5.342
REMARK INTRA:                  -0.466
REMARK UNBOUND:                -0.276
REMARK SMILES C=CCCCCCCC(=O)[O-]
REMARK SMILES IDX 6 1 7 2 8 3 9 4 10 5 11 6 5 7 4 8 3 9 2 10 1 11
REMARK H PARENT
REMARK Flexibility Score: inf
ROOT
ATOM      1  C   UNL     1      46.502  42.822  33.583  1.00  0.00     0.000 C 
ENDROOT
BRANCH   1   2
ATOM      2  C   UNL     1      46.643  42.145  34.954  1.00  0.00     0.006 C 
BRANCH   2   3
ATOM      3  C   UNL     1      47.685  42.862  35.817  1.00  0.00     0.053 C 
BRANCH   3   4
ATOM      4  C   UNL     1      47.343  42.733  37.267  1.00  0.00     0.041 C 
ATOM      5  O   UNL     1      46.239  43.157  37.698  1.00  0.00    -0.550 OA
ATOM      6  O   UNL     1      48.265  42.188  38.153  1.00  0.00    -0.550 OA
ENDBRANCH   3   4
ENDBRANCH   2   3
ENDBRANCH   1   2
BRANCH   1   7
ATOM      7  C   UNL     1      46.955  44.297  33.611  1.00  0.00     0.000 C 
BRANCH   7   8
ATOM      8  C   UNL     1      47.756  44.719  32.368  1.00  0.00     0.004 C 
BRANCH   8   9
ATOM      9  C   UNL     1      47.561  43.768  31.180  1.00  0.00     0.027 C 
BRANCH   9  10
ATOM     10  C   UNL     1      46.570  44.325  30.194  1.00  0.00    -0.035 C 
ATOM     11  C   UNL     1      45.272  44.014  30.252  1.00  0.00     0.004 C 
ENDBRANCH   9  10
ENDBRANCH   8   9
ENDBRANCH   7   8
ENDBRANCH   1   7
TORSDOF 7
ENDMDL
MODEL 4
REMARK VINA RESULT:    -3.919      3.486      6.061
REMARK INTER + INTRA:          -5.799
REMARK INTER:                  -5.407
REMARK INTRA:                  -0.392
REMARK UNBOUND:                -0.276
REMARK SMILES C=CCCCCCCC(=O)[O-]
REMARK SMILES IDX 6 1 7 2 8 3 9 4 10 5 11 6 5 7 4 8 3 9 2 10 1 11
REMARK H PARENT
REMARK Flexibility Score: inf
ROOT
ATOM      1  C   UNL     1      45.958  43.510  34.736  1.00  0.00     0.000 C 
ENDROOT
BRANCH   1   2
ATOM      2  C   UNL     1      47.186  42.661  35.096  1.00  0.00     0.006 C 
BRANCH   2   3
ATOM      3  C   UNL     1      47.640  42.934  36.534  1.00  0.00     0.053 C 
BRANCH   3   4
ATOM      4  C   UNL     1      47.880  41.650  37.260  1.00  0.00     0.041 C 
ATOM      5  O   UNL     1      48.997  41.075  37.179  1.00  0.00    -0.550 OA
ATOM      6  O   UNL     1      46.855  41.059  37.989  1.00  0.00    -0.550 OA
ENDBRANCH   3   4
ENDBRANCH   2   3
ENDBRANCH   1   2
BRANCH   1   7
ATOM      7  C   UNL     1      46.163  44.307  33.431  1.00  0.00     0.000 C 
BRANCH   7   8
ATOM      8  C   UNL     1      47.612  44.778  33.217  1.00  0.00     0.004 C 
BRANCH   8   9
ATOM      9  C   UNL     1      48.003  44.849  31.734  1.00  0.00     0.027 C 
BRANCH   9  10
ATOM     10  C   UNL     1      46.859  44.435  30.849  1.00  0.00    -0.035 C 
ATOM     11  C   UNL     1      47.015  43.534  29.875  1.00  0.00     0.004 C 
ENDBRANCH   9  10
ENDBRANCH   8   9
ENDBRANCH   7   8
ENDBRANCH   1   7
TORSDOF 7
ENDMDL
MODEL 5
REMARK VINA RESULT:    -3.911      1.070      1.537
REMARK INTER + INTRA:          -5.788
REMARK INTER:                  -5.524
REMARK INTRA:                  -0.264
REMARK UNBOUND:                -0.276
REMARK SMILES C=CCCCCCCC(=O)[O-]
REMARK SMILES IDX 6 1 7 2 8 3 9 4 10 5 11 6 5 7 4 8 3 9 2 10 1 11
REMARK H PARENT
REMARK Flexibility Score: inf
ROOT
ATOM      1  C   UNL     1      46.531  43.088  34.953  1.00  0.00     0.000 C 
ENDROOT
BRANCH   1   2
ATOM      2  C   UNL     1      46.890  44.017  33.784  1.00  0.00     0.006 C 
BRANCH   2   3
ATOM      3  C   UNL     1      46.860  43.261  32.452  1.00  0.00     0.053 C 
BRANCH   3   4
ATOM      4  C   UNL     1      47.565  44.042  31.390  1.00  0.00     0.041 C 
ATOM      5  O   UNL     1      48.376  44.951  31.705  1.00  0.00    -0.550 OA
ATOM      6  O   UNL     1      47.289  43.800  30.050  1.00  0.00    -0.550 OA
ENDBRANCH   3   4
ENDBRANCH   2   3
ENDBRANCH   1   2
BRANCH   1   7
ATOM      7  C   UNL     1      47.743  42.799  35.863  1.00  0.00     0.000 C 
BRANCH   7   8
ATOM      8  C   UNL     1      47.427  42.910  37.364  1.00  0.00     0.004 C 
BRANCH   8   9
ATOM      9  C   UNL     1      48.077  41.796  38.196  1.00  0.00     0.027 C 
BRANCH   9  10
ATOM     10  C   UNL     1      48.862  40.854  37.323  1.00  0.00    -0.035 C 
ATOM     11  C   UNL     1      48.648  39.536  37.344  1.00  0.00     0.004 C 
ENDBRANCH   9  10
ENDBRANCH   8   9
ENDBRANCH   7   8
ENDBRANCH   1   7
TORSDOF 7
ENDMDL
MODEL 6
REMARK VINA RESULT:    -3.878      3.183      5.577
REMARK INTER + INTRA:          -5.742
REMARK INTER:                  -5.063
REMARK INTRA:                  -0.678
REMARK UNBOUND:                -0.276
REMARK SMILES C=CCCCCCCC(=O)[O-]
REMARK SMILES IDX 6 1 7 2 8 3 9 4 10 5 11 6 5 7 4 8 3 9 2 10 1 11
REMARK H PARENT
REMARK Flexibility Score: inf
ROOT
ATOM      1  C   UNL     1      44.222  44.384  33.197  1.00  0.00     0.000 C 
ENDROOT
BRANCH   1   2
ATOM      2  C   UNL     1      45.408  44.494  34.165  1.00  0.00     0.006 C 
BRANCH   2   3
ATOM      3  C   UNL     1      46.036  43.120  34.424  1.00  0.00     0.053 C 
BRANCH   3   4
ATOM      4  C   UNL     1      46.580  43.046  35.814  1.00  0.00     0.041 C 
ATOM      5  O   UNL     1      45.810  43.158  36.803  1.00  0.00    -0.550 OA
ATOM      6  O   UNL     1      47.947  42.901  36.019  1.00  0.00    -0.550 OA
ENDBRANCH   3   4
ENDBRANCH   2   3
ENDBRANCH   1   2
BRANCH   1   7
ATOM      7  C   UNL     1      44.601  43.660  31.889  1.00  0.00     0.000 C 
BRANCH   7   8
ATOM      8  C   UNL     1      45.465  44.511  30.942  1.00  0.00     0.004 C 
BRANCH   8   9
ATOM      9  C   UNL     1      46.670  43.743  30.381  1.00  0.00     0.027 C 
BRANCH   9  10
ATOM     10  C   UNL     1      47.902  43.985  31.211  1.00  0.00    -0.035 C 
ATOM     11  C   UNL     1      48.077  45.120  31.894  1.00  0.00     0.004 C 
ENDBRANCH   9  10
ENDBRANCH   8   9
ENDBRANCH   7   8
ENDBRANCH   1   7
TORSDOF 7
ENDMDL
MODEL 7
REMARK VINA RESULT:    -3.863      0.870      1.619
REMARK INTER + INTRA:          -5.720
REMARK INTER:                  -5.422
REMARK INTRA:                  -0.298
REMARK UNBOUND:                -0.276
REMARK SMILES C=CCCCCCCC(=O)[O-]
REMARK SMILES IDX 6 1 7 2 8 3 9 4 10 5 11 6 5 7 4 8 3 9 2 10 1 11
REMARK H PARENT
REMARK Flexibility Score: inf
ROOT
ATOM      1  C   UNL     1      46.803  42.047  35.101  1.00  0.00     0.000 C 
ENDROOT
BRANCH   1   2
ATOM      2  C   UNL     1      46.485  42.679  33.738  1.00  0.00     0.006 C 
BRANCH   2   3
ATOM      3  C   UNL     1      46.958  44.135  33.683  1.00  0.00     0.053 C 
BRANCH   3   4
ATOM      4  C   UNL     1      47.216  44.550  32.270  1.00  0.00     0.041 C 
ATOM      5  O   UNL     1      48.385  44.829  31.895  1.00  0.00    -0.550 OA
ATOM      6  O   UNL     1      46.159  44.675  31.377  1.00  0.00    -0.550 OA
ENDBRANCH   3   4
ENDBRANCH   2   3
ENDBRANCH   1   2
BRANCH   1   7
ATOM      7  C   UNL     1      47.656  42.976  35.990  1.00  0.00     0.000 C 
BRANCH   7   8
ATOM      8  C   UNL     1      47.977  42.381  37.372  1.00  0.00     0.004 C 
BRANCH   8   9
ATOM      9  C   UNL     1      48.523  40.949  37.294  1.00  0.00     0.027 C 
BRANCH   9  10
ATOM     10  C   UNL     1      48.474  40.275  38.638  1.00  0.00    -0.035 C 
ATOM     11  C   UNL     1      48.439  40.976  39.774  1.00  0.00     0.004 C 
ENDBRANCH   9  10
ENDBRANCH   8   9
ENDBRANCH   7   8
ENDBRANCH   1   7
TORSDOF 7
ENDMDL
MODEL 8
REMARK VINA RESULT:    -3.757      4.535      6.896
REMARK INTER + INTRA:          -5.571
REMARK INTER:                  -5.379
REMARK INTRA:                  -0.192
REMARK UNBOUND:                -0.276
REMARK SMILES C=CCCCCCCC(=O)[O-]
REMARK SMILES IDX 6 1 7 2 8 3 9 4 10 5 11 6 5 7 4 8 3 9 2 10 1 11
REMARK H PARENT
REMARK Flexibility Score: inf
ROOT
ATOM      1  C   UNL     1      46.790  42.859  36.998  1.00  0.00     0.000 C 
ENDROOT
BRANCH   1   2
ATOM      2  C   UNL     1      47.662  42.625  38.240  1.00  0.00     0.006 C 
BRANCH   2   3
ATOM      3  C   UNL     1      48.469  41.330  38.109  1.00  0.00     0.053 C 
BRANCH   3   4
ATOM      4  C   UNL     1      48.411  40.546  39.381  1.00  0.00     0.041 C 
ATOM      5  O   UNL     1      48.793  41.064  40.462  1.00  0.00    -0.550 OA
ATOM      6  O   UNL     1      47.981  39.224  39.364  1.00  0.00    -0.550 OA
ENDBRANCH   3   4
ENDBRANCH   2   3
ENDBRANCH   1   2
BRANCH   1   7
ATOM      7  C   UNL     1      47.613  42.831  35.693  1.00  0.00     0.000 C 
BRANCH   7   8
ATOM      8  C   UNL     1      46.749  42.847  34.420  1.00  0.00     0.004 C 
BRANCH   8   9
ATOM      9  C   UNL     1      46.799  44.192  33.681  1.00  0.00     0.027 C 
BRANCH   9  10
ATOM     10  C   UNL     1      47.308  44.021  32.276  1.00  0.00    -0.035 C 
ATOM     11  C   UNL     1      48.112  44.923  31.706  1.00  0.00     0.004 C 
ENDBRANCH   9  10
ENDBRANCH   8   9
ENDBRANCH   7   8
ENDBRANCH   1   7
TORSDOF 7
ENDMDL
MODEL 9
REMARK VINA RESULT:    -3.757      3.067      5.992
REMARK INTER + INTRA:          -5.571
REMARK INTER:                  -5.080
REMARK INTRA:                  -0.491
REMARK UNBOUND:                -0.276
REMARK SMILES C=CCCCCCCC(=O)[O-]
REMARK SMILES IDX 6 1 7 2 8 3 9 4 10 5 11 6 5 7 4 8 3 9 2 10 1 11
REMARK H PARENT
REMARK Flexibility Score: inf
ROOT
ATOM      1  C   UNL     1      47.505  44.756  33.168  1.00  0.00     0.000 C 
ENDROOT
BRANCH   1   2
ATOM      2  C   UNL     1      46.869  43.401  33.509  1.00  0.00     0.006 C 
BRANCH   2   3
ATOM      3  C   UNL     1      46.050  43.487  34.801  1.00  0.00     0.053 C 
BRANCH   3   4
ATOM      4  C   UNL     1      46.748  42.771  35.913  1.00  0.00     0.041 C 
ATOM      5  O   UNL     1      47.995  42.871  36.047  1.00  0.00    -0.550 OA
ATOM      6  O   UNL     1      46.027  41.952  36.773  1.00  0.00    -0.550 OA
ENDBRANCH   3   4
ENDBRANCH   2   3
ENDBRANCH   1   2
BRANCH   1   7
ATOM      7  C   UNL     1      48.051  44.798  31.725  1.00  0.00     0.000 C 
BRANCH   7   8
ATOM      8  C   UNL     1      47.582  43.618  30.855  1.00  0.00     0.004 C 
BRANCH   8   9
ATOM      9  C   UNL     1      46.466  44.006  29.875  1.00  0.00     0.027 C 
BRANCH   9  10
ATOM     10  C   UNL     1      45.361  42.985  29.879  1.00  0.00    -0.035 C 
ATOM     11  C   UNL     1      44.146  43.268  30.358  1.00  0.00     0.004 C 
ENDBRANCH   9  10
ENDBRANCH   8   9
ENDBRANCH   7   8
ENDBRANCH   1   7
TORSDOF 7
ENDMDL
