MODEL 1
REMARK VINA RESULT:    -5.103      0.000      0.000
REMARK INTER + INTRA:          -7.015
REMARK INTER:                  -6.595
REMARK INTRA:                  -0.420
REMARK UNBOUND:                -0.420
REMARK SMILES CCO[C@@H]1O[C@H](CO)[C@@H](O)[C@@H](O)[C@@H]1O
REMARK SMILES IDX 4 1 13 2 11 3 9 4 6 5 5 6 3 7 2 8 1 9 14 10 12 12 7 14 8 15
REMARK SMILES IDX 10 17
REMARK H PARENT 14 11 12 13 8 16 10 18
REMARK Flexibility Score: inf
ROOT
ATOM      1  C   UNL     1      11.865   2.334  -3.028  1.00  0.00     0.281 C 
ATOM      2  C   UNL     1      10.575   3.086  -2.565  1.00  0.00     0.202 C 
ATOM      3  C   UNL     1       9.751   2.237  -1.570  1.00  0.00     0.179 C 
ATOM      4  C   UNL     1      10.643   1.730  -0.408  1.00  0.00     0.177 C 
ATOM      5  C   UNL     1      12.109   1.479  -0.868  1.00  0.00     0.178 C 
ATOM      6  O   UNL     1      12.145   1.173  -2.250  1.00  0.00    -0.341 OA
ENDROOT
BRANCH   1   7
ATOM      7  O   UNL     1      11.843   2.034  -4.419  1.00  0.00    -0.350 OA
BRANCH   7   8
ATOM      8  C   UNL     1      11.513   0.683  -4.699  1.00  0.00     0.160 C 
ATOM      9  C   UNL     1      11.931   0.329  -6.120  1.00  0.00     0.035 C 
ENDBRANCH   7   8
ENDBRANCH   1   7
BRANCH   2  10
ATOM     10  O   UNL     1       9.797   3.521  -3.656  1.00  0.00    -0.385 OA
ATOM     11  H   UNL     1      10.348   4.144  -4.197  1.00  0.00     0.211 HD
ENDBRANCH   2  10
BRANCH   3  12
ATOM     12  O   UNL     1       8.675   2.986  -1.060  1.00  0.00    -0.387 OA
ATOM     13  H   UNL     1       8.023   3.099  -1.801  1.00  0.00     0.211 HD
ENDBRANCH   3  12
BRANCH   5  14
ATOM     14  C   UNL     1      12.750   0.317  -0.095  1.00  0.00     0.191 C 
BRANCH  14  15
ATOM     15  O   UNL     1      12.077   0.088   1.115  1.00  0.00    -0.394 OA
ATOM     16  H   UNL     1      11.501   0.882   1.274  1.00  0.00     0.210 HD
ENDBRANCH  14  15
ENDBRANCH   5  14
BRANCH   4  17
ATOM     17  O   UNL     1      10.619   2.614   0.688  1.00  0.00    -0.387 OA
ATOM     18  H   UNL     1      11.116   2.184   1.433  1.00  0.00     0.211 HD
ENDBRANCH   4  17
TORSDOF 7
ENDMDL
MODEL 2
REMARK VINA RESULT:    -4.774      1.247      4.276
REMARK INTER + INTRA:          -6.589
REMARK INTER:                  -6.193
REMARK INTRA:                  -0.395
REMARK UNBOUND:                -0.420
REMARK SMILES CCO[C@@H]1O[C@H](CO)[C@@H](O)[C@@H](O)[C@@H]1O
REMARK SMILES IDX 4 1 13 2 11 3 9 4 6 5 5 6 3 7 2 8 1 9 14 10 12 12 7 14 8 15
REMARK SMILES IDX 10 17
REMARK H PARENT 14 11 12 13 8 16 10 18
REMARK Flexibility Score: inf
ROOT
ATOM      1  C   UNL     1      10.878   1.701  -1.180  1.00  0.00     0.281 C 
ATOM      2  C   UNL     1      10.344   3.169  -1.218  1.00  0.00     0.202 C 
ATOM      3  C   UNL     1      11.042   3.997  -2.321  1.00  0.00     0.179 C 
ATOM      4  C   UNL     1      10.980   3.262  -3.686  1.00  0.00     0.177 C 
ATOM      5  C   UNL     1      11.007   1.716  -3.513  1.00  0.00     0.178 C 
ATOM      6  O   UNL     1      11.674   1.365  -2.315  1.00  0.00    -0.341 OA
ENDROOT
BRANCH   1   7
ATOM      7  O   UNL     1      11.556   1.405   0.035  1.00  0.00    -0.350 OA
BRANCH   7   8
ATOM      8  C   UNL     1      12.691   0.573  -0.141  1.00  0.00     0.160 C 
ATOM      9  C   UNL     1      12.915  -0.274   1.105  1.00  0.00     0.035 C 
ENDBRANCH   7   8
ENDBRANCH   1   7
BRANCH   2  10
ATOM     10  O   UNL     1      10.427   3.794   0.041  1.00  0.00    -0.385 OA
ATOM     11  H   UNL     1      11.287   3.530   0.459  1.00  0.00     0.211 HD
ENDBRANCH   2  10
BRANCH   3  12
ATOM     12  O   UNL     1      10.448   5.268  -2.431  1.00  0.00    -0.387 OA
ATOM     13  H   UNL     1       9.890   5.398  -1.620  1.00  0.00     0.211 HD
ENDBRANCH   3  12
BRANCH   5  14
ATOM     14  C   UNL     1      11.721   1.032  -4.687  1.00  0.00     0.191 C 
BRANCH  14  15
ATOM     15  O   UNL     1      11.738   1.862  -5.818  1.00  0.00    -0.394 OA
ATOM     16  H   UNL     1      11.945   2.778  -5.494  1.00  0.00     0.210 HD
ENDBRANCH  14  15
ENDBRANCH   5  14
BRANCH   4  17
ATOM     17  O   UNL     1       9.852   3.652  -4.433  1.00  0.00    -0.387 OA
ATOM     18  H   UNL     1       9.115   3.023  -4.217  1.00  0.00     0.211 HD
ENDBRANCH   4  17
TORSDOF 7
ENDMDL
MODEL 3
REMARK VINA RESULT:    -4.578      1.854      4.659
REMARK INTER + INTRA:          -6.335
REMARK INTER:                  -5.956
REMARK INTRA:                  -0.379
REMARK UNBOUND:                -0.420
REMARK SMILES CCO[C@@H]1O[C@H](CO)[C@@H](O)[C@@H](O)[C@@H]1O
REMARK SMILES IDX 4 1 13 2 11 3 9 4 6 5 5 6 3 7 2 8 1 9 14 10 12 12 7 14 8 15
REMARK SMILES IDX 10 17
REMARK H PARENT 14 11 12 13 8 16 10 18
REMARK Flexibility Score: inf
ROOT
ATOM      1  C   UNL     1       9.435   3.836  -1.311  1.00  0.00     0.281 C 
ATOM      2  C   UNL     1      10.303   3.030  -0.290  1.00  0.00     0.202 C 
ATOM      3  C   UNL     1      10.891   1.753  -0.931  1.00  0.00     0.179 C 
ATOM      4  C   UNL     1      11.620   2.088  -2.259  1.00  0.00     0.177 C 
ATOM      5  C   UNL     1      10.960   3.291  -2.995  1.00  0.00     0.178 C 
ATOM      6  O   UNL     1       9.589   3.384  -2.655  1.00  0.00    -0.341 OA
ENDROOT
BRANCH   1   7
ATOM      7  O   UNL     1       8.064   3.885  -0.933  1.00  0.00    -0.350 OA
BRANCH   7   8
ATOM      8  C   UNL     1       7.178   3.955  -2.039  1.00  0.00     0.160 C 
ATOM      9  C   UNL     1       5.875   4.623  -1.620  1.00  0.00     0.035 C 
ENDBRANCH   7   8
ENDBRANCH   1   7
BRANCH   2  10
ATOM     10  O   UNL     1       9.595   2.746   0.894  1.00  0.00    -0.385 OA
ATOM     11  H   UNL     1       9.039   3.537   1.117  1.00  0.00     0.211 HD
ENDBRANCH   2  10
BRANCH   3  12
ATOM     12  O   UNL     1      11.779   1.121  -0.041  1.00  0.00    -0.387 OA
ATOM     13  H   UNL     1      12.687   1.195  -0.436  1.00  0.00     0.211 HD
ENDBRANCH   3  12
BRANCH   5  14
ATOM     14  C   UNL     1      11.075   3.148  -4.519  1.00  0.00     0.191 C 
BRANCH  14  15
ATOM     15  O   UNL     1      11.835   2.019  -4.862  1.00  0.00    -0.394 OA
ATOM     16  H   UNL     1      11.201   1.257  -4.917  1.00  0.00     0.210 HD
ENDBRANCH  14  15
ENDBRANCH   5  14
BRANCH   4  17
ATOM     17  O   UNL     1      12.990   2.334  -2.051  1.00  0.00    -0.387 OA
ATOM     18  H   UNL     1      13.403   2.512  -2.936  1.00  0.00     0.211 HD
ENDBRANCH   4  17
TORSDOF 7
ENDMDL
MODEL 4
REMARK VINA RESULT:    -4.421      2.384      3.801
REMARK INTER + INTRA:          -6.133
REMARK INTER:                  -5.775
REMARK INTRA:                  -0.358
REMARK UNBOUND:                -0.420
REMARK SMILES CCO[C@@H]1O[C@H](CO)[C@@H](O)[C@@H](O)[C@@H]1O
REMARK SMILES IDX 4 1 13 2 11 3 9 4 6 5 5 6 3 7 2 8 1 9 14 10 12 12 7 14 8 15
REMARK SMILES IDX 10 17
REMARK H PARENT 14 11 12 13 8 16 10 18
REMARK Flexibility Score: inf
ROOT
ATOM      1  C   UNL     1      10.380   2.930  -2.139  1.00  0.00     0.281 C 
ATOM      2  C   UNL     1       9.511   2.601  -0.882  1.00  0.00     0.202 C 
ATOM      3  C   UNL     1       9.823   3.561   0.289  1.00  0.00     0.179 C 
ATOM      4  C   UNL     1       9.739   5.039  -0.173  1.00  0.00     0.177 C 
ATOM      5  C   UNL     1      10.159   5.206  -1.662  1.00  0.00     0.178 C 
ATOM      6  O   UNL     1      11.058   4.180  -2.039  1.00  0.00    -0.341 OA
ENDROOT
BRANCH   1   7
ATOM      7  O   UNL     1      11.278   1.876  -2.464  1.00  0.00    -0.350 OA
BRANCH   7   8
ATOM      8  C   UNL     1      11.875   2.018  -3.743  1.00  0.00     0.160 C 
ATOM      9  C   UNL     1      11.500   0.836  -4.627  1.00  0.00     0.035 C 
ENDBRANCH   7   8
ENDBRANCH   1   7
BRANCH   2  10
ATOM     10  O   UNL     1       9.625   1.250  -0.500  1.00  0.00    -0.385 OA
ATOM     11  H   UNL     1      10.526   1.117  -0.107  1.00  0.00     0.211 HD
ENDBRANCH   2  10
BRANCH   3  12
ATOM     12  O   UNL     1       8.933   3.338   1.356  1.00  0.00    -0.387 OA
ATOM     13  H   UNL     1       8.038   3.647   1.056  1.00  0.00     0.211 HD
ENDBRANCH   3  12
BRANCH   5  14
ATOM     14  C   UNL     1      10.837   6.562  -1.906  1.00  0.00     0.191 C 
BRANCH  14  15
ATOM     15  O   UNL     1      10.750   7.379  -0.769  1.00  0.00    -0.394 OA
ATOM     16  H   UNL     1      10.814   8.317  -1.088  1.00  0.00     0.210 HD
ENDBRANCH  14  15
ENDBRANCH   5  14
BRANCH   4  17
ATOM     17  O   UNL     1       8.454   5.575   0.036  1.00  0.00    -0.387 OA
ATOM     18  H   UNL     1       8.346   6.349  -0.577  1.00  0.00     0.211 HD
ENDBRANCH   4  17
TORSDOF 7
ENDMDL
MODEL 5
REMARK VINA RESULT:    -4.386     16.928     18.831
REMARK INTER + INTRA:          -6.088
REMARK INTER:                  -5.776
REMARK INTRA:                  -0.312
REMARK UNBOUND:                -0.420
REMARK SMILES CCO[C@@H]1O[C@H](CO)[C@@H](O)[C@@H](O)[C@@H]1O
REMARK SMILES IDX 4 1 13 2 11 3 9 4 6 5 5 6 3 7 2 8 1 9 14 10 12 12 7 14 8 15
REMARK SMILES IDX 10 17
REMARK H PARENT 14 11 12 13 8 16 10 18
REMARK Flexibility Score: inf
ROOT
ATOM      1  C   UNL     1      19.984  -7.389  11.866  1.00  0.00     0.281 C 
ATOM      2  C   UNL     1      18.960  -7.669  10.718  1.00  0.00     0.202 C 
ATOM      3  C   UNL     1      19.655  -7.716   9.338  1.00  0.00     0.179 C 
ATOM      4  C   UNL     1      20.865  -8.686   9.363  1.00  0.00     0.177 C 
ATOM      5  C   UNL     1      21.548  -8.727  10.761  1.00  0.00     0.178 C 
ATOM      6  O   UNL     1      21.342  -7.505  11.446  1.00  0.00    -0.341 OA
ENDROOT
BRANCH   1   7
ATOM      7  O   UNL     1      19.744  -6.142  12.509  1.00  0.00    -0.350 OA
BRANCH   7   8
ATOM      8  C   UNL     1      20.923  -5.531  13.009  1.00  0.00     0.160 C 
ATOM      9  C   UNL     1      20.764  -4.016  13.010  1.00  0.00     0.035 C 
ENDBRANCH   7   8
ENDBRANCH   1   7
BRANCH   2  10
ATOM     10  O   UNL     1      17.885  -6.759  10.736  1.00  0.00    -0.385 OA
ATOM     11  H   UNL     1      18.178  -5.947  11.224  1.00  0.00     0.211 HD
ENDBRANCH   2  10
BRANCH   3  12
ATOM     12  O   UNL     1      18.743  -8.109   8.343  1.00  0.00    -0.387 OA
ATOM     13  H   UNL     1      18.682  -9.099   8.379  1.00  0.00     0.211 HD
ENDBRANCH   3  12
BRANCH   5  14
ATOM     14  C   UNL     1      23.059  -8.969  10.642  1.00  0.00     0.191 C 
BRANCH  14  15
ATOM     15  O   UNL     1      23.501  -8.750   9.328  1.00  0.00    -0.394 OA
ATOM     16  H   UNL     1      24.432  -8.412   9.394  1.00  0.00     0.210 HD
ENDBRANCH  14  15
ENDBRANCH   5  14
BRANCH   4  17
ATOM     17  O   UNL     1      20.497  -9.984   8.961  1.00  0.00    -0.387 OA
ATOM     18  H   UNL     1      19.841 -10.330   9.621  1.00  0.00     0.211 HD
ENDBRANCH   4  17
TORSDOF 7
ENDMDL
MODEL 6
REMARK VINA RESULT:    -4.357      2.531      4.931
REMARK INTER + INTRA:          -6.050
REMARK INTER:                  -5.741
REMARK INTRA:                  -0.309
REMARK UNBOUND:                -0.420
REMARK SMILES CCO[C@@H]1O[C@H](CO)[C@@H](O)[C@@H](O)[C@@H]1O
REMARK SMILES IDX 4 1 13 2 11 3 9 4 6 5 5 6 3 7 2 8 1 9 14 10 12 12 7 14 8 15
REMARK SMILES IDX 10 17
REMARK H PARENT 14 11 12 13 8 16 10 18
REMARK Flexibility Score: inf
ROOT
ATOM      1  C   UNL     1       8.941   3.652   0.588  1.00  0.00     0.281 C 
ATOM      2  C   UNL     1       8.142   3.869  -0.738  1.00  0.00     0.202 C 
ATOM      3  C   UNL     1       9.081   3.908  -1.965  1.00  0.00     0.179 C 
ATOM      4  C   UNL     1      10.017   2.671  -1.982  1.00  0.00     0.177 C 
ATOM      5  C   UNL     1      10.369   2.190  -0.544  1.00  0.00     0.178 C 
ATOM      6  O   UNL     1      10.297   3.270   0.368  1.00  0.00    -0.341 OA
ENDROOT
BRANCH   1   7
ATOM      7  O   UNL     1       8.852   4.772   1.461  1.00  0.00    -0.350 OA
BRANCH   7   8
ATOM      8  C   UNL     1      10.000   5.604   1.428  1.00  0.00     0.160 C 
ATOM      9  C   UNL     1      10.322   6.103   2.831  1.00  0.00     0.035 C 
ENDBRANCH   7   8
ENDBRANCH   1   7
BRANCH   2  10
ATOM     10  O   UNL     1       7.312   5.005  -0.673  1.00  0.00    -0.385 OA
ATOM     11  H   UNL     1       7.332   5.349   0.257  1.00  0.00     0.211 HD
ENDBRANCH   2  10
BRANCH   3  12
ATOM     12  O   UNL     1       8.332   3.961  -3.154  1.00  0.00    -0.387 OA
ATOM     13  H   UNL     1       7.532   4.520  -2.968  1.00  0.00     0.211 HD
ENDBRANCH   3  12
BRANCH   5  14
ATOM     14  C   UNL     1      11.782   1.593  -0.482  1.00  0.00     0.191 C 
BRANCH  14  15
ATOM     15  O   UNL     1      12.552   2.009  -1.579  1.00  0.00    -0.394 OA
ATOM     16  H   UNL     1      12.980   2.866  -1.316  1.00  0.00     0.210 HD
ENDBRANCH  14  15
ENDBRANCH   5  14
BRANCH   4  17
ATOM     17  O   UNL     1       9.465   1.614  -2.730  1.00  0.00    -0.387 OA
ATOM     18  H   UNL     1      10.200   1.198  -3.253  1.00  0.00     0.211 HD
ENDBRANCH   4  17
TORSDOF 7
ENDMDL
MODEL 7
REMARK VINA RESULT:    -4.340      1.916      3.852
REMARK INTER + INTRA:          -6.028
REMARK INTER:                  -5.710
REMARK INTRA:                  -0.318
REMARK UNBOUND:                -0.420
REMARK SMILES CCO[C@@H]1O[C@H](CO)[C@@H](O)[C@@H](O)[C@@H]1O
REMARK SMILES IDX 4 1 13 2 11 3 9 4 6 5 5 6 3 7 2 8 1 9 14 10 12 12 7 14 8 15
REMARK SMILES IDX 10 17
REMARK H PARENT 14 11 12 13 8 16 10 18
REMARK Flexibility Score: inf
ROOT
ATOM      1  C   UNL     1      11.754   2.003  -0.919  1.00  0.00     0.281 C 
ATOM      2  C   UNL     1      11.627   2.772  -2.274  1.00  0.00     0.202 C 
ATOM      3  C   UNL     1      10.148   3.043  -2.635  1.00  0.00     0.179 C 
ATOM      4  C   UNL     1       9.407   3.716  -1.450  1.00  0.00     0.177 C 
ATOM      5  C   UNL     1       9.969   3.252  -0.075  1.00  0.00     0.178 C 
ATOM      6  O   UNL     1      10.532   1.958  -0.184  1.00  0.00    -0.341 OA
ENDROOT
BRANCH   1   7
ATOM      7  O   UNL     1      12.308   0.703  -1.086  1.00  0.00    -0.350 OA
BRANCH   7   8
ATOM      8  C   UNL     1      13.355   0.416  -0.173  1.00  0.00     0.160 C 
ATOM      9  C   UNL     1      12.800  -0.314   1.043  1.00  0.00     0.035 C 
ENDBRANCH   7   8
ENDBRANCH   1   7
BRANCH   2  10
ATOM     10  O   UNL     1      12.311   2.118  -3.317  1.00  0.00    -0.385 OA
ATOM     11  H   UNL     1      12.590   2.802  -3.979  1.00  0.00     0.211 HD
ENDBRANCH   2  10
BRANCH   3  12
ATOM     12  O   UNL     1      10.063   3.855  -3.780  1.00  0.00    -0.387 OA
ATOM     13  H   UNL     1      10.554   3.386  -4.505  1.00  0.00     0.211 HD
ENDBRANCH   3  12
BRANCH   5  14
ATOM     14  C   UNL     1       8.871   3.216   0.998  1.00  0.00     0.191 C 
BRANCH  14  15
ATOM     15  O   UNL     1       8.528   4.514   1.409  1.00  0.00    -0.394 OA
ATOM     16  H   UNL     1       7.809   4.824   0.798  1.00  0.00     0.210 HD
ENDBRANCH  14  15
ENDBRANCH   5  14
BRANCH   4  17
ATOM     17  O   UNL     1       9.445   5.120  -1.546  1.00  0.00    -0.387 OA
ATOM     18  H   UNL     1       8.705   5.402  -2.145  1.00  0.00     0.211 HD
ENDBRANCH   4  17
TORSDOF 7
ENDMDL
MODEL 8
REMARK VINA RESULT:    -4.259      1.691      4.113
REMARK INTER + INTRA:          -5.923
REMARK INTER:                  -5.663
REMARK INTRA:                  -0.260
REMARK UNBOUND:                -0.420
REMARK SMILES CCO[C@@H]1O[C@H](CO)[C@@H](O)[C@@H](O)[C@@H]1O
REMARK SMILES IDX 4 1 13 2 11 3 9 4 6 5 5 6 3 7 2 8 1 9 14 10 12 12 7 14 8 15
REMARK SMILES IDX 10 17
REMARK H PARENT 14 11 12 13 8 16 10 18
REMARK Flexibility Score: inf
ROOT
ATOM      1  C   UNL     1       9.498   2.665  -0.723  1.00  0.00     0.281 C 
ATOM      2  C   UNL     1       9.493   3.152  -2.209  1.00  0.00     0.202 C 
ATOM      3  C   UNL     1      10.924   3.452  -2.710  1.00  0.00     0.179 C 
ATOM      4  C   UNL     1      11.868   2.252  -2.437  1.00  0.00     0.177 C 
ATOM      5  C   UNL     1      11.467   1.482  -1.145  1.00  0.00     0.178 C 
ATOM      6  O   UNL     1      10.802   2.346  -0.242  1.00  0.00    -0.341 OA
ENDROOT
BRANCH   1   7
ATOM      7  O   UNL     1       8.833   3.577   0.144  1.00  0.00    -0.350 OA
BRANCH   7   8
ATOM      8  C   UNL     1       9.663   4.071   1.184  1.00  0.00     0.160 C 
ATOM      9  C   UNL     1       9.725   5.592   1.123  1.00  0.00     0.035 C 
ENDBRANCH   7   8
ENDBRANCH   1   7
BRANCH   2  10
ATOM     10  O   UNL     1       8.627   4.244  -2.403  1.00  0.00    -0.385 OA
ATOM     11  H   UNL     1       8.682   4.827  -1.603  1.00  0.00     0.211 HD
ENDBRANCH   2  10
BRANCH   3  12
ATOM     12  O   UNL     1      10.909   3.750  -4.085  1.00  0.00    -0.387 OA
ATOM     13  H   UNL     1      10.199   3.190  -4.495  1.00  0.00     0.211 HD
ENDBRANCH   3  12
BRANCH   5  14
ATOM     14  C   UNL     1      12.697   0.893  -0.438  1.00  0.00     0.191 C 
BRANCH  14  15
ATOM     15  O   UNL     1      12.326   0.217   0.734  1.00  0.00    -0.394 OA
ATOM     16  H   UNL     1      13.138  -0.253   1.060  1.00  0.00     0.210 HD
ENDBRANCH  14  15
ENDBRANCH   5  14
BRANCH   4  17
ATOM     17  O   UNL     1      11.919   1.372  -3.534  1.00  0.00    -0.387 OA
ATOM     18  H   UNL     1      11.293   0.624  -3.351  1.00  0.00     0.211 HD
ENDBRANCH   4  17
TORSDOF 7
ENDMDL
MODEL 9
REMARK VINA RESULT:    -4.056      1.783      3.905
REMARK INTER + INTRA:          -5.661
REMARK INTER:                  -5.358
REMARK INTRA:                  -0.303
REMARK UNBOUND:                -0.420
REMARK SMILES CCO[C@@H]1O[C@H](CO)[C@@H](O)[C@@H](O)[C@@H]1O
REMARK SMILES IDX 4 1 13 2 11 3 9 4 6 5 5 6 3 7 2 8 1 9 14 10 12 12 7 14 8 15
REMARK SMILES IDX 10 17
REMARK H PARENT 14 11 12 13 8 16 10 18
REMARK Flexibility Score: inf
ROOT
ATOM      1  C   UNL     1      10.353   4.417  -2.387  1.00  0.00     0.281 C 
ATOM      2  C   UNL     1      10.409   4.134  -0.851  1.00  0.00     0.202 C 
ATOM      3  C   UNL     1      10.135   2.645  -0.539  1.00  0.00     0.179 C 
ATOM      4  C   UNL     1      11.052   1.726  -1.389  1.00  0.00     0.177 C 
ATOM      5  C   UNL     1      11.373   2.353  -2.777  1.00  0.00     0.178 C 
ATOM      6  O   UNL     1      10.335   3.229  -3.175  1.00  0.00    -0.341 OA
ENDROOT
BRANCH   1   7
ATOM      7  O   UNL     1       9.282   5.287  -2.736  1.00  0.00    -0.350 OA
BRANCH   7   8
ATOM      8  C   UNL     1       8.242   4.641  -3.451  1.00  0.00     0.160 C 
ATOM      9  C   UNL     1       7.059   4.381  -2.527  1.00  0.00     0.035 C 
ENDBRANCH   7   8
ENDBRANCH   1   7
BRANCH   2  10
ATOM     10  O   UNL     1       9.557   4.989  -0.125  1.00  0.00    -0.385 OA
ATOM     11  H   UNL     1       8.783   4.455   0.192  1.00  0.00     0.211 HD
ENDBRANCH   2  10
BRANCH   3  12
ATOM     12  O   UNL     1      10.331   2.386   0.830  1.00  0.00    -0.387 OA
ATOM     13  H   UNL     1      11.298   2.199   0.954  1.00  0.00     0.211 HD
ENDBRANCH   3  12
BRANCH   5  14
ATOM     14  C   UNL     1      11.539   1.272  -3.856  1.00  0.00     0.191 C 
BRANCH  14  15
ATOM     15  O   UNL     1      11.875   1.845  -5.092  1.00  0.00    -0.394 OA
ATOM     16  H   UNL     1      11.873   2.829  -4.959  1.00  0.00     0.210 HD
ENDBRANCH  14  15
ENDBRANCH   5  14
BRANCH   4  17
ATOM     17  O   UNL     1      12.242   1.409  -0.708  1.00  0.00    -0.387 OA
ATOM     18  H   UNL     1      12.880   1.038  -1.372  1.00  0.00     0.211 HD
ENDBRANCH   4  17
TORSDOF 7
ENDMDL
