MODEL 1
REMARK VINA RESULT:    -3.393      0.000      0.000
REMARK INTER + INTRA:          -6.395
REMARK INTER:                  -5.376
REMARK INTRA:                  -1.018
REMARK UNBOUND:                -1.018
REMARK SMILES CCCCCCCCCCCC(=O)[O-]
REMARK SMILES IDX 7 1 8 2 9 3 10 4 11 5 12 6 13 7 14 8 6 9 5 10 4 11 3 12 2 13
REMARK SMILES IDX 1 14
REMARK H PARENT
REMARK Flexibility Score: inf
ROOT
ATOM      1  C   UNL     1       4.886 105.900 180.285  1.00  0.00     0.000 C 
ENDROOT
BRANCH   1   2
ATOM      2  C   UNL     1       3.845 106.183 181.379  1.00  0.00     0.000 C 
BRANCH   2   3
ATOM      3  C   UNL     1       4.378 107.205 182.392  1.00  0.00     0.000 C 
BRANCH   3   4
ATOM      4  C   UNL     1       4.306 108.630 181.825  1.00  0.00     0.006 C 
BRANCH   4   5
ATOM      5  C   UNL     1       2.862 109.127 181.685  1.00  0.00     0.053 C 
BRANCH   5   6
ATOM      6  C   UNL     1       2.314 109.614 182.992  1.00  0.00     0.041 C 
ATOM      7  O   UNL     1       2.637 110.748 183.433  1.00  0.00    -0.550 OA
ATOM      8  O   UNL     1       1.420 108.827 183.706  1.00  0.00    -0.550 OA
ENDBRANCH   5   6
ENDBRANCH   4   5
ENDBRANCH   3   4
ENDBRANCH   2   3
ENDBRANCH   1   2
BRANCH   1   9
ATOM      9  C   UNL     1       4.257 105.358 178.991  1.00  0.00     0.000 C 
BRANCH   9  10
ATOM     10  C   UNL     1       2.795 104.916 179.186  1.00  0.00    -0.000 C 
BRANCH  10  11
ATOM     11  C   UNL     1       1.982 104.974 177.883  1.00  0.00    -0.000 C 
BRANCH  11  12
ATOM     12  C   UNL     1       0.899 106.066 177.909  1.00  0.00    -0.000 C 
BRANCH  12  13
ATOM     13  C   UNL     1       0.842 106.807 179.255  1.00  0.00    -0.003 C 
ATOM     14  C   UNL     1       0.242 108.208 179.137  1.00  0.00     0.004 C 
ENDBRANCH  12  13
ENDBRANCH  11  12
ENDBRANCH  10  11
ENDBRANCH   9  10
ENDBRANCH   1   9
TORSDOF 10
ENDMDL
MODEL 2
REMARK VINA RESULT:    -3.349      3.011      5.034
REMARK INTER + INTRA:          -6.325
REMARK INTER:                  -5.081
REMARK INTRA:                  -1.243
REMARK UNBOUND:                -1.018
REMARK SMILES CCCCCCCCCCCC(=O)[O-]
REMARK SMILES IDX 7 1 8 2 9 3 10 4 11 5 12 6 13 7 14 8 6 9 5 10 4 11 3 12 2 13
REMARK SMILES IDX 1 14
REMARK H PARENT
REMARK Flexibility Score: inf
ROOT
ATOM      1  C   UNL     1       2.176 108.827 182.229  1.00  0.00     0.000 C 
ENDROOT
BRANCH   1   2
ATOM      2  C   UNL     1       2.984 109.957 182.886  1.00  0.00     0.000 C 
BRANCH   2   3
ATOM      3  C   UNL     1       3.970 110.577 181.887  1.00  0.00     0.000 C 
BRANCH   3   4
ATOM      4  C   UNL     1       4.504 111.921 182.404  1.00  0.00     0.006 C 
BRANCH   4   5
ATOM      5  C   UNL     1       4.428 112.027 183.932  1.00  0.00     0.053 C 
BRANCH   5   6
ATOM      6  C   UNL     1       3.830 113.329 184.369  1.00  0.00     0.041 C 
ATOM      7  O   UNL     1       4.495 114.394 184.282  1.00  0.00    -0.550 OA
ATOM      8  O   UNL     1       2.525 113.369 184.844  1.00  0.00    -0.550 OA
ENDBRANCH   5   6
ENDBRANCH   4   5
ENDBRANCH   3   4
ENDBRANCH   2   3
ENDBRANCH   1   2
BRANCH   1   9
ATOM      9  C   UNL     1       3.033 107.940 181.311  1.00  0.00     0.000 C 
BRANCH   9  10
ATOM     10  C   UNL     1       3.754 106.818 182.080  1.00  0.00    -0.000 C 
BRANCH  10  11
ATOM     11  C   UNL     1       5.229 106.675 181.670  1.00  0.00    -0.000 C 
BRANCH  11  12
ATOM     12  C   UNL     1       6.192 106.841 182.858  1.00  0.00    -0.000 C 
BRANCH  12  13
ATOM     13  C   UNL     1       5.638 107.784 183.938  1.00  0.00    -0.003 C 
ATOM     14  C   UNL     1       6.589 108.934 184.267  1.00  0.00     0.004 C 
ENDBRANCH  12  13
ENDBRANCH  11  12
ENDBRANCH  10  11
ENDBRANCH   9  10
ENDBRANCH   1   9
TORSDOF 10
ENDMDL
MODEL 3
REMARK VINA RESULT:    -3.321      3.094      5.694
REMARK INTER + INTRA:          -6.282
REMARK INTER:                  -5.065
REMARK INTRA:                  -1.217
REMARK UNBOUND:                -1.018
REMARK SMILES CCCCCCCCCCCC(=O)[O-]
REMARK SMILES IDX 7 1 8 2 9 3 10 4 11 5 12 6 13 7 14 8 6 9 5 10 4 11 3 12 2 13
REMARK SMILES IDX 1 14
REMARK H PARENT
REMARK Flexibility Score: inf
ROOT
ATOM      1  C   UNL     1       3.257 108.927 181.029  1.00  0.00     0.000 C 
ENDROOT
BRANCH   1   2
ATOM      2  C   UNL     1       3.843 107.568 180.614  1.00  0.00     0.000 C 
BRANCH   2   3
ATOM      3  C   UNL     1       3.950 106.626 181.821  1.00  0.00     0.000 C 
BRANCH   3   4
ATOM      4  C   UNL     1       5.373 106.632 182.399  1.00  0.00     0.006 C 
BRANCH   4   5
ATOM      5  C   UNL     1       5.446 107.345 183.755  1.00  0.00     0.053 C 
BRANCH   5   6
ATOM      6  C   UNL     1       6.259 108.601 183.679  1.00  0.00     0.041 C 
ATOM      7  O   UNL     1       6.643 109.174 184.732  1.00  0.00    -0.550 OA
ATOM      8  O   UNL     1       6.619 109.121 182.442  1.00  0.00    -0.550 OA
ENDBRANCH   5   6
ENDBRANCH   4   5
ENDBRANCH   3   4
ENDBRANCH   2   3
ENDBRANCH   1   2
BRANCH   1   9
ATOM      9  C   UNL     1       2.352 108.830 182.268  1.00  0.00     0.000 C 
BRANCH   9  10
ATOM     10  C   UNL     1       2.518 110.031 183.217  1.00  0.00    -0.000 C 
BRANCH  10  11
ATOM     11  C   UNL     1       3.625 110.994 182.760  1.00  0.00    -0.000 C 
BRANCH  11  12
ATOM     12  C   UNL     1       4.270 111.753 183.933  1.00  0.00    -0.000 C 
BRANCH  12  13
ATOM     13  C   UNL     1       4.010 113.266 183.870  1.00  0.00    -0.003 C 
ATOM     14  C   UNL     1       2.813 113.699 184.716  1.00  0.00     0.004 C 
ENDBRANCH  12  13
ENDBRANCH  11  12
ENDBRANCH  10  11
ENDBRANCH   9  10
ENDBRANCH   1   9
TORSDOF 10
ENDMDL
MODEL 4
REMARK VINA RESULT:    -3.244      2.232      3.594
REMARK INTER + INTRA:          -6.159
REMARK INTER:                  -4.987
REMARK INTRA:                  -1.172
REMARK UNBOUND:                -1.018
REMARK SMILES CCCCCCCCCCCC(=O)[O-]
REMARK SMILES IDX 7 1 8 2 9 3 10 4 11 5 12 6 13 7 14 8 6 9 5 10 4 11 3 12 2 13
REMARK SMILES IDX 1 14
REMARK H PARENT
REMARK Flexibility Score: inf
ROOT
ATOM      1  C   UNL     1       2.613 108.423 179.433  1.00  0.00     0.000 C 
ENDROOT
BRANCH   1   2
ATOM      2  C   UNL     1       3.358 108.943 180.672  1.00  0.00     0.000 C 
BRANCH   2   3
ATOM      3  C   UNL     1       2.919 108.185 181.932  1.00  0.00     0.000 C 
BRANCH   3   4
ATOM      4  C   UNL     1       3.653 106.841 182.051  1.00  0.00     0.006 C 
BRANCH   4   5
ATOM      5  C   UNL     1       5.175 107.001 181.948  1.00  0.00     0.053 C 
BRANCH   5   6
ATOM      6  C   UNL     1       5.823 107.028 183.299  1.00  0.00     0.041 C 
ATOM      7  O   UNL     1       5.688 108.030 184.048  1.00  0.00    -0.550 OA
ATOM      8  O   UNL     1       6.550 105.930 183.742  1.00  0.00    -0.550 OA
ENDBRANCH   5   6
ENDBRANCH   4   5
ENDBRANCH   3   4
ENDBRANCH   2   3
ENDBRANCH   1   2
BRANCH   1   9
ATOM      9  C   UNL     1       1.177 107.971 179.749  1.00  0.00     0.000 C 
BRANCH   9  10
ATOM     10  C   UNL     1       0.784 106.686 178.997  1.00  0.00    -0.000 C 
BRANCH  10  11
ATOM     11  C   UNL     1       1.757 105.526 179.263  1.00  0.00    -0.000 C 
BRANCH  11  12
ATOM     12  C   UNL     1       2.136 104.767 177.979  1.00  0.00    -0.000 C 
BRANCH  12  13
ATOM     13  C   UNL     1       3.602 104.307 177.977  1.00  0.00    -0.003 C 
ATOM     14  C   UNL     1       4.506 105.201 178.825  1.00  0.00     0.004 C 
ENDBRANCH  12  13
ENDBRANCH  11  12
ENDBRANCH  10  11
ENDBRANCH   9  10
ENDBRANCH   1   9
TORSDOF 10
ENDMDL
MODEL 5
REMARK VINA RESULT:    -3.217      2.140      4.796
REMARK INTER + INTRA:          -6.115
REMARK INTER:                  -4.982
REMARK INTRA:                  -1.133
REMARK UNBOUND:                -1.018
REMARK SMILES CCCCCCCCCCCC(=O)[O-]
REMARK SMILES IDX 7 1 8 2 9 3 10 4 11 5 12 6 13 7 14 8 6 9 5 10 4 11 3 12 2 13
REMARK SMILES IDX 1 14
REMARK H PARENT
REMARK Flexibility Score: inf
ROOT
ATOM      1  C   UNL     1       5.714 106.970 181.305  1.00  0.00     0.000 C 
ENDROOT
BRANCH   1   2
ATOM      2  C   UNL     1       4.956 105.979 180.408  1.00  0.00     0.000 C 
BRANCH   2   3
ATOM      3  C   UNL     1       3.469 105.927 180.784  1.00  0.00     0.000 C 
BRANCH   3   4
ATOM      4  C   UNL     1       2.654 105.199 179.704  1.00  0.00     0.006 C 
BRANCH   4   5
ATOM      5  C   UNL     1       2.307 106.113 178.523  1.00  0.00     0.053 C 
BRANCH   5   6
ATOM      6  C   UNL     1       1.575 107.342 178.970  1.00  0.00     0.041 C 
ATOM      7  O   UNL     1       0.439 107.246 179.503  1.00  0.00    -0.550 OA
ATOM      8  O   UNL     1       2.164 108.592 178.826  1.00  0.00    -0.550 OA
ENDBRANCH   5   6
ENDBRANCH   4   5
ENDBRANCH   3   4
ENDBRANCH   2   3
ENDBRANCH   1   2
BRANCH   1   9
ATOM      9  C   UNL     1       5.569 106.647 182.802  1.00  0.00     0.000 C 
BRANCH   9  10
ATOM     10  C   UNL     1       5.297 107.901 183.653  1.00  0.00    -0.000 C 
BRANCH  10  11
ATOM     11  C   UNL     1       5.321 109.194 182.822  1.00  0.00    -0.000 C 
BRANCH  11  12
ATOM     12  C   UNL     1       4.003 109.983 182.919  1.00  0.00    -0.000 C 
BRANCH  12  13
ATOM     13  C   UNL     1       2.828 109.251 182.251  1.00  0.00    -0.003 C 
ATOM     14  C   UNL     1       1.676 108.973 183.215  1.00  0.00     0.004 C 
ENDBRANCH  12  13
ENDBRANCH  11  12
ENDBRANCH  10  11
ENDBRANCH   9  10
ENDBRANCH   1   9
TORSDOF 10
ENDMDL
MODEL 6
REMARK VINA RESULT:    -3.170      3.801      5.845
REMARK INTER + INTRA:          -6.042
REMARK INTER:                  -4.908
REMARK INTRA:                  -1.134
REMARK UNBOUND:                -1.018
REMARK SMILES CCCCCCCCCCCC(=O)[O-]
REMARK SMILES IDX 7 1 8 2 9 3 10 4 11 5 12 6 13 7 14 8 6 9 5 10 4 11 3 12 2 13
REMARK SMILES IDX 1 14
REMARK H PARENT
REMARK Flexibility Score: inf
ROOT
ATOM      1  C   UNL     1       6.177 111.056 184.283  1.00  0.00     0.000 C 
ENDROOT
BRANCH   1   2
ATOM      2  C   UNL     1       5.332 111.185 183.006  1.00  0.00     0.000 C 
BRANCH   2   3
ATOM      3  C   UNL     1       3.972 111.828 183.311  1.00  0.00     0.000 C 
BRANCH   3   4
ATOM      4  C   UNL     1       4.006 112.572 184.655  1.00  0.00     0.006 C 
BRANCH   4   5
ATOM      5  C   UNL     1       3.050 113.771 184.678  1.00  0.00     0.053 C 
BRANCH   5   6
ATOM      6  C   UNL     1       3.575 114.915 183.864  1.00  0.00     0.041 C 
ATOM      7  O   UNL     1       2.785 115.642 183.207  1.00  0.00    -0.550 OA
ATOM      8  O   UNL     1       4.936 115.196 183.859  1.00  0.00    -0.550 OA
ENDBRANCH   5   6
ENDBRANCH   4   5
ENDBRANCH   3   4
ENDBRANCH   2   3
ENDBRANCH   1   2
BRANCH   1   9
ATOM      9  C   UNL     1       6.543 109.598 184.608  1.00  0.00     0.000 C 
BRANCH   9  10
ATOM     10  C   UNL     1       6.454 108.678 183.377  1.00  0.00    -0.000 C 
BRANCH  10  11
ATOM     11  C   UNL     1       5.555 107.455 183.618  1.00  0.00    -0.000 C 
BRANCH  11  12
ATOM     12  C   UNL     1       4.445 107.320 182.562  1.00  0.00    -0.000 C 
BRANCH  12  13
ATOM     13  C   UNL     1       3.198 108.149 182.909  1.00  0.00    -0.003 C 
ATOM     14  C   UNL     1       2.529 108.760 181.678  1.00  0.00     0.004 C 
ENDBRANCH  12  13
ENDBRANCH  11  12
ENDBRANCH  10  11
ENDBRANCH   9  10
ENDBRANCH   1   9
TORSDOF 10
ENDMDL
MODEL 7
REMARK VINA RESULT:    -3.165      2.598      5.440
REMARK INTER + INTRA:          -6.034
REMARK INTER:                  -4.593
REMARK INTRA:                  -1.441
REMARK UNBOUND:                -1.018
REMARK SMILES CCCCCCCCCCCC(=O)[O-]
REMARK SMILES IDX 7 1 8 2 9 3 10 4 11 5 12 6 13 7 14 8 6 9 5 10 4 11 3 12 2 13
REMARK SMILES IDX 1 14
REMARK H PARENT
REMARK Flexibility Score: inf
ROOT
ATOM      1  C   UNL     1       5.588 110.361 182.417  1.00  0.00     0.000 C 
ENDROOT
BRANCH   1   2
ATOM      2  C   UNL     1       4.163 110.413 181.845  1.00  0.00     0.000 C 
BRANCH   2   3
ATOM      3  C   UNL     1       3.159 109.775 182.814  1.00  0.00     0.000 C 
BRANCH   3   4
ATOM      4  C   UNL     1       2.211 108.819 182.074  1.00  0.00     0.006 C 
BRANCH   4   5
ATOM      5  C   UNL     1       2.588 108.657 180.596  1.00  0.00     0.053 C 
BRANCH   5   6
ATOM      6  C   UNL     1       1.759 107.604 179.925  1.00  0.00     0.041 C 
ATOM      7  O   UNL     1       2.266 106.490 179.631  1.00  0.00    -0.550 OA
ATOM      8  O   UNL     1       0.418 107.844 179.655  1.00  0.00    -0.550 OA
ENDBRANCH   5   6
ENDBRANCH   4   5
ENDBRANCH   3   4
ENDBRANCH   2   3
ENDBRANCH   1   2
BRANCH   1   9
ATOM      9  C   UNL     1       5.608 110.183 183.944  1.00  0.00     0.000 C 
BRANCH   9  10
ATOM     10  C   UNL     1       6.611 109.107 184.400  1.00  0.00    -0.000 C 
BRANCH  10  11
ATOM     11  C   UNL     1       6.875 108.050 183.317  1.00  0.00    -0.000 C 
BRANCH  11  12
ATOM     12  C   UNL     1       6.013 106.789 183.498  1.00  0.00    -0.000 C 
BRANCH  12  13
ATOM     13  C   UNL     1       4.972 106.621 182.381  1.00  0.00    -0.003 C 
ATOM     14  C   UNL     1       5.604 106.413 181.005  1.00  0.00     0.004 C 
ENDBRANCH  12  13
ENDBRANCH  11  12
ENDBRANCH  10  11
ENDBRANCH   9  10
ENDBRANCH   1   9
TORSDOF 10
ENDMDL
MODEL 8
REMARK VINA RESULT:    -3.147      1.148      1.767
REMARK INTER + INTRA:          -6.006
REMARK INTER:                  -4.807
REMARK INTRA:                  -1.199
REMARK UNBOUND:                -1.018
REMARK SMILES CCCCCCCCCCCC(=O)[O-]
REMARK SMILES IDX 7 1 8 2 9 3 10 4 11 5 12 6 13 7 14 8 6 9 5 10 4 11 3 12 2 13
REMARK SMILES IDX 1 14
REMARK H PARENT
REMARK Flexibility Score: inf
ROOT
ATOM      1  C   UNL     1       3.098 104.547 178.531  1.00  0.00     0.000 C 
ENDROOT
BRANCH   1   2
ATOM      2  C   UNL     1       2.841 105.116 179.935  1.00  0.00     0.000 C 
BRANCH   2   3
ATOM      3  C   UNL     1       3.985 106.042 180.369  1.00  0.00     0.000 C 
BRANCH   3   4
ATOM      4  C   UNL     1       3.552 106.944 181.534  1.00  0.00     0.006 C 
BRANCH   4   5
ATOM      5  C   UNL     1       3.362 108.403 181.100  1.00  0.00     0.053 C 
BRANCH   5   6
ATOM      6  C   UNL     1       2.818 109.246 182.213  1.00  0.00     0.041 C 
ATOM      7  O   UNL     1       3.355 110.350 182.494  1.00  0.00    -0.550 OA
ATOM      8  O   UNL     1       1.698 108.826 182.919  1.00  0.00    -0.550 OA
ENDBRANCH   5   6
ENDBRANCH   4   5
ENDBRANCH   3   4
ENDBRANCH   2   3
ENDBRANCH   1   2
BRANCH   1   9
ATOM      9  C   UNL     1       3.599 105.612 177.542  1.00  0.00     0.000 C 
BRANCH   9  10
ATOM     10  C   UNL     1       2.496 106.091 176.581  1.00  0.00    -0.000 C 
BRANCH  10  11
ATOM     11  C   UNL     1       1.211 105.255 176.694  1.00  0.00    -0.000 C 
BRANCH  11  12
ATOM     12  C   UNL     1      -0.004 106.094 177.123  1.00  0.00    -0.000 C 
BRANCH  12  13
ATOM     13  C   UNL     1       0.397 107.468 177.683  1.00  0.00    -0.003 C 
ATOM     14  C   UNL     1       0.216 107.568 179.198  1.00  0.00     0.004 C 
ENDBRANCH  12  13
ENDBRANCH  11  12
ENDBRANCH  10  11
ENDBRANCH   9  10
ENDBRANCH   1   9
TORSDOF 10
ENDMDL
MODEL 9
REMARK VINA RESULT:    -3.146      3.512      6.768
REMARK INTER + INTRA:          -6.003
REMARK INTER:                  -5.142
REMARK INTRA:                  -0.861
REMARK UNBOUND:                -1.018
REMARK SMILES CCCCCCCCCCCC(=O)[O-]
REMARK SMILES IDX 7 1 8 2 9 3 10 4 11 5 12 6 13 7 14 8 6 9 5 10 4 11 3 12 2 13
REMARK SMILES IDX 1 14
REMARK H PARENT
REMARK Flexibility Score: inf
ROOT
ATOM      1  C   UNL     1       2.903 110.390 183.171  1.00  0.00     0.000 C 
ENDROOT
BRANCH   1   2
ATOM      2  C   UNL     1       2.338 108.974 182.978  1.00  0.00     0.000 C 
BRANCH   2   3
ATOM      3  C   UNL     1       2.916 108.321 181.716  1.00  0.00     0.000 C 
BRANCH   3   4
ATOM      4  C   UNL     1       3.687 107.038 182.063  1.00  0.00     0.006 C 
BRANCH   4   5
ATOM      5  C   UNL     1       4.672 106.636 180.958  1.00  0.00     0.053 C 
BRANCH   5   6
ATOM      6  C   UNL     1       4.095 105.588 180.056  1.00  0.00     0.041 C 
ATOM      7  O   UNL     1       2.963 105.093 180.300  1.00  0.00    -0.550 OA
ATOM      8  O   UNL     1       4.795 105.181 178.927  1.00  0.00    -0.550 OA
ENDBRANCH   5   6
ENDBRANCH   4   5
ENDBRANCH   3   4
ENDBRANCH   2   3
ENDBRANCH   1   2
BRANCH   1   9
ATOM      9  C   UNL     1       3.941 110.766 182.101  1.00  0.00     0.000 C 
BRANCH   9  10
ATOM     10  C   UNL     1       5.110 111.586 182.675  1.00  0.00    -0.000 C 
BRANCH  10  11
ATOM     11  C   UNL     1       5.223 111.463 184.203  1.00  0.00    -0.000 C 
BRANCH  11  12
ATOM     12  C   UNL     1       5.257 112.831 184.906  1.00  0.00    -0.000 C 
BRANCH  12  13
ATOM     13  C   UNL     1       4.222 113.813 184.335  1.00  0.00    -0.003 C 
ATOM     14  C   UNL     1       2.813 113.574 184.879  1.00  0.00     0.004 C 
ENDBRANCH  12  13
ENDBRANCH  11  12
ENDBRANCH  10  11
ENDBRANCH   9  10
ENDBRANCH   1   9
TORSDOF 10
ENDMDL
