MODEL 1
REMARK VINA RESULT:    -6.917      0.000      0.000
REMARK INTER + INTRA:          -6.684
REMARK INTER:                  -7.523
REMARK INTRA:                   0.839
REMARK UNBOUND:                 0.839
REMARK SMILES C[C@H]1[C@H](C)CC[C@]2(C(=O)[O-])CC[C@@]3(C)C(=CC[C@@H]4[C@@]5(C)CC[C@H](O)C(C)(C)[C@H]5CC[C@]43C)[C@@H]12
REMARK SMILES IDX 7 1 6 2 11 3 33 4 5 5 12 6 15 7 2 8 3 9 13 10 16 11 1 12
REMARK SMILES IDX 4 13 14 14 31 15 17 16 18 17 30 18 32 19 19 20 29 21 28 22
REMARK SMILES IDX 21 23 20 24 25 25 22 26 23 27 26 28 27 29 8 30 9 31 10 32
REMARK SMILES IDX 24 33
REMARK H PARENT 24 34
REMARK Flexibility Score: inf
ROOT
ATOM      1  C   UNL     1    -104.394  87.936 204.284  1.00  0.00     0.017 C 
ATOM      2  C   UNL     1    -105.626  88.260 205.183  1.00  0.00     0.014 C 
ATOM      3  C   UNL     1    -103.796  86.569 204.770  1.00  0.00     0.014 C 
ATOM      4  C   UNL     1    -103.337  89.082 204.461  1.00  0.00     0.030 C 
ATOM      5  C   UNL     1    -106.254  89.623 204.862  1.00  0.00     0.004 C 
ATOM      6  C   UNL     1    -102.251  86.499 204.878  1.00  0.00     0.013 C 
ATOM      7  C   UNL     1    -101.941  88.764 203.851  1.00  0.00    -0.063 C 
ATOM      8  C   UNL     1    -103.920  90.539 204.268  1.00  0.00    -0.003 C 
ATOM      9  C   UNL     1    -105.254  90.776 205.045  1.00  0.00    -0.011 C 
ATOM     10  C   UNL     1    -101.466  87.270 203.763  1.00  0.00    -0.006 C 
ATOM     11  C   UNL     1    -101.027  89.775 203.913  1.00  0.00    -0.027 C 
ATOM     12  C   UNL     1    -104.058  90.983 202.799  1.00  0.00     0.008 C 
ATOM     13  C   UNL     1    -105.011  91.080 206.537  1.00  0.00     0.008 C 
ATOM     14  C   UNL     1    -101.866  86.645 202.389  1.00  0.00     0.017 C 
ATOM     15  C   UNL     1     -99.848  87.143 203.930  1.00  0.00    -0.020 C 
ATOM     16  C   UNL     1     -99.616  89.613 204.419  1.00  0.00     0.032 C 
ATOM     17  C   UNL     1     -99.386  88.198 204.996  1.00  0.00     0.006 C 
ATOM     18  C   UNL     1     -99.395  85.708 204.362  1.00  0.00     0.008 C 
ATOM     19  C   UNL     1     -99.142  87.432 202.554  1.00  0.00     0.012 C 
ATOM     20  C   UNL     1     -98.013  87.976 205.800  1.00  0.00    -0.025 C 
ATOM     21  C   UNL     1     -99.073  85.586 205.855  1.00  0.00     0.005 C 
ATOM     22  C   UNL     1     -97.807  86.425 206.201  1.00  0.00     0.003 C 
ATOM     23  C   UNL     1     -98.088  88.935 207.049  1.00  0.00     0.010 C 
ATOM     24  C   UNL     1     -96.786  88.441 204.959  1.00  0.00     0.012 C 
ATOM     25  C   UNL     1     -97.139  86.094 207.621  1.00  0.00    -0.006 C 
ATOM     26  C   UNL     1     -97.185  88.565 208.208  1.00  0.00     0.033 C 
ATOM     27  C   UNL     1     -97.515  87.162 208.688  1.00  0.00     0.120 C 
ATOM     28  C   UNL     1     -97.578  84.710 208.184  1.00  0.00     0.014 C 
ATOM     29  C   UNL     1     -95.592  86.012 207.469  1.00  0.00     0.014 C 
ENDROOT
BRANCH   1  30
ATOM     30  C   UNL     1    -104.889  87.789 202.842  1.00  0.00     0.048 C 
ATOM     31  O   UNL     1    -105.850  87.015 202.585  1.00  0.00    -0.550 OA
ATOM     32  O   UNL     1    -104.258  88.427 201.780  1.00  0.00    -0.550 OA
ENDBRANCH   1  30
BRANCH  27  33
ATOM     33  O   UNL     1     -96.826  86.940 209.889  1.00  0.00    -0.393 OA
ATOM     34  H   UNL     1     -97.484  86.677 210.577  1.00  0.00     0.210 HD
ENDBRANCH  27  33
TORSDOF 2
ENDMDL
MODEL 2
REMARK VINA RESULT:    -6.241      1.170      1.369
REMARK INTER + INTRA:          -5.949
REMARK INTER:                  -6.789
REMARK INTRA:                   0.840
REMARK UNBOUND:                 0.839
REMARK SMILES C[C@H]1[C@H](C)CC[C@]2(C(=O)[O-])CC[C@@]3(C)C(=CC[C@@H]4[C@@]5(C)CC[C@H](O)C(C)(C)[C@H]5CC[C@]43C)[C@@H]12
REMARK SMILES IDX 7 1 6 2 11 3 33 4 5 5 12 6 15 7 2 8 3 9 13 10 16 11 1 12
REMARK SMILES IDX 4 13 14 14 31 15 17 16 18 17 30 18 32 19 19 20 29 21 28 22
REMARK SMILES IDX 21 23 20 24 25 25 22 26 23 27 26 28 27 29 8 30 9 31 10 32
REMARK SMILES IDX 24 33
REMARK H PARENT 24 34
REMARK Flexibility Score: inf
ROOT
ATOM      1  C   UNL     1    -104.223  88.351 203.534  1.00  0.00     0.017 C 
ATOM      2  C   UNL     1    -105.415  89.115 204.189  1.00  0.00     0.014 C 
ATOM      3  C   UNL     1    -103.727  87.274 204.561  1.00  0.00     0.014 C 
ATOM      4  C   UNL     1    -103.079  89.382 203.238  1.00  0.00     0.030 C 
ATOM      5  C   UNL     1    -105.939  90.260 203.312  1.00  0.00     0.004 C 
ATOM      6  C   UNL     1    -102.191  87.139 204.722  1.00  0.00     0.013 C 
ATOM      7  C   UNL     1    -101.719  88.733 202.847  1.00  0.00    -0.063 C 
ATOM      8  C   UNL     1    -103.549  90.663 202.439  1.00  0.00    -0.003 C 
ATOM      9  C   UNL     1    -104.851  91.305 203.016  1.00  0.00    -0.011 C 
ATOM     10  C   UNL     1    -101.363  87.309 203.403  1.00  0.00    -0.006 C 
ATOM     11  C   UNL     1    -100.728  89.605 202.499  1.00  0.00    -0.027 C 
ATOM     12  C   UNL     1    -103.671  90.459 200.917  1.00  0.00     0.008 C 
ATOM     13  C   UNL     1    -104.566  92.188 204.248  1.00  0.00     0.008 C 
ATOM     14  C   UNL     1    -101.827  86.197 202.410  1.00  0.00     0.017 C 
ATOM     15  C   UNL     1     -99.757  87.141 203.643  1.00  0.00    -0.020 C 
ATOM     16  C   UNL     1     -99.329  89.564 203.056  1.00  0.00     0.032 C 
ATOM     17  C   UNL     1     -99.201  88.509 204.178  1.00  0.00     0.006 C 
ATOM     18  C   UNL     1     -99.411  85.991 204.646  1.00  0.00     0.008 C 
ATOM     19  C   UNL     1     -99.049  86.773 202.288  1.00  0.00     0.012 C 
ATOM     20  C   UNL     1     -97.840  88.541 205.030  1.00  0.00    -0.025 C 
ATOM     21  C   UNL     1     -99.082  86.483 206.060  1.00  0.00     0.005 C 
ATOM     22  C   UNL     1     -97.751  87.291 206.049  1.00  0.00     0.003 C 
ATOM     23  C   UNL     1     -97.825  89.938 205.760  1.00  0.00     0.010 C 
ATOM     24  C   UNL     1     -96.591  88.516 204.099  1.00  0.00     0.012 C 
ATOM     25  C   UNL     1     -97.093  87.537 207.491  1.00  0.00    -0.006 C 
ATOM     26  C   UNL     1     -96.940  90.022 206.986  1.00  0.00     0.033 C 
ATOM     27  C   UNL     1     -97.371  88.979 208.004  1.00  0.00     0.120 C 
ATOM     28  C   UNL     1     -97.631  86.555 208.573  1.00  0.00     0.014 C 
ATOM     29  C   UNL     1     -95.559  87.282 207.421  1.00  0.00     0.014 C 
ENDROOT
BRANCH   1  30
ATOM     30  C   UNL     1    -104.746  87.651 202.277  1.00  0.00     0.048 C 
ATOM     31  O   UNL     1    -105.773  86.922 202.346  1.00  0.00    -0.550 OA
ATOM     32  O   UNL     1    -104.076  87.727 201.062  1.00  0.00    -0.550 OA
ENDBRANCH   1  30
BRANCH  27  33
ATOM     33  O   UNL     1     -96.686  89.230 209.201  1.00  0.00    -0.393 OA
ATOM     34  H   UNL     1     -96.903  88.506 209.837  1.00  0.00     0.210 HD
ENDBRANCH  27  33
TORSDOF 2
ENDMDL
MODEL 3
REMARK VINA RESULT:    -6.238      9.003     13.439
REMARK INTER + INTRA:          -5.946
REMARK INTER:                  -6.783
REMARK INTRA:                   0.836
REMARK UNBOUND:                 0.839
REMARK SMILES C[C@H]1[C@H](C)CC[C@]2(C(=O)[O-])CC[C@@]3(C)C(=CC[C@@H]4[C@@]5(C)CC[C@H](O)C(C)(C)[C@H]5CC[C@]43C)[C@@H]12
REMARK SMILES IDX 7 1 6 2 11 3 33 4 5 5 12 6 15 7 2 8 3 9 13 10 16 11 1 12
REMARK SMILES IDX 4 13 14 14 31 15 17 16 18 17 30 18 32 19 19 20 29 21 28 22
REMARK SMILES IDX 21 23 20 24 25 25 22 26 23 27 26 28 27 29 8 30 9 31 10 32
REMARK SMILES IDX 24 33
REMARK H PARENT 24 34
REMARK Flexibility Score: inf
ROOT
ATOM      1  C   UNL     1     -97.989  79.758 208.713  1.00  0.00     0.017 C 
ATOM      2  C   UNL     1     -97.799  81.306 208.711  1.00  0.00     0.014 C 
ATOM      3  C   UNL     1     -99.247  79.435 209.594  1.00  0.00     0.014 C 
ATOM      4  C   UNL     1     -96.709  79.104 209.338  1.00  0.00     0.030 C 
ATOM      5  C   UNL     1     -96.544  81.748 207.947  1.00  0.00     0.004 C 
ATOM      6  C   UNL     1     -99.108  78.238 210.569  1.00  0.00     0.013 C 
ATOM      7  C   UNL     1     -96.861  77.590 209.669  1.00  0.00    -0.063 C 
ATOM      8  C   UNL     1     -95.349  79.592 208.695  1.00  0.00    -0.003 C 
ATOM      9  C   UNL     1     -95.262  81.144 208.544  1.00  0.00    -0.011 C 
ATOM     10  C   UNL     1     -98.281  77.024 210.026  1.00  0.00    -0.006 C 
ATOM     11  C   UNL     1     -95.736  76.972 210.134  1.00  0.00    -0.027 C 
ATOM     12  C   UNL     1     -94.980  78.893 207.372  1.00  0.00     0.008 C 
ATOM     13  C   UNL     1     -94.875  81.835 209.866  1.00  0.00     0.008 C 
ATOM     14  C   UNL     1     -99.002  76.500 208.743  1.00  0.00     0.017 C 
ATOM     15  C   UNL     1     -98.188  75.796 211.097  1.00  0.00    -0.020 C 
ATOM     16  C   UNL     1     -95.692  76.106 211.367  1.00  0.00     0.032 C 
ATOM     17  C   UNL     1     -97.043  76.130 212.118  1.00  0.00     0.006 C 
ATOM     18  C   UNL     1     -99.534  75.553 211.858  1.00  0.00     0.008 C 
ATOM     19  C   UNL     1     -97.857  74.454 210.346  1.00  0.00     0.012 C 
ATOM     20  C   UNL     1     -97.053  75.461 213.578  1.00  0.00    -0.025 C 
ATOM     21  C   UNL     1     -99.558  76.144 213.272  1.00  0.00     0.005 C 
ATOM     22  C   UNL     1     -98.548  75.391 214.186  1.00  0.00     0.003 C 
ATOM     23  C   UNL     1     -96.068  76.327 214.452  1.00  0.00     0.010 C 
ATOM     24  C   UNL     1     -96.460  74.020 213.543  1.00  0.00     0.012 C 
ATOM     25  C   UNL     1     -98.736  75.640 215.759  1.00  0.00    -0.006 C 
ATOM     26  C   UNL     1     -96.273  76.233 215.950  1.00  0.00     0.033 C 
ATOM     27  C   UNL     1     -97.690  76.656 216.302  1.00  0.00     0.120 C 
ATOM     28  C   UNL     1    -100.144  76.202 216.114  1.00  0.00     0.014 C 
ATOM     29  C   UNL     1     -98.619  74.291 216.525  1.00  0.00     0.014 C 
ENDROOT
BRANCH   1  30
ATOM     30  C   UNL     1     -98.252  79.314 207.271  1.00  0.00     0.048 C 
ATOM     31  O   UNL     1     -99.141  79.892 206.588  1.00  0.00    -0.550 OA
ATOM     32  O   UNL     1     -97.592  78.229 206.705  1.00  0.00    -0.550 OA
ENDBRANCH   1  30
BRANCH  27  33
ATOM     33  O   UNL     1     -97.775  76.771 217.697  1.00  0.00    -0.393 OA
ATOM     34  H   UNL     1     -98.397  77.509 217.907  1.00  0.00     0.210 HD
ENDBRANCH  27  33
TORSDOF 2
ENDMDL
MODEL 4
REMARK VINA RESULT:    -5.954      6.482      9.951
REMARK INTER + INTRA:          -5.637
REMARK INTER:                  -6.473
REMARK INTRA:                   0.836
REMARK UNBOUND:                 0.839
REMARK SMILES C[C@H]1[C@H](C)CC[C@]2(C(=O)[O-])CC[C@@]3(C)C(=CC[C@@H]4[C@@]5(C)CC[C@H](O)C(C)(C)[C@H]5CC[C@]43C)[C@@H]12
REMARK SMILES IDX 7 1 6 2 11 3 33 4 5 5 12 6 15 7 2 8 3 9 13 10 16 11 1 12
REMARK SMILES IDX 4 13 14 14 31 15 17 16 18 17 30 18 32 19 19 20 29 21 28 22
REMARK SMILES IDX 21 23 20 24 25 25 22 26 23 27 26 28 27 29 8 30 9 31 10 32
REMARK SMILES IDX 24 33
REMARK H PARENT 24 34
REMARK Flexibility Score: inf
ROOT
ATOM      1  C   UNL     1    -112.507  89.223 204.358  1.00  0.00     0.017 C 
ATOM      2  C   UNL     1    -113.891  88.922 203.707  1.00  0.00     0.014 C 
ATOM      3  C   UNL     1    -111.802  90.323 203.489  1.00  0.00     0.014 C 
ATOM      4  C   UNL     1    -111.660  87.903 204.350  1.00  0.00     0.030 C 
ATOM      5  C   UNL     1    -114.650  87.794 204.419  1.00  0.00     0.004 C 
ATOM      6  C   UNL     1    -110.296  90.102 203.197  1.00  0.00     0.013 C 
ATOM      7  C   UNL     1    -110.157  88.105 204.705  1.00  0.00    -0.063 C 
ATOM      8  C   UNL     1    -112.406  86.648 204.956  1.00  0.00    -0.003 C 
ATOM      9  C   UNL     1    -113.860  86.475 204.414  1.00  0.00    -0.011 C 
ATOM     10  C   UNL     1    -109.470  89.477 204.373  1.00  0.00    -0.006 C 
ATOM     11  C   UNL     1    -109.413  86.965 204.791  1.00  0.00    -0.027 C 
ATOM     12  C   UNL     1    -112.385  86.574 206.495  1.00  0.00     0.008 C 
ATOM     13  C   UNL     1    -113.885  85.808 203.024  1.00  0.00     0.008 C 
ATOM     14  C   UNL     1    -109.571  90.453 205.588  1.00  0.00     0.017 C 
ATOM     15  C   UNL     1    -107.893  89.285 204.001  1.00  0.00    -0.020 C 
ATOM     16  C   UNL     1    -108.085  86.766 204.108  1.00  0.00     0.032 C 
ATOM     17  C   UNL     1    -107.746  87.955 203.180  1.00  0.00     0.006 C 
ATOM     18  C   UNL     1    -107.312  90.488 203.185  1.00  0.00     0.008 C 
ATOM     19  C   UNL     1    -107.039  89.194 205.319  1.00  0.00     0.012 C 
ATOM     20  C   UNL     1    -106.490  87.754 202.200  1.00  0.00    -0.025 C 
ATOM     21  C   UNL     1    -107.201  90.216 201.681  1.00  0.00     0.005 C 
ATOM     22  C   UNL     1    -106.131  89.117 201.412  1.00  0.00     0.003 C 
ATOM     23  C   UNL     1    -106.883  86.568 201.240  1.00  0.00     0.010 C 
ATOM     24  C   UNL     1    -105.230  87.285 202.988  1.00  0.00     0.012 C 
ATOM     25  C   UNL     1    -105.641  89.003 199.890  1.00  0.00    -0.006 C 
ATOM     26  C   UNL     1    -106.119  86.508 199.933  1.00  0.00     0.033 C 
ATOM     27  C   UNL     1    -106.317  87.804 199.163  1.00  0.00     0.120 C 
ATOM     28  C   UNL     1    -105.960  90.280 199.058  1.00  0.00     0.014 C 
ATOM     29  C   UNL     1    -104.093  88.851 199.844  1.00  0.00     0.014 C 
ENDROOT
BRANCH   1  30
ATOM     30  C   UNL     1    -112.757  89.771 205.766  1.00  0.00     0.048 C 
ATOM     31  O   UNL     1    -113.569  90.722 205.934  1.00  0.00    -0.550 OA
ATOM     32  O   UNL     1    -112.055  89.305 206.871  1.00  0.00    -0.550 OA
ENDBRANCH   1  30
BRANCH  27  33
ATOM     33  O   UNL     1    -105.788  87.630 197.877  1.00  0.00    -0.393 OA
ATOM     34  H   UNL     1    -105.748  88.515 197.439  1.00  0.00     0.210 HD
ENDBRANCH  27  33
TORSDOF 2
ENDMDL
MODEL 5
REMARK VINA RESULT:    -5.890      4.271     10.237
REMARK INTER + INTRA:          -5.567
REMARK INTER:                  -6.400
REMARK INTRA:                   0.833
REMARK UNBOUND:                 0.839
REMARK SMILES C[C@H]1[C@H](C)CC[C@]2(C(=O)[O-])CC[C@@]3(C)C(=CC[C@@H]4[C@@]5(C)CC[C@H](O)C(C)(C)[C@H]5CC[C@]43C)[C@@H]12
REMARK SMILES IDX 7 1 6 2 11 3 33 4 5 5 12 6 15 7 2 8 3 9 13 10 16 11 1 12
REMARK SMILES IDX 4 13 14 14 31 15 17 16 18 17 30 18 32 19 19 20 29 21 28 22
REMARK SMILES IDX 21 23 20 24 25 25 22 26 23 27 26 28 27 29 8 30 9 31 10 32
REMARK SMILES IDX 24 33
REMARK H PARENT 24 34
REMARK Flexibility Score: inf
ROOT
ATOM      1  C   UNL     1    -104.650  89.836 204.242  1.00  0.00     0.017 C 
ATOM      2  C   UNL     1    -103.523  89.305 205.181  1.00  0.00     0.014 C 
ATOM      3  C   UNL     1    -105.478  90.899 205.047  1.00  0.00     0.014 C 
ATOM      4  C   UNL     1    -105.567  88.629 203.840  1.00  0.00     0.030 C 
ATOM      5  C   UNL     1    -102.690  88.191 204.535  1.00  0.00     0.004 C 
ATOM      6  C   UNL     1    -107.019  90.817 204.903  1.00  0.00     0.013 C 
ATOM      7  C   UNL     1    -106.895  89.041 203.139  1.00  0.00    -0.063 C 
ATOM      8  C   UNL     1    -104.784  87.378 203.274  1.00  0.00    -0.003 C 
ATOM      9  C   UNL     1    -103.551  86.978 204.145  1.00  0.00    -0.011 C 
ATOM     10  C   UNL     1    -107.539  90.433 203.476  1.00  0.00    -0.006 C 
ATOM     11  C   UNL     1    -107.674  88.010 202.700  1.00  0.00    -0.027 C 
ATOM     12  C   UNL     1    -104.389  87.489 201.789  1.00  0.00     0.008 C 
ATOM     13  C   UNL     1    -103.957  86.153 205.383  1.00  0.00     0.008 C 
ATOM     14  C   UNL     1    -107.035  91.527 202.482  1.00  0.00     0.017 C 
ATOM     15  C   UNL     1    -109.168  90.378 203.393  1.00  0.00    -0.020 C 
ATOM     16  C   UNL     1    -109.150  87.884 202.978  1.00  0.00     0.032 C 
ATOM     17  C   UNL     1    -109.635  88.986 203.947  1.00  0.00     0.006 C 
ATOM     18  C   UNL     1    -109.854  91.534 204.195  1.00  0.00     0.008 C 
ATOM     19  C   UNL     1    -109.634  90.541 201.900  1.00  0.00     0.012 C 
ATOM     20  C   UNL     1    -111.122  88.814 204.528  1.00  0.00    -0.025 C 
ATOM     21  C   UNL     1    -110.391  91.101 205.563  1.00  0.00     0.005 C 
ATOM     22  C   UNL     1    -111.576  90.107 205.383  1.00  0.00     0.003 C 
ATOM     23  C   UNL     1    -111.100  87.486 205.376  1.00  0.00     0.010 C 
ATOM     24  C   UNL     1    -112.153  88.587 203.381  1.00  0.00     0.012 C 
ATOM     25  C   UNL     1    -112.470  89.870 206.693  1.00  0.00    -0.006 C 
ATOM     26  C   UNL     1    -112.193  87.359 206.417  1.00  0.00     0.033 C 
ATOM     27  C   UNL     1    -112.113  88.525 207.390  1.00  0.00     0.120 C 
ATOM     28  C   UNL     1    -112.292  90.995 207.755  1.00  0.00     0.014 C 
ATOM     29  C   UNL     1    -113.979  89.890 206.313  1.00  0.00     0.014 C 
ENDROOT
BRANCH   1  30
ATOM     30  C   UNL     1    -103.984  90.514 203.042  1.00  0.00     0.048 C 
ATOM     31  O   UNL     1    -103.108  91.403 203.230  1.00  0.00    -0.550 OA
ATOM     32  O   UNL     1    -104.369  90.239 201.736  1.00  0.00    -0.550 OA
ENDBRANCH   1  30
BRANCH  27  33
ATOM     33  O   UNL     1    -112.984  88.261 208.456  1.00  0.00    -0.393 OA
ATOM     34  H   UNL     1    -113.268  89.126 208.842  1.00  0.00     0.210 HD
ENDBRANCH  27  33
TORSDOF 2
ENDMDL
MODEL 6
REMARK VINA RESULT:    -5.725      6.385     11.408
REMARK INTER + INTRA:          -5.387
REMARK INTER:                  -6.225
REMARK INTRA:                   0.838
REMARK UNBOUND:                 0.839
REMARK SMILES C[C@H]1[C@H](C)CC[C@]2(C(=O)[O-])CC[C@@]3(C)C(=CC[C@@H]4[C@@]5(C)CC[C@H](O)C(C)(C)[C@H]5CC[C@]43C)[C@@H]12
REMARK SMILES IDX 7 1 6 2 11 3 33 4 5 5 12 6 15 7 2 8 3 9 13 10 16 11 1 12
REMARK SMILES IDX 4 13 14 14 31 15 17 16 18 17 30 18 32 19 19 20 29 21 28 22
REMARK SMILES IDX 21 23 20 24 25 25 22 26 23 27 26 28 27 29 8 30 9 31 10 32
REMARK SMILES IDX 24 33
REMARK H PARENT 24 34
REMARK Flexibility Score: inf
ROOT
ATOM      1  C   UNL     1    -106.345  87.771 202.329  1.00  0.00     0.017 C 
ATOM      2  C   UNL     1    -105.518  86.932 201.307  1.00  0.00     0.014 C 
ATOM      3  C   UNL     1    -106.774  86.812 203.495  1.00  0.00     0.014 C 
ATOM      4  C   UNL     1    -107.613  88.333 201.597  1.00  0.00     0.030 C 
ATOM      5  C   UNL     1    -105.108  87.740 200.069  1.00  0.00     0.004 C 
ATOM      6  C   UNL     1    -108.237  86.949 203.988  1.00  0.00     0.013 C 
ATOM      7  C   UNL     1    -108.679  88.952 202.547  1.00  0.00    -0.063 C 
ATOM      8  C   UNL     1    -107.301  89.082 200.239  1.00  0.00    -0.003 C 
ATOM      9  C   UNL     1    -106.326  88.291 199.310  1.00  0.00    -0.011 C 
ATOM     10  C   UNL     1    -108.800  88.411 204.016  1.00  0.00    -0.006 C 
ATOM     11  C   UNL     1    -109.753  89.526 201.934  1.00  0.00    -0.027 C 
ATOM     12  C   UNL     1    -106.833  90.540 200.407  1.00  0.00     0.008 C 
ATOM     13  C   UNL     1    -107.049  87.181 198.521  1.00  0.00     0.008 C 
ATOM     14  C   UNL     1    -107.901  89.243 204.985  1.00  0.00     0.017 C 
ATOM     15  C   UNL     1    -110.338  88.482 204.559  1.00  0.00    -0.020 C 
ATOM     16  C   UNL     1    -111.188  89.252 202.305  1.00  0.00     0.032 C 
ATOM     17  C   UNL     1    -111.291  88.129 203.362  1.00  0.00     0.006 C 
ATOM     18  C   UNL     1    -110.602  87.514 205.760  1.00  0.00     0.008 C 
ATOM     19  C   UNL     1    -110.655  89.931 205.082  1.00  0.00     0.012 C 
ATOM     20  C   UNL     1    -112.765  87.562 203.653  1.00  0.00    -0.025 C 
ATOM     21  C   UNL     1    -111.313  86.217 205.362  1.00  0.00     0.005 C 
ATOM     22  C   UNL     1    -112.765  86.524 204.891  1.00  0.00     0.003 C 
ATOM     23  C   UNL     1    -113.249  86.914 202.300  1.00  0.00     0.010 C 
ATOM     24  C   UNL     1    -113.761  88.718 203.970  1.00  0.00     0.012 C 
ATOM     25  C   UNL     1    -113.738  85.252 204.809  1.00  0.00    -0.006 C 
ATOM     26  C   UNL     1    -114.357  85.890 202.429  1.00  0.00     0.033 C 
ATOM     27  C   UNL     1    -113.910  84.761 203.343  1.00  0.00     0.120 C 
ATOM     28  C   UNL     1    -113.216  84.042 205.638  1.00  0.00     0.014 C 
ATOM     29  C   UNL     1    -115.125  85.609 205.418  1.00  0.00     0.014 C 
ENDROOT
BRANCH   1  30
ATOM     30  C   UNL     1    -105.432  88.868 202.884  1.00  0.00     0.048 C 
ATOM     31  O   UNL     1    -104.310  88.564 203.373  1.00  0.00    -0.550 OA
ATOM     32  O   UNL     1    -105.834  90.198 202.942  1.00  0.00    -0.550 OA
ENDBRANCH   1  30
BRANCH  27  33
ATOM     33  O   UNL     1    -114.860  83.734 203.262  1.00  0.00    -0.393 OA
ATOM     34  H   UNL     1    -114.704  83.236 202.423  1.00  0.00     0.210 HD
ENDBRANCH  27  33
TORSDOF 2
ENDMDL
MODEL 7
REMARK VINA RESULT:    -5.640      4.369      7.897
REMARK INTER + INTRA:          -5.295
REMARK INTER:                  -6.132
REMARK INTRA:                   0.837
REMARK UNBOUND:                 0.839
REMARK SMILES C[C@H]1[C@H](C)CC[C@]2(C(=O)[O-])CC[C@@]3(C)C(=CC[C@@H]4[C@@]5(C)CC[C@H](O)C(C)(C)[C@H]5CC[C@]43C)[C@@H]12
REMARK SMILES IDX 7 1 6 2 11 3 33 4 5 5 12 6 15 7 2 8 3 9 13 10 16 11 1 12
REMARK SMILES IDX 4 13 14 14 31 15 17 16 18 17 30 18 32 19 19 20 29 21 28 22
REMARK SMILES IDX 21 23 20 24 25 25 22 26 23 27 26 28 27 29 8 30 9 31 10 32
REMARK SMILES IDX 24 33
REMARK H PARENT 24 34
REMARK Flexibility Score: inf
ROOT
ATOM      1  C   UNL     1    -111.226  87.658 205.039  1.00  0.00     0.017 C 
ATOM      2  C   UNL     1    -111.820  87.081 206.360  1.00  0.00     0.014 C 
ATOM      3  C   UNL     1    -109.957  86.808 204.677  1.00  0.00     0.014 C 
ATOM      4  C   UNL     1    -110.822  89.152 205.290  1.00  0.00     0.030 C 
ATOM      5  C   UNL     1    -113.025  87.884 206.870  1.00  0.00     0.004 C 
ATOM      6  C   UNL     1    -108.716  87.604 204.199  1.00  0.00     0.013 C 
ATOM      7  C   UNL     1    -109.958  89.780 204.157  1.00  0.00    -0.063 C 
ATOM      8  C   UNL     1    -111.966  90.036 205.930  1.00  0.00    -0.003 C 
ATOM      9  C   UNL     1    -112.664  89.352 207.148  1.00  0.00    -0.011 C 
ATOM     10  C   UNL     1    -109.024  88.851 203.303  1.00  0.00    -0.006 C 
ATOM     11  C   UNL     1    -109.664  91.104 204.304  1.00  0.00    -0.027 C 
ATOM     12  C   UNL     1    -113.011  90.556 204.924  1.00  0.00     0.008 C 
ATOM     13  C   UNL     1    -111.840  89.494 208.444  1.00  0.00     0.008 C 
ATOM     14  C   UNL     1    -109.771  88.341 202.029  1.00  0.00     0.017 C 
ATOM     15  C   UNL     1    -107.673  89.632 202.824  1.00  0.00    -0.020 C 
ATOM     16  C   UNL     1    -108.280  91.685 204.170  1.00  0.00     0.032 C 
ATOM     17  C   UNL     1    -107.219  90.575 203.994  1.00  0.00     0.006 C 
ATOM     18  C   UNL     1    -106.513  88.654 202.440  1.00  0.00     0.008 C 
ATOM     19  C   UNL     1    -107.975  90.486 201.538  1.00  0.00     0.012 C 
ATOM     20  C   UNL     1    -105.685  91.038 204.099  1.00  0.00    -0.025 C 
ATOM     21  C   UNL     1    -105.452  88.495 203.534  1.00  0.00     0.005 C 
ATOM     22  C   UNL     1    -104.677  89.832 203.727  1.00  0.00     0.003 C 
ATOM     23  C   UNL     1    -105.498  91.571 205.571  1.00  0.00     0.010 C 
ATOM     24  C   UNL     1    -105.393  92.242 203.154  1.00  0.00     0.012 C 
ATOM     25  C   UNL     1    -103.307  89.710 204.553  1.00  0.00    -0.006 C 
ATOM     26  C   UNL     1    -104.071  91.592 206.079  1.00  0.00     0.033 C 
ATOM     27  C   UNL     1    -103.484  90.191 206.022  1.00  0.00     0.120 C 
ATOM     28  C   UNL     1    -102.768  88.251 204.612  1.00  0.00     0.014 C 
ATOM     29  C   UNL     1    -102.193  90.539 203.850  1.00  0.00     0.014 C 
ENDROOT
BRANCH   1  30
ATOM     30  C   UNL     1    -112.278  87.493 203.938  1.00  0.00     0.048 C 
ATOM     31  O   UNL     1    -112.850  86.380 203.779  1.00  0.00    -0.550 OA
ATOM     32  O   UNL     1    -112.572  88.516 203.045  1.00  0.00    -0.550 OA
ENDBRANCH   1  30
BRANCH  27  33
ATOM     33  O   UNL     1    -102.258  90.206 206.700  1.00  0.00    -0.393 OA
ATOM     34  H   UNL     1    -101.818  89.333 206.558  1.00  0.00     0.210 HD
ENDBRANCH  27  33
TORSDOF 2
ENDMDL
MODEL 8
REMARK VINA RESULT:    -5.536      2.603      8.132
REMARK INTER + INTRA:          -5.182
REMARK INTER:                  -6.026
REMARK INTRA:                   0.844
REMARK UNBOUND:                 0.839
REMARK SMILES C[C@H]1[C@H](C)CC[C@]2(C(=O)[O-])CC[C@@]3(C)C(=CC[C@@H]4[C@@]5(C)CC[C@H](O)C(C)(C)[C@H]5CC[C@]43C)[C@@H]12
REMARK SMILES IDX 7 1 6 2 11 3 33 4 5 5 12 6 15 7 2 8 3 9 13 10 16 11 1 12
REMARK SMILES IDX 4 13 14 14 31 15 17 16 18 17 30 18 32 19 19 20 29 21 28 22
REMARK SMILES IDX 21 23 20 24 25 25 22 26 23 27 26 28 27 29 8 30 9 31 10 32
REMARK SMILES IDX 24 33
REMARK H PARENT 24 34
REMARK Flexibility Score: inf
ROOT
ATOM      1  C   UNL     1    -100.154  88.330 204.651  1.00  0.00     0.017 C 
ATOM      2  C   UNL     1     -99.622  87.581 205.911  1.00  0.00     0.014 C 
ATOM      3  C   UNL     1    -100.828  89.661 205.137  1.00  0.00     0.014 C 
ATOM      4  C   UNL     1    -101.213  87.415 203.943  1.00  0.00     0.030 C 
ATOM      5  C   UNL     1     -99.011  86.214 205.576  1.00  0.00     0.004 C 
ATOM      6  C   UNL     1    -102.181  90.024 204.473  1.00  0.00     0.013 C 
ATOM      7  C   UNL     1    -102.039  88.132 202.835  1.00  0.00    -0.063 C 
ATOM      8  C   UNL     1    -100.715  85.941 203.663  1.00  0.00    -0.003 C 
ATOM      9  C   UNL     1    -100.025  85.279 204.898  1.00  0.00    -0.011 C 
ATOM     10  C   UNL     1    -102.293  89.677 202.950  1.00  0.00    -0.006 C 
ATOM     11  C   UNL     1    -102.908  87.341 202.142  1.00  0.00    -0.027 C 
ATOM     12  C   UNL     1     -99.840  85.789 202.404  1.00  0.00     0.008 C 
ATOM     13  C   UNL     1    -101.051  84.731 205.911  1.00  0.00     0.008 C 
ATOM     14  C   UNL     1    -101.178  90.475 202.202  1.00  0.00     0.017 C 
ATOM     15  C   UNL     1    -103.736  90.099 202.313  1.00  0.00    -0.020 C 
ATOM     16  C   UNL     1    -104.355  87.683 201.897  1.00  0.00     0.032 C 
ATOM     17  C   UNL     1    -104.766  88.965 202.656  1.00  0.00     0.006 C 
ATOM     18  C   UNL     1    -104.254  91.476 202.847  1.00  0.00     0.008 C 
ATOM     19  C   UNL     1    -103.609  90.250 200.753  1.00  0.00     0.012 C 
ATOM     20  C   UNL     1    -106.337  89.296 202.690  1.00  0.00    -0.025 C 
ATOM     21  C   UNL     1    -105.318  91.352 203.943  1.00  0.00     0.005 C 
ATOM     22  C   UNL     1    -106.623  90.739 203.355  1.00  0.00     0.003 C 
ATOM     23  C   UNL     1    -107.008  88.106 203.478  1.00  0.00     0.010 C 
ATOM     24  C   UNL     1    -106.949  89.276 201.257  1.00  0.00     0.012 C 
ATOM     25  C   UNL     1    -107.926  90.902 204.277  1.00  0.00    -0.006 C 
ATOM     26  C   UNL     1    -108.365  88.407 204.079  1.00  0.00     0.033 C 
ATOM     27  C   UNL     1    -108.253  89.583 205.036  1.00  0.00     0.120 C 
ATOM     28  C   UNL     1    -107.767  92.019 205.350  1.00  0.00     0.014 C 
ATOM     29  C   UNL     1    -109.140  91.330 203.403  1.00  0.00     0.014 C 
ENDROOT
BRANCH   1  30
ATOM     30  C   UNL     1     -98.954  88.665 203.760  1.00  0.00     0.048 C 
ATOM     31  O   UNL     1     -97.955  89.258 204.250  1.00  0.00    -0.550 OA
ATOM     32  O   UNL     1     -98.958  88.406 202.395  1.00  0.00    -0.550 OA
ENDBRANCH   1  30
BRANCH  27  33
ATOM     33  O   UNL     1    -109.462  89.690 205.736  1.00  0.00    -0.393 OA
ATOM     34  H   UNL     1    -109.303  89.410 206.670  1.00  0.00     0.210 HD
ENDBRANCH  27  33
TORSDOF 2
ENDMDL
MODEL 9
REMARK VINA RESULT:    -5.380      2.991      5.260
REMARK INTER + INTRA:          -5.013
REMARK INTER:                  -5.852
REMARK INTRA:                   0.839
REMARK UNBOUND:                 0.839
REMARK SMILES C[C@H]1[C@H](C)CC[C@]2(C(=O)[O-])CC[C@@]3(C)C(=CC[C@@H]4[C@@]5(C)CC[C@H](O)C(C)(C)[C@H]5CC[C@]43C)[C@@H]12
REMARK SMILES IDX 7 1 6 2 11 3 33 4 5 5 12 6 15 7 2 8 3 9 13 10 16 11 1 12
REMARK SMILES IDX 4 13 14 14 31 15 17 16 18 17 30 18 32 19 19 20 29 21 28 22
REMARK SMILES IDX 21 23 20 24 25 25 22 26 23 27 26 28 27 29 8 30 9 31 10 32
REMARK SMILES IDX 24 33
REMARK H PARENT 24 34
REMARK Flexibility Score: inf
ROOT
ATOM      1  C   UNL     1    -105.794  89.643 202.228  1.00  0.00     0.017 C 
ATOM      2  C   UNL     1    -106.727  89.307 201.024  1.00  0.00     0.014 C 
ATOM      3  C   UNL     1    -104.746  90.703 201.738  1.00  0.00     0.014 C 
ATOM      4  C   UNL     1    -105.065  88.326 202.669  1.00  0.00     0.030 C 
ATOM      5  C   UNL     1    -107.750  88.212 201.352  1.00  0.00     0.004 C 
ATOM      6  C   UNL     1    -103.280  90.472 202.185  1.00  0.00     0.013 C 
ATOM      7  C   UNL     1    -103.894  88.549 203.670  1.00  0.00    -0.063 C 
ATOM      8  C   UNL     1    -106.031  87.099 202.915  1.00  0.00    -0.003 C 
ATOM      9  C   UNL     1    -107.073  86.897 201.769  1.00  0.00    -0.011 C 
ATOM     10  C   UNL     1    -103.104  89.905 203.635  1.00  0.00    -0.006 C 
ATOM     11  C   UNL     1    -103.296  87.416 204.140  1.00  0.00    -0.027 C 
ATOM     12  C   UNL     1    -106.726  87.097 204.290  1.00  0.00     0.008 C 
ATOM     13  C   UNL     1    -106.466  86.165 200.555  1.00  0.00     0.008 C 
ATOM     14  C   UNL     1    -103.736  90.937 204.623  1.00  0.00     0.017 C 
ATOM     15  C   UNL     1    -101.538  89.701 204.044  1.00  0.00    -0.020 C 
ATOM     16  C   UNL     1    -101.806  87.189 204.158  1.00  0.00     0.032 C 
ATOM     17  C   UNL     1    -101.054  88.334 203.442  1.00  0.00     0.006 C 
ATOM     18  C   UNL     1    -100.622  90.865 203.538  1.00  0.00     0.008 C 
ATOM     19  C   UNL     1    -101.392  89.674 205.610  1.00  0.00     0.012 C 
ATOM     20  C   UNL     1     -99.491  88.090 203.164  1.00  0.00    -0.025 C 
ATOM     21  C   UNL     1     -99.834  90.523 202.269  1.00  0.00     0.005 C 
ATOM     22  C   UNL     1     -98.782  89.416 202.573  1.00  0.00     0.003 C 
ATOM     23  C   UNL     1     -99.419  86.859 202.182  1.00  0.00     0.010 C 
ATOM     24  C   UNL     1     -98.747  87.662 204.464  1.00  0.00     0.012 C 
ATOM     25  C   UNL     1     -97.646  89.231 201.457  1.00  0.00    -0.006 C 
ATOM     26  C   UNL     1     -98.139  86.740 201.381  1.00  0.00     0.033 C 
ATOM     27  C   UNL     1     -97.933  87.997 200.553  1.00  0.00     0.120 C 
ATOM     28  C   UNL     1     -97.520  90.466 200.518  1.00  0.00     0.014 C 
ATOM     29  C   UNL     1     -96.255  89.081 202.139  1.00  0.00     0.014 C 
ENDROOT
BRANCH   1  30
ATOM     30  C   UNL     1    -106.657  90.255 203.335  1.00  0.00     0.048 C 
ATOM     31  O   UNL     1    -107.414  91.230 203.074  1.00  0.00    -0.550 OA
ATOM     32  O   UNL     1    -106.576  89.823 204.653  1.00  0.00    -0.550 OA
ENDBRANCH   1  30
BRANCH  27  33
ATOM     33  O   UNL     1     -96.873  87.765 199.665  1.00  0.00    -0.393 OA
ATOM     34  H   UNL     1     -96.318  88.581 199.629  1.00  0.00     0.210 HD
ENDBRANCH  27  33
TORSDOF 2
ENDMDL
