MODEL 1
REMARK VINA RESULT:    -3.371      0.000      0.000
REMARK INTER + INTRA:          -5.631
REMARK INTER:                  -5.144
REMARK INTRA:                  -0.487
REMARK UNBOUND:                -0.487
REMARK SMILES CCCCCCCCCCC(=O)[O-]
REMARK SMILES IDX 7 1 8 2 9 3 10 4 11 5 12 6 13 7 6 8 5 9 4 10 3 11 2 12 1 13
REMARK H PARENT
REMARK Flexibility Score: inf
ROOT
ATOM      1  C   UNL     1     111.269  62.251 217.247  1.00  0.00     0.000 C 
ENDROOT
BRANCH   1   2
ATOM      2  C   UNL     1     112.419  63.274 217.163  1.00  0.00     0.000 C 
BRANCH   2   3
ATOM      3  C   UNL     1     112.023  64.647 216.589  1.00  0.00     0.006 C 
BRANCH   3   4
ATOM      4  C   UNL     1     112.152  65.783 217.611  1.00  0.00     0.053 C 
BRANCH   4   5
ATOM      5  C   UNL     1     113.099  66.828 217.115  1.00  0.00     0.041 C 
ATOM      6  O   UNL     1     112.994  68.019 217.513  1.00  0.00    -0.550 OA
ATOM      7  O   UNL     1     114.130  66.479 216.253  1.00  0.00    -0.550 OA
ENDBRANCH   4   5
ENDBRANCH   3   4
ENDBRANCH   2   3
ENDBRANCH   1   2
BRANCH   1   8
ATOM      8  C   UNL     1     110.824  61.659 215.897  1.00  0.00     0.000 C 
BRANCH   8   9
ATOM      9  C   UNL     1     109.599  62.370 215.281  1.00  0.00    -0.000 C 
BRANCH   9  10
ATOM     10  C   UNL     1     108.473  61.386 214.921  1.00  0.00    -0.000 C 
BRANCH  10  11
ATOM     11  C   UNL     1     107.153  61.706 215.640  1.00  0.00    -0.000 C 
BRANCH  11  12
ATOM     12  C   UNL     1     106.642  60.534 216.491  1.00  0.00    -0.003 C 
ATOM     13  C   UNL     1     107.798  59.670 216.988  1.00  0.00     0.004 C 
ENDBRANCH  11  12
ENDBRANCH  10  11
ENDBRANCH   9  10
ENDBRANCH   8   9
ENDBRANCH   1   8
TORSDOF 9
ENDMDL
MODEL 2
REMARK VINA RESULT:    -3.362     15.235     16.568
REMARK INTER + INTRA:          -5.618
REMARK INTER:                  -4.829
REMARK INTRA:                  -0.790
REMARK UNBOUND:                -0.487
REMARK SMILES CCCCCCCCCCC(=O)[O-]
REMARK SMILES IDX 7 1 8 2 9 3 10 4 11 5 12 6 13 7 6 8 5 9 4 10 3 11 2 12 1 13
REMARK H PARENT
REMARK Flexibility Score: inf
ROOT
ATOM      1  C   UNL     1     114.358  55.453 228.704  1.00  0.00     0.000 C 
ENDROOT
BRANCH   1   2
ATOM      2  C   UNL     1     113.917  53.988 228.521  1.00  0.00     0.000 C 
BRANCH   2   3
ATOM      3  C   UNL     1     113.077  53.717 227.259  1.00  0.00     0.006 C 
BRANCH   3   4
ATOM      4  C   UNL     1     112.834  54.979 226.421  1.00  0.00     0.053 C 
BRANCH   4   5
ATOM      5  C   UNL     1     111.407  55.411 226.530  1.00  0.00     0.041 C 
ATOM      6  O   UNL     1     110.974  55.903 227.606  1.00  0.00    -0.550 OA
ATOM      7  O   UNL     1     110.566  55.318 225.429  1.00  0.00    -0.550 OA
ENDBRANCH   4   5
ENDBRANCH   3   4
ENDBRANCH   2   3
ENDBRANCH   1   2
BRANCH   1   8
ATOM      8  C   UNL     1     113.905  56.110 230.021  1.00  0.00     0.000 C 
BRANCH   8   9
ATOM      9  C   UNL     1     112.696  55.411 230.680  1.00  0.00    -0.000 C 
BRANCH   9  10
ATOM     10  C   UNL     1     112.983  54.991 232.132  1.00  0.00    -0.000 C 
BRANCH  10  11
ATOM     11  C   UNL     1     112.920  53.468 232.332  1.00  0.00    -0.000 C 
BRANCH  11  12
ATOM     12  C   UNL     1     113.922  52.966 233.381  1.00  0.00    -0.003 C 
ATOM     13  C   UNL     1     114.529  54.128 234.162  1.00  0.00     0.004 C 
ENDBRANCH  11  12
ENDBRANCH  10  11
ENDBRANCH   9  10
ENDBRANCH   8   9
ENDBRANCH   1   8
TORSDOF 9
ENDMDL
MODEL 3
REMARK VINA RESULT:    -3.299      0.837      1.530
REMARK INTER + INTRA:          -5.522
REMARK INTER:                  -5.050
REMARK INTRA:                  -0.472
REMARK UNBOUND:                -0.487
REMARK SMILES CCCCCCCCCCC(=O)[O-]
REMARK SMILES IDX 7 1 8 2 9 3 10 4 11 5 12 6 13 7 6 8 5 9 4 10 3 11 2 12 1 13
REMARK H PARENT
REMARK Flexibility Score: inf
ROOT
ATOM      1  C   UNL     1     111.869  62.231 218.649  1.00  0.00     0.000 C 
ENDROOT
BRANCH   1   2
ATOM      2  C   UNL     1     112.667  63.345 217.944  1.00  0.00     0.000 C 
BRANCH   2   3
ATOM      3  C   UNL     1     112.197  64.777 218.261  1.00  0.00     0.006 C 
BRANCH   3   4
ATOM      4  C   UNL     1     112.099  65.664 217.013  1.00  0.00     0.053 C 
BRANCH   4   5
ATOM      5  C   UNL     1     113.216  66.658 216.989  1.00  0.00     0.041 C 
ATOM      6  O   UNL     1     114.351  66.326 216.555  1.00  0.00    -0.550 OA
ATOM      7  O   UNL     1     112.992  67.966 217.400  1.00  0.00    -0.550 OA
ENDBRANCH   4   5
ENDBRANCH   3   4
ENDBRANCH   2   3
ENDBRANCH   1   2
BRANCH   1   8
ATOM      8  C   UNL     1     111.186  61.223 217.706  1.00  0.00     0.000 C 
BRANCH   8   9
ATOM      9  C   UNL     1     110.460  61.882 216.513  1.00  0.00    -0.000 C 
BRANCH   9  10
ATOM     10  C   UNL     1     109.407  60.952 215.884  1.00  0.00    -0.000 C 
BRANCH  10  11
ATOM     11  C   UNL     1     108.349  61.718 215.076  1.00  0.00    -0.000 C 
BRANCH  11  12
ATOM     12  C   UNL     1     106.969  61.713 215.751  1.00  0.00    -0.003 C 
ATOM     13  C   UNL     1     106.769  60.449 216.583  1.00  0.00     0.004 C 
ENDBRANCH  11  12
ENDBRANCH  10  11
ENDBRANCH   9  10
ENDBRANCH   8   9
ENDBRANCH   1   8
TORSDOF 9
ENDMDL
MODEL 4
REMARK VINA RESULT:    -3.282      0.941      1.545
REMARK INTER + INTRA:          -5.497
REMARK INTER:                  -4.899
REMARK INTRA:                  -0.598
REMARK UNBOUND:                -0.487
REMARK SMILES CCCCCCCCCCC(=O)[O-]
REMARK SMILES IDX 7 1 8 2 9 3 10 4 11 5 12 6 13 7 6 8 5 9 4 10 3 11 2 12 1 13
REMARK H PARENT
REMARK Flexibility Score: inf
ROOT
ATOM      1  C   UNL     1     111.170  63.931 215.557  1.00  0.00     0.000 C 
ENDROOT
BRANCH   1   2
ATOM      2  C   UNL     1     112.397  63.421 216.337  1.00  0.00     0.000 C 
BRANCH   2   3
ATOM      3  C   UNL     1     112.815  64.298 217.532  1.00  0.00     0.006 C 
BRANCH   3   4
ATOM      4  C   UNL     1     112.139  65.675 217.528  1.00  0.00     0.053 C 
BRANCH   4   5
ATOM      5  C   UNL     1     113.099  66.728 217.073  1.00  0.00     0.041 C 
ATOM      6  O   UNL     1     112.953  67.922 217.444  1.00  0.00    -0.550 OA
ATOM      7  O   UNL     1     114.184  66.382 216.278  1.00  0.00    -0.550 OA
ENDBRANCH   4   5
ENDBRANCH   3   4
ENDBRANCH   2   3
ENDBRANCH   1   2
BRANCH   1   8
ATOM      8  C   UNL     1     110.180  62.838 215.113  1.00  0.00     0.000 C 
BRANCH   8   9
ATOM      9  C   UNL     1     110.544  61.426 215.623  1.00  0.00    -0.000 C 
BRANCH   9  10
ATOM     10  C   UNL     1     109.627  60.965 216.770  1.00  0.00    -0.000 C 
BRANCH  10  11
ATOM     11  C   UNL     1     108.661  59.849 216.344  1.00  0.00    -0.000 C 
BRANCH  11  12
ATOM     12  C   UNL     1     107.584  60.338 215.365  1.00  0.00    -0.003 C 
ATOM     13  C   UNL     1     106.741  61.448 215.986  1.00  0.00     0.004 C 
ENDBRANCH  11  12
ENDBRANCH  10  11
ENDBRANCH   9  10
ENDBRANCH   8   9
ENDBRANCH   1   8
TORSDOF 9
ENDMDL
MODEL 5
REMARK VINA RESULT:    -3.216     16.318     17.753
REMARK INTER + INTRA:          -5.396
REMARK INTER:                  -4.741
REMARK INTRA:                  -0.655
REMARK UNBOUND:                -0.487
REMARK SMILES CCCCCCCCCCC(=O)[O-]
REMARK SMILES IDX 7 1 8 2 9 3 10 4 11 5 12 6 13 7 6 8 5 9 4 10 3 11 2 12 1 13
REMARK H PARENT
REMARK Flexibility Score: inf
ROOT
ATOM      1  C   UNL     1     112.951  55.224 231.073  1.00  0.00     0.000 C 
ENDROOT
BRANCH   1   2
ATOM      2  C   UNL     1     112.977  55.454 229.550  1.00  0.00     0.000 C 
BRANCH   2   3
ATOM      3  C   UNL     1     114.027  54.625 228.788  1.00  0.00     0.006 C 
BRANCH   3   4
ATOM      4  C   UNL     1     113.405  53.668 227.762  1.00  0.00     0.053 C 
BRANCH   4   5
ATOM      5  C   UNL     1     113.114  54.388 226.485  1.00  0.00     0.041 C 
ATOM      6  O   UNL     1     112.146  54.030 225.762  1.00  0.00    -0.550 OA
ATOM      7  O   UNL     1     113.880  55.485 226.115  1.00  0.00    -0.550 OA
ENDBRANCH   4   5
ENDBRANCH   3   4
ENDBRANCH   2   3
ENDBRANCH   1   2
BRANCH   1   8
ATOM      8  C   UNL     1     113.196  53.769 231.517  1.00  0.00     0.000 C 
BRANCH   8   9
ATOM      9  C   UNL     1     112.975  53.534 233.027  1.00  0.00    -0.000 C 
BRANCH   9  10
ATOM     10  C   UNL     1     114.224  52.960 233.718  1.00  0.00    -0.000 C 
BRANCH  10  11
ATOM     11  C   UNL     1     115.103  54.049 234.352  1.00  0.00    -0.000 C 
BRANCH  11  12
ATOM     12  C   UNL     1     114.333  55.349 234.626  1.00  0.00    -0.003 C 
ATOM     13  C   UNL     1     114.993  56.535 233.929  1.00  0.00     0.004 C 
ENDBRANCH  11  12
ENDBRANCH  10  11
ENDBRANCH   9  10
ENDBRANCH   8   9
ENDBRANCH   1   8
TORSDOF 9
ENDMDL
MODEL 6
REMARK VINA RESULT:    -3.205     16.247     17.558
REMARK INTER + INTRA:          -5.378
REMARK INTER:                  -4.399
REMARK INTRA:                  -0.979
REMARK UNBOUND:                -0.487
REMARK SMILES CCCCCCCCCCC(=O)[O-]
REMARK SMILES IDX 7 1 8 2 9 3 10 4 11 5 12 6 13 7 6 8 5 9 4 10 3 11 2 12 1 13
REMARK H PARENT
REMARK Flexibility Score: inf
ROOT
ATOM      1  C   UNL     1     114.124  56.542 230.435  1.00  0.00     0.000 C 
ENDROOT
BRANCH   1   2
ATOM      2  C   UNL     1     113.058  55.538 229.955  1.00  0.00     0.000 C 
BRANCH   2   3
ATOM      3  C   UNL     1     113.607  54.160 229.542  1.00  0.00     0.006 C 
BRANCH   3   4
ATOM      4  C   UNL     1     114.267  54.170 228.157  1.00  0.00     0.053 C 
BRANCH   4   5
ATOM      5  C   UNL     1     113.228  54.147 227.082  1.00  0.00     0.041 C 
ATOM      6  O   UNL     1     112.422  53.182 227.001  1.00  0.00    -0.550 OA
ATOM      7  O   UNL     1     113.115  55.213 226.199  1.00  0.00    -0.550 OA
ENDBRANCH   4   5
ENDBRANCH   3   4
ENDBRANCH   2   3
ENDBRANCH   1   2
BRANCH   1   8
ATOM      8  C   UNL     1     114.324  56.599 231.961  1.00  0.00     0.000 C 
BRANCH   8   9
ATOM      9  C   UNL     1     113.016  56.441 232.766  1.00  0.00    -0.000 C 
BRANCH   9  10
ATOM     10  C   UNL     1     113.112  55.331 233.826  1.00  0.00    -0.000 C 
BRANCH  10  11
ATOM     11  C   UNL     1     112.620  53.971 233.307  1.00  0.00    -0.000 C 
BRANCH  11  12
ATOM     12  C   UNL     1     113.736  52.918 233.253  1.00  0.00    -0.003 C 
ATOM     13  C   UNL     1     114.903  53.308 234.155  1.00  0.00     0.004 C 
ENDBRANCH  11  12
ENDBRANCH  10  11
ENDBRANCH   9  10
ENDBRANCH   8   9
ENDBRANCH   1   8
TORSDOF 9
ENDMDL
MODEL 7
REMARK VINA RESULT:    -3.204     14.418     16.341
REMARK INTER + INTRA:          -5.377
REMARK INTER:                  -3.987
REMARK INTRA:                  -1.390
REMARK UNBOUND:                -0.487
REMARK SMILES CCCCCCCCCCC(=O)[O-]
REMARK SMILES IDX 7 1 8 2 9 3 10 4 11 5 12 6 13 7 6 8 5 9 4 10 3 11 2 12 1 13
REMARK H PARENT
REMARK Flexibility Score: inf
ROOT
ATOM      1  C   UNL     1      97.420  64.988 224.756  1.00  0.00     0.000 C 
ENDROOT
BRANCH   1   2
ATOM      2  C   UNL     1      97.865  64.272 226.046  1.00  0.00     0.000 C 
BRANCH   2   3
ATOM      3  C   UNL     1      99.207  64.756 226.625  1.00  0.00     0.006 C 
BRANCH   3   4
ATOM      4  C   UNL     1      99.904  65.793 225.733  1.00  0.00     0.053 C 
BRANCH   4   5
ATOM      5  C   UNL     1     101.150  65.218 225.139  1.00  0.00     0.041 C 
ATOM      6  O   UNL     1     101.089  64.517 224.095  1.00  0.00    -0.550 OA
ATOM      7  O   UNL     1     102.385  65.497 225.709  1.00  0.00    -0.550 OA
ENDBRANCH   4   5
ENDBRANCH   3   4
ENDBRANCH   2   3
ENDBRANCH   1   2
BRANCH   1   8
ATOM      8  C   UNL     1      95.943  65.427 224.731  1.00  0.00     0.000 C 
BRANCH   8   9
ATOM      9  C   UNL     1      95.333  65.634 226.135  1.00  0.00    -0.000 C 
BRANCH   9  10
ATOM     10  C   UNL     1      95.414  67.099 226.598  1.00  0.00    -0.000 C 
BRANCH  10  11
ATOM     11  C   UNL     1      96.409  67.301 227.751  1.00  0.00    -0.000 C 
BRANCH  11  12
ATOM     12  C   UNL     1      97.559  68.250 227.383  1.00  0.00    -0.003 C 
ATOM     13  C   UNL     1      97.460  68.693 225.926  1.00  0.00     0.004 C 
ENDBRANCH  11  12
ENDBRANCH  10  11
ENDBRANCH   9  10
ENDBRANCH   8   9
ENDBRANCH   1   8
TORSDOF 9
ENDMDL
MODEL 8
REMARK VINA RESULT:    -3.194      4.516      6.986
REMARK INTER + INTRA:          -5.362
REMARK INTER:                  -4.218
REMARK INTRA:                  -1.143
REMARK UNBOUND:                -0.487
REMARK SMILES CCCCCCCCCCC(=O)[O-]
REMARK SMILES IDX 7 1 8 2 9 3 10 4 11 5 12 6 13 7 6 8 5 9 4 10 3 11 2 12 1 13
REMARK H PARENT
REMARK Flexibility Score: inf
ROOT
ATOM      1  C   UNL     1     113.457  65.849 221.102  1.00  0.00     0.000 C 
ENDROOT
BRANCH   1   2
ATOM      2  C   UNL     1     112.484  65.104 220.166  1.00  0.00     0.000 C 
BRANCH   2   3
ATOM      3  C   UNL     1     111.848  65.976 219.067  1.00  0.00     0.006 C 
BRANCH   3   4
ATOM      4  C   UNL     1     112.312  65.592 217.656  1.00  0.00     0.053 C 
BRANCH   4   5
ATOM      5  C   UNL     1     113.124  66.694 217.055  1.00  0.00     0.041 C 
ATOM      6  O   UNL     1     112.939  67.887 217.416  1.00  0.00    -0.550 OA
ATOM      7  O   UNL     1     114.118  66.402 216.131  1.00  0.00    -0.550 OA
ENDBRANCH   4   5
ENDBRANCH   3   4
ENDBRANCH   2   3
ENDBRANCH   1   2
BRANCH   1   8
ATOM      8  C   UNL     1     113.502  67.377 220.911  1.00  0.00     0.000 C 
BRANCH   8   9
ATOM      9  C   UNL     1     113.601  68.165 222.235  1.00  0.00    -0.000 C 
BRANCH   9  10
ATOM     10  C   UNL     1     112.249  68.765 222.661  1.00  0.00    -0.000 C 
BRANCH  10  11
ATOM     11  C   UNL     1     111.195  68.701 221.545  1.00  0.00    -0.000 C 
BRANCH  11  12
ATOM     12  C   UNL     1     109.883  68.051 222.005  1.00  0.00    -0.003 C 
ATOM     13  C   UNL     1     110.151  66.854 222.914  1.00  0.00     0.004 C 
ENDBRANCH  11  12
ENDBRANCH  10  11
ENDBRANCH   9  10
ENDBRANCH   8   9
ENDBRANCH   1   8
TORSDOF 9
ENDMDL
MODEL 9
REMARK VINA RESULT:    -3.181     14.594     16.375
REMARK INTER + INTRA:          -5.343
REMARK INTER:                  -4.061
REMARK INTRA:                  -1.282
REMARK UNBOUND:                -0.487
REMARK SMILES CCCCCCCCCCC(=O)[O-]
REMARK SMILES IDX 7 1 8 2 9 3 10 4 11 5 12 6 13 7 6 8 5 9 4 10 3 11 2 12 1 13
REMARK H PARENT
REMARK Flexibility Score: inf
ROOT
ATOM      1  C   UNL     1      97.667  67.924 227.723  1.00  0.00     0.000 C 
ENDROOT
BRANCH   1   2
ATOM      2  C   UNL     1      98.883  67.038 227.390  1.00  0.00     0.000 C 
BRANCH   2   3
ATOM      3  C   UNL     1      99.267  67.001 225.899  1.00  0.00     0.006 C 
BRANCH   3   4
ATOM      4  C   UNL     1      99.480  65.576 225.372  1.00  0.00     0.053 C 
BRANCH   4   5
ATOM      5  C   UNL     1     100.864  65.421 224.827  1.00  0.00     0.041 C 
ATOM      6  O   UNL     1     101.167  64.407 224.144  1.00  0.00    -0.550 OA
ATOM      7  O   UNL     1     101.807  66.421 225.029  1.00  0.00    -0.550 OA
ENDBRANCH   4   5
ENDBRANCH   3   4
ENDBRANCH   2   3
ENDBRANCH   1   2
BRANCH   1   8
ATOM      8  C   UNL     1      96.316  67.185 227.773  1.00  0.00     0.000 C 
BRANCH   8   9
ATOM      9  C   UNL     1      96.452  65.650 227.875  1.00  0.00    -0.000 C 
BRANCH   9  10
ATOM     10  C   UNL     1      95.600  64.917 226.824  1.00  0.00    -0.000 C 
BRANCH  10  11
ATOM     11  C   UNL     1      95.124  65.845 225.695  1.00  0.00    -0.000 C 
BRANCH  11  12
ATOM     12  C   UNL     1      95.937  65.673 224.404  1.00  0.00    -0.003 C 
ATOM     13  C   UNL     1      96.246  67.025 223.766  1.00  0.00     0.004 C 
ENDBRANCH  11  12
ENDBRANCH  10  11
ENDBRANCH   9  10
ENDBRANCH   8   9
ENDBRANCH   1   8
TORSDOF 9
ENDMDL
