MODEL 1
REMARK VINA RESULT:    -3.882      0.000      0.000
REMARK INTER + INTRA:          -5.564
REMARK INTER:                  -5.357
REMARK INTRA:                  -0.207
REMARK UNBOUND:                -0.207
REMARK SMILES OC[C@@H](O)[C@H](O)[C@@H](O)CO
REMARK SMILES IDX 5 1 7 2 9 3 10 4 8 6 3 8 2 9 1 10 4 12 6 14
REMARK H PARENT 10 5 8 7 1 11 4 13 6 15
REMARK Flexibility Score: inf
ROOT
ATOM      1  C   UNL     1       9.982  20.312  53.816  1.00  0.00     0.176 C 
ENDROOT
BRANCH   1   2
ATOM      2  C   UNL     1       8.690  21.153  53.976  1.00  0.00     0.171 C 
BRANCH   2   3
ATOM      3  C   UNL     1       7.429  20.267  53.976  1.00  0.00     0.190 C 
BRANCH   3   4
ATOM      4  O   UNL     1       6.532  20.694  54.966  1.00  0.00    -0.394 OA
ATOM      5  H   UNL     1       5.674  20.890  54.505  1.00  0.00     0.210 HD
ENDBRANCH   3   4
ENDBRANCH   2   3
BRANCH   2   6
ATOM      6  O   UNL     1       8.597  22.147  52.984  1.00  0.00    -0.388 OA
ATOM      7  H   UNL     1       9.501  22.265  52.590  1.00  0.00     0.211 HD
ENDBRANCH   2   6
ENDBRANCH   1   2
BRANCH   1   8
ATOM      8  C   UNL     1       9.737  18.783  53.915  1.00  0.00     0.171 C 
BRANCH   8   9
ATOM      9  C   UNL     1      10.125  18.027  52.629  1.00  0.00     0.190 C 
BRANCH   9  10
ATOM     10  O   UNL     1       9.760  18.768  51.498  1.00  0.00    -0.394 OA
ATOM     11  H   UNL     1       9.644  19.704  51.805  1.00  0.00     0.210 HD
ENDBRANCH   9  10
ENDBRANCH   8   9
BRANCH   8  12
ATOM     12  O   UNL     1      10.498  18.280  54.983  1.00  0.00    -0.388 OA
ATOM     13  H   UNL     1      11.453  18.340  54.717  1.00  0.00     0.211 HD
ENDBRANCH   8  12
ENDBRANCH   1   8
BRANCH   1  14
ATOM     14  O   UNL     1      10.909  20.694  54.804  1.00  0.00    -0.388 OA
ATOM     15  H   UNL     1      10.421  20.721  55.669  1.00  0.00     0.211 HD
ENDBRANCH   1  14
TORSDOF 9
ENDMDL
MODEL 2
REMARK VINA RESULT:    -3.872      1.416      2.404
REMARK INTER + INTRA:          -5.550
REMARK INTER:                  -5.184
REMARK INTRA:                  -0.367
REMARK UNBOUND:                -0.207
REMARK SMILES OC[C@@H](O)[C@H](O)[C@@H](O)CO
REMARK SMILES IDX 5 1 7 2 9 3 10 4 8 6 3 8 2 9 1 10 4 12 6 14
REMARK H PARENT 10 5 8 7 1 11 4 13 6 15
REMARK Flexibility Score: inf
ROOT
ATOM      1  C   UNL     1       7.931  20.425  52.974  1.00  0.00     0.176 C 
ENDROOT
BRANCH   1   2
ATOM      2  C   UNL     1       6.628  20.037  53.718  1.00  0.00     0.171 C 
BRANCH   2   3
ATOM      3  C   UNL     1       6.180  21.139  54.697  1.00  0.00     0.190 C 
BRANCH   3   4
ATOM      4  O   UNL     1       5.415  22.106  54.028  1.00  0.00    -0.394 OA
ATOM      5  H   UNL     1       5.047  21.666  53.218  1.00  0.00     0.210 HD
ENDBRANCH   3   4
ENDBRANCH   2   3
BRANCH   2   6
ATOM      6  O   UNL     1       6.765  18.806  54.387  1.00  0.00    -0.388 OA
ATOM      7  H   UNL     1       7.595  18.850  54.931  1.00  0.00     0.211 HD
ENDBRANCH   2   6
ENDBRANCH   1   2
BRANCH   1   8
ATOM      8  C   UNL     1       9.212  19.861  53.643  1.00  0.00     0.171 C 
BRANCH   8   9
ATOM      9  C   UNL     1       9.903  18.773  52.796  1.00  0.00     0.190 C 
BRANCH   9  10
ATOM     10  O   UNL     1       9.492  18.860  51.460  1.00  0.00    -0.394 OA
ATOM     11  H   UNL     1       9.227  17.942  51.192  1.00  0.00     0.210 HD
ENDBRANCH   9  10
ENDBRANCH   8   9
BRANCH   8  12
ATOM     12  O   UNL     1      10.113  20.920  53.842  1.00  0.00    -0.388 OA
ATOM     13  H   UNL     1      11.004  20.609  53.530  1.00  0.00     0.211 HD
ENDBRANCH   8  12
ENDBRANCH   1   8
BRANCH   1  14
ATOM     14  O   UNL     1       8.026  21.828  52.910  1.00  0.00    -0.388 OA
ATOM     15  H   UNL     1       7.103  22.182  52.821  1.00  0.00     0.211 HD
ENDBRANCH   1  14
TORSDOF 9
ENDMDL
MODEL 3
REMARK VINA RESULT:    -3.836      1.144      3.702
REMARK INTER + INTRA:          -5.501
REMARK INTER:                  -5.283
REMARK INTRA:                  -0.217
REMARK UNBOUND:                -0.207
REMARK SMILES OC[C@@H](O)[C@H](O)[C@@H](O)CO
REMARK SMILES IDX 5 1 7 2 9 3 10 4 8 6 3 8 2 9 1 10 4 12 6 14
REMARK H PARENT 10 5 8 7 1 11 4 13 6 15
REMARK Flexibility Score: inf
ROOT
ATOM      1  C   UNL     1       9.594  18.820  53.748  1.00  0.00     0.176 C 
ENDROOT
BRANCH   1   2
ATOM      2  C   UNL     1       9.390  18.238  52.326  1.00  0.00     0.171 C 
BRANCH   2   3
ATOM      3  C   UNL     1      10.680  17.596  51.782  1.00  0.00     0.190 C 
BRANCH   3   4
ATOM      4  O   UNL     1      10.960  18.076  50.494  1.00  0.00    -0.394 OA
ATOM      5  H   UNL     1      11.411  17.337  50.007  1.00  0.00     0.210 HD
ENDBRANCH   3   4
ENDBRANCH   2   3
BRANCH   2   6
ATOM      6  O   UNL     1       8.910  19.216  51.435  1.00  0.00    -0.388 OA
ATOM      7  H   UNL     1       9.464  19.171  50.612  1.00  0.00     0.211 HD
ENDBRANCH   2   6
ENDBRANCH   1   2
BRANCH   1   8
ATOM      8  C   UNL     1       9.851  20.350  53.756  1.00  0.00     0.171 C 
BRANCH   8   9
ATOM      9  C   UNL     1       8.574  21.173  54.018  1.00  0.00     0.190 C 
BRANCH   9  10
ATOM     10  O   UNL     1       8.188  21.859  52.859  1.00  0.00    -0.394 OA
ATOM     11  H   UNL     1       7.621  22.615  53.161  1.00  0.00     0.210 HD
ENDBRANCH   9  10
ENDBRANCH   8   9
BRANCH   8  12
ATOM     12  O   UNL     1      10.790  20.638  54.760  1.00  0.00    -0.388 OA
ATOM     13  H   UNL     1      10.919  19.806  55.287  1.00  0.00     0.211 HD
ENDBRANCH   8  12
ENDBRANCH   1   8
BRANCH   1  14
ATOM     14  O   UNL     1      10.680  18.169  54.363  1.00  0.00    -0.388 OA
ATOM     15  H   UNL     1      11.176  18.852  54.884  1.00  0.00     0.211 HD
ENDBRANCH   1  14
TORSDOF 9
ENDMDL
MODEL 4
REMARK VINA RESULT:    -3.833      1.717      3.208
REMARK INTER + INTRA:          -5.496
REMARK INTER:                  -4.796
REMARK INTRA:                  -0.701
REMARK UNBOUND:                -0.207
REMARK SMILES OC[C@@H](O)[C@H](O)[C@@H](O)CO
REMARK SMILES IDX 5 1 7 2 9 3 10 4 8 6 3 8 2 9 1 10 4 12 6 14
REMARK H PARENT 10 5 8 7 1 11 4 13 6 15
REMARK Flexibility Score: inf
ROOT
ATOM      1  C   UNL     1       8.717  18.392  52.275  1.00  0.00     0.176 C 
ENDROOT
BRANCH   1   2
ATOM      2  C   UNL     1       9.237  18.864  53.657  1.00  0.00     0.171 C 
BRANCH   2   3
ATOM      3  C   UNL     1       8.794  20.307  53.970  1.00  0.00     0.190 C 
BRANCH   3   4
ATOM      4  O   UNL     1       9.810  21.214  53.636  1.00  0.00    -0.394 OA
ATOM      5  H   UNL     1      10.657  20.695  53.610  1.00  0.00     0.210 HD
ENDBRANCH   3   4
ENDBRANCH   2   3
BRANCH   2   6
ATOM      6  O   UNL     1      10.636  18.745  53.749  1.00  0.00    -0.388 OA
ATOM      7  H   UNL     1      10.836  17.877  54.186  1.00  0.00     0.211 HD
ENDBRANCH   2   6
ENDBRANCH   1   2
BRANCH   1   8
ATOM      8  C   UNL     1       9.651  17.363  51.587  1.00  0.00     0.171 C 
BRANCH   8   9
ATOM      9  C   UNL     1       8.913  16.464  50.574  1.00  0.00     0.190 C 
BRANCH   9  10
ATOM     10  O   UNL     1       8.470  17.220  49.482  1.00  0.00    -0.394 OA
ATOM     11  H   UNL     1       9.111  17.971  49.386  1.00  0.00     0.210 HD
ENDBRANCH   9  10
ENDBRANCH   8   9
BRANCH   8  12
ATOM     12  O   UNL     1      10.666  18.064  50.914  1.00  0.00    -0.388 OA
ATOM     13  H   UNL     1      11.491  17.516  50.977  1.00  0.00     0.211 HD
ENDBRANCH   8  12
ENDBRANCH   1   8
BRANCH   1  14
ATOM     14  O   UNL     1       8.562  19.509  51.433  1.00  0.00    -0.388 OA
ATOM     15  H   UNL     1       8.075  19.202  50.624  1.00  0.00     0.211 HD
ENDBRANCH   1  14
TORSDOF 9
ENDMDL
MODEL 5
REMARK VINA RESULT:    -3.759     11.244     12.688
REMARK INTER + INTRA:          -5.394
REMARK INTER:                  -4.634
REMARK INTRA:                  -0.760
REMARK UNBOUND:                -0.207
REMARK SMILES OC[C@@H](O)[C@H](O)[C@@H](O)CO
REMARK SMILES IDX 5 1 7 2 9 3 10 4 8 6 3 8 2 9 1 10 4 12 6 14
REMARK H PARENT 10 5 8 7 1 11 4 13 6 15
REMARK Flexibility Score: inf
ROOT
ATOM      1  C   UNL     1      11.485  21.480  40.872  1.00  0.00     0.176 C 
ENDROOT
BRANCH   1   2
ATOM      2  C   UNL     1      10.788  20.839  42.099  1.00  0.00     0.171 C 
BRANCH   2   3
ATOM      3  C   UNL     1       9.606  21.694  42.597  1.00  0.00     0.190 C 
BRANCH   3   4
ATOM      4  O   UNL     1       8.468  20.896  42.782  1.00  0.00    -0.394 OA
ATOM      5  H   UNL     1       8.269  20.907  43.754  1.00  0.00     0.210 HD
ENDBRANCH   3   4
ENDBRANCH   2   3
BRANCH   2   6
ATOM      6  O   UNL     1      11.701  20.602  43.144  1.00  0.00    -0.388 OA
ATOM      7  H   UNL     1      12.581  20.967  42.864  1.00  0.00     0.211 HD
ENDBRANCH   2   6
ENDBRANCH   1   2
BRANCH   1   8
ATOM      8  C   UNL     1      12.409  20.496  40.108  1.00  0.00     0.171 C 
BRANCH   8   9
ATOM      9  C   UNL     1      13.907  20.804  40.304  1.00  0.00     0.190 C 
BRANCH   9  10
ATOM     10  O   UNL     1      14.322  20.414  41.584  1.00  0.00    -0.394 OA
ATOM     11  H   UNL     1      15.309  20.516  41.598  1.00  0.00     0.210 HD
ENDBRANCH   9  10
ENDBRANCH   8   9
BRANCH   8  12
ATOM     12  O   UNL     1      12.150  19.194  40.567  1.00  0.00    -0.388 OA
ATOM     13  H   UNL     1      11.691  19.280  41.443  1.00  0.00     0.211 HD
ENDBRANCH   8  12
ENDBRANCH   1   8
BRANCH   1  14
ATOM     14  O   UNL     1      12.242  22.587  41.297  1.00  0.00    -0.388 OA
ATOM     15  H   UNL     1      11.606  23.330  41.469  1.00  0.00     0.211 HD
ENDBRANCH   1  14
TORSDOF 9
ENDMDL
MODEL 6
REMARK VINA RESULT:    -3.755      1.241      3.975
REMARK INTER + INTRA:          -5.388
REMARK INTER:                  -5.037
REMARK INTRA:                  -0.351
REMARK UNBOUND:                -0.207
REMARK SMILES OC[C@@H](O)[C@H](O)[C@@H](O)CO
REMARK SMILES IDX 5 1 7 2 9 3 10 4 8 6 3 8 2 9 1 10 4 12 6 14
REMARK H PARENT 10 5 8 7 1 11 4 13 6 15
REMARK Flexibility Score: inf
ROOT
ATOM      1  C   UNL     1       8.949  20.235  54.133  1.00  0.00     0.176 C 
ENDROOT
BRANCH   1   2
ATOM      2  C   UNL     1       9.180  18.737  53.806  1.00  0.00     0.171 C 
BRANCH   2   3
ATOM      3  C   UNL     1       8.766  18.398  52.360  1.00  0.00     0.190 C 
BRANCH   3   4
ATOM      4  O   UNL     1       9.762  18.803  51.459  1.00  0.00    -0.394 OA
ATOM      5  H   UNL     1       9.869  18.064  50.804  1.00  0.00     0.210 HD
ENDBRANCH   3   4
ENDBRANCH   2   3
BRANCH   2   6
ATOM      6  O   UNL     1       8.513  17.901  54.721  1.00  0.00    -0.388 OA
ATOM      7  H   UNL     1       7.905  18.471  55.260  1.00  0.00     0.211 HD
ENDBRANCH   2   6
ENDBRANCH   1   2
BRANCH   1   8
ATOM      8  C   UNL     1       7.657  20.810  53.495  1.00  0.00     0.171 C 
BRANCH   8   9
ATOM      9  C   UNL     1       6.510  20.982  54.510  1.00  0.00     0.190 C 
BRANCH   9  10
ATOM     10  O   UNL     1       5.725  22.093  54.177  1.00  0.00    -0.394 OA
ATOM     11  H   UNL     1       4.786  21.773  54.160  1.00  0.00     0.210 HD
ENDBRANCH   9  10
ENDBRANCH   8   9
BRANCH   8  12
ATOM     12  O   UNL     1       7.959  22.064  52.936  1.00  0.00    -0.388 OA
ATOM     13  H   UNL     1       7.222  22.289  52.309  1.00  0.00     0.211 HD
ENDBRANCH   8  12
ENDBRANCH   1   8
BRANCH   1  14
ATOM     14  O   UNL     1      10.055  20.982  53.686  1.00  0.00    -0.388 OA
ATOM     15  H   UNL     1      10.474  21.393  54.487  1.00  0.00     0.211 HD
ENDBRANCH   1  14
TORSDOF 9
ENDMDL
MODEL 7
REMARK VINA RESULT:    -3.725     11.954     13.937
REMARK INTER + INTRA:          -5.348
REMARK INTER:                  -4.389
REMARK INTRA:                  -0.959
REMARK UNBOUND:                -0.207
REMARK SMILES OC[C@@H](O)[C@H](O)[C@@H](O)CO
REMARK SMILES IDX 5 1 7 2 9 3 10 4 8 6 3 8 2 9 1 10 4 12 6 14
REMARK H PARENT 10 5 8 7 1 11 4 13 6 15
REMARK Flexibility Score: inf
ROOT
ATOM      1  C   UNL     1      12.320  20.329  40.228  1.00  0.00     0.176 C 
ENDROOT
BRANCH   1   2
ATOM      2  C   UNL     1      13.861  20.486  40.274  1.00  0.00     0.171 C 
BRANCH   2   3
ATOM      3  C   UNL     1      14.563  19.512  39.308  1.00  0.00     0.190 C 
BRANCH   3   4
ATOM      4  O   UNL     1      13.618  18.719  38.640  1.00  0.00    -0.394 OA
ATOM      5  H   UNL     1      13.011  19.343  38.163  1.00  0.00     0.210 HD
ENDBRANCH   3   4
ENDBRANCH   2   3
BRANCH   2   6
ATOM      6  O   UNL     1      14.355  20.327  41.583  1.00  0.00    -0.388 OA
ATOM      7  H   UNL     1      13.608  20.511  42.211  1.00  0.00     0.211 HD
ENDBRANCH   2   6
ENDBRANCH   1   2
BRANCH   1   8
ATOM      8  C   UNL     1      11.563  21.490  40.925  1.00  0.00     0.171 C 
BRANCH   8   9
ATOM      9  C   UNL     1      10.847  21.050  42.217  1.00  0.00     0.190 C 
BRANCH   9  10
ATOM     10  O   UNL     1      11.780  20.626  43.173  1.00  0.00    -0.394 OA
ATOM     11  H   UNL     1      11.677  21.235  43.949  1.00  0.00     0.210 HD
ENDBRANCH   9  10
ENDBRANCH   8   9
BRANCH   8  12
ATOM     12  O   UNL     1      12.489  22.498  41.241  1.00  0.00    -0.388 OA
ATOM     13  H   UNL     1      13.392  22.087  41.205  1.00  0.00     0.211 HD
ENDBRANCH   8  12
ENDBRANCH   1   8
BRANCH   1  14
ATOM     14  O   UNL     1      11.960  19.113  40.838  1.00  0.00    -0.388 OA
ATOM     15  H   UNL     1      12.627  18.933  41.550  1.00  0.00     0.211 HD
ENDBRANCH   1  14
TORSDOF 9
ENDMDL
MODEL 8
REMARK VINA RESULT:    -3.725      1.476      4.075
REMARK INTER + INTRA:          -5.347
REMARK INTER:                  -4.707
REMARK INTRA:                  -0.640
REMARK UNBOUND:                -0.207
REMARK SMILES OC[C@@H](O)[C@H](O)[C@@H](O)CO
REMARK SMILES IDX 5 1 7 2 9 3 10 4 8 6 3 8 2 9 1 10 4 12 6 14
REMARK H PARENT 10 5 8 7 1 11 4 13 6 15
REMARK Flexibility Score: inf
ROOT
ATOM      1  C   UNL     1       7.920  20.749  53.993  1.00  0.00     0.176 C 
ENDROOT
BRANCH   1   2
ATOM      2  C   UNL     1       8.590  19.524  53.320  1.00  0.00     0.171 C 
BRANCH   2   3
ATOM      3  C   UNL     1      10.074  19.397  53.714  1.00  0.00     0.190 C 
BRANCH   3   4
ATOM      4  O   UNL     1      10.517  20.572  54.337  1.00  0.00    -0.394 OA
ATOM      5  H   UNL     1      10.446  21.296  53.660  1.00  0.00     0.210 HD
ENDBRANCH   3   4
ENDBRANCH   2   3
BRANCH   2   6
ATOM      6  O   UNL     1       8.452  19.567  51.920  1.00  0.00    -0.388 OA
ATOM      7  H   UNL     1       7.481  19.609  51.714  1.00  0.00     0.211 HD
ENDBRANCH   2   6
ENDBRANCH   1   2
BRANCH   1   8
ATOM      8  C   UNL     1       6.465  20.477  54.456  1.00  0.00     0.171 C 
BRANCH   8   9
ATOM      9  C   UNL     1       5.445  21.456  53.841  1.00  0.00     0.190 C 
BRANCH   9  10
ATOM     10  O   UNL     1       5.391  22.639  54.589  1.00  0.00    -0.394 OA
ATOM     11  H   UNL     1       5.653  23.370  53.971  1.00  0.00     0.210 HD
ENDBRANCH   9  10
ENDBRANCH   8   9
BRANCH   8  12
ATOM     12  O   UNL     1       6.117  19.168  54.082  1.00  0.00    -0.388 OA
ATOM     13  H   UNL     1       5.868  18.683  54.913  1.00  0.00     0.211 HD
ENDBRANCH   8  12
ENDBRANCH   1   8
BRANCH   1  14
ATOM     14  O   UNL     1       7.921  21.830  53.092  1.00  0.00    -0.388 OA
ATOM     15  H   UNL     1       7.195  21.666  52.435  1.00  0.00     0.211 HD
ENDBRANCH   1  14
TORSDOF 9
ENDMDL
MODEL 9
REMARK VINA RESULT:    -3.636     11.887     13.568
REMARK INTER + INTRA:          -5.224
REMARK INTER:                  -4.291
REMARK INTRA:                  -0.934
REMARK UNBOUND:                -0.207
REMARK SMILES OC[C@@H](O)[C@H](O)[C@@H](O)CO
REMARK SMILES IDX 5 1 7 2 9 3 10 4 8 6 3 8 2 9 1 10 4 12 6 14
REMARK H PARENT 10 5 8 7 1 11 4 13 6 15
REMARK Flexibility Score: inf
ROOT
ATOM      1  C   UNL     1      12.028  20.881  40.370  1.00  0.00     0.176 C 
ENDROOT
BRANCH   1   2
ATOM      2  C   UNL     1      13.359  21.591  40.015  1.00  0.00     0.171 C 
BRANCH   2   3
ATOM      3  C   UNL     1      14.567  20.645  40.160  1.00  0.00     0.190 C 
BRANCH   3   4
ATOM      4  O   UNL     1      14.742  20.277  41.503  1.00  0.00    -0.394 OA
ATOM      5  H   UNL     1      14.897  19.296  41.510  1.00  0.00     0.210 HD
ENDBRANCH   3   4
ENDBRANCH   2   3
BRANCH   2   6
ATOM      6  O   UNL     1      13.546  22.753  40.788  1.00  0.00    -0.388 OA
ATOM      7  H   UNL     1      12.667  23.208  40.863  1.00  0.00     0.211 HD
ENDBRANCH   2   6
ENDBRANCH   1   2
BRANCH   1   8
ATOM      8  C   UNL     1      11.400  21.382  41.697  1.00  0.00     0.171 C 
BRANCH   8   9
ATOM      9  C   UNL     1       9.906  21.024  41.828  1.00  0.00     0.190 C 
BRANCH   9  10
ATOM     10  O   UNL     1       9.385  20.640  40.585  1.00  0.00    -0.394 OA
ATOM     11  H   UNL     1       9.027  21.465  40.168  1.00  0.00     0.210 HD
ENDBRANCH   9  10
ENDBRANCH   8   9
BRANCH   8  12
ATOM     12  O   UNL     1      12.100  20.801  42.768  1.00  0.00    -0.388 OA
ATOM     13  H   UNL     1      13.018  21.181  42.757  1.00  0.00     0.211 HD
ENDBRANCH   8  12
ENDBRANCH   1   8
BRANCH   1  14
ATOM     14  O   UNL     1      12.253  19.495  40.463  1.00  0.00    -0.388 OA
ATOM     15  H   UNL     1      12.622  19.198  39.589  1.00  0.00     0.211 HD
ENDBRANCH   1  14
TORSDOF 9
ENDMDL
