MODEL 1
REMARK VINA RESULT:    -5.657      0.000      0.000
REMARK INTER + INTRA:          -5.988
REMARK INTER:                  -5.988
REMARK INTRA:                   0.000
REMARK UNBOUND:                 0.000
REMARK SMILES O=c1ccc2cc(O)c(O)cc2o1
REMARK SMILES IDX 4 1 3 2 2 3 1 4 13 5 12 6 11 7 9 8 7 9 6 10 5 11 8 12 10 14
REMARK H PARENT 8 13 10 15
REMARK Flexibility Score: inf
ROOT
ATOM      1  C   UNL     1       3.560 -14.221   7.710  1.00  0.00     0.019 A 
ATOM      2  C   UNL     1       3.120 -14.870   8.864  1.00  0.00     0.094 A 
ATOM      3  C   UNL     1       3.987 -15.753   9.517  1.00  0.00     0.336 A 
ATOM      4  O   UNL     1       3.609 -16.347  10.561  1.00  0.00    -0.246 OA
ATOM      5  O   UNL     1       5.211 -15.970   9.042  1.00  0.00    -0.423 OA
ATOM      6  C   UNL     1       5.669 -15.372   7.945  1.00  0.00     0.142 A 
ATOM      7  C   UNL     1       6.965 -15.640   7.493  1.00  0.00     0.098 A 
ATOM      8  C   UNL     1       7.453 -15.013   6.337  1.00  0.00     0.161 A 
ATOM      9  C   UNL     1       6.641 -14.115   5.629  1.00  0.00     0.158 A 
ATOM     10  C   UNL     1       5.340 -13.843   6.079  1.00  0.00     0.062 A 
ATOM     11  C   UNL     1       4.851 -14.469   7.233  1.00  0.00     0.022 A 
ENDROOT
BRANCH   9  12
ATOM     12  O   UNL     1       7.134 -13.496   4.482  1.00  0.00    -0.504 OA
ATOM     13  H   UNL     1       7.733 -13.989   3.830  1.00  0.00     0.293 HD
ENDBRANCH   9  12
BRANCH   8  14
ATOM     14  O   UNL     1       8.745 -15.277   5.884  1.00  0.00    -0.504 OA
ATOM     15  H   UNL     1       9.035 -16.215   5.629  1.00  0.00     0.293 HD
ENDBRANCH   8  14
TORSDOF 2
ENDMDL
MODEL 2
REMARK VINA RESULT:    -5.522      2.612      4.120
REMARK INTER + INTRA:          -5.845
REMARK INTER:                  -5.845
REMARK INTRA:                   0.000
REMARK UNBOUND:                 0.000
REMARK SMILES O=c1ccc2cc(O)c(O)cc2o1
REMARK SMILES IDX 4 1 3 2 2 3 1 4 13 5 12 6 11 7 9 8 7 9 6 10 5 11 8 12 10 14
REMARK H PARENT 8 13 10 15
REMARK Flexibility Score: inf
ROOT
ATOM      1  C   UNL     1       7.814 -13.945   4.943  1.00  0.00     0.019 A 
ATOM      2  C   UNL     1       6.495 -13.686   5.315  1.00  0.00     0.094 A 
ATOM      3  C   UNL     1       5.950 -14.376   6.403  1.00  0.00     0.336 A 
ATOM      4  O   UNL     1       4.761 -14.155   6.755  1.00  0.00    -0.246 OA
ATOM      5  O   UNL     1       6.680 -15.265   7.072  1.00  0.00    -0.423 OA
ATOM      6  C   UNL     1       7.941 -15.542   6.750  1.00  0.00     0.142 A 
ATOM      7  C   UNL     1       8.660 -16.486   7.490  1.00  0.00     0.098 A 
ATOM      8  C   UNL     1       9.990 -16.782   7.155  1.00  0.00     0.161 A 
ATOM      9  C   UNL     1      10.603 -16.130   6.075  1.00  0.00     0.158 A 
ATOM     10  C   UNL     1       9.887 -15.181   5.330  1.00  0.00     0.062 A 
ATOM     11  C   UNL     1       8.559 -14.886   5.663  1.00  0.00     0.022 A 
ENDROOT
BRANCH   9  12
ATOM     12  O   UNL     1      11.925 -16.430   5.749  1.00  0.00    -0.504 OA
ATOM     13  H   UNL     1      12.607 -15.701   5.578  1.00  0.00     0.293 HD
ENDBRANCH   9  12
BRANCH   8  14
ATOM     14  O   UNL     1      10.709 -17.723   7.890  1.00  0.00    -0.504 OA
ATOM     15  H   UNL     1      11.336 -17.446   8.636  1.00  0.00     0.293 HD
ENDBRANCH   8  14
TORSDOF 2
ENDMDL
MODEL 3
REMARK VINA RESULT:    -5.379      2.391      5.371
REMARK INTER + INTRA:          -5.693
REMARK INTER:                  -5.693
REMARK INTRA:                   0.000
REMARK UNBOUND:                 0.000
REMARK SMILES O=c1ccc2cc(O)c(O)cc2o1
REMARK SMILES IDX 4 1 3 2 2 3 1 4 13 5 12 6 11 7 9 8 7 9 6 10 5 11 8 12 10 14
REMARK H PARENT 8 13 10 15
REMARK Flexibility Score: inf
ROOT
ATOM      1  C   UNL     1       9.244 -16.760   7.565  1.00  0.00     0.019 A 
ATOM      2  C   UNL     1      10.557 -16.921   7.126  1.00  0.00     0.094 A 
ATOM      3  C   UNL     1      11.003 -16.170   6.033  1.00  0.00     0.336 A 
ATOM      4  O   UNL     1      12.186 -16.300   5.622  1.00  0.00    -0.246 OA
ATOM      5  O   UNL     1      10.184 -15.315   5.423  1.00  0.00    -0.423 OA
ATOM      6  C   UNL     1       8.925 -15.132   5.811  1.00  0.00     0.142 A 
ATOM      7  C   UNL     1       8.110 -14.220   5.132  1.00  0.00     0.098 A 
ATOM      8  C   UNL     1       6.782 -14.023   5.537  1.00  0.00     0.161 A 
ATOM      9  C   UNL     1       6.265 -14.742   6.624  1.00  0.00     0.158 A 
ATOM     10  C   UNL     1       7.078 -15.657   7.309  1.00  0.00     0.062 A 
ATOM     11  C   UNL     1       8.405 -15.855   6.906  1.00  0.00     0.022 A 
ENDROOT
BRANCH   9  12
ATOM     12  O   UNL     1       4.944 -14.539   7.019  1.00  0.00    -0.504 OA
ATOM     13  H   UNL     1       4.167 -14.895   6.474  1.00  0.00     0.293 HD
ENDBRANCH   9  12
BRANCH   8  14
ATOM     14  O   UNL     1       5.968 -13.114   4.861  1.00  0.00    -0.504 OA
ATOM     15  H   UNL     1       6.004 -13.018   3.853  1.00  0.00     0.293 HD
ENDBRANCH   8  14
TORSDOF 2
ENDMDL
MODEL 4
REMARK VINA RESULT:    -5.264      1.206      2.279
REMARK INTER + INTRA:          -5.571
REMARK INTER:                  -5.571
REMARK INTRA:                   0.000
REMARK UNBOUND:                 0.000
REMARK SMILES O=c1ccc2cc(O)c(O)cc2o1
REMARK SMILES IDX 4 1 3 2 2 3 1 4 13 5 12 6 11 7 9 8 7 9 6 10 5 11 8 12 10 14
REMARK H PARENT 8 13 10 15
REMARK Flexibility Score: inf
ROOT
ATOM      1  C   UNL     1       4.980 -15.998   9.134  1.00  0.00     0.019 A 
ATOM      2  C   UNL     1       3.676 -15.691   9.520  1.00  0.00     0.094 A 
ATOM      3  C   UNL     1       2.942 -14.773   8.760  1.00  0.00     0.336 A 
ATOM      4  O   UNL     1       1.763 -14.484   9.092  1.00  0.00    -0.246 OA
ATOM      5  O   UNL     1       3.483 -14.204   7.685  1.00  0.00    -0.423 OA
ATOM      6  C   UNL     1       4.723 -14.470   7.282  1.00  0.00     0.142 A 
ATOM      7  C   UNL     1       5.238 -13.841   6.144  1.00  0.00     0.098 A 
ATOM      8  C   UNL     1       6.545 -14.117   5.715  1.00  0.00     0.161 A 
ATOM      9  C   UNL     1       7.340 -15.026   6.428  1.00  0.00     0.158 A 
ATOM     10  C   UNL     1       6.828 -15.660   7.570  1.00  0.00     0.062 A 
ATOM     11  C   UNL     1       5.523 -15.385   8.000  1.00  0.00     0.022 A 
ENDROOT
BRANCH   9  12
ATOM     12  O   UNL     1       8.637 -15.295   5.995  1.00  0.00    -0.504 OA
ATOM     13  H   UNL     1       8.823 -15.979   5.271  1.00  0.00     0.293 HD
ENDBRANCH   9  12
BRANCH   8  14
ATOM     14  O   UNL     1       7.061 -13.492   4.581  1.00  0.00    -0.504 OA
ATOM     15  H   UNL     1       6.480 -12.913   3.985  1.00  0.00     0.293 HD
ENDBRANCH   8  14
TORSDOF 2
ENDMDL
MODEL 5
REMARK VINA RESULT:    -5.250      2.347      4.844
REMARK INTER + INTRA:          -5.557
REMARK INTER:                  -5.557
REMARK INTRA:                   0.000
REMARK UNBOUND:                 0.000
REMARK SMILES O=c1ccc2cc(O)c(O)cc2o1
REMARK SMILES IDX 4 1 3 2 2 3 1 4 13 5 12 6 11 7 9 8 7 9 6 10 5 11 8 12 10 14
REMARK H PARENT 8 13 10 15
REMARK Flexibility Score: inf
ROOT
ATOM      1  C   UNL     1      10.024 -15.468   5.385  1.00  0.00     0.019 A 
ATOM      2  C   UNL     1      10.883 -16.273   6.133  1.00  0.00     0.094 A 
ATOM      3  C   UNL     1      10.465 -16.722   7.391  1.00  0.00     0.336 A 
ATOM      4  O   UNL     1      11.226 -17.451   8.081  1.00  0.00    -0.246 OA
ATOM      5  O   UNL     1       9.267 -16.386   7.863  1.00  0.00    -0.423 OA
ATOM      6  C   UNL     1       8.419 -15.620   7.182  1.00  0.00     0.142 A 
ATOM      7  C   UNL     1       7.173 -15.299   7.729  1.00  0.00     0.098 A 
ATOM      8  C   UNL     1       6.275 -14.492   7.015  1.00  0.00     0.161 A 
ATOM      9  C   UNL     1       6.624 -14.004   5.748  1.00  0.00     0.158 A 
ATOM     10  C   UNL     1       7.873 -14.324   5.194  1.00  0.00     0.062 A 
ATOM     11  C   UNL     1       8.771 -15.129   5.906  1.00  0.00     0.022 A 
ENDROOT
BRANCH   9  12
ATOM     12  O   UNL     1       5.726 -13.203   5.046  1.00  0.00    -0.504 OA
ATOM     13  H   UNL     1       5.985 -12.752   4.176  1.00  0.00     0.293 HD
ENDBRANCH   9  12
BRANCH   8  14
ATOM     14  O   UNL     1       5.032 -14.170   7.559  1.00  0.00    -0.504 OA
ATOM     15  H   UNL     1       4.941 -13.840   8.513  1.00  0.00     0.293 HD
ENDBRANCH   8  14
TORSDOF 2
ENDMDL
MODEL 6
REMARK VINA RESULT:    -5.184      1.278      4.538
REMARK INTER + INTRA:          -5.487
REMARK INTER:                  -5.487
REMARK INTRA:                   0.000
REMARK UNBOUND:                 0.000
REMARK SMILES O=c1ccc2cc(O)c(O)cc2o1
REMARK SMILES IDX 4 1 3 2 2 3 1 4 13 5 12 6 11 7 9 8 7 9 6 10 5 11 8 12 10 14
REMARK H PARENT 8 13 10 15
REMARK Flexibility Score: inf
ROOT
ATOM      1  C   UNL     1       6.500 -13.720   5.340  1.00  0.00     0.019 A 
ATOM      2  C   UNL     1       7.798 -14.057   4.958  1.00  0.00     0.094 A 
ATOM      3  C   UNL     1       8.499 -15.008   5.707  1.00  0.00     0.336 A 
ATOM      4  O   UNL     1       9.672 -15.326   5.378  1.00  0.00    -0.246 OA
ATOM      5  O   UNL     1       7.934 -15.581   6.768  1.00  0.00    -0.423 OA
ATOM      6  C   UNL     1       6.699 -15.288   7.166  1.00  0.00     0.142 A 
ATOM      7  C   UNL     1       6.157 -15.921   8.288  1.00  0.00     0.098 A 
ATOM      8  C   UNL     1       4.855 -15.616   8.712  1.00  0.00     0.161 A 
ATOM      9  C   UNL     1       4.092 -14.672   8.010  1.00  0.00     0.158 A 
ATOM     10  C   UNL     1       4.630 -14.034   6.883  1.00  0.00     0.062 A 
ATOM     11  C   UNL     1       5.930 -14.337   6.459  1.00  0.00     0.022 A 
ENDROOT
BRANCH   9  12
ATOM     12  O   UNL     1       2.799 -14.375   8.439  1.00  0.00    -0.504 OA
ATOM     13  H   UNL     1       2.075 -15.083   8.466  1.00  0.00     0.293 HD
ENDBRANCH   9  12
BRANCH   8  14
ATOM     14  O   UNL     1       4.313 -16.247   9.831  1.00  0.00    -0.504 OA
ATOM     15  H   UNL     1       4.608 -17.176  10.110  1.00  0.00     0.293 HD
ENDBRANCH   8  14
TORSDOF 2
ENDMDL
MODEL 7
REMARK VINA RESULT:    -5.150      7.006      8.554
REMARK INTER + INTRA:          -5.451
REMARK INTER:                  -5.451
REMARK INTRA:                   0.000
REMARK UNBOUND:                 0.000
REMARK SMILES O=c1ccc2cc(O)c(O)cc2o1
REMARK SMILES IDX 4 1 3 2 2 3 1 4 13 5 12 6 11 7 9 8 7 9 6 10 5 11 8 12 10 14
REMARK H PARENT 8 13 10 15
REMARK Flexibility Score: inf
ROOT
ATOM      1  C   UNL     1       9.546 -13.963  14.737  1.00  0.00     0.019 A 
ATOM      2  C   UNL     1      10.222 -14.569  13.678  1.00  0.00     0.094 A 
ATOM      3  C   UNL     1       9.915 -14.182  12.369  1.00  0.00     0.336 A 
ATOM      4  O   UNL     1      10.515 -14.717  11.400  1.00  0.00    -0.246 OA
ATOM      5  O   UNL     1       8.993 -13.250  12.139  1.00  0.00    -0.423 OA
ATOM      6  C   UNL     1       8.326 -12.648  13.121  1.00  0.00     0.142 A 
ATOM      7  C   UNL     1       7.367 -11.675  12.820  1.00  0.00     0.098 A 
ATOM      8  C   UNL     1       6.661 -11.037  13.850  1.00  0.00     0.161 A 
ATOM      9  C   UNL     1       6.914 -11.374  15.188  1.00  0.00     0.158 A 
ATOM     10  C   UNL     1       7.875 -12.349  15.495  1.00  0.00     0.062 A 
ATOM     11  C   UNL     1       8.581 -12.987  14.467  1.00  0.00     0.022 A 
ENDROOT
BRANCH   9  12
ATOM     12  O   UNL     1       6.208 -10.735  16.205  1.00  0.00    -0.504 OA
ATOM     13  H   UNL     1       5.677 -11.258  16.892  1.00  0.00     0.293 HD
ENDBRANCH   9  12
BRANCH   8  14
ATOM     14  O   UNL     1       5.704 -10.068  13.552  1.00  0.00    -0.504 OA
ATOM     15  H   UNL     1       5.250  -9.530  14.282  1.00  0.00     0.293 HD
ENDBRANCH   8  14
TORSDOF 2
ENDMDL
MODEL 8
REMARK VINA RESULT:    -5.129      1.467      2.142
REMARK INTER + INTRA:          -5.429
REMARK INTER:                  -5.429
REMARK INTRA:                   0.000
REMARK UNBOUND:                 0.000
REMARK SMILES O=c1ccc2cc(O)c(O)cc2o1
REMARK SMILES IDX 4 1 3 2 2 3 1 4 13 5 12 6 11 7 9 8 7 9 6 10 5 11 8 12 10 14
REMARK H PARENT 8 13 10 15
REMARK Flexibility Score: inf
ROOT
ATOM      1  C   UNL     1       5.385 -14.034   6.188  1.00  0.00     0.019 A 
ATOM      2  C   UNL     1       4.318 -14.088   7.083  1.00  0.00     0.094 A 
ATOM      3  C   UNL     1       4.440 -14.872   8.236  1.00  0.00     0.336 A 
ATOM      4  O   UNL     1       3.488 -14.933   9.057  1.00  0.00    -0.246 OA
ATOM      5  O   UNL     1       5.558 -15.555   8.472  1.00  0.00    -0.423 OA
ATOM      6  C   UNL     1       6.599 -15.530   7.643  1.00  0.00     0.142 A 
ATOM      7  C   UNL     1       7.748 -16.268   7.943  1.00  0.00     0.098 A 
ATOM      8  C   UNL     1       8.849 -16.247   7.073  1.00  0.00     0.161 A 
ATOM      9  C   UNL     1       8.799 -15.483   5.898  1.00  0.00     0.158 A 
ATOM     10  C   UNL     1       7.648 -14.741   5.592  1.00  0.00     0.062 A 
ATOM     11  C   UNL     1       6.549 -14.762   6.460  1.00  0.00     0.022 A 
ENDROOT
BRANCH   9  12
ATOM     12  O   UNL     1       9.897 -15.468   5.039  1.00  0.00    -0.504 OA
ATOM     13  H   UNL     1       9.982 -16.129   4.276  1.00  0.00     0.293 HD
ENDBRANCH   9  12
BRANCH   8  14
ATOM     14  O   UNL     1       9.995 -16.982   7.370  1.00  0.00    -0.504 OA
ATOM     15  H   UNL     1      10.656 -16.671   8.073  1.00  0.00     0.293 HD
ENDBRANCH   8  14
TORSDOF 2
ENDMDL
MODEL 9
REMARK VINA RESULT:    -4.990      7.571      8.844
REMARK INTER + INTRA:          -5.282
REMARK INTER:                  -5.282
REMARK INTRA:                   0.000
REMARK UNBOUND:                 0.000
REMARK SMILES O=c1ccc2cc(O)c(O)cc2o1
REMARK SMILES IDX 4 1 3 2 2 3 1 4 13 5 12 6 11 7 9 8 7 9 6 10 5 11 8 12 10 14
REMARK H PARENT 8 13 10 15
REMARK Flexibility Score: inf
ROOT
ATOM      1  C   UNL     1      10.058 -12.953  12.522  1.00  0.00     0.019 A 
ATOM      2  C   UNL     1      11.011 -13.834  13.032  1.00  0.00     0.094 A 
ATOM      3  C   UNL     1      10.943 -14.200  14.381  1.00  0.00     0.336 A 
ATOM      4  O   UNL     1      11.793 -14.995  14.859  1.00  0.00    -0.246 OA
ATOM      5  O   UNL     1       9.982 -13.713  15.163  1.00  0.00    -0.423 OA
ATOM      6  C   UNL     1       9.055 -12.870  14.716  1.00  0.00     0.142 A 
ATOM      7  C   UNL     1       8.070 -12.391  15.585  1.00  0.00     0.098 A 
ATOM      8  C   UNL     1       7.089 -11.502  15.120  1.00  0.00     0.161 A 
ATOM      9  C   UNL     1       7.094 -11.090  13.779  1.00  0.00     0.158 A 
ATOM     10  C   UNL     1       8.080 -11.568  12.903  1.00  0.00     0.062 A 
ATOM     11  C   UNL     1       9.060 -12.456  13.367  1.00  0.00     0.022 A 
ENDROOT
BRANCH   9  12
ATOM     12  O   UNL     1       6.116 -10.207  13.326  1.00  0.00    -0.504 OA
ATOM     13  H   UNL     1       5.185 -10.526  13.085  1.00  0.00     0.293 HD
ENDBRANCH   9  12
BRANCH   8  14
ATOM     14  O   UNL     1       6.106 -11.023  15.985  1.00  0.00    -0.504 OA
ATOM     15  H   UNL     1       6.290 -10.258  16.624  1.00  0.00     0.293 HD
ENDBRANCH   8  14
TORSDOF 2
ENDMDL
