MODEL 1
REMARK VINA RESULT:    -5.389      0.000      0.000
REMARK INTER + INTRA:          -7.281
REMARK INTER:                  -6.806
REMARK INTRA:                  -0.475
REMARK UNBOUND:                -0.475
REMARK SMILES CC(C)=CCCC(C)=CCO
REMARK SMILES IDX 7 1 9 2 8 3 6 4 5 5 4 6 1 7 2 8 3 9 10 10 11 11
REMARK H PARENT 11 12
REMARK Flexibility Score: inf
ROOT
ATOM      1  C   UNL     1      21.809 142.483 353.115  1.00  0.00    -0.075 C 
ATOM      2  C   UNL     1      22.578 141.412 353.412  1.00  0.00    -0.000 C 
ATOM      3  C   UNL     1      21.831 143.118 351.744  1.00  0.00     0.039 C 
ENDROOT
BRANCH   1   4
ATOM      4  C   UNL     1      20.894 143.052 354.178  1.00  0.00     0.034 C 
BRANCH   4   5
ATOM      5  C   UNL     1      19.476 142.487 354.037  1.00  0.00     0.032 C 
BRANCH   5   6
ATOM      6  C   UNL     1      18.447 143.573 354.229  1.00  0.00    -0.028 C 
ATOM      7  C   UNL     1      16.804 145.275 353.564  1.00  0.00     0.039 C 
ATOM      8  C   UNL     1      17.843 144.240 353.220  1.00  0.00    -0.080 C 
ATOM      9  C   UNL     1      18.193 143.989 351.772  1.00  0.00     0.039 C 
ENDBRANCH   5   6
ENDBRANCH   4   5
ENDBRANCH   1   4
BRANCH   2  10
ATOM     10  C   UNL     1      23.519 140.759 352.437  1.00  0.00     0.183 C 
BRANCH  10  11
ATOM     11  O   UNL     1      24.815 141.257 352.622  1.00  0.00    -0.392 OA
ATOM     12  H   UNL     1      24.709 142.192 352.934  1.00  0.00     0.210 HD
ENDBRANCH  10  11
ENDBRANCH   2  10
TORSDOF 5
ENDMDL
MODEL 2
REMARK VINA RESULT:    -5.338      1.303      1.846
REMARK INTER + INTRA:          -7.217
REMARK INTER:                  -6.750
REMARK INTRA:                  -0.467
REMARK UNBOUND:                -0.475
REMARK SMILES CC(C)=CCCC(C)=CCO
REMARK SMILES IDX 7 1 9 2 8 3 6 4 5 5 4 6 1 7 2 8 3 9 10 10 11 11
REMARK H PARENT 11 12
REMARK Flexibility Score: inf
ROOT
ATOM      1  C   UNL     1      21.691 142.494 353.061  1.00  0.00    -0.075 C 
ATOM      2  C   UNL     1      21.694 143.200 351.908  1.00  0.00    -0.000 C 
ATOM      3  C   UNL     1      22.553 141.266 353.239  1.00  0.00     0.039 C 
ENDROOT
BRANCH   1   4
ATOM      4  C   UNL     1      20.813 142.954 354.205  1.00  0.00     0.034 C 
BRANCH   4   5
ATOM      5  C   UNL     1      19.375 142.457 354.022  1.00  0.00     0.032 C 
BRANCH   5   6
ATOM      6  C   UNL     1      18.390 143.576 354.256  1.00  0.00    -0.028 C 
ATOM      7  C   UNL     1      16.802 145.353 353.657  1.00  0.00     0.039 C 
ATOM      8  C   UNL     1      17.796 144.288 353.273  1.00  0.00    -0.080 C 
ATOM      9  C   UNL     1      18.114 144.059 351.813  1.00  0.00     0.039 C 
ENDBRANCH   5   6
ENDBRANCH   4   5
ENDBRANCH   1   4
BRANCH   2  10
ATOM     10  C   UNL     1      22.527 142.842 350.708  1.00  0.00     0.183 C 
BRANCH  10  11
ATOM     11  O   UNL     1      23.077 144.001 350.149  1.00  0.00    -0.392 OA
ATOM     12  H   UNL     1      22.483 144.253 349.396  1.00  0.00     0.210 HD
ENDBRANCH  10  11
ENDBRANCH   2  10
TORSDOF 5
ENDMDL
MODEL 3
REMARK VINA RESULT:    -5.137      6.839      9.729
REMARK INTER + INTRA:          -6.963
REMARK INTER:                  -6.670
REMARK INTRA:                  -0.293
REMARK UNBOUND:                -0.475
REMARK SMILES CC(C)=CCCC(C)=CCO
REMARK SMILES IDX 7 1 9 2 8 3 6 4 5 5 4 6 1 7 2 8 3 9 10 10 11 11
REMARK H PARENT 11 12
REMARK Flexibility Score: inf
ROOT
ATOM      1  C   UNL     1      28.471 135.126 353.307  1.00  0.00    -0.075 C 
ATOM      2  C   UNL     1      29.554 134.758 354.029  1.00  0.00    -0.000 C 
ATOM      3  C   UNL     1      28.382 134.861 351.823  1.00  0.00     0.039 C 
ENDROOT
BRANCH   1   4
ATOM      4  C   UNL     1      27.316 135.809 354.008  1.00  0.00     0.034 C 
BRANCH   4   5
ATOM      5  C   UNL     1      26.088 135.877 353.093  1.00  0.00     0.032 C 
BRANCH   5   6
ATOM      6  C   UNL     1      25.160 136.985 353.527  1.00  0.00    -0.028 C 
ATOM      7  C   UNL     1      23.755 138.986 353.279  1.00  0.00     0.039 C 
ATOM      8  C   UNL     1      24.710 137.967 352.714  1.00  0.00    -0.080 C 
ATOM      9  C   UNL     1      25.150 138.077 351.273  1.00  0.00     0.039 C 
ENDBRANCH   5   6
ENDBRANCH   4   5
ENDBRANCH   1   4
BRANCH   2  10
ATOM     10  C   UNL     1      30.757 134.070 353.443  1.00  0.00     0.183 C 
BRANCH  10  11
ATOM     11  O   UNL     1      31.189 133.054 354.304  1.00  0.00    -0.392 OA
ATOM     12  H   UNL     1      30.904 133.325 355.215  1.00  0.00     0.210 HD
ENDBRANCH  10  11
ENDBRANCH   2  10
TORSDOF 5
ENDMDL
MODEL 4
REMARK VINA RESULT:    -5.128      6.902     11.171
REMARK INTER + INTRA:          -6.952
REMARK INTER:                  -6.532
REMARK INTRA:                  -0.420
REMARK UNBOUND:                -0.475
REMARK SMILES CC(C)=CCCC(C)=CCO
REMARK SMILES IDX 7 1 9 2 8 3 6 4 5 5 4 6 1 7 2 8 3 9 10 10 11 11
REMARK H PARENT 11 12
REMARK Flexibility Score: inf
ROOT
ATOM      1  C   UNL     1      25.922 136.080 352.781  1.00  0.00    -0.075 C 
ATOM      2  C   UNL     1      25.096 137.033 353.268  1.00  0.00    -0.000 C 
ATOM      3  C   UNL     1      26.081 135.854 351.296  1.00  0.00     0.039 C 
ENDROOT
BRANCH   1   4
ATOM      4  C   UNL     1      26.716 135.228 353.748  1.00  0.00     0.034 C 
BRANCH   4   5
ATOM      5  C   UNL     1      28.014 135.932 354.156  1.00  0.00     0.032 C 
BRANCH   5   6
ATOM      6  C   UNL     1      29.146 134.941 354.272  1.00  0.00    -0.028 C 
ATOM      7  C   UNL     1      31.054 133.590 353.517  1.00  0.00     0.039 C 
ATOM      8  C   UNL     1      29.936 134.561 353.243  1.00  0.00    -0.080 C 
ATOM      9  C   UNL     1      29.717 135.066 351.836  1.00  0.00     0.039 C 
ENDBRANCH   5   6
ENDBRANCH   4   5
ENDBRANCH   1   4
BRANCH   2  10
ATOM     10  C   UNL     1      24.262 137.941 352.406  1.00  0.00     0.183 C 
BRANCH  10  11
ATOM     11  O   UNL     1      22.925 137.529 352.436  1.00  0.00    -0.392 OA
ATOM     12  H   UNL     1      22.508 138.000 353.203  1.00  0.00     0.210 HD
ENDBRANCH  10  11
ENDBRANCH   2  10
TORSDOF 5
ENDMDL
MODEL 5
REMARK VINA RESULT:    -5.104      8.091     11.512
REMARK INTER + INTRA:          -6.922
REMARK INTER:                  -6.436
REMARK INTRA:                  -0.486
REMARK UNBOUND:                -0.475
REMARK SMILES CC(C)=CCCC(C)=CCO
REMARK SMILES IDX 7 1 9 2 8 3 6 4 5 5 4 6 1 7 2 8 3 9 10 10 11 11
REMARK H PARENT 11 12
REMARK Flexibility Score: inf
ROOT
ATOM      1  C   UNL     1      26.122 136.025 353.046  1.00  0.00    -0.075 C 
ATOM      2  C   UNL     1      26.174 135.333 351.885  1.00  0.00    -0.000 C 
ATOM      3  C   UNL     1      25.290 137.279 353.184  1.00  0.00     0.039 C 
ENDROOT
BRANCH   1   4
ATOM      4  C   UNL     1      26.907 135.524 354.239  1.00  0.00     0.034 C 
BRANCH   4   5
ATOM      5  C   UNL     1      28.347 136.048 354.203  1.00  0.00     0.032 C 
BRANCH   5   6
ATOM      6  C   UNL     1      29.332 134.906 354.258  1.00  0.00    -0.028 C 
ATOM      7  C   UNL     1      31.034 133.345 353.420  1.00  0.00     0.039 C 
ATOM      8  C   UNL     1      30.059 134.473 353.205  1.00  0.00    -0.080 C 
ATOM      9  C   UNL     1      29.907 135.073 351.826  1.00  0.00     0.039 C 
ENDBRANCH   5   6
ENDBRANCH   4   5
ENDBRANCH   1   4
BRANCH   2  10
ATOM     10  C   UNL     1      25.434 135.732 350.638  1.00  0.00     0.183 C 
BRANCH  10  11
ATOM     11  O   UNL     1      25.200 134.605 349.843  1.00  0.00    -0.392 OA
ATOM     12  H   UNL     1      25.890 134.622 349.130  1.00  0.00     0.210 HD
ENDBRANCH  10  11
ENDBRANCH   2  10
TORSDOF 5
ENDMDL
MODEL 6
REMARK VINA RESULT:    -5.071      3.078      5.633
REMARK INTER + INTRA:          -6.880
REMARK INTER:                  -6.410
REMARK INTRA:                  -0.469
REMARK UNBOUND:                -0.475
REMARK SMILES CC(C)=CCCC(C)=CCO
REMARK SMILES IDX 7 1 9 2 8 3 6 4 5 5 4 6 1 7 2 8 3 9 10 10 11 11
REMARK H PARENT 11 12
REMARK Flexibility Score: inf
ROOT
ATOM      1  C   UNL     1      18.617 143.286 353.335  1.00  0.00    -0.075 C 
ATOM      2  C   UNL     1      17.849 144.203 353.966  1.00  0.00    -0.000 C 
ATOM      3  C   UNL     1      18.556 143.098 351.838  1.00  0.00     0.039 C 
ENDROOT
BRANCH   1   4
ATOM      4  C   UNL     1      19.569 142.436 354.149  1.00  0.00     0.034 C 
BRANCH   4   5
ATOM      5  C   UNL     1      21.009 142.938 354.002  1.00  0.00     0.032 C 
BRANCH   5   6
ATOM      6  C   UNL     1      21.903 141.846 353.468  1.00  0.00    -0.028 C 
ATOM      7  C   UNL     1      23.433 140.744 351.893  1.00  0.00     0.039 C 
ATOM      8  C   UNL     1      22.539 141.894 352.277  1.00  0.00    -0.080 C 
ATOM      9  C   UNL     1      22.365 143.052 351.322  1.00  0.00     0.039 C 
ENDBRANCH   5   6
ENDBRANCH   4   5
ENDBRANCH   1   4
BRANCH   2  10
ATOM     10  C   UNL     1      16.873 145.105 353.262  1.00  0.00     0.183 C 
BRANCH  10  11
ATOM     11  O   UNL     1      16.136 145.834 354.203  1.00  0.00    -0.392 OA
ATOM     12  H   UNL     1      15.583 145.172 354.693  1.00  0.00     0.210 HD
ENDBRANCH  10  11
ENDBRANCH   2  10
TORSDOF 5
ENDMDL
MODEL 7
REMARK VINA RESULT:    -5.015     11.575     14.745
REMARK INTER + INTRA:          -6.809
REMARK INTER:                  -6.326
REMARK INTRA:                  -0.483
REMARK UNBOUND:                -0.475
REMARK SMILES CC(C)=CCCC(C)=CCO
REMARK SMILES IDX 7 1 9 2 8 3 6 4 5 5 4 6 1 7 2 8 3 9 10 10 11 11
REMARK H PARENT 11 12
REMARK Flexibility Score: inf
ROOT
ATOM      1  C   UNL     1      27.505 140.890 342.562  1.00  0.00    -0.075 C 
ATOM      2  C   UNL     1      26.212 140.638 342.259  1.00  0.00    -0.000 C 
ATOM      3  C   UNL     1      27.956 141.107 343.988  1.00  0.00     0.039 C 
ENDROOT
BRANCH   1   4
ATOM      4  C   UNL     1      28.527 140.944 341.447  1.00  0.00     0.034 C 
BRANCH   4   5
ATOM      5  C   UNL     1      29.235 139.594 341.292  1.00  0.00     0.032 C 
BRANCH   5   6
ATOM      6  C   UNL     1      30.732 139.779 341.241  1.00  0.00    -0.028 C 
ATOM      7  C   UNL     1      33.041 139.773 342.082  1.00  0.00     0.039 C 
ATOM      8  C   UNL     1      31.561 139.588 342.292  1.00  0.00    -0.080 C 
ATOM      9  C   UNL     1      31.044 139.215 343.661  1.00  0.00     0.039 C 
ENDBRANCH   5   6
ENDBRANCH   4   5
ENDBRANCH   1   4
BRANCH   2  10
ATOM     10  C   UNL     1      25.112 140.557 343.282  1.00  0.00     0.183 C 
BRANCH  10  11
ATOM     11  O   UNL     1      24.476 141.799 343.397  1.00  0.00    -0.392 OA
ATOM     12  H   UNL     1      24.681 142.130 344.309  1.00  0.00     0.210 HD
ENDBRANCH  10  11
ENDBRANCH   2  10
TORSDOF 5
ENDMDL
MODEL 8
REMARK VINA RESULT:    -4.971      8.203     12.635
REMARK INTER + INTRA:          -6.753
REMARK INTER:                  -6.461
REMARK INTRA:                  -0.292
REMARK UNBOUND:                -0.475
REMARK SMILES CC(C)=CCCC(C)=CCO
REMARK SMILES IDX 7 1 9 2 8 3 6 4 5 5 4 6 1 7 2 8 3 9 10 10 11 11
REMARK H PARENT 11 12
REMARK Flexibility Score: inf
ROOT
ATOM      1  C   UNL     1      27.170 135.437 353.023  1.00  0.00    -0.075 C 
ATOM      2  C   UNL     1      25.994 135.878 352.526  1.00  0.00    -0.000 C 
ATOM      3  C   UNL     1      27.595 135.742 354.441  1.00  0.00     0.039 C 
ENDROOT
BRANCH   1   4
ATOM      4  C   UNL     1      28.078 134.606 352.142  1.00  0.00     0.034 C 
BRANCH   4   5
ATOM      5  C   UNL     1      29.435 135.294 351.954  1.00  0.00     0.032 C 
BRANCH   5   6
ATOM      6  C   UNL     1      30.430 134.349 351.327  1.00  0.00    -0.028 C 
ATOM      7  C   UNL     1      32.114 132.562 351.252  1.00  0.00     0.039 C 
ATOM      8  C   UNL     1      31.190 133.471 352.019  1.00  0.00    -0.080 C 
ATOM      9  C   UNL     1      31.149 133.392 353.527  1.00  0.00     0.039 C 
ENDBRANCH   5   6
ENDBRANCH   4   5
ENDBRANCH   1   4
BRANCH   2  10
ATOM     10  C   UNL     1      25.011 136.706 353.308  1.00  0.00     0.183 C 
BRANCH  10  11
ATOM     11  O   UNL     1      23.809 136.812 352.599  1.00  0.00    -0.392 OA
ATOM     12  H   UNL     1      23.793 137.728 352.219  1.00  0.00     0.210 HD
ENDBRANCH  10  11
ENDBRANCH   2  10
TORSDOF 5
ENDMDL
MODEL 9
REMARK VINA RESULT:    -4.904     10.431     11.503
REMARK INTER + INTRA:          -6.669
REMARK INTER:                  -6.183
REMARK INTRA:                  -0.486
REMARK UNBOUND:                -0.475
REMARK SMILES CC(C)=CCCC(C)=CCO
REMARK SMILES IDX 7 1 9 2 8 3 6 4 5 5 4 6 1 7 2 8 3 9 10 10 11 11
REMARK H PARENT 11 12
REMARK Flexibility Score: inf
ROOT
ATOM      1  C   UNL     1      20.540 137.887 342.731  1.00  0.00    -0.075 C 
ATOM      2  C   UNL     1      21.838 138.068 342.398  1.00  0.00    -0.000 C 
ATOM      3  C   UNL     1      20.113 137.669 344.163  1.00  0.00     0.039 C 
ENDROOT
BRANCH   1   4
ATOM      4  C   UNL     1      19.489 137.915 341.642  1.00  0.00     0.034 C 
BRANCH   4   5
ATOM      5  C   UNL     1      18.751 139.258 341.632  1.00  0.00     0.032 C 
BRANCH   5   6
ATOM      6  C   UNL     1      17.257 139.047 341.653  1.00  0.00    -0.028 C 
ATOM      7  C   UNL     1      14.977 139.113 342.565  1.00  0.00     0.039 C 
ATOM      8  C   UNL     1      16.459 139.342 342.703  1.00  0.00    -0.080 C 
ATOM      9  C   UNL     1      17.012 139.875 344.004  1.00  0.00     0.039 C 
ENDBRANCH   5   6
ENDBRANCH   4   5
ENDBRANCH   1   4
BRANCH   2  10
ATOM     10  C   UNL     1      22.966 138.065 343.393  1.00  0.00     0.183 C 
BRANCH  10  11
ATOM     11  O   UNL     1      23.470 136.767 343.536  1.00  0.00    -0.392 OA
ATOM     12  H   UNL     1      24.268 136.715 342.948  1.00  0.00     0.210 HD
ENDBRANCH  10  11
ENDBRANCH   2  10
TORSDOF 5
ENDMDL
