MODEL 1
REMARK VINA RESULT:    -3.952      0.000      0.000
REMARK INTER + INTRA:          -5.081
REMARK INTER:                  -5.570
REMARK INTRA:                   0.488
REMARK UNBOUND:                 0.488
REMARK SMILES CC1=CCC(=C(C)C)C(=O)CC(C)=CCC1
REMARK SMILES IDX 12 1 14 2 13 3 15 4 16 5 2 6 1 7 3 8 11 10 9 11 10 12 5 13
REMARK SMILES IDX 6 14 7 15 8 16 4 17
REMARK H PARENT
REMARK Flexibility Score: 60.00
ROOT
ATOM      1  C   UNL     1      55.184  18.467  -4.623  1.00  0.00    -0.070 C 
ATOM      2  C   UNL     1      54.151  18.535  -5.491  1.00  0.00    -0.027 C 
ATOM      3  C   UNL     1      56.368  19.369  -4.862  1.00  0.00     0.039 C 
ENDROOT
BRANCH   2   4
ATOM      4  C   UNL     1      52.924  17.648  -5.477  1.00  0.00     0.032 C 
BRANCH   4   5
ATOM      5  C   UNL     1      51.611  18.367  -5.104  1.00  0.00     0.034 C 
BRANCH   5   6
ATOM      6  C   UNL     1      51.789  19.413  -4.019  1.00  0.00    -0.077 C 
ATOM      7  C   UNL     1      51.771  20.863  -4.433  1.00  0.00     0.039 C 
ATOM      8  C   UNL     1      52.031  19.129  -2.716  1.00  0.00    -0.023 CG0
ATOM      9  G   UNL     1      52.075  17.757  -2.072  1.00  0.00     0.000 G0
ENDBRANCH   5   6
ENDBRANCH   4   5
ENDBRANCH   2   4
BRANCH   1  10
ATOM     10  C   UNL     1      55.248  17.470  -3.483  1.00  0.00     0.111 C 
BRANCH  10  11
ATOM     11  C   UNL     1      54.621  18.019  -2.229  1.00  0.00     0.163 C 
ATOM     12  O   UNL     1      55.141  19.040  -1.703  1.00  0.00    -0.294 OA
BRANCH  11  13
ATOM     13  C   UNL     1      53.455  17.366  -1.563  1.00  0.00    -0.002 C 
ATOM     14  C   UNL     1      53.641  16.400  -0.614  1.00  0.00    -0.069 C 
ATOM     15  C   UNL     1      55.022  16.071  -0.092  1.00  0.00     0.039 C 
ATOM     16  C   UNL     1      52.486  15.610  -0.038  1.00  0.00     0.039 C 
BRANCH  13  17
ATOM     17  C   UNL     1      52.068  17.753  -2.054  1.00  0.00     0.066 CG0
ATOM     18  G   UNL     1      52.049  19.119  -2.711  1.00  0.00     0.000 G0
ENDBRANCH  13  17
ENDBRANCH  11  13
ENDBRANCH  10  11
ENDBRANCH   1  10
TORSDOF 0
ENDMDL
MODEL 2
REMARK VINA RESULT:    -3.803      1.346      3.979
REMARK INTER + INTRA:          -4.871
REMARK INTER:                  -5.315
REMARK INTRA:                   0.444
REMARK UNBOUND:                 0.488
REMARK SMILES CC1=CCC(=C(C)C)C(=O)CC(C)=CCC1
REMARK SMILES IDX 12 1 14 2 13 3 15 4 16 5 2 6 1 7 3 8 11 10 9 11 10 12 5 13
REMARK SMILES IDX 6 14 7 15 8 16 4 17
REMARK H PARENT
REMARK Flexibility Score: 60.00
ROOT
ATOM      1  C   UNL     1      54.348  16.925  -4.597  1.00  0.00    -0.070 C 
ATOM      2  C   UNL     1      54.528  15.652  -4.178  1.00  0.00    -0.027 C 
ATOM      3  C   UNL     1      53.485  17.152  -5.812  1.00  0.00     0.039 C 
ENDROOT
BRANCH   2   4
ATOM      4  C   UNL     1      55.432  15.215  -3.046  1.00  0.00     0.032 C 
BRANCH   4   5
ATOM      5  C   UNL     1      54.694  14.693  -1.795  1.00  0.00     0.034 C 
BRANCH   5   6
ATOM      6  C   UNL     1      54.578  15.730  -0.692  1.00  0.00    -0.077 C 
ATOM      7  C   UNL     1      55.530  15.624   0.472  1.00  0.00     0.039 C 
ATOM      8  C   UNL     1      53.632  16.699  -0.651  1.00  0.00    -0.023 CG0
ATOM      9  G   UNL     1      52.590  17.005  -1.709  1.00  0.00     0.000 G0
ENDBRANCH   5   6
ENDBRANCH   4   5
ENDBRANCH   2   4
BRANCH   1  10
ATOM     10  C   UNL     1      55.041  18.114  -3.964  1.00  0.00     0.111 C 
BRANCH  10  11
ATOM     11  C   UNL     1      54.300  18.608  -2.749  1.00  0.00     0.163 C 
ATOM     12  O   UNL     1      54.941  19.278  -1.895  1.00  0.00    -0.294 OA
BRANCH  11  13
ATOM     13  C   UNL     1      52.865  18.282  -2.498  1.00  0.00    -0.002 C 
ATOM     14  C   UNL     1      51.874  19.137  -2.892  1.00  0.00    -0.069 C 
ATOM     15  C   UNL     1      52.180  20.357  -3.731  1.00  0.00     0.039 C 
ATOM     16  C   UNL     1      50.426  18.913  -2.513  1.00  0.00     0.039 C 
BRANCH  13  17
ATOM     17  C   UNL     1      52.568  17.017  -1.707  1.00  0.00     0.066 CG0
ATOM     18  G   UNL     1      53.645  16.709  -0.685  1.00  0.00     0.000 G0
ENDBRANCH  13  17
ENDBRANCH  11  13
ENDBRANCH  10  11
ENDBRANCH   1  10
TORSDOF 0
ENDMDL
MODEL 3
REMARK VINA RESULT:    -3.792      2.278      3.297
REMARK INTER + INTRA:          -4.855
REMARK INTER:                  -5.058
REMARK INTRA:                   0.204
REMARK UNBOUND:                 0.488
REMARK SMILES CC1=CCC(=C(C)C)C(=O)CC(C)=CCC1
REMARK SMILES IDX 12 1 14 2 13 3 15 4 16 5 2 6 1 7 3 8 11 10 9 11 10 12 5 13
REMARK SMILES IDX 6 14 7 15 8 16 4 17
REMARK H PARENT
REMARK Flexibility Score: 60.00
ROOT
ATOM      1  C   UNL     1      54.879  17.246  -2.560  1.00  0.00    -0.070 C 
ATOM      2  C   UNL     1      55.057  18.523  -2.965  1.00  0.00    -0.027 C 
ATOM      3  C   UNL     1      54.482  17.010  -1.125  1.00  0.00     0.039 C 
ENDROOT
BRANCH   2   4
ATOM      4  C   UNL     1      55.547  18.957  -4.329  1.00  0.00     0.032 C 
BRANCH   4   5
ATOM      5  C   UNL     1      54.687  18.463  -5.512  1.00  0.00     0.034 C 
BRANCH   5   6
ATOM      6  C   UNL     1      53.214  18.795  -5.360  1.00  0.00    -0.077 C 
ATOM      7  C   UNL     1      52.825  20.250  -5.301  1.00  0.00     0.039 C 
ATOM      8  C   UNL     1      52.235  17.870  -5.204  1.00  0.00    -0.023 CG0
ATOM      9  G   UNL     1      52.386  16.362  -5.248  1.00  0.00     0.000 G0
ENDBRANCH   5   6
ENDBRANCH   4   5
ENDBRANCH   2   4
BRANCH   1  10
ATOM     10  C   UNL     1      55.147  16.048  -3.447  1.00  0.00     0.111 C 
BRANCH  10  11
ATOM     11  C   UNL     1      53.930  15.170  -3.579  1.00  0.00     0.163 C 
ATOM     12  O   UNL     1      54.083  13.923  -3.468  1.00  0.00    -0.294 OA
BRANCH  11  13
ATOM     13  C   UNL     1      52.577  15.717  -3.892  1.00  0.00    -0.002 C 
ATOM     14  C   UNL     1      51.542  15.569  -3.011  1.00  0.00    -0.069 C 
ATOM     15  C   UNL     1      51.763  14.991  -1.631  1.00  0.00     0.039 C 
ATOM     16  C   UNL     1      50.126  15.970  -3.366  1.00  0.00     0.039 C 
BRANCH  13  17
ATOM     17  C   UNL     1      52.383  16.352  -5.260  1.00  0.00     0.066 CG0
ATOM     18  G   UNL     1      52.242  17.860  -5.180  1.00  0.00     0.000 G0
ENDBRANCH  13  17
ENDBRANCH  11  13
ENDBRANCH  10  11
ENDBRANCH   1  10
TORSDOF 0
ENDMDL
MODEL 4
REMARK VINA RESULT:    -3.760      1.554      4.092
REMARK INTER + INTRA:          -4.810
REMARK INTER:                  -5.184
REMARK INTRA:                   0.374
REMARK UNBOUND:                 0.488
REMARK SMILES CC1=CCC(=C(C)C)C(=O)CC(C)=CCC1
REMARK SMILES IDX 12 1 14 2 13 3 15 4 16 5 2 6 1 7 3 8 11 10 9 11 10 12 5 13
REMARK SMILES IDX 6 14 7 15 8 16 4 17
REMARK H PARENT
REMARK Flexibility Score: 60.00
ROOT
ATOM      1  C   UNL     1      55.306  18.371  -4.626  1.00  0.00    -0.070 C 
ATOM      2  C   UNL     1      55.414  17.668  -3.477  1.00  0.00    -0.027 C 
ATOM      3  C   UNL     1      56.444  19.285  -5.004  1.00  0.00     0.039 C 
ENDROOT
BRANCH   2   4
ATOM      4  C   UNL     1      54.344  16.780  -2.881  1.00  0.00     0.032 C 
BRANCH   4   5
ATOM      5  C   UNL     1      53.730  17.301  -1.564  1.00  0.00     0.034 C 
BRANCH   5   6
ATOM      6  C   UNL     1      52.219  17.436  -1.620  1.00  0.00    -0.077 C 
ATOM      7  C   UNL     1      51.394  16.349  -0.980  1.00  0.00     0.039 C 
ATOM      8  C   UNL     1      51.564  18.431  -2.267  1.00  0.00    -0.023 CG0
ATOM      9  G   UNL     1      52.179  19.631  -2.960  1.00  0.00     0.000 G0
ENDBRANCH   5   6
ENDBRANCH   4   5
ENDBRANCH   2   4
BRANCH   1  10
ATOM     10  C   UNL     1      54.066  18.355  -5.497  1.00  0.00     0.111 C 
BRANCH  10  11
ATOM     11  C   UNL     1      53.234  19.595  -5.302  1.00  0.00     0.163 C 
ATOM     12  O   UNL     1      53.641  20.670  -5.820  1.00  0.00    -0.294 OA
BRANCH  11  13
ATOM     13  C   UNL     1      51.990  19.605  -4.477  1.00  0.00    -0.002 C 
ATOM     14  C   UNL     1      50.758  19.653  -5.068  1.00  0.00    -0.069 C 
ATOM     15  C   UNL     1      50.604  19.540  -6.568  1.00  0.00     0.039 C 
ATOM     16  C   UNL     1      49.489  19.824  -4.261  1.00  0.00     0.039 C 
BRANCH  13  17
ATOM     17  C   UNL     1      52.158  19.654  -2.966  1.00  0.00     0.066 CG0
ATOM     18  G   UNL     1      51.571  18.437  -2.280  1.00  0.00     0.000 G0
ENDBRANCH  13  17
ENDBRANCH  11  13
ENDBRANCH  10  11
ENDBRANCH   1  10
TORSDOF 0
ENDMDL
MODEL 5
REMARK VINA RESULT:    -3.737      1.972      4.307
REMARK INTER + INTRA:          -4.777
REMARK INTER:                  -5.248
REMARK INTRA:                   0.471
REMARK UNBOUND:                 0.488
REMARK SMILES CC1=CCC(=C(C)C)C(=O)CC(C)=CCC1
REMARK SMILES IDX 12 1 14 2 13 3 15 4 16 5 2 6 1 7 3 8 11 10 9 11 10 12 5 13
REMARK SMILES IDX 6 14 7 15 8 16 4 17
REMARK H PARENT
REMARK Flexibility Score: 60.00
ROOT
ATOM      1  C   UNL     1      55.280  19.143  -4.363  1.00  0.00    -0.070 C 
ATOM      2  C   UNL     1      55.485  18.832  -3.063  1.00  0.00    -0.027 C 
ATOM      3  C   UNL     1      56.490  19.359  -5.236  1.00  0.00     0.039 C 
ENDROOT
BRANCH   2   4
ATOM      4  C   UNL     1      54.409  18.675  -2.012  1.00  0.00     0.032 C 
BRANCH   4   5
ATOM      5  C   UNL     1      54.349  17.281  -1.351  1.00  0.00     0.034 C 
BRANCH   5   6
ATOM      6  C   UNL     1      54.209  16.150  -2.354  1.00  0.00    -0.077 C 
ATOM      7  C   UNL     1      55.319  15.132  -2.422  1.00  0.00     0.039 C 
ATOM      8  C   UNL     1      53.187  16.033  -3.237  1.00  0.00    -0.023 CG0
ATOM      9  G   UNL     1      51.962  16.921  -3.340  1.00  0.00     0.000 G0
ENDBRANCH   5   6
ENDBRANCH   4   5
ENDBRANCH   2   4
BRANCH   1  10
ATOM     10  C   UNL     1      53.905  19.374  -4.954  1.00  0.00     0.111 C 
BRANCH  10  11
ATOM     11  C   UNL     1      53.217  18.075  -5.285  1.00  0.00     0.163 C 
ATOM     12  O   UNL     1      53.750  17.323  -6.145  1.00  0.00    -0.294 OA
BRANCH  11  13
ATOM     13  C   UNL     1      51.910  17.683  -4.679  1.00  0.00    -0.002 C 
ATOM     14  C   UNL     1      50.730  18.076  -5.245  1.00  0.00    -0.069 C 
ATOM     15  C   UNL     1      50.699  18.783  -6.582  1.00  0.00     0.039 C 
ATOM     16  C   UNL     1      49.398  17.831  -4.570  1.00  0.00     0.039 C 
BRANCH  13  17
ATOM     17  C   UNL     1      51.955  16.917  -3.365  1.00  0.00     0.066 CG0
ATOM     18  G   UNL     1      53.179  16.029  -3.257  1.00  0.00     0.000 G0
ENDBRANCH  13  17
ENDBRANCH  11  13
ENDBRANCH  10  11
ENDBRANCH   1  10
TORSDOF 0
ENDMDL
MODEL 6
REMARK VINA RESULT:    -3.697      1.759      2.273
REMARK INTER + INTRA:          -4.721
REMARK INTER:                  -5.161
REMARK INTRA:                   0.439
REMARK UNBOUND:                 0.488
REMARK SMILES CC1=CCC(=C(C)C)C(=O)CC(C)=CCC1
REMARK SMILES IDX 12 1 14 2 13 3 15 4 16 5 2 6 1 7 3 8 11 10 9 11 10 12 5 13
REMARK SMILES IDX 6 14 7 15 8 16 4 17
REMARK H PARENT
REMARK Flexibility Score: 60.00
ROOT
ATOM      1  C   UNL     1      54.611  18.867  -5.315  1.00  0.00    -0.070 C 
ATOM      2  C   UNL     1      53.969  20.056  -5.339  1.00  0.00    -0.027 C 
ATOM      3  C   UNL     1      56.075  18.862  -4.956  1.00  0.00     0.039 C 
ENDROOT
BRANCH   2   4
ATOM      4  C   UNL     1      52.534  20.277  -5.768  1.00  0.00     0.032 C 
BRANCH   4   5
ATOM      5  C   UNL     1      51.562  20.619  -4.619  1.00  0.00     0.034 C 
BRANCH   5   6
ATOM      6  C   UNL     1      50.772  19.420  -4.127  1.00  0.00    -0.077 C 
ATOM      7  C   UNL     1      49.351  19.272  -4.609  1.00  0.00     0.039 C 
ATOM      8  C   UNL     1      51.235  18.515  -3.231  1.00  0.00    -0.023 CG0
ATOM      9  G   UNL     1      52.625  18.454  -2.629  1.00  0.00     0.000 G0
ENDBRANCH   5   6
ENDBRANCH   4   5
ENDBRANCH   2   4
BRANCH   1  10
ATOM     10  C   UNL     1      53.956  17.561  -5.719  1.00  0.00     0.111 C 
BRANCH  10  11
ATOM     11  C   UNL     1      53.251  16.910  -4.558  1.00  0.00     0.163 C 
ATOM     12  O   UNL     1      52.396  16.018  -4.809  1.00  0.00    -0.294 OA
BRANCH  11  13
ATOM     13  C   UNL     1      53.485  17.324  -3.144  1.00  0.00    -0.002 C 
ATOM     14  C   UNL     1      54.372  16.646  -2.354  1.00  0.00    -0.069 C 
ATOM     15  C   UNL     1      55.259  15.561  -2.924  1.00  0.00     0.039 C 
ATOM     16  C   UNL     1      54.515  16.940  -0.876  1.00  0.00     0.039 C 
BRANCH  13  17
ATOM     17  C   UNL     1      52.631  18.459  -2.600  1.00  0.00     0.066 CG0
ATOM     18  G   UNL     1      51.260  18.508  -3.245  1.00  0.00     0.000 G0
ENDBRANCH  13  17
ENDBRANCH  11  13
ENDBRANCH  10  11
ENDBRANCH   1  10
TORSDOF 0
ENDMDL
MODEL 7
REMARK VINA RESULT:    -3.684      2.056      2.987
REMARK INTER + INTRA:          -4.703
REMARK INTER:                  -5.126
REMARK INTRA:                   0.423
REMARK UNBOUND:                 0.488
REMARK SMILES CC1=CCC(=C(C)C)C(=O)CC(C)=CCC1
REMARK SMILES IDX 12 1 14 2 13 3 15 4 16 5 2 6 1 7 3 8 11 10 9 11 10 12 5 13
REMARK SMILES IDX 6 14 7 15 8 16 4 17
REMARK H PARENT
REMARK Flexibility Score: 60.00
ROOT
ATOM      1  C   UNL     1      53.950  16.005  -4.973  1.00  0.00    -0.070 C 
ATOM      2  C   UNL     1      54.288  17.285  -5.249  1.00  0.00    -0.027 C 
ATOM      3  C   UNL     1      52.741  15.429  -5.664  1.00  0.00     0.039 C 
ENDROOT
BRANCH   2   4
ATOM      4  C   UNL     1      55.401  18.068  -4.587  1.00  0.00     0.032 C 
BRANCH   4   5
ATOM      5  C   UNL     1      54.930  19.256  -3.723  1.00  0.00     0.034 C 
BRANCH   5   6
ATOM      6  C   UNL     1      53.739  18.921  -2.842  1.00  0.00    -0.077 C 
ATOM      7  C   UNL     1      52.434  19.617  -3.133  1.00  0.00     0.039 C 
ATOM      8  C   UNL     1      53.791  18.092  -1.771  1.00  0.00    -0.023 CG0
ATOM      9  G   UNL     1      54.979  17.276  -1.302  1.00  0.00     0.000 G0
ENDBRANCH   5   6
ENDBRANCH   4   5
ENDBRANCH   2   4
BRANCH   1  10
ATOM     10  C   UNL     1      54.669  15.161  -3.940  1.00  0.00     0.111 C 
BRANCH  10  11
ATOM     11  C   UNL     1      54.005  15.249  -2.590  1.00  0.00     0.163 C 
ATOM     12  O   UNL     1      52.790  14.923  -2.505  1.00  0.00    -0.294 OA
BRANCH  11  13
ATOM     13  C   UNL     1      54.714  15.760  -1.380  1.00  0.00    -0.002 C 
ATOM     14  C   UNL     1      55.026  14.922  -0.346  1.00  0.00    -0.069 C 
ATOM     15  C   UNL     1      54.809  13.429  -0.454  1.00  0.00     0.039 C 
ATOM     16  C   UNL     1      55.599  15.437   0.957  1.00  0.00     0.039 C 
BRANCH  13  17
ATOM     17  C   UNL     1      54.982  17.256  -1.311  1.00  0.00     0.066 CG0
ATOM     18  G   UNL     1      53.787  18.077  -1.754  1.00  0.00     0.000 G0
ENDBRANCH  13  17
ENDBRANCH  11  13
ENDBRANCH  10  11
ENDBRANCH   1  10
TORSDOF 0
ENDMDL
MODEL 8
REMARK VINA RESULT:    -3.594      2.112      4.911
REMARK INTER + INTRA:          -4.576
REMARK INTER:                  -5.043
REMARK INTRA:                   0.466
REMARK UNBOUND:                 0.488
REMARK SMILES CC1=CCC(=C(C)C)C(=O)CC(C)=CCC1
REMARK SMILES IDX 12 1 14 2 13 3 15 4 16 5 2 6 1 7 3 8 11 10 9 11 10 12 5 13
REMARK SMILES IDX 6 14 7 15 8 16 4 17
REMARK H PARENT
REMARK Flexibility Score: 60.00
ROOT
ATOM      1  C   UNL     1      53.646  16.256  -5.144  1.00  0.00    -0.070 C 
ATOM      2  C   UNL     1      54.623  16.635  -4.290  1.00  0.00    -0.027 C 
ATOM      3  C   UNL     1      53.193  14.819  -5.106  1.00  0.00     0.039 C 
ENDROOT
BRANCH   2   4
ATOM      4  C   UNL     1      55.277  17.999  -4.245  1.00  0.00     0.032 C 
BRANCH   4   5
ATOM      5  C   UNL     1      54.979  18.816  -2.970  1.00  0.00     0.034 C 
BRANCH   5   6
ATOM      6  C   UNL     1      53.539  18.697  -2.506  1.00  0.00    -0.077 C 
ATOM      7  C   UNL     1      53.266  17.881  -1.268  1.00  0.00     0.039 C 
ATOM      8  C   UNL     1      52.477  19.217  -3.169  1.00  0.00    -0.023 CG0
ATOM      9  G   UNL     1      52.511  20.081  -4.414  1.00  0.00     0.000 G0
ENDBRANCH   5   6
ENDBRANCH   4   5
ENDBRANCH   2   4
BRANCH   1  10
ATOM     10  C   UNL     1      53.056  17.177  -6.193  1.00  0.00     0.111 C 
BRANCH  10  11
ATOM     11  C   UNL     1      51.861  17.927  -5.665  1.00  0.00     0.163 C 
ATOM     12  O   UNL     1      50.849  17.261  -5.316  1.00  0.00    -0.294 OA
BRANCH  11  13
ATOM     13  C   UNL     1      51.816  19.418  -5.599  1.00  0.00    -0.002 C 
ATOM     14  C   UNL     1      51.259  20.147  -6.612  1.00  0.00    -0.069 C 
ATOM     15  C   UNL     1      50.533  19.473  -7.755  1.00  0.00     0.039 C 
ATOM     16  C   UNL     1      51.340  21.658  -6.650  1.00  0.00     0.039 C 
BRANCH  13  17
ATOM     17  C   UNL     1      52.496  20.082  -4.411  1.00  0.00     0.066 CG0
ATOM     18  G   UNL     1      52.467  19.212  -3.170  1.00  0.00     0.000 G0
ENDBRANCH  13  17
ENDBRANCH  11  13
ENDBRANCH  10  11
ENDBRANCH   1  10
TORSDOF 0
ENDMDL
MODEL 9
REMARK VINA RESULT:    -3.581      1.425      2.122
REMARK INTER + INTRA:          -4.558
REMARK INTER:                  -5.010
REMARK INTRA:                   0.451
REMARK UNBOUND:                 0.488
REMARK SMILES CC1=CCC(=C(C)C)C(=O)CC(C)=CCC1
REMARK SMILES IDX 12 1 14 2 13 3 15 4 16 5 2 6 1 7 3 8 11 10 9 11 10 12 5 13
REMARK SMILES IDX 6 14 7 15 8 16 4 17
REMARK H PARENT
REMARK Flexibility Score: 60.00
ROOT
ATOM      1  C   UNL     1      55.077  19.014  -4.296  1.00  0.00    -0.070 C 
ATOM      2  C   UNL     1      53.978  19.381  -4.992  1.00  0.00    -0.027 C 
ATOM      3  C   UNL     1      56.401  19.011  -5.018  1.00  0.00     0.039 C 
ENDROOT
BRANCH   2   4
ATOM      4  C   UNL     1      52.556  19.354  -4.475  1.00  0.00     0.032 C 
BRANCH   4   5
ATOM      5  C   UNL     1      51.616  18.383  -5.220  1.00  0.00     0.034 C 
BRANCH   5   6
ATOM      6  C   UNL     1      52.176  16.977  -5.335  1.00  0.00    -0.077 C 
ATOM      7  C   UNL     1      52.424  16.432  -6.719  1.00  0.00     0.039 C 
ATOM      8  C   UNL     1      52.402  16.156  -4.281  1.00  0.00    -0.023 CG0
ATOM      9  G   UNL     1      52.244  16.490  -2.811  1.00  0.00     0.000 G0
ENDBRANCH   5   6
ENDBRANCH   4   5
ENDBRANCH   2   4
BRANCH   1  10
ATOM     10  C   UNL     1      55.029  18.521  -2.865  1.00  0.00     0.111 C 
BRANCH  10  11
ATOM     11  C   UNL     1      54.755  17.041  -2.795  1.00  0.00     0.163 C 
ATOM     12  O   UNL     1      55.524  16.265  -3.424  1.00  0.00    -0.294 OA
BRANCH  11  13
ATOM     13  C   UNL     1      53.582  16.476  -2.064  1.00  0.00    -0.002 C 
ATOM     14  C   UNL     1      53.735  15.902  -0.834  1.00  0.00    -0.069 C 
ATOM     15  C   UNL     1      55.057  15.956  -0.102  1.00  0.00     0.039 C 
ATOM     16  C   UNL     1      52.599  15.181  -0.140  1.00  0.00     0.039 C 
BRANCH  13  17
ATOM     17  C   UNL     1      52.243  16.484  -2.787  1.00  0.00     0.066 CG0
ATOM     18  G   UNL     1      52.381  16.155  -4.260  1.00  0.00     0.000 G0
ENDBRANCH  13  17
ENDBRANCH  11  13
ENDBRANCH  10  11
ENDBRANCH   1  10
TORSDOF 0
ENDMDL
