MODEL 1
REMARK VINA RESULT:    -4.618      0.000      0.000
REMARK INTER + INTRA:          -4.753
REMARK INTER:                  -4.753
REMARK INTRA:                   0.000
REMARK UNBOUND:                 0.000
REMARK SMILES O=c1ccc2cc(O)ccc2o1
REMARK SMILES IDX 9 1 10 2 11 3 5 4 4 5 3 6 2 7 1 8 12 9 6 10 7 11 8 12
REMARK H PARENT 8 13
REMARK Flexibility Score: inf
ROOT
ATOM      1  C   UNL     1      -4.920   1.290  -8.871  1.00  0.00     0.050 A 
ATOM      2  C   UNL     1      -5.819   0.356  -8.348  1.00  0.00     0.052 A 
ATOM      3  C   UNL     1      -7.195   0.522  -8.539  1.00  0.00     0.138 A 
ATOM      4  C   UNL     1      -7.672   1.637  -9.262  1.00  0.00     0.021 A 
ATOM      5  C   UNL     1      -9.052   1.777  -9.437  1.00  0.00     0.019 A 
ATOM      6  C   UNL     1      -9.910   0.820  -8.897  1.00  0.00     0.094 A 
ATOM      7  C   UNL     1      -9.366  -0.258  -8.192  1.00  0.00     0.336 A 
ATOM      8  O   UNL     1     -10.125  -1.133  -7.697  1.00  0.00    -0.246 OA
ATOM      9  O   UNL     1      -8.049  -0.368  -8.040  1.00  0.00    -0.423 OA
ATOM     10  C   UNL     1      -6.767   2.571  -9.786  1.00  0.00     0.058 A 
ATOM     11  C   UNL     1      -5.391   2.399  -9.590  1.00  0.00     0.116 A 
ENDROOT
BRANCH  11  12
ATOM     12  O   UNL     1      -4.501   3.333 -10.115  1.00  0.00    -0.508 OA
ATOM     13  H   UNL     1      -3.598   3.504  -9.687  1.00  0.00     0.293 HD
ENDBRANCH  11  12
TORSDOF 1
ENDMDL
MODEL 2
REMARK VINA RESULT:    -4.575      1.870      5.015
REMARK INTER + INTRA:          -4.708
REMARK INTER:                  -4.708
REMARK INTRA:                   0.000
REMARK UNBOUND:                 0.000
REMARK SMILES O=c1ccc2cc(O)ccc2o1
REMARK SMILES IDX 9 1 10 2 11 3 5 4 4 5 3 6 2 7 1 8 12 9 6 10 7 11 8 12
REMARK H PARENT 8 13
REMARK Flexibility Score: inf
ROOT
ATOM      1  C   UNL     1      -7.033   2.513  -9.710  1.00  0.00     0.050 A 
ATOM      2  C   UNL     1      -5.698   2.506 -10.125  1.00  0.00     0.052 A 
ATOM      3  C   UNL     1      -4.816   1.537  -9.636  1.00  0.00     0.138 A 
ATOM      4  C   UNL     1      -5.280   0.564  -8.723  1.00  0.00     0.021 A 
ATOM      5  C   UNL     1      -4.376  -0.393  -8.252  1.00  0.00     0.019 A 
ATOM      6  C   UNL     1      -3.053  -0.360  -8.694  1.00  0.00     0.094 A 
ATOM      7  C   UNL     1      -2.665   0.633  -9.599  1.00  0.00     0.336 A 
ATOM      8  O   UNL     1      -1.475   0.679 -10.009  1.00  0.00    -0.246 OA
ATOM      9  O   UNL     1      -3.545   1.532 -10.031  1.00  0.00    -0.423 OA
ATOM     10  C   UNL     1      -6.620   0.574  -8.311  1.00  0.00     0.058 A 
ATOM     11  C   UNL     1      -7.497   1.548  -8.803  1.00  0.00     0.116 A 
ENDROOT
BRANCH  11  12
ATOM     12  O   UNL     1      -8.826   1.548  -8.387  1.00  0.00    -0.508 OA
ATOM     13  H   UNL     1      -9.187   2.262  -7.765  1.00  0.00     0.293 HD
ENDBRANCH  11  12
TORSDOF 1
ENDMDL
MODEL 3
REMARK VINA RESULT:    -4.364      1.722      4.621
REMARK INTER + INTRA:          -4.491
REMARK INTER:                  -4.491
REMARK INTRA:                   0.000
REMARK UNBOUND:                 0.000
REMARK SMILES O=c1ccc2cc(O)ccc2o1
REMARK SMILES IDX 9 1 10 2 11 3 5 4 4 5 3 6 2 7 1 8 12 9 6 10 7 11 8 12
REMARK H PARENT 8 13
REMARK Flexibility Score: inf
ROOT
ATOM      1  C   UNL     1      -9.928  -0.488  -8.734  1.00  0.00     0.050 A 
ATOM      2  C   UNL     1      -9.174   0.611  -8.311  1.00  0.00     0.052 A 
ATOM      3  C   UNL     1      -7.866   0.786  -8.776  1.00  0.00     0.138 A 
ATOM      4  C   UNL     1      -7.310  -0.152  -9.674  1.00  0.00     0.021 A 
ATOM      5  C   UNL     1      -6.001   0.049 -10.122  1.00  0.00     0.019 A 
ATOM      6  C   UNL     1      -5.288   1.159  -9.672  1.00  0.00     0.094 A 
ATOM      7  C   UNL     1      -5.903   2.045  -8.782  1.00  0.00     0.336 A 
ATOM      8  O   UNL     1      -5.274   3.054  -8.365  1.00  0.00    -0.246 OA
ATOM      9  O   UNL     1      -7.150   1.831  -8.371  1.00  0.00    -0.423 OA
ATOM     10  C   UNL     1      -8.071  -1.252 -10.096  1.00  0.00     0.058 A 
ATOM     11  C   UNL     1      -9.379  -1.421  -9.627  1.00  0.00     0.116 A 
ENDROOT
BRANCH  11  12
ATOM     12  O   UNL     1     -10.125  -2.518 -10.053  1.00  0.00    -0.508 OA
ATOM     13  H   UNL     1     -10.509  -3.185  -9.395  1.00  0.00     0.293 HD
ENDBRANCH  11  12
TORSDOF 1
ENDMDL
MODEL 4
REMARK VINA RESULT:    -4.218      2.856      4.490
REMARK INTER + INTRA:          -4.341
REMARK INTER:                  -4.341
REMARK INTRA:                   0.000
REMARK UNBOUND:                 0.000
REMARK SMILES O=c1ccc2cc(O)ccc2o1
REMARK SMILES IDX 9 1 10 2 11 3 5 4 4 5 3 6 2 7 1 8 12 9 6 10 7 11 8 12
REMARK H PARENT 8 13
REMARK Flexibility Score: inf
ROOT
ATOM      1  C   UNL     1      -2.846  -1.769  -8.970  1.00  0.00     0.050 A 
ATOM      2  C   UNL     1      -3.010  -0.417  -8.651  1.00  0.00     0.052 A 
ATOM      3  C   UNL     1      -4.235   0.215  -8.884  1.00  0.00     0.138 A 
ATOM      4  C   UNL     1      -5.307  -0.517  -9.441  1.00  0.00     0.021 A 
ATOM      5  C   UNL     1      -6.521   0.142  -9.661  1.00  0.00     0.019 A 
ATOM      6  C   UNL     1      -6.637   1.491  -9.329  1.00  0.00     0.094 A 
ATOM      7  C   UNL     1      -5.533   2.151  -8.780  1.00  0.00     0.336 A 
ATOM      8  O   UNL     1      -5.618   3.370  -8.473  1.00  0.00    -0.246 OA
ATOM      9  O   UNL     1      -4.389   1.502  -8.581  1.00  0.00    -0.423 OA
ATOM     10  C   UNL     1      -5.139  -1.873  -9.758  1.00  0.00     0.058 A 
ATOM     11  C   UNL     1      -3.909  -2.499  -9.523  1.00  0.00     0.116 A 
ENDROOT
BRANCH  11  12
ATOM     12  O   UNL     1      -3.753  -3.846  -9.842  1.00  0.00    -0.508 OA
ATOM     13  H   UNL     1      -3.563  -4.541  -9.129  1.00  0.00     0.293 HD
ENDBRANCH  11  12
TORSDOF 1
ENDMDL
MODEL 5
REMARK VINA RESULT:    -4.063      2.801      4.640
REMARK INTER + INTRA:          -4.182
REMARK INTER:                  -4.182
REMARK INTRA:                   0.000
REMARK UNBOUND:                 0.000
REMARK SMILES O=c1ccc2cc(O)ccc2o1
REMARK SMILES IDX 9 1 10 2 11 3 5 4 4 5 3 6 2 7 1 8 12 9 6 10 7 11 8 12
REMARK H PARENT 8 13
REMARK Flexibility Score: inf
ROOT
ATOM      1  C   UNL     1      -7.815  -0.230  -9.911  1.00  0.00     0.050 A 
ATOM      2  C   UNL     1      -6.810  -1.191 -10.058  1.00  0.00     0.052 A 
ATOM      3  C   UNL     1      -5.552  -0.985  -9.483  1.00  0.00     0.138 A 
ATOM      4  C   UNL     1      -5.301   0.198  -8.753  1.00  0.00     0.021 A 
ATOM      5  C   UNL     1      -4.034   0.376  -8.189  1.00  0.00     0.019 A 
ATOM      6  C   UNL     1      -3.063  -0.610  -8.363  1.00  0.00     0.094 A 
ATOM      7  C   UNL     1      -3.384  -1.755  -9.098  1.00  0.00     0.336 A 
ATOM      8  O   UNL     1      -2.520  -2.657  -9.266  1.00  0.00    -0.246 OA
ATOM      9  O   UNL     1      -4.597  -1.901  -9.624  1.00  0.00    -0.423 OA
ATOM     10  C   UNL     1      -6.312   1.159  -8.608  1.00  0.00     0.058 A 
ATOM     11  C   UNL     1      -7.568   0.946  -9.187  1.00  0.00     0.116 A 
ENDROOT
BRANCH  11  12
ATOM     12  O   UNL     1      -8.566   1.907  -9.036  1.00  0.00    -0.508 OA
ATOM     13  H   UNL     1      -8.393   2.777  -8.546  1.00  0.00     0.293 HD
ENDBRANCH  11  12
TORSDOF 1
ENDMDL
MODEL 6
REMARK VINA RESULT:    -4.047      2.770      3.536
REMARK INTER + INTRA:          -4.165
REMARK INTER:                  -4.165
REMARK INTRA:                   0.000
REMARK UNBOUND:                 0.000
REMARK SMILES O=c1ccc2cc(O)ccc2o1
REMARK SMILES IDX 9 1 10 2 11 3 5 4 4 5 3 6 2 7 1 8 12 9 6 10 7 11 8 12
REMARK H PARENT 8 13
REMARK Flexibility Score: inf
ROOT
ATOM      1  C   UNL     1      -3.018  -0.794  -8.595  1.00  0.00     0.050 A 
ATOM      2  C   UNL     1      -4.030   0.045  -8.117  1.00  0.00     0.052 A 
ATOM      3  C   UNL     1      -5.328  -0.059  -8.630  1.00  0.00     0.138 A 
ATOM      4  C   UNL     1      -5.612  -1.013  -9.632  1.00  0.00     0.021 A 
ATOM      5  C   UNL     1      -6.917  -1.093 -10.125  1.00  0.00     0.019 A 
ATOM      6  C   UNL     1      -7.893  -0.236  -9.618  1.00  0.00     0.094 A 
ATOM      7  C   UNL     1      -7.539   0.684  -8.626  1.00  0.00     0.336 A 
ATOM      8  O   UNL     1      -8.408   1.466  -8.156  1.00  0.00    -0.246 OA
ATOM      9  O   UNL     1      -6.290   0.740  -8.174  1.00  0.00    -0.423 OA
ATOM     10  C   UNL     1      -4.593  -1.852 -10.107  1.00  0.00     0.058 A 
ATOM     11  C   UNL     1      -3.297  -1.743  -9.590  1.00  0.00     0.116 A 
ENDROOT
BRANCH  11  12
ATOM     12  O   UNL     1      -2.293  -2.581 -10.070  1.00  0.00    -0.508 OA
ATOM     13  H   UNL     1      -1.925  -3.341  -9.510  1.00  0.00     0.293 HD
ENDBRANCH  11  12
TORSDOF 1
ENDMDL
MODEL 7
REMARK VINA RESULT:    -3.971     10.419     11.164
REMARK INTER + INTRA:          -4.087
REMARK INTER:                  -4.087
REMARK INTRA:                   0.000
REMARK UNBOUND:                 0.000
REMARK SMILES O=c1ccc2cc(O)ccc2o1
REMARK SMILES IDX 9 1 10 2 11 3 5 4 4 5 3 6 2 7 1 8 12 9 6 10 7 11 8 12
REMARK H PARENT 8 13
REMARK Flexibility Score: inf
ROOT
ATOM      1  C   UNL     1       0.957  -1.786   0.020  1.00  0.00     0.050 A 
ATOM      2  C   UNL     1      -0.317  -2.259   0.348  1.00  0.00     0.052 A 
ATOM      3  C   UNL     1      -1.410  -1.385   0.359  1.00  0.00     0.138 A 
ATOM      4  C   UNL     1      -1.221  -0.023   0.036  1.00  0.00     0.021 A 
ATOM      5  C   UNL     1      -2.331   0.826   0.054  1.00  0.00     0.019 A 
ATOM      6  C   UNL     1      -3.582   0.309   0.388  1.00  0.00     0.094 A 
ATOM      7  C   UNL     1      -3.694  -1.051   0.697  1.00  0.00     0.336 A 
ATOM      8  O   UNL     1      -4.816  -1.536   1.001  1.00  0.00    -0.246 OA
ATOM      9  O   UNL     1      -2.621  -1.838   0.672  1.00  0.00    -0.423 OA
ATOM     10  C   UNL     1       0.059   0.447  -0.293  1.00  0.00     0.058 A 
ATOM     11  C   UNL     1       1.148  -0.433  -0.301  1.00  0.00     0.116 A 
ENDROOT
BRANCH  11  12
ATOM     12  O   UNL     1       2.414   0.045  -0.630  1.00  0.00    -0.508 OA
ATOM     13  H   UNL     1       2.983   0.546   0.043  1.00  0.00     0.293 HD
ENDBRANCH  11  12
TORSDOF 1
ENDMDL
MODEL 8
REMARK VINA RESULT:    -3.933      2.945      4.439
REMARK INTER + INTRA:          -4.048
REMARK INTER:                  -4.048
REMARK INTRA:                   0.000
REMARK UNBOUND:                 0.000
REMARK SMILES O=c1ccc2cc(O)ccc2o1
REMARK SMILES IDX 9 1 10 2 11 3 5 4 4 5 3 6 2 7 1 8 12 9 6 10 7 11 8 12
REMARK H PARENT 8 13
REMARK Flexibility Score: inf
ROOT
ATOM      1  C   UNL     1      -6.517   1.097  -9.686  1.00  0.00     0.050 A 
ATOM      2  C   UNL     1      -6.559  -0.257 -10.031  1.00  0.00     0.052 A 
ATOM      3  C   UNL     1      -5.511  -1.108  -9.665  1.00  0.00     0.138 A 
ATOM      4  C   UNL     1      -4.410  -0.594  -8.945  1.00  0.00     0.021 A 
ATOM      5  C   UNL     1      -3.377  -1.468  -8.592  1.00  0.00     0.019 A 
ATOM      6  C   UNL     1      -3.463  -2.810  -8.959  1.00  0.00     0.094 A 
ATOM      7  C   UNL     1      -4.583  -3.248  -9.671  1.00  0.00     0.336 A 
ATOM      8  O   UNL     1      -4.679  -4.458 -10.011  1.00  0.00    -0.246 OA
ATOM      9  O   UNL     1      -5.552  -2.396  -9.995  1.00  0.00    -0.423 OA
ATOM     10  C   UNL     1      -4.373   0.765  -8.600  1.00  0.00     0.058 A 
ATOM     11  C   UNL     1      -5.425   1.611  -8.970  1.00  0.00     0.116 A 
ENDROOT
BRANCH  11  12
ATOM     12  O   UNL     1      -5.377   2.959  -8.623  1.00  0.00    -0.508 OA
ATOM     13  H   UNL     1      -4.497   3.438  -8.477  1.00  0.00     0.293 HD
ENDBRANCH  11  12
TORSDOF 1
ENDMDL
MODEL 9
REMARK VINA RESULT:    -3.781      1.828      2.153
REMARK INTER + INTRA:          -3.892
REMARK INTER:                  -3.892
REMARK INTRA:                   0.000
REMARK UNBOUND:                 0.000
REMARK SMILES O=c1ccc2cc(O)ccc2o1
REMARK SMILES IDX 9 1 10 2 11 3 5 4 4 5 3 6 2 7 1 8 12 9 6 10 7 11 8 12
REMARK H PARENT 8 13
REMARK Flexibility Score: inf
ROOT
ATOM      1  C   UNL     1      -4.273  -0.911  -9.584  1.00  0.00     0.050 A 
ATOM      2  C   UNL     1      -5.570  -1.325  -9.902  1.00  0.00     0.052 A 
ATOM      3  C   UNL     1      -6.663  -0.509  -9.589  1.00  0.00     0.138 A 
ATOM      4  C   UNL     1      -6.451   0.733  -8.952  1.00  0.00     0.021 A 
ATOM      5  C   UNL     1      -7.562   1.527  -8.652  1.00  0.00     0.019 A 
ATOM      6  C   UNL     1      -8.837   1.073  -8.988  1.00  0.00     0.094 A 
ATOM      7  C   UNL     1      -8.971  -0.169  -9.617  1.00  0.00     0.336 A 
ATOM      8  O   UNL     1     -10.115  -0.596  -9.928  1.00  0.00    -0.246 OA
ATOM      9  O   UNL     1      -7.897  -0.905  -9.891  1.00  0.00    -0.423 OA
ATOM     10  C   UNL     1      -5.148   1.144  -8.636  1.00  0.00     0.058 A 
ATOM     11  C   UNL     1      -4.059   0.323  -8.951  1.00  0.00     0.116 A 
ENDROOT
BRANCH  11  12
ATOM     12  O   UNL     1      -2.768   0.741  -8.633  1.00  0.00    -0.508 OA
ATOM     13  H   UNL     1      -2.587   1.669  -8.268  1.00  0.00     0.293 HD
ENDBRANCH  11  12
TORSDOF 1
ENDMDL
