MODEL 1
REMARK VINA RESULT:    -4.073      0.000      0.000
REMARK INTER + INTRA:         -10.598
REMARK INTER:                  -7.884
REMARK INTRA:                  -2.715
REMARK UNBOUND:                -2.715
REMARK SMILES CCCCCCCCCCCCCCCCCC(=O)[O-]
REMARK SMILES IDX 10 1 11 2 12 3 13 4 14 5 15 6 16 7 17 8 18 9 19 10 20 11
REMARK SMILES IDX 9 12 8 13 7 14 6 15 5 16 4 17 3 18 2 19 1 20
REMARK H PARENT
REMARK Flexibility Score: inf
ROOT
ATOM      1  C   UNL     1     -22.774  -8.798  -4.018  1.00  0.00     0.000 C 
ENDROOT
BRANCH   1   2
ATOM      2  C   UNL     1     -24.205  -9.299  -4.281  1.00  0.00     0.000 C 
BRANCH   2   3
ATOM      3  C   UNL     1     -24.759  -8.836  -5.639  1.00  0.00     0.000 C 
BRANCH   3   4
ATOM      4  C   UNL     1     -23.869  -7.780  -6.312  1.00  0.00     0.000 C 
BRANCH   4   5
ATOM      5  C   UNL     1     -24.678  -6.746  -7.114  1.00  0.00     0.000 C 
BRANCH   5   6
ATOM      6  C   UNL     1     -25.087  -5.530  -6.253  1.00  0.00     0.000 C 
BRANCH   6   7
ATOM      7  C   UNL     1     -26.557  -5.567  -5.799  1.00  0.00     0.006 C 
BRANCH   7   8
ATOM      8  C   UNL     1     -26.746  -5.964  -4.326  1.00  0.00     0.053 C 
BRANCH   8   9
ATOM      9  C   UNL     1     -25.695  -5.356  -3.448  1.00  0.00     0.041 C 
ATOM     10  O   UNL     1     -24.874  -6.090  -2.836  1.00  0.00    -0.550 OA
ATOM     11  O   UNL     1     -25.614  -3.976  -3.315  1.00  0.00    -0.550 OA
ENDBRANCH   8   9
ENDBRANCH   7   8
ENDBRANCH   6   7
ENDBRANCH   5   6
ENDBRANCH   4   5
ENDBRANCH   3   4
ENDBRANCH   2   3
ENDBRANCH   1   2
BRANCH   1  12
ATOM     12  C   UNL     1     -21.755  -9.936  -3.795  1.00  0.00     0.000 C 
BRANCH  12  13
ATOM     13  C   UNL     1     -22.230 -11.269  -4.397  1.00  0.00    -0.000 C 
BRANCH  13  14
ATOM     14  C   UNL     1     -21.447 -11.662  -5.660  1.00  0.00    -0.000 C 
BRANCH  14  15
ATOM     15  C   UNL     1     -21.880 -10.863  -6.899  1.00  0.00    -0.000 C 
BRANCH  15  16
ATOM     16  C   UNL     1     -20.673 -10.176  -7.556  1.00  0.00    -0.000 C 
BRANCH  16  17
ATOM     17  C   UNL     1     -20.373  -8.794  -6.954  1.00  0.00    -0.000 C 
BRANCH  17  18
ATOM     18  C   UNL     1     -19.057  -8.769  -6.158  1.00  0.00    -0.000 C 
BRANCH  18  19
ATOM     19  C   UNL     1     -18.166  -9.986  -6.455  1.00  0.00    -0.003 C 
ATOM     20  C   UNL     1     -17.832 -10.797  -5.203  1.00  0.00     0.004 C 
ENDBRANCH  18  19
ENDBRANCH  17  18
ENDBRANCH  16  17
ENDBRANCH  15  16
ENDBRANCH  14  15
ENDBRANCH  13  14
ENDBRANCH  12  13
ENDBRANCH   1  12
TORSDOF 16
ENDMDL
MODEL 2
REMARK VINA RESULT:    -3.980      2.942      7.436
REMARK INTER + INTRA:         -10.417
REMARK INTER:                  -8.174
REMARK INTRA:                  -2.243
REMARK UNBOUND:                -2.715
REMARK SMILES CCCCCCCCCCCCCCCCCC(=O)[O-]
REMARK SMILES IDX 10 1 11 2 12 3 13 4 14 5 15 6 16 7 17 8 18 9 19 10 20 11
REMARK SMILES IDX 9 12 8 13 7 14 6 15 5 16 4 17 3 18 2 19 1 20
REMARK H PARENT
REMARK Flexibility Score: inf
ROOT
ATOM      1  C   UNL     1     -24.211  -6.110  -7.773  1.00  0.00     0.000 C 
ENDROOT
BRANCH   1   2
ATOM      2  C   UNL     1     -23.395  -6.494  -6.526  1.00  0.00     0.000 C 
BRANCH   2   3
ATOM      3  C   UNL     1     -23.094  -8.000  -6.451  1.00  0.00     0.000 C 
BRANCH   3   4
ATOM      4  C   UNL     1     -24.351  -8.841  -6.181  1.00  0.00     0.000 C 
BRANCH   4   5
ATOM      5  C   UNL     1     -24.303  -9.560  -4.822  1.00  0.00     0.000 C 
BRANCH   5   6
ATOM      6  C   UNL     1     -22.870  -9.636  -4.251  1.00  0.00     0.000 C 
BRANCH   6   7
ATOM      7  C   UNL     1     -22.261 -11.049  -4.309  1.00  0.00     0.006 C 
BRANCH   7   8
ATOM      8  C   UNL     1     -21.756 -11.455  -5.702  1.00  0.00     0.053 C 
BRANCH   8   9
ATOM      9  C   UNL     1     -20.496 -10.732  -6.069  1.00  0.00     0.041 C 
ATOM     10  O   UNL     1     -20.334 -10.287  -7.236  1.00  0.00    -0.550 OA
ATOM     11  O   UNL     1     -19.505 -10.538  -5.116  1.00  0.00    -0.550 OA
ENDBRANCH   8   9
ENDBRANCH   7   8
ENDBRANCH   6   7
ENDBRANCH   5   6
ENDBRANCH   4   5
ENDBRANCH   3   4
ENDBRANCH   2   3
ENDBRANCH   1   2
BRANCH   1  12
ATOM     12  C   UNL     1     -25.463  -5.265  -7.453  1.00  0.00     0.000 C 
BRANCH  12  13
ATOM     13  C   UNL     1     -26.611  -6.118  -6.887  1.00  0.00    -0.000 C 
BRANCH  13  14
ATOM     14  C   UNL     1     -27.113  -5.608  -5.527  1.00  0.00    -0.000 C 
BRANCH  14  15
ATOM     15  C   UNL     1     -26.360  -6.235  -4.344  1.00  0.00    -0.000 C 
BRANCH  15  16
ATOM     16  C   UNL     1     -25.954  -5.161  -3.323  1.00  0.00    -0.000 C 
BRANCH  16  17
ATOM     17  C   UNL     1     -25.147  -4.015  -3.955  1.00  0.00    -0.000 C 
BRANCH  17  18
ATOM     18  C   UNL     1     -25.352  -2.676  -3.225  1.00  0.00    -0.000 C 
BRANCH  18  19
ATOM     19  C   UNL     1     -25.782  -1.548  -4.177  1.00  0.00    -0.003 C 
ATOM     20  C   UNL     1     -26.405  -2.069  -5.472  1.00  0.00     0.004 C 
ENDBRANCH  18  19
ENDBRANCH  17  18
ENDBRANCH  16  17
ENDBRANCH  15  16
ENDBRANCH  14  15
ENDBRANCH  13  14
ENDBRANCH  12  13
ENDBRANCH   1  12
TORSDOF 16
ENDMDL
MODEL 3
REMARK VINA RESULT:    -3.968      1.916      3.759
REMARK INTER + INTRA:         -10.394
REMARK INTER:                  -7.899
REMARK INTRA:                  -2.495
REMARK UNBOUND:                -2.715
REMARK SMILES CCCCCCCCCCCCCCCCCC(=O)[O-]
REMARK SMILES IDX 10 1 11 2 12 3 13 4 14 5 15 6 16 7 17 8 18 9 19 10 20 11
REMARK SMILES IDX 9 12 8 13 7 14 6 15 5 16 4 17 3 18 2 19 1 20
REMARK H PARENT
REMARK Flexibility Score: inf
ROOT
ATOM      1  C   UNL     1     -24.067  -7.218  -6.727  1.00  0.00     0.000 C 
ENDROOT
BRANCH   1   2
ATOM      2  C   UNL     1     -25.018  -6.084  -7.147  1.00  0.00     0.000 C 
BRANCH   2   3
ATOM      3  C   UNL     1     -26.485  -6.372  -6.786  1.00  0.00     0.000 C 
BRANCH   3   4
ATOM      4  C   UNL     1     -27.015  -5.447  -5.679  1.00  0.00     0.000 C 
BRANCH   4   5
ATOM      5  C   UNL     1     -26.601  -5.909  -4.271  1.00  0.00     0.000 C 
BRANCH   5   6
ATOM      6  C   UNL     1     -25.340  -5.177  -3.764  1.00  0.00     0.000 C 
BRANCH   6   7
ATOM      7  C   UNL     1     -25.626  -3.762  -3.227  1.00  0.00     0.006 C 
BRANCH   7   8
ATOM      8  C   UNL     1     -24.827  -2.654  -3.929  1.00  0.00     0.053 C 
BRANCH   8   9
ATOM      9  C   UNL     1     -25.436  -2.278  -5.245  1.00  0.00     0.041 C 
ATOM     10  O   UNL     1     -24.818  -2.501  -6.320  1.00  0.00    -0.550 OA
ATOM     11  O   UNL     1     -26.694  -1.690  -5.285  1.00  0.00    -0.550 OA
ENDBRANCH   8   9
ENDBRANCH   7   8
ENDBRANCH   6   7
ENDBRANCH   5   6
ENDBRANCH   4   5
ENDBRANCH   3   4
ENDBRANCH   2   3
ENDBRANCH   1   2
BRANCH   1  12
ATOM     12  C   UNL     1     -24.792  -8.538  -6.389  1.00  0.00     0.000 C 
BRANCH  12  13
ATOM     13  C   UNL     1     -24.490  -9.018  -4.959  1.00  0.00    -0.000 C 
BRANCH  13  14
ATOM     14  C   UNL     1     -23.229  -8.365  -4.369  1.00  0.00    -0.000 C 
BRANCH  14  15
ATOM     15  C   UNL     1     -22.236  -9.395  -3.809  1.00  0.00    -0.000 C 
BRANCH  15  16
ATOM     16  C   UNL     1     -22.566 -10.807  -4.315  1.00  0.00    -0.000 C 
BRANCH  16  17
ATOM     17  C   UNL     1     -21.537 -11.332  -5.329  1.00  0.00    -0.000 C 
BRANCH  17  18
ATOM     18  C   UNL     1     -21.935 -11.033  -6.784  1.00  0.00    -0.000 C 
BRANCH  18  19
ATOM     19  C   UNL     1     -21.069  -9.931  -7.416  1.00  0.00    -0.003 C 
ATOM     20  C   UNL     1     -21.775  -9.208  -8.564  1.00  0.00     0.004 C 
ENDBRANCH  18  19
ENDBRANCH  17  18
ENDBRANCH  16  17
ENDBRANCH  15  16
ENDBRANCH  14  15
ENDBRANCH  13  14
ENDBRANCH  12  13
ENDBRANCH   1  12
TORSDOF 16
ENDMDL
MODEL 4
REMARK VINA RESULT:    -3.900      1.870      3.896
REMARK INTER + INTRA:         -10.263
REMARK INTER:                  -7.661
REMARK INTRA:                  -2.602
REMARK UNBOUND:                -2.715
REMARK SMILES CCCCCCCCCCCCCCCCCC(=O)[O-]
REMARK SMILES IDX 10 1 11 2 12 3 13 4 14 5 15 6 16 7 17 8 18 9 19 10 20 11
REMARK SMILES IDX 9 12 8 13 7 14 6 15 5 16 4 17 3 18 2 19 1 20
REMARK H PARENT
REMARK Flexibility Score: inf
ROOT
ATOM      1  C   UNL     1     -24.770  -6.147  -7.118  1.00  0.00     0.000 C 
ENDROOT
BRANCH   1   2
ATOM      2  C   UNL     1     -26.290  -6.353  -7.002  1.00  0.00     0.000 C 
BRANCH   2   3
ATOM      3  C   UNL     1     -26.890  -5.676  -5.759  1.00  0.00     0.000 C 
BRANCH   3   4
ATOM      4  C   UNL     1     -26.206  -4.342  -5.424  1.00  0.00     0.000 C 
BRANCH   4   5
ATOM      5  C   UNL     1     -25.686  -4.288  -3.977  1.00  0.00     0.000 C 
BRANCH   5   6
ATOM      6  C   UNL     1     -25.868  -5.634  -3.241  1.00  0.00     0.000 C 
BRANCH   6   7
ATOM      7  C   UNL     1     -24.540  -6.279  -2.805  1.00  0.00     0.006 C 
BRANCH   7   8
ATOM      8  C   UNL     1     -24.709  -7.477  -1.858  1.00  0.00     0.053 C 
BRANCH   8   9
ATOM      9  C   UNL     1     -23.645  -7.507  -0.804  1.00  0.00     0.041 C 
ATOM     10  O   UNL     1     -22.634  -8.245  -0.940  1.00  0.00    -0.550 OA
ATOM     11  O   UNL     1     -23.765  -6.708   0.326  1.00  0.00    -0.550 OA
ENDBRANCH   8   9
ENDBRANCH   7   8
ENDBRANCH   6   7
ENDBRANCH   5   6
ENDBRANCH   4   5
ENDBRANCH   3   4
ENDBRANCH   2   3
ENDBRANCH   1   2
BRANCH   1  12
ATOM     12  C   UNL     1     -23.944  -7.207  -6.359  1.00  0.00     0.000 C 
BRANCH  12  13
ATOM     13  C   UNL     1     -24.579  -8.606  -6.439  1.00  0.00    -0.000 C 
BRANCH  13  14
ATOM     14  C   UNL     1     -24.323  -9.446  -5.177  1.00  0.00    -0.000 C 
BRANCH  14  15
ATOM     15  C   UNL     1     -22.979  -9.119  -4.510  1.00  0.00    -0.000 C 
BRANCH  15  16
ATOM     16  C   UNL     1     -22.301 -10.396  -3.990  1.00  0.00    -0.000 C 
BRANCH  16  17
ATOM     17  C   UNL     1     -21.888 -11.353  -5.120  1.00  0.00    -0.000 C 
BRANCH  17  18
ATOM     18  C   UNL     1     -20.724 -10.805  -5.962  1.00  0.00    -0.000 C 
BRANCH  18  19
ATOM     19  C   UNL     1     -21.104 -10.620  -7.440  1.00  0.00    -0.003 C 
ATOM     20  C   UNL     1     -21.104  -9.154  -7.874  1.00  0.00     0.004 C 
ENDBRANCH  18  19
ENDBRANCH  17  18
ENDBRANCH  16  17
ENDBRANCH  15  16
ENDBRANCH  14  15
ENDBRANCH  13  14
ENDBRANCH  12  13
ENDBRANCH   1  12
TORSDOF 16
ENDMDL
MODEL 5
REMARK VINA RESULT:    -3.823      1.583      3.766
REMARK INTER + INTRA:         -10.114
REMARK INTER:                  -7.162
REMARK INTRA:                  -2.952
REMARK UNBOUND:                -2.715
REMARK SMILES CCCCCCCCCCCCCCCCCC(=O)[O-]
REMARK SMILES IDX 10 1 11 2 12 3 13 4 14 5 15 6 16 7 17 8 18 9 19 10 20 11
REMARK SMILES IDX 9 12 8 13 7 14 6 15 5 16 4 17 3 18 2 19 1 20
REMARK H PARENT
REMARK Flexibility Score: inf
ROOT
ATOM      1  C   UNL     1     -22.515 -10.247  -7.641  1.00  0.00     0.000 C 
ENDROOT
BRANCH   1   2
ATOM      2  C   UNL     1     -21.159 -10.678  -7.056  1.00  0.00     0.000 C 
BRANCH   2   3
ATOM      3  C   UNL     1     -21.292 -11.770  -5.982  1.00  0.00     0.000 C 
BRANCH   3   4
ATOM      4  C   UNL     1     -22.169 -11.332  -4.799  1.00  0.00     0.000 C 
BRANCH   4   5
ATOM      5  C   UNL     1     -21.609 -10.099  -4.070  1.00  0.00     0.000 C 
BRANCH   5   6
ATOM      6  C   UNL     1     -22.627  -8.937  -4.021  1.00  0.00     0.000 C 
BRANCH   6   7
ATOM      7  C   UNL     1     -24.071  -9.373  -4.331  1.00  0.00     0.006 C 
BRANCH   7   8
ATOM      8  C   UNL     1     -24.953  -8.252  -4.899  1.00  0.00     0.053 C 
BRANCH   8   9
ATOM      9  C   UNL     1     -25.119  -7.127  -3.924  1.00  0.00     0.041 C 
ATOM     10  O   UNL     1     -24.893  -5.939  -4.277  1.00  0.00    -0.550 OA
ATOM     11  O   UNL     1     -25.536  -7.389  -2.625  1.00  0.00    -0.550 OA
ENDBRANCH   8   9
ENDBRANCH   7   8
ENDBRANCH   6   7
ENDBRANCH   5   6
ENDBRANCH   4   5
ENDBRANCH   3   4
ENDBRANCH   2   3
ENDBRANCH   1   2
BRANCH   1  12
ATOM     12  C   UNL     1     -22.657  -8.719  -7.809  1.00  0.00     0.000 C 
BRANCH  12  13
ATOM     13  C   UNL     1     -21.349  -7.976  -7.489  1.00  0.00    -0.000 C 
BRANCH  13  14
ATOM     14  C   UNL     1     -20.606  -7.513  -8.753  1.00  0.00    -0.000 C 
BRANCH  14  15
ATOM     15  C   UNL     1     -19.081  -7.495  -8.571  1.00  0.00    -0.000 C 
BRANCH  15  16
ATOM     16  C   UNL     1     -18.465  -8.841  -8.981  1.00  0.00    -0.000 C 
BRANCH  16  17
ATOM     17  C   UNL     1     -17.878  -9.615  -7.789  1.00  0.00    -0.000 C 
BRANCH  17  18
ATOM     18  C   UNL     1     -17.752  -8.748  -6.526  1.00  0.00    -0.000 C 
BRANCH  18  19
ATOM     19  C   UNL     1     -18.209  -9.486  -5.257  1.00  0.00    -0.003 C 
ATOM     20  C   UNL     1     -17.729 -10.937  -5.210  1.00  0.00     0.004 C 
ENDBRANCH  18  19
ENDBRANCH  17  18
ENDBRANCH  16  17
ENDBRANCH  15  16
ENDBRANCH  14  15
ENDBRANCH  13  14
ENDBRANCH  12  13
ENDBRANCH   1  12
TORSDOF 16
ENDMDL
MODEL 6
REMARK VINA RESULT:    -3.802      3.001      7.186
REMARK INTER + INTRA:         -10.073
REMARK INTER:                  -7.779
REMARK INTRA:                  -2.294
REMARK UNBOUND:                -2.715
REMARK SMILES CCCCCCCCCCCCCCCCCC(=O)[O-]
REMARK SMILES IDX 10 1 11 2 12 3 13 4 14 5 15 6 16 7 17 8 18 9 19 10 20 11
REMARK SMILES IDX 9 12 8 13 7 14 6 15 5 16 4 17 3 18 2 19 1 20
REMARK H PARENT
REMARK Flexibility Score: inf
ROOT
ATOM      1  C   UNL     1     -22.834  -8.283  -7.020  1.00  0.00     0.000 C 
ENDROOT
BRANCH   1   2
ATOM      2  C   UNL     1     -22.417  -9.358  -8.039  1.00  0.00     0.000 C 
BRANCH   2   3
ATOM      3  C   UNL     1     -21.267 -10.245  -7.533  1.00  0.00     0.000 C 
BRANCH   3   4
ATOM      4  C   UNL     1     -21.745 -11.336  -6.563  1.00  0.00     0.000 C 
BRANCH   4   5
ATOM      5  C   UNL     1     -21.011 -11.291  -5.211  1.00  0.00     0.000 C 
BRANCH   5   6
ATOM      6  C   UNL     1     -20.054 -10.083  -5.107  1.00  0.00     0.000 C 
BRANCH   6   7
ATOM      7  C   UNL     1     -18.592 -10.481  -4.829  1.00  0.00     0.006 C 
BRANCH   7   8
ATOM      8  C   UNL     1     -17.661 -10.324  -6.041  1.00  0.00     0.053 C 
BRANCH   8   9
ATOM      9  C   UNL     1     -17.691  -8.930  -6.588  1.00  0.00     0.041 C 
ATOM     10  O   UNL     1     -18.043  -8.720  -7.779  1.00  0.00    -0.550 OA
ATOM     11  O   UNL     1     -17.342  -7.858  -5.776  1.00  0.00    -0.550 OA
ENDBRANCH   8   9
ENDBRANCH   7   8
ENDBRANCH   6   7
ENDBRANCH   5   6
ENDBRANCH   4   5
ENDBRANCH   3   4
ENDBRANCH   2   3
ENDBRANCH   1   2
BRANCH   1  12
ATOM     12  C   UNL     1     -24.323  -8.356  -6.621  1.00  0.00     0.000 C 
BRANCH  12  13
ATOM     13  C   UNL     1     -24.545  -9.199  -5.353  1.00  0.00    -0.000 C 
BRANCH  13  14
ATOM     14  C   UNL     1     -23.568  -8.837  -4.223  1.00  0.00    -0.000 C 
BRANCH  14  15
ATOM     15  C   UNL     1     -23.812  -7.430  -3.656  1.00  0.00    -0.000 C 
BRANCH  15  16
ATOM     16  C   UNL     1     -25.223  -7.319  -3.058  1.00  0.00    -0.000 C 
BRANCH  16  17
ATOM     17  C   UNL     1     -25.919  -5.997  -3.417  1.00  0.00    -0.000 C 
BRANCH  17  18
ATOM     18  C   UNL     1     -26.654  -6.063  -4.767  1.00  0.00    -0.000 C 
BRANCH  18  19
ATOM     19  C   UNL     1     -26.044  -5.120  -5.816  1.00  0.00    -0.003 C 
ATOM     20  C   UNL     1     -25.988  -3.666  -5.346  1.00  0.00     0.004 C 
ENDBRANCH  18  19
ENDBRANCH  17  18
ENDBRANCH  16  17
ENDBRANCH  15  16
ENDBRANCH  14  15
ENDBRANCH  13  14
ENDBRANCH  12  13
ENDBRANCH   1  12
TORSDOF 16
ENDMDL
MODEL 7
REMARK VINA RESULT:    -3.786      1.632      2.937
REMARK INTER + INTRA:         -10.043
REMARK INTER:                  -7.428
REMARK INTRA:                  -2.615
REMARK UNBOUND:                -2.715
REMARK SMILES CCCCCCCCCCCCCCCCCC(=O)[O-]
REMARK SMILES IDX 10 1 11 2 12 3 13 4 14 5 15 6 16 7 17 8 18 9 19 10 20 11
REMARK SMILES IDX 9 12 8 13 7 14 6 15 5 16 4 17 3 18 2 19 1 20
REMARK H PARENT
REMARK Flexibility Score: inf
ROOT
ATOM      1  C   UNL     1     -23.675  -8.213  -4.090  1.00  0.00     0.000 C 
ENDROOT
BRANCH   1   2
ATOM      2  C   UNL     1     -24.497  -7.280  -3.183  1.00  0.00     0.000 C 
BRANCH   2   3
ATOM      3  C   UNL     1     -25.992  -7.266  -3.541  1.00  0.00     0.000 C 
BRANCH   3   4
ATOM      4  C   UNL     1     -26.426  -5.958  -4.220  1.00  0.00     0.000 C 
BRANCH   4   5
ATOM      5  C   UNL     1     -26.473  -6.074  -5.754  1.00  0.00     0.000 C 
BRANCH   5   6
ATOM      6  C   UNL     1     -25.686  -4.941  -6.449  1.00  0.00     0.000 C 
BRANCH   6   7
ATOM      7  C   UNL     1     -24.481  -4.440  -5.632  1.00  0.00     0.006 C 
BRANCH   7   8
ATOM      8  C   UNL     1     -24.410  -2.911  -5.498  1.00  0.00     0.053 C 
BRANCH   8   9
ATOM      9  C   UNL     1     -25.533  -2.373  -4.666  1.00  0.00     0.041 C 
ATOM     10  O   UNL     1     -26.445  -1.684  -5.195  1.00  0.00    -0.550 OA
ATOM     11  O   UNL     1     -25.580  -2.645  -3.304  1.00  0.00    -0.550 OA
ENDBRANCH   8   9
ENDBRANCH   7   8
ENDBRANCH   6   7
ENDBRANCH   5   6
ENDBRANCH   4   5
ENDBRANCH   3   4
ENDBRANCH   2   3
ENDBRANCH   1   2
BRANCH   1  12
ATOM     12  C   UNL     1     -24.532  -9.255  -4.840  1.00  0.00     0.000 C 
BRANCH  12  13
ATOM     13  C   UNL     1     -24.428  -9.102  -6.367  1.00  0.00    -0.000 C 
BRANCH  13  14
ATOM     14  C   UNL     1     -23.391  -8.049  -6.788  1.00  0.00    -0.000 C 
BRANCH  14  15
ATOM     15  C   UNL     1     -22.171  -8.666  -7.489  1.00  0.00    -0.000 C 
BRANCH  15  16
ATOM     16  C   UNL     1     -22.364 -10.176  -7.696  1.00  0.00    -0.000 C 
BRANCH  16  17
ATOM     17  C   UNL     1     -21.259 -11.013  -7.034  1.00  0.00    -0.000 C 
BRANCH  17  18
ATOM     18  C   UNL     1     -21.445 -11.141  -5.513  1.00  0.00    -0.000 C 
BRANCH  18  19
ATOM     19  C   UNL     1     -20.387 -10.355  -4.722  1.00  0.00    -0.003 C 
ATOM     20  C   UNL     1     -18.957 -10.699  -5.142  1.00  0.00     0.004 C 
ENDBRANCH  18  19
ENDBRANCH  17  18
ENDBRANCH  16  17
ENDBRANCH  15  16
ENDBRANCH  14  15
ENDBRANCH  13  14
ENDBRANCH  12  13
ENDBRANCH   1  12
TORSDOF 16
ENDMDL
MODEL 8
REMARK VINA RESULT:    -3.760      2.856      6.839
REMARK INTER + INTRA:          -9.991
REMARK INTER:                  -7.562
REMARK INTRA:                  -2.429
REMARK UNBOUND:                -2.715
REMARK SMILES CCCCCCCCCCCCCCCCCC(=O)[O-]
REMARK SMILES IDX 10 1 11 2 12 3 13 4 14 5 15 6 16 7 17 8 18 9 19 10 20 11
REMARK SMILES IDX 9 12 8 13 7 14 6 15 5 16 4 17 3 18 2 19 1 20
REMARK H PARENT
REMARK Flexibility Score: inf
ROOT
ATOM      1  C   UNL     1     -23.595  -7.367  -3.050  1.00  0.00     0.000 C 
ENDROOT
BRANCH   1   2
ATOM      2  C   UNL     1     -23.160  -8.452  -4.050  1.00  0.00     0.000 C 
BRANCH   2   3
ATOM      3  C   UNL     1     -24.342  -9.273  -4.591  1.00  0.00     0.000 C 
BRANCH   3   4
ATOM      4  C   UNL     1     -24.388  -9.301  -6.126  1.00  0.00     0.000 C 
BRANCH   4   5
ATOM      5  C   UNL     1     -23.774  -8.041  -6.762  1.00  0.00     0.000 C 
BRANCH   5   6
ATOM      6  C   UNL     1     -22.628  -8.380  -7.740  1.00  0.00     0.000 C 
BRANCH   6   7
ATOM      7  C   UNL     1     -22.408  -9.893  -7.926  1.00  0.00     0.006 C 
BRANCH   7   8
ATOM      8  C   UNL     1     -21.004 -10.373  -7.529  1.00  0.00     0.053 C 
BRANCH   8   9
ATOM      9  C   UNL     1     -20.913 -10.671  -6.063  1.00  0.00     0.041 C 
ATOM     10  O   UNL     1     -20.085 -10.057  -5.339  1.00  0.00    -0.550 OA
ATOM     11  O   UNL     1     -21.752 -11.620  -5.494  1.00  0.00    -0.550 OA
ENDBRANCH   8   9
ENDBRANCH   7   8
ENDBRANCH   6   7
ENDBRANCH   5   6
ENDBRANCH   4   5
ENDBRANCH   3   4
ENDBRANCH   2   3
ENDBRANCH   1   2
BRANCH   1  12
ATOM     12  C   UNL     1     -25.122  -7.305  -2.833  1.00  0.00     0.000 C 
BRANCH  12  13
ATOM     13  C   UNL     1     -25.724  -5.976  -3.320  1.00  0.00    -0.000 C 
BRANCH  13  14
ATOM     14  C   UNL     1     -26.612  -6.148  -4.563  1.00  0.00    -0.000 C 
BRANCH  14  15
ATOM     15  C   UNL     1     -26.614  -4.905  -5.466  1.00  0.00    -0.000 C 
BRANCH  15  16
ATOM     16  C   UNL     1     -25.218  -4.653  -6.055  1.00  0.00    -0.000 C 
BRANCH  16  17
ATOM     17  C   UNL     1     -24.787  -3.182  -5.956  1.00  0.00    -0.000 C 
BRANCH  17  18
ATOM     18  C   UNL     1     -24.078  -2.861  -4.629  1.00  0.00    -0.000 C 
BRANCH  18  19
ATOM     19  C   UNL     1     -24.978  -2.083  -3.655  1.00  0.00    -0.003 C 
ATOM     20  C   UNL     1     -26.030  -1.234  -4.368  1.00  0.00     0.004 C 
ENDBRANCH  18  19
ENDBRANCH  17  18
ENDBRANCH  16  17
ENDBRANCH  15  16
ENDBRANCH  14  15
ENDBRANCH  13  14
ENDBRANCH  12  13
ENDBRANCH   1  12
TORSDOF 16
ENDMDL
MODEL 9
REMARK VINA RESULT:    -3.736      3.135      6.655
REMARK INTER + INTRA:          -9.944
REMARK INTER:                  -7.076
REMARK INTRA:                  -2.869
REMARK UNBOUND:                -2.715
REMARK SMILES CCCCCCCCCCCCCCCCCC(=O)[O-]
REMARK SMILES IDX 10 1 11 2 12 3 13 4 14 5 15 6 16 7 17 8 18 9 19 10 20 11
REMARK SMILES IDX 9 12 8 13 7 14 6 15 5 16 4 17 3 18 2 19 1 20
REMARK H PARENT
REMARK Flexibility Score: inf
ROOT
ATOM      1  C   UNL     1     -21.744  -7.732  -3.754  1.00  0.00     0.000 C 
ENDROOT
BRANCH   1   2
ATOM      2  C   UNL     1     -22.035  -8.997  -2.927  1.00  0.00     0.000 C 
BRANCH   2   3
ATOM      3  C   UNL     1     -21.319 -10.244  -3.472  1.00  0.00     0.000 C 
BRANCH   3   4
ATOM      4  C   UNL     1     -22.251 -11.153  -4.287  1.00  0.00     0.000 C 
BRANCH   4   5
ATOM      5  C   UNL     1     -21.769 -11.352  -5.734  1.00  0.00     0.000 C 
BRANCH   5   6
ATOM      6  C   UNL     1     -22.635 -10.575  -6.750  1.00  0.00     0.000 C 
BRANCH   6   7
ATOM      7  C   UNL     1     -21.833  -9.570  -7.597  1.00  0.00     0.006 C 
BRANCH   7   8
ATOM      8  C   UNL     1     -20.438  -9.256  -7.038  1.00  0.00     0.053 C 
BRANCH   8   9
ATOM      9  C   UNL     1     -19.419  -9.121  -8.128  1.00  0.00     0.041 C 
ATOM     10  O   UNL     1     -18.302  -9.695  -8.031  1.00  0.00    -0.550 OA
ATOM     11  O   UNL     1     -19.709  -8.369  -9.260  1.00  0.00    -0.550 OA
ENDBRANCH   8   9
ENDBRANCH   7   8
ENDBRANCH   6   7
ENDBRANCH   5   6
ENDBRANCH   4   5
ENDBRANCH   3   4
ENDBRANCH   2   3
ENDBRANCH   1   2
BRANCH   1  12
ATOM     12  C   UNL     1     -22.956  -7.237  -4.571  1.00  0.00     0.000 C 
BRANCH  12  13
ATOM     13  C   UNL     1     -24.237  -8.025  -4.246  1.00  0.00    -0.000 C 
BRANCH  13  14
ATOM     14  C   UNL     1     -25.169  -8.169  -5.460  1.00  0.00    -0.000 C 
BRANCH  14  15
ATOM     15  C   UNL     1     -24.807  -7.207  -6.602  1.00  0.00    -0.000 C 
BRANCH  15  16
ATOM     16  C   UNL     1     -26.018  -6.347  -6.996  1.00  0.00    -0.000 C 
BRANCH  16  17
ATOM     17  C   UNL     1     -26.754  -5.762  -5.781  1.00  0.00    -0.000 C 
BRANCH  17  18
ATOM     18  C   UNL     1     -26.352  -4.306  -5.491  1.00  0.00    -0.000 C 
BRANCH  18  19
ATOM     19  C   UNL     1     -25.217  -4.203  -4.459  1.00  0.00    -0.003 C 
ATOM     20  C   UNL     1     -25.614  -4.748  -3.086  1.00  0.00     0.004 C 
ENDBRANCH  18  19
ENDBRANCH  17  18
ENDBRANCH  16  17
ENDBRANCH  15  16
ENDBRANCH  14  15
ENDBRANCH  13  14
ENDBRANCH  12  13
ENDBRANCH   1  12
TORSDOF 16
ENDMDL
