MODEL 1
REMARK VINA RESULT:    -3.840      0.000      0.000
REMARK INTER + INTRA:          -3.840
REMARK INTER:                  -3.840
REMARK INTRA:                   0.000
REMARK UNBOUND:                 0.000
REMARK SMILES CC(C)=C1CC[C@H](C)CC1=O
REMARK SMILES IDX 8 1 7 2 6 3 5 4 4 5 2 6 1 7 3 8 10 9 11 10 9 11
REMARK H PARENT
REMARK Flexibility Score: inf
ROOT
ATOM      1  C   UNL     1     175.875 180.739 237.131  1.00  0.00     0.008 C 
ATOM      2  C   UNL     1     176.839 179.557 236.974  1.00  0.00    -0.006 C 
ATOM      3  C   UNL     1     176.632 178.867 235.615  1.00  0.00     0.008 C 
ATOM      4  C   UNL     1     177.516 177.620 235.483  1.00  0.00     0.039 C 
ATOM      5  C   UNL     1     178.982 177.911 235.775  1.00  0.00    -0.006 C 
ATOM      6  C   UNL     1     179.980 177.223 235.146  1.00  0.00    -0.070 C 
ATOM      7  C   UNL     1     179.672 176.133 234.146  1.00  0.00     0.039 C 
ATOM      8  C   UNL     1     181.439 177.540 235.386  1.00  0.00     0.039 C 
ATOM      9  C   UNL     1     179.252 178.897 236.864  1.00  0.00     0.159 C 
ATOM     10  O   UNL     1     180.272 178.802 237.596  1.00  0.00    -0.295 OA
ATOM     11  C   UNL     1     178.294 180.027 237.107  1.00  0.00     0.084 C 
ENDROOT
TORSDOF 0
ENDMDL
MODEL 2
REMARK VINA RESULT:    -3.785      2.721      4.498
REMARK INTER + INTRA:          -3.785
REMARK INTER:                  -3.785
REMARK INTRA:                   0.000
REMARK UNBOUND:                 0.000
REMARK SMILES CC(C)=C1CC[C@H](C)CC1=O
REMARK SMILES IDX 8 1 7 2 6 3 5 4 4 5 2 6 1 7 3 8 10 9 11 10 9 11
REMARK H PARENT
REMARK Flexibility Score: inf
ROOT
ATOM      1  C   UNL     1     181.247 183.320 238.658  1.00  0.00     0.008 C 
ATOM      2  C   UNL     1     180.430 182.369 237.775  1.00  0.00    -0.006 C 
ATOM      3  C   UNL     1     180.390 180.960 238.390  1.00  0.00     0.008 C 
ATOM      4  C   UNL     1     179.665 179.971 237.469  1.00  0.00     0.039 C 
ATOM      5  C   UNL     1     178.287 180.466 237.050  1.00  0.00    -0.006 C 
ATOM      6  C   UNL     1     177.262 179.595 236.814  1.00  0.00    -0.070 C 
ATOM      7  C   UNL     1     177.456 178.101 236.942  1.00  0.00     0.039 C 
ATOM      8  C   UNL     1     175.876 180.077 236.452  1.00  0.00     0.039 C 
ATOM      9  C   UNL     1     178.165 181.933 236.802  1.00  0.00     0.159 C 
ATOM     10  O   UNL     1     177.370 182.387 235.937  1.00  0.00    -0.295 OA
ATOM     11  C   UNL     1     179.002 182.900 237.588  1.00  0.00     0.084 C 
ENDROOT
TORSDOF 0
ENDMDL
MODEL 3
REMARK VINA RESULT:    -3.777      2.554      4.495
REMARK INTER + INTRA:          -3.777
REMARK INTER:                  -3.777
REMARK INTRA:                   0.000
REMARK UNBOUND:                 0.000
REMARK SMILES CC(C)=C1CC[C@H](C)CC1=O
REMARK SMILES IDX 8 1 7 2 6 3 5 4 4 5 2 6 1 7 3 8 10 9 11 10 9 11
REMARK H PARENT
REMARK Flexibility Score: inf
ROOT
ATOM      1  C   UNL     1     176.621 178.871 236.185  1.00  0.00     0.008 C 
ATOM      2  C   UNL     1     177.744 179.889 236.414  1.00  0.00    -0.006 C 
ATOM      3  C   UNL     1     177.208 181.129 237.151  1.00  0.00     0.008 C 
ATOM      4  C   UNL     1     178.294 182.202 237.298  1.00  0.00     0.039 C 
ATOM      5  C   UNL     1     179.572 181.658 237.922  1.00  0.00    -0.006 C 
ATOM      6  C   UNL     1     180.368 182.442 238.706  1.00  0.00    -0.070 C 
ATOM      7  C   UNL     1     180.024 183.889 238.974  1.00  0.00     0.039 C 
ATOM      8  C   UNL     1     181.610 181.898 239.376  1.00  0.00     0.039 C 
ATOM      9  C   UNL     1     179.954 180.268 237.529  1.00  0.00     0.159 C 
ATOM     10  O   UNL     1     181.161 179.919 237.448  1.00  0.00    -0.295 OA
ATOM     11  C   UNL     1     178.889 179.256 237.217  1.00  0.00     0.084 C 
ENDROOT
TORSDOF 0
ENDMDL
MODEL 4
REMARK VINA RESULT:    -3.754     18.840     20.299
REMARK INTER + INTRA:          -3.754
REMARK INTER:                  -3.754
REMARK INTRA:                   0.000
REMARK UNBOUND:                 0.000
REMARK SMILES CC(C)=C1CC[C@H](C)CC1=O
REMARK SMILES IDX 8 1 7 2 6 3 5 4 4 5 2 6 1 7 3 8 10 9 11 10 9 11
REMARK H PARENT
REMARK Flexibility Score: inf
ROOT
ATOM      1  C   UNL     1     196.125 193.887 236.278  1.00  0.00     0.008 C 
ATOM      2  C   UNL     1     194.986 192.879 236.467  1.00  0.00    -0.006 C 
ATOM      3  C   UNL     1     195.503 191.599 237.145  1.00  0.00     0.008 C 
ATOM      4  C   UNL     1     194.400 190.539 237.249  1.00  0.00     0.039 C 
ATOM      5  C   UNL     1     193.133 191.077 237.903  1.00  0.00    -0.006 C 
ATOM      6  C   UNL     1     192.326 190.272 238.654  1.00  0.00    -0.070 C 
ATOM      7  C   UNL     1     192.646 188.809 238.856  1.00  0.00     0.039 C 
ATOM      8  C   UNL     1     191.097 190.807 239.353  1.00  0.00     0.039 C 
ATOM      9  C   UNL     1     192.774 192.489 237.573  1.00  0.00     0.159 C 
ATOM     10  O   UNL     1     191.573 192.862 237.512  1.00  0.00    -0.295 OA
ATOM     11  C   UNL     1     193.855 193.495 237.302  1.00  0.00     0.084 C 
ENDROOT
TORSDOF 0
ENDMDL
MODEL 5
REMARK VINA RESULT:    -3.718     17.413     18.750
REMARK INTER + INTRA:          -3.718
REMARK INTER:                  -3.718
REMARK INTRA:                   0.000
REMARK UNBOUND:                 0.000
REMARK SMILES CC(C)=C1CC[C@H](C)CC1=O
REMARK SMILES IDX 8 1 7 2 6 3 5 4 4 5 2 6 1 7 3 8 10 9 11 10 9 11
REMARK H PARENT
REMARK Flexibility Score: inf
ROOT
ATOM      1  C   UNL     1     190.941 188.185 241.229  1.00  0.00     0.008 C 
ATOM      2  C   UNL     1     191.339 188.943 239.957  1.00  0.00    -0.006 C 
ATOM      3  C   UNL     1     191.303 190.462 240.199  1.00  0.00     0.008 C 
ATOM      4  C   UNL     1     191.599 191.238 238.909  1.00  0.00     0.039 C 
ATOM      5  C   UNL     1     192.886 190.783 238.236  1.00  0.00    -0.006 C 
ATOM      6  C   UNL     1     193.661 191.654 237.524  1.00  0.00    -0.070 C 
ATOM      7  C   UNL     1     193.264 193.103 237.361  1.00  0.00     0.039 C 
ATOM      8  C   UNL     1     194.969 191.227 236.898  1.00  0.00     0.039 C 
ATOM      9  C   UNL     1     193.180 189.320 238.302  1.00  0.00     0.159 C 
ATOM     10  O   UNL     1     193.791 188.732 237.371  1.00  0.00    -0.295 OA
ATOM     11  C   UNL     1     192.739 188.519 239.493  1.00  0.00     0.084 C 
ENDROOT
TORSDOF 0
ENDMDL
MODEL 6
REMARK VINA RESULT:    -3.700      4.300      5.939
REMARK INTER + INTRA:          -3.700
REMARK INTER:                  -3.700
REMARK INTRA:                   0.000
REMARK UNBOUND:                 0.000
REMARK SMILES CC(C)=C1CC[C@H](C)CC1=O
REMARK SMILES IDX 8 1 7 2 6 3 5 4 4 5 2 6 1 7 3 8 10 9 11 10 9 11
REMARK H PARENT
REMARK Flexibility Score: inf
ROOT
ATOM      1  C   UNL     1     181.845 184.552 241.212  1.00  0.00     0.008 C 
ATOM      2  C   UNL     1     181.439 183.799 239.940  1.00  0.00    -0.006 C 
ATOM      3  C   UNL     1     181.467 182.281 240.178  1.00  0.00     0.008 C 
ATOM      4  C   UNL     1     181.162 181.509 238.888  1.00  0.00     0.039 C 
ATOM      5  C   UNL     1     179.874 181.973 238.221  1.00  0.00    -0.006 C 
ATOM      6  C   UNL     1     179.093 181.108 237.510  1.00  0.00    -0.070 C 
ATOM      7  C   UNL     1     179.480 179.657 237.342  1.00  0.00     0.039 C 
ATOM      8  C   UNL     1     177.784 181.544 236.890  1.00  0.00     0.039 C 
ATOM      9  C   UNL     1     179.589 183.437 238.292  1.00  0.00     0.159 C 
ATOM     10  O   UNL     1     178.978 184.031 237.365  1.00  0.00    -0.295 OA
ATOM     11  C   UNL     1     180.039 184.233 239.483  1.00  0.00     0.084 C 
ENDROOT
TORSDOF 0
ENDMDL
MODEL 7
REMARK VINA RESULT:    -3.698     16.366     18.304
REMARK INTER + INTRA:          -3.698
REMARK INTER:                  -3.698
REMARK INTRA:                   0.000
REMARK UNBOUND:                 0.000
REMARK SMILES CC(C)=C1CC[C@H](C)CC1=O
REMARK SMILES IDX 8 1 7 2 6 3 5 4 4 5 2 6 1 7 3 8 10 9 11 10 9 11
REMARK H PARENT
REMARK Flexibility Score: inf
ROOT
ATOM      1  C   UNL     1     193.613 183.238 222.891  1.00  0.00     0.008 C 
ATOM      2  C   UNL     1     192.183 183.307 223.439  1.00  0.00    -0.006 C 
ATOM      3  C   UNL     1     191.531 184.653 223.081  1.00  0.00     0.008 C 
ATOM      4  C   UNL     1     190.138 184.782 223.708  1.00  0.00     0.039 C 
ATOM      5  C   UNL     1     189.241 183.594 223.386  1.00  0.00    -0.006 C 
ATOM      6  C   UNL     1     187.889 183.740 223.259  1.00  0.00    -0.070 C 
ATOM      7  C   UNL     1     187.224 185.083 223.447  1.00  0.00     0.039 C 
ATOM      8  C   UNL     1     186.996 182.579 222.885  1.00  0.00     0.039 C 
ATOM      9  C   UNL     1     189.911 182.260 223.340  1.00  0.00     0.159 C 
ATOM     10  O   UNL     1     189.305 181.210 223.680  1.00  0.00    -0.295 OA
ATOM     11  C   UNL     1     191.338 182.152 222.886  1.00  0.00     0.084 C 
ENDROOT
TORSDOF 0
ENDMDL
MODEL 8
REMARK VINA RESULT:    -3.681     17.328     17.835
REMARK INTER + INTRA:          -3.681
REMARK INTER:                  -3.681
REMARK INTRA:                   0.000
REMARK UNBOUND:                 0.000
REMARK SMILES CC(C)=C1CC[C@H](C)CC1=O
REMARK SMILES IDX 8 1 7 2 6 3 5 4 4 5 2 6 1 7 3 8 10 9 11 10 9 11
REMARK H PARENT
REMARK Flexibility Score: inf
ROOT
ATOM      1  C   UNL     1     180.615 188.062 223.484  1.00  0.00     0.008 C 
ATOM      2  C   UNL     1     181.981 188.612 223.058  1.00  0.00    -0.006 C 
ATOM      3  C   UNL     1     182.088 190.110 223.388  1.00  0.00     0.008 C 
ATOM      4  C   UNL     1     183.408 190.700 222.876  1.00  0.00     0.039 C 
ATOM      5  C   UNL     1     184.622 189.909 223.346  1.00  0.00    -0.006 C 
ATOM      6  C   UNL     1     185.820 190.522 223.580  1.00  0.00    -0.070 C 
ATOM      7  C   UNL     1     185.996 192.007 223.368  1.00  0.00     0.039 C 
ATOM      8  C   UNL     1     187.016 189.757 224.099  1.00  0.00     0.039 C 
ATOM      9  C   UNL     1     184.452 188.427 223.416  1.00  0.00     0.159 C 
ATOM     10  O   UNL     1     185.415 187.646 223.194  1.00  0.00    -0.295 OA
ATOM     11  C   UNL     1     183.112 187.840 223.752  1.00  0.00     0.084 C 
ENDROOT
TORSDOF 0
ENDMDL
MODEL 9
REMARK VINA RESULT:    -3.665     17.420     17.993
REMARK INTER + INTRA:          -3.665
REMARK INTER:                  -3.665
REMARK INTRA:                   0.000
REMARK UNBOUND:                 0.000
REMARK SMILES CC(C)=C1CC[C@H](C)CC1=O
REMARK SMILES IDX 8 1 7 2 6 3 5 4 4 5 2 6 1 7 3 8 10 9 11 10 9 11
REMARK H PARENT
REMARK Flexibility Score: inf
ROOT
ATOM      1  C   UNL     1     186.105 191.289 223.105  1.00  0.00     0.008 C 
ATOM      2  C   UNL     1     184.724 190.793 223.549  1.00  0.00    -0.006 C 
ATOM      3  C   UNL     1     183.611 191.613 222.875  1.00  0.00     0.008 C 
ATOM      4  C   UNL     1     182.226 191.199 223.386  1.00  0.00     0.039 C 
ATOM      5  C   UNL     1     181.990 189.698 223.282  1.00  0.00    -0.006 C 
ATOM      6  C   UNL     1     180.743 189.189 223.056  1.00  0.00    -0.070 C 
ATOM      7  C   UNL     1     179.541 190.094 222.915  1.00  0.00     0.039 C 
ATOM      8  C   UNL     1     180.506 187.705 222.896  1.00  0.00     0.039 C 
ATOM      9  C   UNL     1     183.172 188.828 223.560  1.00  0.00     0.159 C 
ATOM     10  O   UNL     1     183.040 187.691 224.087  1.00  0.00    -0.295 OA
ATOM     11  C   UNL     1     184.553 189.304 223.215  1.00  0.00     0.084 C 
ENDROOT
TORSDOF 0
ENDMDL
