MODEL 1
REMARK VINA RESULT:    -4.934      0.000      0.000
REMARK INTER + INTRA:          -7.102
REMARK INTER:                  -6.664
REMARK INTRA:                  -0.438
REMARK UNBOUND:                -0.438
REMARK SMILES C[C@H](O)[C@H](O)[C@@H](O)[C@@H](O)C=O
REMARK SMILES IDX 4 1 2 2 1 3 3 4 6 6 8 7 10 8 11 9 9 10 7 12 5 14
REMARK H PARENT 3 5 9 11 7 13 5 15
REMARK Flexibility Score: inf
ROOT
ATOM      1  C   UNL     1      15.661 -12.976  17.257  1.00  0.00     0.174 C 
ENDROOT
BRANCH   1   2
ATOM      2  C   UNL     1      16.367 -13.422  15.946  1.00  0.00     0.142 C 
ATOM      3  C   UNL     1      15.425 -13.350  14.734  1.00  0.00     0.041 C 
BRANCH   2   4
ATOM      4  O   UNL     1      16.809 -14.748  16.080  1.00  0.00    -0.391 OA
ATOM      5  H   UNL     1      17.786 -14.711  16.251  1.00  0.00     0.211 HD
ENDBRANCH   2   4
ENDBRANCH   1   2
BRANCH   1   6
ATOM      6  C   UNL     1      16.014 -13.850  18.501  1.00  0.00     0.181 C 
BRANCH   6   7
ATOM      7  C   UNL     1      15.487 -13.320  19.860  1.00  0.00     0.209 C 
BRANCH   7   8
ATOM      8  C   UNL     1      15.038 -14.424  20.782  1.00  0.00     0.258 C 
ATOM      9  O   UNL     1      13.921 -14.906  20.674  1.00  0.00    -0.300 OA
ENDBRANCH   7   8
BRANCH   7  10
ATOM     10  O   UNL     1      14.448 -12.395  19.658  1.00  0.00    -0.383 OA
ATOM     11  H   UNL     1      14.830 -11.492  19.813  1.00  0.00     0.211 HD
ENDBRANCH   7  10
ENDBRANCH   6   7
BRANCH   6  12
ATOM     12  O   UNL     1      17.415 -13.944  18.598  1.00  0.00    -0.387 OA
ATOM     13  H   UNL     1      17.729 -14.499  17.837  1.00  0.00     0.211 HD
ENDBRANCH   6  12
ENDBRANCH   1   6
BRANCH   1  14
ATOM     14  O   UNL     1      15.958 -11.630  17.542  1.00  0.00    -0.388 OA
ATOM     15  H   UNL     1      15.787 -11.486  18.510  1.00  0.00     0.211 HD
ENDBRANCH   1  14
TORSDOF 8
ENDMDL
MODEL 2
REMARK VINA RESULT:    -4.806      0.943      4.579
REMARK INTER + INTRA:          -6.930
REMARK INTER:                  -6.490
REMARK INTRA:                  -0.440
REMARK UNBOUND:                -0.438
REMARK SMILES C[C@H](O)[C@H](O)[C@@H](O)[C@@H](O)C=O
REMARK SMILES IDX 4 1 2 2 1 3 3 4 6 6 8 7 10 8 11 9 9 10 7 12 5 14
REMARK H PARENT 3 5 9 11 7 13 5 15
REMARK Flexibility Score: inf
ROOT
ATOM      1  C   UNL     1      16.036 -13.823  18.506  1.00  0.00     0.174 C 
ENDROOT
BRANCH   1   2
ATOM      2  C   UNL     1      15.490 -13.328  19.874  1.00  0.00     0.142 C 
ATOM      3  C   UNL     1      14.887 -14.475  20.701  1.00  0.00     0.041 C 
BRANCH   2   4
ATOM      4  O   UNL     1      14.487 -12.369  19.659  1.00  0.00    -0.391 OA
ATOM      5  H   UNL     1      14.929 -11.480  19.676  1.00  0.00     0.211 HD
ENDBRANCH   2   4
ENDBRANCH   1   2
BRANCH   1   6
ATOM      6  C   UNL     1      15.589 -12.956  17.288  1.00  0.00     0.181 C 
BRANCH   6   7
ATOM      7  C   UNL     1      16.185 -13.371  15.918  1.00  0.00     0.209 C 
BRANCH   7   8
ATOM      8  C   UNL     1      15.177 -13.308  14.800  1.00  0.00     0.258 C 
ATOM      9  O   UNL     1      15.541 -13.327  13.634  1.00  0.00    -0.300 OA
ENDBRANCH   7   8
BRANCH   7  10
ATOM     10  O   UNL     1      16.752 -14.655  15.997  1.00  0.00    -0.383 OA
ATOM     11  H   UNL     1      17.724 -14.553  15.820  1.00  0.00     0.211 HD
ENDBRANCH   7  10
ENDBRANCH   6   7
BRANCH   6  12
ATOM     12  O   UNL     1      15.966 -11.621  17.527  1.00  0.00    -0.387 OA
ATOM     13  H   UNL     1      15.329 -11.040  17.036  1.00  0.00     0.211 HD
ENDBRANCH   6  12
ENDBRANCH   1   6
BRANCH   1  14
ATOM     14  O   UNL     1      17.442 -13.887  18.532  1.00  0.00    -0.388 OA
ATOM     15  H   UNL     1      17.722 -14.562  17.859  1.00  0.00     0.211 HD
ENDBRANCH   1  14
TORSDOF 8
ENDMDL
MODEL 3
REMARK VINA RESULT:    -4.701      7.048      8.716
REMARK INTER + INTRA:          -6.788
REMARK INTER:                  -6.159
REMARK INTRA:                  -0.629
REMARK UNBOUND:                -0.438
REMARK SMILES C[C@H](O)[C@H](O)[C@@H](O)[C@@H](O)C=O
REMARK SMILES IDX 4 1 2 2 1 3 3 4 6 6 8 7 10 8 11 9 9 10 7 12 5 14
REMARK H PARENT 3 5 9 11 7 13 5 15
REMARK Flexibility Score: inf
ROOT
ATOM      1  C   UNL     1      21.548 -10.097  23.450  1.00  0.00     0.174 C 
ENDROOT
BRANCH   1   2
ATOM      2  C   UNL     1      20.523  -9.705  24.550  1.00  0.00     0.142 C 
ATOM      3  C   UNL     1      21.005  -8.509  25.385  1.00  0.00     0.041 C 
BRANCH   2   4
ATOM      4  O   UNL     1      20.326 -10.793  25.416  1.00  0.00    -0.391 OA
ATOM      5  H   UNL     1      20.463 -10.456  26.340  1.00  0.00     0.211 HD
ENDBRANCH   2   4
ENDBRANCH   1   2
BRANCH   1   6
ATOM      6  C   UNL     1      21.373 -11.547  22.900  1.00  0.00     0.181 C 
BRANCH   6   7
ATOM      7  C   UNL     1      21.934 -11.793  21.475  1.00  0.00     0.209 C 
BRANCH   7   8
ATOM      8  C   UNL     1      21.640 -13.180  20.964  1.00  0.00     0.258 C 
ATOM      9  O   UNL     1      20.741 -13.366  20.159  1.00  0.00    -0.300 OA
ENDBRANCH   7   8
BRANCH   7  10
ATOM     10  O   UNL     1      23.316 -11.540  21.441  1.00  0.00    -0.383 OA
ATOM     11  H   UNL     1      23.765 -12.323  21.856  1.00  0.00     0.211 HD
ENDBRANCH   7  10
ENDBRANCH   6   7
BRANCH   6  12
ATOM     12  O   UNL     1      19.999 -11.851  22.871  1.00  0.00    -0.387 OA
ATOM     13  H   UNL     1      19.907 -12.781  22.537  1.00  0.00     0.211 HD
ENDBRANCH   6  12
ENDBRANCH   1   6
BRANCH   1  14
ATOM     14  O   UNL     1      21.490  -9.189  22.376  1.00  0.00    -0.388 OA
ATOM     15  H   UNL     1      22.412  -9.087  22.021  1.00  0.00     0.211 HD
ENDBRANCH   1  14
TORSDOF 8
ENDMDL
MODEL 4
REMARK VINA RESULT:    -4.686      1.574      2.534
REMARK INTER + INTRA:          -6.768
REMARK INTER:                  -6.405
REMARK INTRA:                  -0.363
REMARK UNBOUND:                -0.438
REMARK SMILES C[C@H](O)[C@H](O)[C@@H](O)[C@@H](O)C=O
REMARK SMILES IDX 4 1 2 2 1 3 3 4 6 6 8 7 10 8 11 9 9 10 7 12 5 14
REMARK H PARENT 3 5 9 11 7 13 5 15
REMARK Flexibility Score: inf
ROOT
ATOM      1  C   UNL     1      16.201 -13.385  18.942  1.00  0.00     0.174 C 
ENDROOT
BRANCH   1   2
ATOM      2  C   UNL     1      15.746 -13.184  17.470  1.00  0.00     0.142 C 
ATOM      3  C   UNL     1      16.765 -13.754  16.471  1.00  0.00     0.041 C 
BRANCH   2   4
ATOM      4  O   UNL     1      15.598 -11.812  17.209  1.00  0.00    -0.391 OA
ATOM      5  H   UNL     1      15.942 -11.328  18.004  1.00  0.00     0.211 HD
ENDBRANCH   2   4
ENDBRANCH   1   2
BRANCH   1   6
ATOM      6  C   UNL     1      15.153 -14.112  19.841  1.00  0.00     0.181 C 
BRANCH   6   7
ATOM      7  C   UNL     1      14.495 -13.239  20.941  1.00  0.00     0.209 C 
BRANCH   7   8
ATOM      8  C   UNL     1      15.499 -12.437  21.727  1.00  0.00     0.258 C 
ATOM      9  O   UNL     1      16.377 -12.997  22.365  1.00  0.00    -0.300 OA
ENDBRANCH   7   8
BRANCH   7  10
ATOM     10  O   UNL     1      13.719 -14.034  21.801  1.00  0.00    -0.383 OA
ATOM     11  H   UNL     1      12.980 -14.413  21.257  1.00  0.00     0.211 HD
ENDBRANCH   7  10
ENDBRANCH   6   7
BRANCH   6  12
ATOM     12  O   UNL     1      15.788 -15.192  20.483  1.00  0.00    -0.387 OA
ATOM     13  H   UNL     1      15.187 -15.503  21.209  1.00  0.00     0.211 HD
ENDBRANCH   6  12
ENDBRANCH   1   6
BRANCH   1  14
ATOM     14  O   UNL     1      17.417 -14.094  18.989  1.00  0.00    -0.388 OA
ATOM     15  H   UNL     1      17.196 -15.059  19.061  1.00  0.00     0.211 HD
ENDBRANCH   1  14
TORSDOF 8
ENDMDL
MODEL 5
REMARK VINA RESULT:    -4.655      1.316      2.142
REMARK INTER + INTRA:          -6.726
REMARK INTER:                  -6.376
REMARK INTRA:                  -0.349
REMARK UNBOUND:                -0.438
REMARK SMILES C[C@H](O)[C@H](O)[C@@H](O)[C@@H](O)C=O
REMARK SMILES IDX 4 1 2 2 1 3 3 4 6 6 8 7 10 8 11 9 9 10 7 12 5 14
REMARK H PARENT 3 5 9 11 7 13 5 15
REMARK Flexibility Score: inf
ROOT
ATOM      1  C   UNL     1      16.310 -13.352  18.892  1.00  0.00     0.174 C 
ENDROOT
BRANCH   1   2
ATOM      2  C   UNL     1      15.724 -13.166  17.464  1.00  0.00     0.142 C 
ATOM      3  C   UNL     1      16.629 -13.784  16.387  1.00  0.00     0.041 C 
BRANCH   2   4
ATOM      4  O   UNL     1      15.588 -11.796  17.189  1.00  0.00    -0.391 OA
ATOM      5  H   UNL     1      16.349 -11.335  17.630  1.00  0.00     0.211 HD
ENDBRANCH   2   4
ENDBRANCH   1   2
BRANCH   1   6
ATOM      6  C   UNL     1      15.319 -13.997  19.910  1.00  0.00     0.181 C 
BRANCH   6   7
ATOM      7  C   UNL     1      15.005 -13.145  21.168  1.00  0.00     0.209 C 
BRANCH   7   8
ATOM      8  C   UNL     1      13.760 -13.600  21.884  1.00  0.00     0.258 C 
ATOM      9  O   UNL     1      13.201 -14.636  21.558  1.00  0.00    -0.300 OA
ENDBRANCH   7   8
BRANCH   7  10
ATOM     10  O   UNL     1      14.909 -11.785  20.829  1.00  0.00    -0.383 OA
ATOM     11  H   UNL     1      14.806 -11.740  19.842  1.00  0.00     0.211 HD
ENDBRANCH   7  10
ENDBRANCH   6   7
BRANCH   6  12
ATOM     12  O   UNL     1      15.864 -15.218  20.351  1.00  0.00    -0.387 OA
ATOM     13  H   UNL     1      16.307 -15.048  21.223  1.00  0.00     0.211 HD
ENDBRANCH   6  12
ENDBRANCH   1   6
BRANCH   1  14
ATOM     14  O   UNL     1      17.487 -14.124  18.844  1.00  0.00    -0.388 OA
ATOM     15  H   UNL     1      18.186 -13.574  18.404  1.00  0.00     0.211 HD
ENDBRANCH   1  14
TORSDOF 8
ENDMDL
MODEL 6
REMARK VINA RESULT:    -4.601      7.481      8.509
REMARK INTER + INTRA:          -6.653
REMARK INTER:                  -5.934
REMARK INTRA:                  -0.719
REMARK UNBOUND:                -0.438
REMARK SMILES C[C@H](O)[C@H](O)[C@@H](O)[C@@H](O)C=O
REMARK SMILES IDX 4 1 2 2 1 3 3 4 6 6 8 7 10 8 11 9 9 10 7 12 5 14
REMARK H PARENT 3 5 9 11 7 13 5 15
REMARK Flexibility Score: inf
ROOT
ATOM      1  C   UNL     1      21.202 -11.660  22.852  1.00  0.00     0.174 C 
ENDROOT
BRANCH   1   2
ATOM      2  C   UNL     1      21.758 -11.901  21.421  1.00  0.00     0.142 C 
ATOM      3  C   UNL     1      21.560 -13.355  20.965  1.00  0.00     0.041 C 
BRANCH   2   4
ATOM      4  O   UNL     1      23.133 -11.618  21.399  1.00  0.00    -0.391 OA
ATOM      5  H   UNL     1      23.601 -12.435  21.712  1.00  0.00     0.211 HD
ENDBRANCH   2   4
ENDBRANCH   1   2
BRANCH   1   6
ATOM      6  C   UNL     1      21.513 -10.243  23.429  1.00  0.00     0.181 C 
BRANCH   6   7
ATOM      7  C   UNL     1      20.548  -9.746  24.536  1.00  0.00     0.209 C 
BRANCH   7   8
ATOM      8  C   UNL     1      21.068  -8.530  25.259  1.00  0.00     0.258 C 
ATOM      9  O   UNL     1      22.071  -7.956  24.865  1.00  0.00    -0.300 OA
ENDBRANCH   7   8
BRANCH   7  10
ATOM     10  O   UNL     1      20.272 -10.779  25.448  1.00  0.00    -0.383 OA
ATOM     11  H   UNL     1      21.140 -11.057  25.842  1.00  0.00     0.211 HD
ENDBRANCH   7  10
ENDBRANCH   6   7
BRANCH   6  12
ATOM     12  O   UNL     1      21.464  -9.311  22.375  1.00  0.00    -0.387 OA
ATOM     13  H   UNL     1      22.383  -8.959  22.247  1.00  0.00     0.211 HD
ENDBRANCH   6  12
ENDBRANCH   1   6
BRANCH   1  14
ATOM     14  O   UNL     1      19.810 -11.871  22.882  1.00  0.00    -0.388 OA
ATOM     15  H   UNL     1      19.659 -12.852  22.913  1.00  0.00     0.211 HD
ENDBRANCH   1  14
TORSDOF 8
ENDMDL
MODEL 7
REMARK VINA RESULT:    -4.431      1.538      4.786
REMARK INTER + INTRA:          -6.423
REMARK INTER:                  -5.861
REMARK INTRA:                  -0.562
REMARK UNBOUND:                -0.438
REMARK SMILES C[C@H](O)[C@H](O)[C@@H](O)[C@@H](O)C=O
REMARK SMILES IDX 4 1 2 2 1 3 3 4 6 6 8 7 10 8 11 9 9 10 7 12 5 14
REMARK H PARENT 3 5 9 11 7 13 5 15
REMARK Flexibility Score: inf
ROOT
ATOM      1  C   UNL     1      14.876 -14.043  20.630  1.00  0.00     0.174 C 
ENDROOT
BRANCH   1   2
ATOM      2  C   UNL     1      15.286 -12.815  21.490  1.00  0.00     0.142 C 
ATOM      3  C   UNL     1      16.608 -13.052  22.236  1.00  0.00     0.041 C 
BRANCH   2   4
ATOM      4  O   UNL     1      14.287 -12.555  22.441  1.00  0.00    -0.391 OA
ATOM      5  H   UNL     1      13.977 -13.434  22.783  1.00  0.00     0.211 HD
ENDBRANCH   2   4
ENDBRANCH   1   2
BRANCH   1   6
ATOM      6  C   UNL     1      14.874 -13.775  19.093  1.00  0.00     0.181 C 
BRANCH   6   7
ATOM      7  C   UNL     1      16.231 -13.324  18.492  1.00  0.00     0.209 C 
BRANCH   7   8
ATOM      8  C   UNL     1      16.210 -13.263  16.986  1.00  0.00     0.258 C 
ATOM      9  O   UNL     1      15.560 -12.405  16.409  1.00  0.00    -0.300 OA
ENDBRANCH   7   8
BRANCH   7  10
ATOM     10  O   UNL     1      17.268 -14.161  18.936  1.00  0.00    -0.383 OA
ATOM     11  H   UNL     1      17.882 -13.599  19.478  1.00  0.00     0.211 HD
ENDBRANCH   7  10
ENDBRANCH   6   7
BRANCH   6  12
ATOM     12  O   UNL     1      13.932 -12.767  18.816  1.00  0.00    -0.387 OA
ATOM     13  H   UNL     1      13.566 -12.455  19.684  1.00  0.00     0.211 HD
ENDBRANCH   6  12
ENDBRANCH   1   6
BRANCH   1  14
ATOM     14  O   UNL     1      15.717 -15.138  20.904  1.00  0.00    -0.388 OA
ATOM     15  H   UNL     1      16.653 -14.835  20.772  1.00  0.00     0.211 HD
ENDBRANCH   1  14
TORSDOF 8
ENDMDL
MODEL 8
REMARK VINA RESULT:    -4.359      1.322      4.344
REMARK INTER + INTRA:          -6.326
REMARK INTER:                  -5.818
REMARK INTRA:                  -0.508
REMARK UNBOUND:                -0.438
REMARK SMILES C[C@H](O)[C@H](O)[C@@H](O)[C@@H](O)C=O
REMARK SMILES IDX 4 1 2 2 1 3 3 4 6 6 8 7 10 8 11 9 9 10 7 12 5 14
REMARK H PARENT 3 5 9 11 7 13 5 15
REMARK Flexibility Score: inf
ROOT
ATOM      1  C   UNL     1      15.468 -12.870  19.963  1.00  0.00     0.174 C 
ENDROOT
BRANCH   1   2
ATOM      2  C   UNL     1      15.428 -13.642  21.311  1.00  0.00     0.142 C 
ATOM      3  C   UNL     1      16.418 -13.064  22.334  1.00  0.00     0.041 C 
BRANCH   2   4
ATOM      4  O   UNL     1      15.764 -14.988  21.090  1.00  0.00    -0.391 OA
ATOM      5  H   UNL     1      16.609 -15.160  21.582  1.00  0.00     0.211 HD
ENDBRANCH   2   4
ENDBRANCH   1   2
BRANCH   1   6
ATOM      6  C   UNL     1      15.384 -13.783  18.700  1.00  0.00     0.181 C 
BRANCH   6   7
ATOM      7  C   UNL     1      15.599 -13.066  17.342  1.00  0.00     0.209 C 
BRANCH   7   8
ATOM      8  C   UNL     1      16.663 -13.721  16.499  1.00  0.00     0.258 C 
ATOM      9  O   UNL     1      17.821 -13.763  16.885  1.00  0.00    -0.300 OA
ENDBRANCH   7   8
BRANCH   7  10
ATOM     10  O   UNL     1      15.899 -11.708  17.545  1.00  0.00    -0.383 OA
ATOM     11  H   UNL     1      15.721 -11.241  16.687  1.00  0.00     0.211 HD
ENDBRANCH   7  10
ENDBRANCH   6   7
BRANCH   6  12
ATOM     12  O   UNL     1      14.111 -14.382  18.666  1.00  0.00    -0.387 OA
ATOM     13  H   UNL     1      13.438 -13.654  18.702  1.00  0.00     0.211 HD
ENDBRANCH   6  12
ENDBRANCH   1   6
BRANCH   1  14
ATOM     14  O   UNL     1      14.431 -11.919  19.911  1.00  0.00    -0.388 OA
ATOM     15  H   UNL     1      14.835 -11.052  19.642  1.00  0.00     0.211 HD
ENDBRANCH   1  14
TORSDOF 8
ENDMDL
MODEL 9
REMARK VINA RESULT:    -4.347      6.427      7.332
REMARK INTER + INTRA:          -6.309
REMARK INTER:                  -6.008
REMARK INTRA:                  -0.302
REMARK UNBOUND:                -0.438
REMARK SMILES C[C@H](O)[C@H](O)[C@@H](O)[C@@H](O)C=O
REMARK SMILES IDX 4 1 2 2 1 3 3 4 6 6 8 7 10 8 11 9 9 10 7 12 5 14
REMARK H PARENT 3 5 9 11 7 13 5 15
REMARK Flexibility Score: inf
ROOT
ATOM      1  C   UNL     1      21.513 -13.286  21.211  1.00  0.00     0.174 C 
ENDROOT
BRANCH   1   2
ATOM      2  C   UNL     1      22.764 -14.012  20.642  1.00  0.00     0.142 C 
ATOM      3  C   UNL     1      22.424 -14.861  19.408  1.00  0.00     0.041 C 
BRANCH   2   4
ATOM      4  O   UNL     1      23.299 -14.861  21.624  1.00  0.00    -0.391 OA
ATOM      5  H   UNL     1      22.854 -15.743  21.518  1.00  0.00     0.211 HD
ENDBRANCH   2   4
ENDBRANCH   1   2
BRANCH   1   6
ATOM      6  C   UNL     1      21.839 -12.009  22.047  1.00  0.00     0.181 C 
BRANCH   6   7
ATOM      7  C   UNL     1      20.617 -11.293  22.678  1.00  0.00     0.209 C 
BRANCH   7   8
ATOM      8  C   UNL     1      20.950 -10.607  23.978  1.00  0.00     0.258 C 
ATOM      9  O   UNL     1      20.410 -10.954  25.017  1.00  0.00    -0.300 OA
ENDBRANCH   7   8
BRANCH   7  10
ATOM     10  O   UNL     1      19.556 -12.197  22.856  1.00  0.00    -0.383 OA
ATOM     11  H   UNL     1      18.798 -11.865  22.306  1.00  0.00     0.211 HD
ENDBRANCH   7  10
ENDBRANCH   6   7
BRANCH   6  12
ATOM     12  O   UNL     1      22.488 -11.081  21.210  1.00  0.00    -0.387 OA
ATOM     13  H   UNL     1      22.587 -10.237  21.723  1.00  0.00     0.211 HD
ENDBRANCH   6  12
ENDBRANCH   1   6
BRANCH   1  14
ATOM     14  O   UNL     1      20.629 -12.940  20.171  1.00  0.00    -0.388 OA
ATOM     15  H   UNL     1      21.146 -12.415  19.504  1.00  0.00     0.211 HD
ENDBRANCH   1  14
TORSDOF 8
ENDMDL
