MODEL 1
REMARK VINA RESULT:    -4.584      0.000      0.000
REMARK INTER + INTRA:          -6.258
REMARK INTER:                  -6.191
REMARK INTRA:                  -0.067
REMARK UNBOUND:                -0.067
REMARK SMILES [NH3+]CCCC[C@@H]([NH3+])C(=O)[O-]
REMARK SMILES IDX 4 1 3 2 2 3 1 4 5 8 6 9 7 10 8 14 9 15 10 16
REMARK H PARENT 1 5 1 6 1 7 7 11 7 12 7 13
REMARK Flexibility Score: inf
ROOT
ATOM      1  C   UNL     1      22.110  41.285   0.448  1.00  0.00     0.012 C 
ENDROOT
BRANCH   1   2
ATOM      2  C   UNL     1      21.960  42.736  -0.047  1.00  0.00     0.061 C 
BRANCH   2   3
ATOM      3  C   UNL     1      23.285  43.414  -0.437  1.00  0.00     0.258 C 
BRANCH   3   4
ATOM      4  N   UNL     1      23.335  43.748  -1.862  1.00  0.00    -0.358 N 
ATOM      5  H   UNL     1      23.052  42.928  -2.443  1.00  0.00     0.344 HD
ATOM      6  H   UNL     1      24.297  44.059  -2.129  1.00  0.00     0.344 HD
ATOM      7  H   UNL     1      22.667  44.531  -2.050  1.00  0.00     0.344 HD
ENDBRANCH   3   4
ENDBRANCH   2   3
ENDBRANCH   1   2
BRANCH   1   8
ATOM      8  C   UNL     1      22.775  41.172   1.840  1.00  0.00     0.072 C 
BRANCH   8   9
ATOM      9  C   UNL     1      22.702  39.749   2.441  1.00  0.00     0.227 C 
BRANCH   9  10
ATOM     10  N   UNL     1      23.135  38.735   1.470  1.00  0.00    -0.350 N 
ATOM     11  H   UNL     1      22.899  39.035   0.498  1.00  0.00     0.345 HD
ATOM     12  H   UNL     1      24.167  38.573   1.536  1.00  0.00     0.345 HD
ATOM     13  H   UNL     1      22.638  37.833   1.657  1.00  0.00     0.345 HD
ENDBRANCH   9  10
BRANCH   9  14
ATOM     14  C   UNL     1      23.561  39.673   3.675  1.00  0.00     0.099 C 
ATOM     15  O   UNL     1      24.355  38.708   3.836  1.00  0.00    -0.544 OA
ATOM     16  O   UNL     1      23.476  40.660   4.651  1.00  0.00    -0.544 OA
ENDBRANCH   9  14
ENDBRANCH   8   9
ENDBRANCH   1   8
TORSDOF 7
ENDMDL
MODEL 2
REMARK VINA RESULT:    -4.371      1.872      2.199
REMARK INTER + INTRA:          -5.972
REMARK INTER:                  -5.907
REMARK INTRA:                  -0.065
REMARK UNBOUND:                -0.067
REMARK SMILES [NH3+]CCCC[C@@H]([NH3+])C(=O)[O-]
REMARK SMILES IDX 4 1 3 2 2 3 1 4 5 8 6 9 7 10 8 14 9 15 10 16
REMARK H PARENT 1 5 1 6 1 7 7 11 7 12 7 13
REMARK Flexibility Score: inf
ROOT
ATOM      1  C   UNL     1      22.690  41.637   1.179  1.00  0.00     0.012 C 
ENDROOT
BRANCH   1   2
ATOM      2  C   UNL     1      22.249  42.456  -0.048  1.00  0.00     0.061 C 
BRANCH   2   3
ATOM      3  C   UNL     1      23.253  43.539  -0.483  1.00  0.00     0.258 C 
BRANCH   3   4
ATOM      4  N   UNL     1      23.300  43.695  -1.939  1.00  0.00    -0.358 N 
ATOM      5  H   UNL     1      24.160  44.213  -2.226  1.00  0.00     0.344 HD
ATOM      6  H   UNL     1      22.450  44.200  -2.277  1.00  0.00     0.344 HD
ATOM      7  H   UNL     1      23.324  42.747  -2.380  1.00  0.00     0.344 HD
ENDBRANCH   3   4
ENDBRANCH   2   3
ENDBRANCH   1   2
BRANCH   1   8
ATOM      8  C   UNL     1      22.175  40.178   1.165  1.00  0.00     0.072 C 
BRANCH   8   9
ATOM      9  C   UNL     1      22.993  39.231   2.074  1.00  0.00     0.227 C 
BRANCH   9  10
ATOM     10  N   UNL     1      23.182  39.805   3.413  1.00  0.00    -0.350 N 
ATOM     11  H   UNL     1      23.892  39.257   3.949  1.00  0.00     0.345 HD
ATOM     12  H   UNL     1      23.497  40.801   3.350  1.00  0.00     0.345 HD
ATOM     13  H   UNL     1      22.280  39.768   3.943  1.00  0.00     0.345 HD
ENDBRANCH   9  10
BRANCH   9  14
ATOM     14  C   UNL     1      22.295  37.901   2.183  1.00  0.00     0.099 C 
ATOM     15  O   UNL     1      22.434  37.195   3.217  1.00  0.00    -0.544 OA
ATOM     16  O   UNL     1      21.501  37.438   1.139  1.00  0.00    -0.544 OA
ENDBRANCH   9  14
ENDBRANCH   8   9
ENDBRANCH   1   8
TORSDOF 7
ENDMDL
MODEL 3
REMARK VINA RESULT:    -4.225      1.390      1.707
REMARK INTER + INTRA:          -5.774
REMARK INTER:                  -5.806
REMARK INTRA:                   0.032
REMARK UNBOUND:                -0.067
REMARK SMILES [NH3+]CCCC[C@@H]([NH3+])C(=O)[O-]
REMARK SMILES IDX 4 1 3 2 2 3 1 4 5 8 6 9 7 10 8 14 9 15 10 16
REMARK H PARENT 1 5 1 6 1 7 7 11 7 12 7 13
REMARK Flexibility Score: inf
ROOT
ATOM      1  C   UNL     1      22.524  40.545   1.731  1.00  0.00     0.012 C 
ENDROOT
BRANCH   1   2
ATOM      2  C   UNL     1      22.104  41.117   0.364  1.00  0.00     0.061 C 
BRANCH   2   3
ATOM      3  C   UNL     1      22.481  42.594   0.151  1.00  0.00     0.258 C 
BRANCH   3   4
ATOM      4  N   UNL     1      21.303  43.441  -0.048  1.00  0.00    -0.358 N 
ATOM      5  H   UNL     1      21.513  44.213  -0.718  1.00  0.00     0.344 HD
ATOM      6  H   UNL     1      20.983  43.837   0.864  1.00  0.00     0.344 HD
ATOM      7  H   UNL     1      20.532  42.858  -0.449  1.00  0.00     0.344 HD
ENDBRANCH   3   4
ENDBRANCH   2   3
ENDBRANCH   1   2
BRANCH   1   8
ATOM      8  C   UNL     1      22.411  39.004   1.817  1.00  0.00     0.072 C 
BRANCH   8   9
ATOM      9  C   UNL     1      22.719  38.445   3.226  1.00  0.00     0.227 C 
BRANCH   9  10
ATOM     10  N   UNL     1      22.894  36.986   3.196  1.00  0.00    -0.350 N 
ATOM     11  H   UNL     1      23.892  36.733   3.368  1.00  0.00     0.345 HD
ATOM     12  H   UNL     1      22.296  36.525   3.921  1.00  0.00     0.345 HD
ATOM     13  H   UNL     1      22.627  36.618   2.253  1.00  0.00     0.345 HD
ENDBRANCH   9  10
BRANCH   9  14
ATOM     14  C   UNL     1      23.962  39.096   3.772  1.00  0.00     0.099 C 
ATOM     15  O   UNL     1      25.098  38.626   3.496  1.00  0.00    -0.544 OA
ATOM     16  O   UNL     1      23.864  40.213   4.595  1.00  0.00    -0.544 OA
ENDBRANCH   9  14
ENDBRANCH   8   9
ENDBRANCH   1   8
TORSDOF 7
ENDMDL
MODEL 4
REMARK VINA RESULT:    -3.925     13.996     14.889
REMARK INTER + INTRA:          -5.369
REMARK INTER:                  -5.289
REMARK INTRA:                  -0.080
REMARK UNBOUND:                -0.067
REMARK SMILES [NH3+]CCCC[C@@H]([NH3+])C(=O)[O-]
REMARK SMILES IDX 4 1 3 2 2 3 1 4 5 8 6 9 7 10 8 14 9 15 10 16
REMARK H PARENT 1 5 1 6 1 7 7 11 7 12 7 13
REMARK Flexibility Score: inf
ROOT
ATOM      1  C   UNL     1      30.349  48.413  -8.937  1.00  0.00     0.012 C 
ENDROOT
BRANCH   1   2
ATOM      2  C   UNL     1      31.299  47.329  -9.482  1.00  0.00     0.061 C 
BRANCH   2   3
ATOM      3  C   UNL     1      32.538  47.073  -8.606  1.00  0.00     0.258 C 
BRANCH   3   4
ATOM      4  N   UNL     1      33.660  46.538  -9.381  1.00  0.00    -0.358 N 
ATOM      5  H   UNL     1      34.557  46.656  -8.860  1.00  0.00     0.344 HD
ATOM      6  H   UNL     1      33.721  47.017 -10.308  1.00  0.00     0.344 HD
ATOM      7  H   UNL     1      33.505  45.516  -9.541  1.00  0.00     0.344 HD
ENDBRANCH   3   4
ENDBRANCH   2   3
ENDBRANCH   1   2
BRANCH   1   8
ATOM      8  C   UNL     1      30.553  48.714  -7.434  1.00  0.00     0.072 C 
BRANCH   8   9
ATOM      9  C   UNL     1      29.827  49.995  -6.961  1.00  0.00     0.227 C 
BRANCH   9  10
ATOM     10  N   UNL     1      28.507  49.685  -6.395  1.00  0.00    -0.350 N 
ATOM     11  H   UNL     1      27.749  49.989  -7.046  1.00  0.00     0.345 HD
ATOM     12  H   UNL     1      28.411  48.659  -6.215  1.00  0.00     0.345 HD
ATOM     13  H   UNL     1      28.381  50.200  -5.492  1.00  0.00     0.345 HD
ENDBRANCH   9  10
BRANCH   9  14
ATOM     14  C   UNL     1      30.667  50.708  -5.935  1.00  0.00     0.099 C 
ATOM     15  O   UNL     1      31.059  50.101  -4.903  1.00  0.00    -0.544 OA
ATOM     16  O   UNL     1      31.009  52.044  -6.114  1.00  0.00    -0.544 OA
ENDBRANCH   9  14
ENDBRANCH   8   9
ENDBRANCH   1   8
TORSDOF 7
ENDMDL
MODEL 5
REMARK VINA RESULT:    -3.808      2.593      3.070
REMARK INTER + INTRA:          -5.211
REMARK INTER:                  -5.074
REMARK INTRA:                  -0.136
REMARK UNBOUND:                -0.067
REMARK SMILES [NH3+]CCCC[C@@H]([NH3+])C(=O)[O-]
REMARK SMILES IDX 4 1 3 2 2 3 1 4 5 8 6 9 7 10 8 14 9 15 10 16
REMARK H PARENT 1 5 1 6 1 7 7 11 7 12 7 13
REMARK Flexibility Score: inf
ROOT
ATOM      1  C   UNL     1      22.567  40.166   2.030  1.00  0.00     0.012 C 
ENDROOT
BRANCH   1   2
ATOM      2  C   UNL     1      22.021  40.771   0.723  1.00  0.00     0.061 C 
BRANCH   2   3
ATOM      3  C   UNL     1      22.555  42.179   0.403  1.00  0.00     0.258 C 
BRANCH   3   4
ATOM      4  N   UNL     1      21.493  43.083  -0.045  1.00  0.00    -0.358 N 
ATOM      5  H   UNL     1      21.688  44.061   0.263  1.00  0.00     0.344 HD
ATOM      6  H   UNL     1      20.568  42.769   0.328  1.00  0.00     0.344 HD
ATOM      7  H   UNL     1      21.455  43.068  -1.090  1.00  0.00     0.344 HD
ENDBRANCH   3   4
ENDBRANCH   2   3
ENDBRANCH   1   2
BRANCH   1   8
ATOM      8  C   UNL     1      22.958  38.675   1.905  1.00  0.00     0.072 C 
BRANCH   8   9
ATOM      9  C   UNL     1      21.833  37.793   1.315  1.00  0.00     0.227 C 
BRANCH   9  10
ATOM     10  N   UNL     1      22.278  37.098   0.099  1.00  0.00    -0.350 N 
ATOM     11  H   UNL     1      21.765  36.196  -0.015  1.00  0.00     0.345 HD
ATOM     12  H   UNL     1      22.118  37.691  -0.748  1.00  0.00     0.345 HD
ATOM     13  H   UNL     1      23.300  36.880   0.172  1.00  0.00     0.345 HD
ENDBRANCH   9  10
BRANCH   9  14
ATOM     14  C   UNL     1      21.382  36.787   2.342  1.00  0.00     0.099 C 
ATOM     15  O   UNL     1      20.586  35.866   2.019  1.00  0.00    -0.544 OA
ATOM     16  O   UNL     1      21.834  36.874   3.654  1.00  0.00    -0.544 OA
ENDBRANCH   9  14
ENDBRANCH   8   9
ENDBRANCH   1   8
TORSDOF 7
ENDMDL
MODEL 6
REMARK VINA RESULT:    -3.648      5.295      6.010
REMARK INTER + INTRA:          -4.994
REMARK INTER:                  -4.929
REMARK INTRA:                  -0.065
REMARK UNBOUND:                -0.067
REMARK SMILES [NH3+]CCCC[C@@H]([NH3+])C(=O)[O-]
REMARK SMILES IDX 4 1 3 2 2 3 1 4 5 8 6 9 7 10 8 14 9 15 10 16
REMARK H PARENT 1 5 1 6 1 7 7 11 7 12 7 13
REMARK Flexibility Score: inf
ROOT
ATOM      1  C   UNL     1      22.444  37.497   2.983  1.00  0.00     0.012 C 
ENDROOT
BRANCH   1   2
ATOM      2  C   UNL     1      23.430  38.672   3.115  1.00  0.00     0.061 C 
BRANCH   2   3
ATOM      3  C   UNL     1      24.900  38.301   2.845  1.00  0.00     0.258 C 
BRANCH   3   4
ATOM      4  N   UNL     1      25.604  37.911   4.068  1.00  0.00    -0.358 N 
ATOM      5  H   UNL     1      24.976  37.998   4.898  1.00  0.00     0.344 HD
ATOM      6  H   UNL     1      26.455  38.502   4.202  1.00  0.00     0.344 HD
ATOM      7  H   UNL     1      25.901  36.911   3.984  1.00  0.00     0.344 HD
ENDBRANCH   3   4
ENDBRANCH   2   3
ENDBRANCH   1   2
BRANCH   1   8
ATOM      8  C   UNL     1      21.715  37.452   1.619  1.00  0.00     0.072 C 
BRANCH   8   9
ATOM      9  C   UNL     1      20.921  36.144   1.391  1.00  0.00     0.227 C 
BRANCH   9  10
ATOM     10  N   UNL     1      19.805  36.023   2.339  1.00  0.00    -0.350 N 
ATOM     11  H   UNL     1      19.113  35.318   2.001  1.00  0.00     0.345 HD
ATOM     12  H   UNL     1      20.149  35.735   3.285  1.00  0.00     0.345 HD
ATOM     13  H   UNL     1      19.312  36.943   2.423  1.00  0.00     0.345 HD
ENDBRANCH   9  10
BRANCH   9  14
ATOM     14  C   UNL     1      20.398  36.105  -0.020  1.00  0.00     0.099 C 
ATOM     15  O   UNL     1      19.161  36.192  -0.240  1.00  0.00    -0.544 OA
ATOM     16  O   UNL     1      21.275  35.962  -1.089  1.00  0.00    -0.544 OA
ENDBRANCH   9  14
ENDBRANCH   8   9
ENDBRANCH   1   8
TORSDOF 7
ENDMDL
MODEL 7
REMARK VINA RESULT:    -3.578      5.045      5.958
REMARK INTER + INTRA:          -4.901
REMARK INTER:                  -4.823
REMARK INTRA:                  -0.078
REMARK UNBOUND:                -0.067
REMARK SMILES [NH3+]CCCC[C@@H]([NH3+])C(=O)[O-]
REMARK SMILES IDX 4 1 3 2 2 3 1 4 5 8 6 9 7 10 8 14 9 15 10 16
REMARK H PARENT 1 5 1 6 1 7 7 11 7 12 7 13
REMARK Flexibility Score: inf
ROOT
ATOM      1  C   UNL     1      22.115  37.535   2.373  1.00  0.00     0.012 C 
ENDROOT
BRANCH   1   2
ATOM      2  C   UNL     1      22.984  38.806   2.331  1.00  0.00     0.061 C 
BRANCH   2   3
ATOM      3  C   UNL     1      23.617  39.188   3.681  1.00  0.00     0.258 C 
BRANCH   3   4
ATOM      4  N   UNL     1      24.774  38.350   4.005  1.00  0.00    -0.358 N 
ATOM      5  H   UNL     1      25.319  38.126   3.143  1.00  0.00     0.344 HD
ATOM      6  H   UNL     1      24.464  37.467   4.470  1.00  0.00     0.344 HD
ATOM      7  H   UNL     1      25.397  38.873   4.662  1.00  0.00     0.344 HD
ENDBRANCH   3   4
ENDBRANCH   2   3
ENDBRANCH   1   2
BRANCH   1   8
ATOM      8  C   UNL     1      21.614  37.082   0.981  1.00  0.00     0.072 C 
BRANCH   8   9
ATOM      9  C   UNL     1      20.609  35.909   1.043  1.00  0.00     0.227 C 
BRANCH   9  10
ATOM     10  N   UNL     1      19.368  36.228   0.324  1.00  0.00    -0.350 N 
ATOM     11  H   UNL     1      18.919  37.079   0.730  1.00  0.00     0.345 HD
ATOM     12  H   UNL     1      19.559  36.395  -0.692  1.00  0.00     0.345 HD
ATOM     13  H   UNL     1      18.693  35.433   0.415  1.00  0.00     0.345 HD
ENDBRANCH   9  10
BRANCH   9  14
ATOM     14  C   UNL     1      21.234  34.670   0.457  1.00  0.00     0.099 C 
ATOM     15  O   UNL     1      21.724  34.696  -0.704  1.00  0.00    -0.544 OA
ATOM     16  O   UNL     1      21.265  33.488   1.187  1.00  0.00    -0.544 OA
ENDBRANCH   9  14
ENDBRANCH   8   9
ENDBRANCH   1   8
TORSDOF 7
ENDMDL
MODEL 8
REMARK VINA RESULT:    -3.550      3.787      5.744
REMARK INTER + INTRA:          -4.862
REMARK INTER:                  -4.665
REMARK INTRA:                  -0.196
REMARK UNBOUND:                -0.067
REMARK SMILES [NH3+]CCCC[C@@H]([NH3+])C(=O)[O-]
REMARK SMILES IDX 4 1 3 2 2 3 1 4 5 8 6 9 7 10 8 14 9 15 10 16
REMARK H PARENT 1 5 1 6 1 7 7 11 7 12 7 13
REMARK Flexibility Score: inf
ROOT
ATOM      1  C   UNL     1      21.449  36.714   1.984  1.00  0.00     0.012 C 
ENDROOT
BRANCH   1   2
ATOM      2  C   UNL     1      21.201  36.241   3.429  1.00  0.00     0.061 C 
BRANCH   2   3
ATOM      3  C   UNL     1      21.183  34.712   3.603  1.00  0.00     0.258 C 
BRANCH   3   4
ATOM      4  N   UNL     1      22.532  34.158   3.749  1.00  0.00    -0.358 N 
ATOM      5  H   UNL     1      22.718  33.443   3.011  1.00  0.00     0.344 HD
ATOM      6  H   UNL     1      22.648  33.732   4.696  1.00  0.00     0.344 HD
ATOM      7  H   UNL     1      23.228  34.931   3.642  1.00  0.00     0.344 HD
ENDBRANCH   3   4
ENDBRANCH   2   3
ENDBRANCH   1   2
BRANCH   1   8
ATOM      8  C   UNL     1      22.527  37.818   1.872  1.00  0.00     0.072 C 
BRANCH   8   9
ATOM      9  C   UNL     1      23.124  38.233   3.237  1.00  0.00     0.227 C 
BRANCH   9  10
ATOM     10  N   UNL     1      24.483  37.703   3.411  1.00  0.00    -0.350 N 
ATOM     11  H   UNL     1      24.614  37.344   4.383  1.00  0.00     0.345 HD
ATOM     12  H   UNL     1      24.670  36.928   2.733  1.00  0.00     0.345 HD
ATOM     13  H   UNL     1      25.182  38.467   3.253  1.00  0.00     0.345 HD
ENDBRANCH   9  10
BRANCH   9  14
ATOM     14  C   UNL     1      23.143  39.735   3.349  1.00  0.00     0.099 C 
ATOM     15  O   UNL     1      23.610  40.288   4.381  1.00  0.00    -0.544 OA
ATOM     16  O   UNL     1      22.638  40.521   2.320  1.00  0.00    -0.544 OA
ENDBRANCH   9  14
ENDBRANCH   8   9
ENDBRANCH   1   8
TORSDOF 7
ENDMDL
MODEL 9
REMARK VINA RESULT:    -3.435      3.233      5.345
REMARK INTER + INTRA:          -4.706
REMARK INTER:                  -4.617
REMARK INTRA:                  -0.090
REMARK UNBOUND:                -0.067
REMARK SMILES [NH3+]CCCC[C@@H]([NH3+])C(=O)[O-]
REMARK SMILES IDX 4 1 3 2 2 3 1 4 5 8 6 9 7 10 8 14 9 15 10 16
REMARK H PARENT 1 5 1 6 1 7 7 11 7 12 7 13
REMARK Flexibility Score: inf
ROOT
ATOM      1  C   UNL     1      21.383  36.956   1.248  1.00  0.00     0.012 C 
ENDROOT
BRANCH   1   2
ATOM      2  C   UNL     1      20.725  35.588   1.506  1.00  0.00     0.061 C 
BRANCH   2   3
ATOM      3  C   UNL     1      19.961  35.491   2.839  1.00  0.00     0.258 C 
BRANCH   3   4
ATOM      4  N   UNL     1      18.537  35.796   2.682  1.00  0.00    -0.358 N 
ATOM      5  H   UNL     1      18.377  36.382   1.832  1.00  0.00     0.344 HD
ATOM      6  H   UNL     1      18.176  36.291   3.529  1.00  0.00     0.344 HD
ATOM      7  H   UNL     1      18.009  34.900   2.567  1.00  0.00     0.344 HD
ENDBRANCH   3   4
ENDBRANCH   2   3
ENDBRANCH   1   2
BRANCH   1   8
ATOM      8  C   UNL     1      22.102  37.539   2.487  1.00  0.00     0.072 C 
BRANCH   8   9
ATOM      9  C   UNL     1      23.181  38.588   2.133  1.00  0.00     0.227 C 
BRANCH   9  10
ATOM     10  N   UNL     1      22.582  39.796   1.547  1.00  0.00    -0.350 N 
ATOM     11  H   UNL     1      22.624  39.756   0.504  1.00  0.00     0.345 HD
ATOM     12  H   UNL     1      21.583  39.898   1.844  1.00  0.00     0.345 HD
ATOM     13  H   UNL     1      23.116  40.641   1.858  1.00  0.00     0.345 HD
ENDBRANCH   9  10
BRANCH   9  14
ATOM     14  C   UNL     1      23.962  38.954   3.367  1.00  0.00     0.099 C 
ATOM     15  O   UNL     1      25.009  38.320   3.666  1.00  0.00    -0.544 OA
ATOM     16  O   UNL     1      23.527  39.986   4.192  1.00  0.00    -0.544 OA
ENDBRANCH   9  14
ENDBRANCH   8   9
ENDBRANCH   1   8
TORSDOF 7
ENDMDL
