MODEL 1
REMARK VINA RESULT:    -3.413      0.000      0.000
REMARK INTER + INTRA:          -9.133
REMARK INTER:                  -6.206
REMARK INTRA:                  -2.927
REMARK UNBOUND:                -2.927
REMARK SMILES CCCCCC=CCC=CCCCCCCCC(=O)[O-]
REMARK SMILES IDX 11 1 12 2 13 3 14 4 15 5 16 6 17 7 18 8 19 9 20 10 10 11
REMARK SMILES IDX 9 12 8 13 7 14 6 15 5 16 4 17 3 18 2 19 1 20
REMARK H PARENT
REMARK Flexibility Score: inf
ROOT
ATOM      1  C   UNL     1      64.492  32.232  60.674  1.00  0.00     0.027 C 
ENDROOT
BRANCH   1   2
ATOM      2  C   UNL     1      64.490  33.628  60.030  1.00  0.00     0.004 C 
BRANCH   2   3
ATOM      3  C   UNL     1      64.505  34.756  61.071  1.00  0.00     0.000 C 
BRANCH   3   4
ATOM      4  C   UNL     1      63.433  35.806  60.755  1.00  0.00     0.000 C 
BRANCH   4   5
ATOM      5  C   UNL     1      62.453  35.291  59.692  1.00  0.00     0.000 C 
BRANCH   5   6
ATOM      6  C   UNL     1      60.981  35.532  60.072  1.00  0.00     0.006 C 
BRANCH   6   7
ATOM      7  C   UNL     1      60.179  36.321  59.023  1.00  0.00     0.053 C 
BRANCH   7   8
ATOM      8  C   UNL     1      60.037  35.565  57.739  1.00  0.00     0.041 C 
ATOM      9  O   UNL     1      59.222  34.608  57.654  1.00  0.00    -0.550 OA
ATOM     10  O   UNL     1      60.774  35.943  56.623  1.00  0.00    -0.550 OA
ENDBRANCH   7   8
ENDBRANCH   6   7
ENDBRANCH   5   6
ENDBRANCH   4   5
ENDBRANCH   3   4
ENDBRANCH   2   3
ENDBRANCH   1   2
BRANCH   1  11
ATOM     11  C   UNL     1      64.924  31.135  59.729  1.00  0.00    -0.031 C 
ATOM     12  C   UNL     1      64.627  29.828  59.864  1.00  0.00    -0.027 C 
BRANCH  12  13
ATOM     13  C   UNL     1      63.750  29.245  60.942  1.00  0.00     0.054 C 
BRANCH  13  14
ATOM     14  C   UNL     1      62.443  28.773  60.353  1.00  0.00    -0.027 C 
ATOM     15  C   UNL     1      61.264  29.396  60.532  1.00  0.00    -0.031 C 
BRANCH  15  16
ATOM     16  C   UNL     1      61.074  30.669  61.319  1.00  0.00     0.027 C 
BRANCH  16  17
ATOM     17  C   UNL     1      61.167  31.907  60.419  1.00  0.00     0.004 C 
BRANCH  17  18
ATOM     18  C   UNL     1      60.667  31.593  59.001  1.00  0.00     0.000 C 
BRANCH  18  19
ATOM     19  C   UNL     1      61.650  32.054  57.913  1.00  0.00    -0.003 C 
ATOM     20  C   UNL     1      62.285  30.887  57.156  1.00  0.00     0.004 C 
ENDBRANCH  18  19
ENDBRANCH  17  18
ENDBRANCH  16  17
ENDBRANCH  15  16
ENDBRANCH  13  14
ENDBRANCH  12  13
ENDBRANCH   1  11
TORSDOF 14
ENDMDL
MODEL 2
REMARK VINA RESULT:    -3.323      4.777      7.320
REMARK INTER + INTRA:          -8.969
REMARK INTER:                  -7.120
REMARK INTRA:                  -1.849
REMARK UNBOUND:                -2.927
REMARK SMILES CCCCCC=CCC=CCCCCCCCC(=O)[O-]
REMARK SMILES IDX 11 1 12 2 13 3 14 4 15 5 16 6 17 7 18 8 19 9 20 10 10 11
REMARK SMILES IDX 9 12 8 13 7 14 6 15 5 16 4 17 3 18 2 19 1 20
REMARK H PARENT
REMARK Flexibility Score: inf
ROOT
ATOM      1  C   UNL     1      64.927  30.020  58.699  1.00  0.00     0.027 C 
ENDROOT
BRANCH   1   2
ATOM      2  C   UNL     1      65.874  28.809  58.662  1.00  0.00     0.004 C 
BRANCH   2   3
ATOM      3  C   UNL     1      67.185  29.066  59.420  1.00  0.00     0.000 C 
BRANCH   3   4
ATOM      4  C   UNL     1      67.318  28.119  60.618  1.00  0.00     0.000 C 
BRANCH   4   5
ATOM      5  C   UNL     1      68.514  28.508  61.498  1.00  0.00     0.000 C 
BRANCH   5   6
ATOM      6  C   UNL     1      69.848  28.502  60.728  1.00  0.00     0.006 C 
BRANCH   6   7
ATOM      7  C   UNL     1      70.829  29.605  61.156  1.00  0.00     0.053 C 
BRANCH   7   8
ATOM      8  C   UNL     1      71.190  30.509  60.018  1.00  0.00     0.041 C 
ATOM      9  O   UNL     1      72.054  31.412  60.176  1.00  0.00    -0.550 OA
ATOM     10  O   UNL     1      70.605  30.326  58.771  1.00  0.00    -0.550 OA
ENDBRANCH   7   8
ENDBRANCH   6   7
ENDBRANCH   5   6
ENDBRANCH   4   5
ENDBRANCH   3   4
ENDBRANCH   2   3
ENDBRANCH   1   2
BRANCH   1  11
ATOM     11  C   UNL     1      65.020  30.816  59.979  1.00  0.00    -0.031 C 
ATOM     12  C   UNL     1      64.170  30.721  61.020  1.00  0.00    -0.027 C 
BRANCH  12  13
ATOM     13  C   UNL     1      63.023  29.750  61.117  1.00  0.00     0.054 C 
BRANCH  13  14
ATOM     14  C   UNL     1      61.766  30.467  61.546  1.00  0.00    -0.027 C 
ATOM     15  C   UNL     1      60.938  31.112  60.704  1.00  0.00    -0.031 C 
BRANCH  15  16
ATOM     16  C   UNL     1      61.122  31.190  59.208  1.00  0.00     0.027 C 
BRANCH  16  17
ATOM     17  C   UNL     1      61.749  32.525  58.786  1.00  0.00     0.004 C 
BRANCH  17  18
ATOM     18  C   UNL     1      61.658  33.556  59.920  1.00  0.00     0.000 C 
BRANCH  18  19
ATOM     19  C   UNL     1      63.029  34.142  60.296  1.00  0.00    -0.003 C 
ATOM     20  C   UNL     1      62.943  35.597  60.760  1.00  0.00     0.004 C 
ENDBRANCH  18  19
ENDBRANCH  17  18
ENDBRANCH  16  17
ENDBRANCH  15  16
ENDBRANCH  13  14
ENDBRANCH  12  13
ENDBRANCH   1  11
TORSDOF 14
ENDMDL
MODEL 3
REMARK VINA RESULT:    -3.304      9.399     12.250
REMARK INTER + INTRA:          -8.935
REMARK INTER:                  -6.352
REMARK INTRA:                  -2.582
REMARK UNBOUND:                -2.927
REMARK SMILES CCCCCC=CCC=CCCCCCCCC(=O)[O-]
REMARK SMILES IDX 11 1 12 2 13 3 14 4 15 5 16 6 17 7 18 8 19 9 20 10 10 11
REMARK SMILES IDX 9 12 8 13 7 14 6 15 5 16 4 17 3 18 2 19 1 20
REMARK H PARENT
REMARK Flexibility Score: inf
ROOT
ATOM      1  C   UNL     1      57.175  26.851  51.289  1.00  0.00     0.027 C 
ENDROOT
BRANCH   1   2
ATOM      2  C   UNL     1      58.290  27.902  51.174  1.00  0.00     0.004 C 
BRANCH   2   3
ATOM      3  C   UNL     1      58.008  28.941  50.079  1.00  0.00     0.000 C 
BRANCH   3   4
ATOM      4  C   UNL     1      59.265  29.208  49.242  1.00  0.00     0.000 C 
BRANCH   4   5
ATOM      5  C   UNL     1      60.527  28.726  49.972  1.00  0.00     0.000 C 
BRANCH   5   6
ATOM      6  C   UNL     1      61.316  27.677  49.167  1.00  0.00     0.006 C 
BRANCH   6   7
ATOM      7  C   UNL     1      62.065  26.650  50.033  1.00  0.00     0.053 C 
BRANCH   7   8
ATOM      8  C   UNL     1      61.456  25.285  49.937  1.00  0.00     0.041 C 
ATOM      9  O   UNL     1      62.193  24.270  49.820  1.00  0.00    -0.550 OA
ATOM     10  O   UNL     1      60.078  25.130  50.021  1.00  0.00    -0.550 OA
ENDBRANCH   7   8
ENDBRANCH   6   7
ENDBRANCH   5   6
ENDBRANCH   4   5
ENDBRANCH   3   4
ENDBRANCH   2   3
ENDBRANCH   1   2
BRANCH   1  11
ATOM     11  C   UNL     1      56.745  26.283  49.956  1.00  0.00    -0.031 C 
ATOM     12  C   UNL     1      55.490  26.302  49.468  1.00  0.00    -0.027 C 
BRANCH  12  13
ATOM     13  C   UNL     1      54.311  26.962  50.135  1.00  0.00     0.054 C 
BRANCH  13  14
ATOM     14  C   UNL     1      54.172  28.388  49.659  1.00  0.00    -0.027 C 
ATOM     15  C   UNL     1      54.356  29.467  50.441  1.00  0.00    -0.031 C 
BRANCH  15  16
ATOM     16  C   UNL     1      54.757  29.418  51.895  1.00  0.00     0.027 C 
BRANCH  16  17
ATOM     17  C   UNL     1      55.377  30.744  52.354  1.00  0.00     0.004 C 
BRANCH  17  18
ATOM     18  C   UNL     1      56.657  30.498  53.165  1.00  0.00     0.000 C 
BRANCH  18  19
ATOM     19  C   UNL     1      57.686  31.629  53.002  1.00  0.00    -0.003 C 
ATOM     20  C   UNL     1      59.113  31.110  52.824  1.00  0.00     0.004 C 
ENDBRANCH  18  19
ENDBRANCH  17  18
ENDBRANCH  16  17
ENDBRANCH  15  16
ENDBRANCH  13  14
ENDBRANCH  12  13
ENDBRANCH   1  11
TORSDOF 14
ENDMDL
MODEL 4
REMARK VINA RESULT:    -3.276      3.214      5.882
REMARK INTER + INTRA:          -8.884
REMARK INTER:                  -5.698
REMARK INTRA:                  -3.186
REMARK UNBOUND:                -2.927
REMARK SMILES CCCCCC=CCC=CCCCCCCCC(=O)[O-]
REMARK SMILES IDX 11 1 12 2 13 3 14 4 15 5 16 6 17 7 18 8 19 9 20 10 10 11
REMARK SMILES IDX 9 12 8 13 7 14 6 15 5 16 4 17 3 18 2 19 1 20
REMARK H PARENT
REMARK Flexibility Score: inf
ROOT
ATOM      1  C   UNL     1      61.547  31.831  57.237  1.00  0.00     0.027 C 
ENDROOT
BRANCH   1   2
ATOM      2  C   UNL     1      60.627  31.967  58.460  1.00  0.00     0.004 C 
BRANCH   2   3
ATOM      3  C   UNL     1      60.745  30.775  59.420  1.00  0.00     0.000 C 
BRANCH   3   4
ATOM      4  C   UNL     1      61.135  31.242  60.827  1.00  0.00     0.000 C 
BRANCH   4   5
ATOM      5  C   UNL     1      61.869  30.131  61.593  1.00  0.00     0.000 C 
BRANCH   5   6
ATOM      6  C   UNL     1      63.362  30.041  61.228  1.00  0.00     0.006 C 
BRANCH   6   7
ATOM      7  C   UNL     1      63.765  28.730  60.533  1.00  0.00     0.053 C 
BRANCH   7   8
ATOM      8  C   UNL     1      65.247  28.624  60.349  1.00  0.00     0.041 C 
ATOM      9  O   UNL     1      65.947  29.665  60.238  1.00  0.00    -0.550 OA
ATOM     10  O   UNL     1      65.861  27.377  60.343  1.00  0.00    -0.550 OA
ENDBRANCH   7   8
ENDBRANCH   6   7
ENDBRANCH   5   6
ENDBRANCH   4   5
ENDBRANCH   3   4
ENDBRANCH   2   3
ENDBRANCH   1   2
BRANCH   1  11
ATOM     11  C   UNL     1      62.810  31.050  57.519  1.00  0.00    -0.031 C 
ATOM     12  C   UNL     1      63.958  31.571  57.992  1.00  0.00    -0.027 C 
BRANCH  12  13
ATOM     13  C   UNL     1      64.158  33.010  58.393  1.00  0.00     0.054 C 
BRANCH  13  14
ATOM     14  C   UNL     1      64.464  33.103  59.868  1.00  0.00    -0.027 C 
ATOM     15  C   UNL     1      64.063  34.114  60.661  1.00  0.00    -0.031 C 
BRANCH  15  16
ATOM     16  C   UNL     1      63.227  35.285  60.206  1.00  0.00     0.027 C 
BRANCH  16  17
ATOM     17  C   UNL     1      61.733  34.940  60.193  1.00  0.00     0.004 C 
BRANCH  17  18
ATOM     18  C   UNL     1      61.040  35.550  58.966  1.00  0.00     0.000 C 
BRANCH  18  19
ATOM     19  C   UNL     1      62.040  36.054  57.913  1.00  0.00    -0.003 C 
ATOM     20  C   UNL     1      61.824  35.418  56.539  1.00  0.00     0.004 C 
ENDBRANCH  18  19
ENDBRANCH  17  18
ENDBRANCH  16  17
ENDBRANCH  15  16
ENDBRANCH  13  14
ENDBRANCH  12  13
ENDBRANCH   1  11
TORSDOF 14
ENDMDL
MODEL 5
REMARK VINA RESULT:    -3.207      9.949     12.549
REMARK INTER + INTRA:          -8.759
REMARK INTER:                  -5.729
REMARK INTRA:                  -3.030
REMARK UNBOUND:                -2.927
REMARK SMILES CCCCCC=CCC=CCCCCCCCC(=O)[O-]
REMARK SMILES IDX 11 1 12 2 13 3 14 4 15 5 16 6 17 7 18 8 19 9 20 10 10 11
REMARK SMILES IDX 9 12 8 13 7 14 6 15 5 16 4 17 3 18 2 19 1 20
REMARK H PARENT
REMARK Flexibility Score: inf
ROOT
ATOM      1  C   UNL     1      57.868  28.535  52.102  1.00  0.00     0.027 C 
ENDROOT
BRANCH   1   2
ATOM      2  C   UNL     1      58.876  29.624  51.703  1.00  0.00     0.004 C 
BRANCH   2   3
ATOM      3  C   UNL     1      59.178  29.622  50.198  1.00  0.00     0.000 C 
BRANCH   3   4
ATOM      4  C   UNL     1      58.982  28.223  49.602  1.00  0.00     0.000 C 
BRANCH   4   5
ATOM      5  C   UNL     1      60.313  27.648  49.096  1.00  0.00     0.000 C 
BRANCH   5   6
ATOM      6  C   UNL     1      60.540  26.191  49.540  1.00  0.00     0.006 C 
BRANCH   6   7
ATOM      7  C   UNL     1      59.284  25.495  50.089  1.00  0.00     0.053 C 
BRANCH   7   8
ATOM      8  C   UNL     1      59.567  24.738  51.349  1.00  0.00     0.041 C 
ATOM      9  O   UNL     1      60.009  23.559  51.294  1.00  0.00    -0.550 OA
ATOM     10  O   UNL     1      59.385  25.347  52.585  1.00  0.00    -0.550 OA
ENDBRANCH   7   8
ENDBRANCH   6   7
ENDBRANCH   5   6
ENDBRANCH   4   5
ENDBRANCH   3   4
ENDBRANCH   2   3
ENDBRANCH   1   2
BRANCH   1  11
ATOM     11  C   UNL     1      56.566  29.088  52.634  1.00  0.00    -0.031 C 
ATOM     12  C   UNL     1      55.539  29.527  51.880  1.00  0.00    -0.027 C 
BRANCH  12  13
ATOM     13  C   UNL     1      55.483  29.473  50.376  1.00  0.00     0.054 C 
BRANCH  13  14
ATOM     14  C   UNL     1      54.288  28.668  49.926  1.00  0.00    -0.027 C 
ATOM     15  C   UNL     1      54.344  27.378  49.546  1.00  0.00    -0.031 C 
BRANCH  15  16
ATOM     16  C   UNL     1      55.597  26.537  49.540  1.00  0.00     0.027 C 
BRANCH  16  17
ATOM     17  C   UNL     1      55.809  25.832  50.886  1.00  0.00     0.004 C 
BRANCH  17  18
ATOM     18  C   UNL     1      54.466  25.436  51.515  1.00  0.00     0.000 C 
BRANCH  18  19
ATOM     19  C   UNL     1      54.324  25.930  52.964  1.00  0.00    -0.003 C 
ATOM     20  C   UNL     1      53.197  26.949  53.134  1.00  0.00     0.004 C 
ENDBRANCH  18  19
ENDBRANCH  17  18
ENDBRANCH  16  17
ENDBRANCH  15  16
ENDBRANCH  13  14
ENDBRANCH  12  13
ENDBRANCH   1  11
TORSDOF 14
ENDMDL
MODEL 6
REMARK VINA RESULT:    -3.192      2.021      4.125
REMARK INTER + INTRA:          -8.732
REMARK INTER:                  -5.984
REMARK INTRA:                  -2.747
REMARK UNBOUND:                -2.927
REMARK SMILES CCCCCC=CCC=CCCCCCCCC(=O)[O-]
REMARK SMILES IDX 11 1 12 2 13 3 14 4 15 5 16 6 17 7 18 8 19 9 20 10 10 11
REMARK SMILES IDX 9 12 8 13 7 14 6 15 5 16 4 17 3 18 2 19 1 20
REMARK H PARENT
REMARK Flexibility Score: inf
ROOT
ATOM      1  C   UNL     1      60.216  34.212  57.726  1.00  0.00     0.027 C 
ENDROOT
BRANCH   1   2
ATOM      2  C   UNL     1      60.145  35.550  58.479  1.00  0.00     0.004 C 
BRANCH   2   3
ATOM      3  C   UNL     1      60.679  35.446  59.914  1.00  0.00     0.000 C 
BRANCH   3   4
ATOM      4  C   UNL     1      61.502  36.686  60.283  1.00  0.00     0.000 C 
BRANCH   4   5
ATOM      5  C   UNL     1      62.866  36.289  60.865  1.00  0.00     0.000 C 
BRANCH   5   6
ATOM      6  C   UNL     1      63.172  34.789  60.698  1.00  0.00     0.006 C 
BRANCH   6   7
ATOM      7  C   UNL     1      64.671  34.452  60.656  1.00  0.00     0.053 C 
BRANCH   7   8
ATOM      8  C   UNL     1      65.305  34.870  59.365  1.00  0.00     0.041 C 
ATOM      9  O   UNL     1      65.107  34.201  58.317  1.00  0.00    -0.550 OA
ATOM     10  O   UNL     1      66.080  36.022  59.311  1.00  0.00    -0.550 OA
ENDBRANCH   7   8
ENDBRANCH   6   7
ENDBRANCH   5   6
ENDBRANCH   4   5
ENDBRANCH   3   4
ENDBRANCH   2   3
ENDBRANCH   1   2
BRANCH   1  11
ATOM     11  C   UNL     1      61.610  33.632  57.661  1.00  0.00    -0.031 C 
ATOM     12  C   UNL     1      61.986  32.445  58.176  1.00  0.00    -0.027 C 
BRANCH  12  13
ATOM     13  C   UNL     1      61.062  31.457  58.839  1.00  0.00     0.054 C 
BRANCH  13  14
ATOM     14  C   UNL     1      61.025  31.695  60.329  1.00  0.00    -0.027 C 
ATOM     15  C   UNL     1      61.680  30.944  61.232  1.00  0.00    -0.031 C 
BRANCH  15  16
ATOM     16  C   UNL     1      62.572  29.774  60.894  1.00  0.00     0.027 C 
BRANCH  16  17
ATOM     17  C   UNL     1      64.045  30.085  61.187  1.00  0.00     0.004 C 
BRANCH  17  18
ATOM     18  C   UNL     1      64.707  30.779  59.988  1.00  0.00     0.000 C 
BRANCH  18  19
ATOM     19  C   UNL     1      65.205  29.783  58.929  1.00  0.00    -0.003 C 
ATOM     20  C   UNL     1      64.714  30.121  57.521  1.00  0.00     0.004 C 
ENDBRANCH  18  19
ENDBRANCH  17  18
ENDBRANCH  16  17
ENDBRANCH  15  16
ENDBRANCH  13  14
ENDBRANCH  12  13
ENDBRANCH   1  11
TORSDOF 14
ENDMDL
MODEL 7
REMARK VINA RESULT:    -3.160     10.156     12.708
REMARK INTER + INTRA:          -8.673
REMARK INTER:                  -6.224
REMARK INTRA:                  -2.449
REMARK UNBOUND:                -2.927
REMARK SMILES CCCCCC=CCC=CCCCCCCCC(=O)[O-]
REMARK SMILES IDX 11 1 12 2 13 3 14 4 15 5 16 6 17 7 18 8 19 9 20 10 10 11
REMARK SMILES IDX 9 12 8 13 7 14 6 15 5 16 4 17 3 18 2 19 1 20
REMARK H PARENT
REMARK Flexibility Score: inf
ROOT
ATOM      1  C   UNL     1      55.755  25.775  50.132  1.00  0.00     0.027 C 
ENDROOT
BRANCH   1   2
ATOM      2  C   UNL     1      57.143  26.341  49.791  1.00  0.00     0.004 C 
BRANCH   2   3
ATOM      3  C   UNL     1      58.222  25.893  50.788  1.00  0.00     0.000 C 
BRANCH   3   4
ATOM      4  C   UNL     1      59.557  25.650  50.075  1.00  0.00     0.000 C 
BRANCH   4   5
ATOM      5  C   UNL     1      60.512  26.836  50.277  1.00  0.00     0.000 C 
BRANCH   5   6
ATOM      6  C   UNL     1      60.566  27.772  49.056  1.00  0.00     0.006 C 
BRANCH   6   7
ATOM      7  C   UNL     1      59.673  29.018  49.176  1.00  0.00     0.053 C 
BRANCH   7   8
ATOM      8  C   UNL     1      59.753  29.636  50.538  1.00  0.00     0.041 C 
ATOM      9  O   UNL     1      60.820  30.181  50.925  1.00  0.00    -0.550 OA
ATOM     10  O   UNL     1      58.634  29.649  51.363  1.00  0.00    -0.550 OA
ENDBRANCH   7   8
ENDBRANCH   6   7
ENDBRANCH   5   6
ENDBRANCH   4   5
ENDBRANCH   3   4
ENDBRANCH   2   3
ENDBRANCH   1   2
BRANCH   1  11
ATOM     11  C   UNL     1      54.794  25.802  48.966  1.00  0.00    -0.031 C 
ATOM     12  C   UNL     1      53.583  26.392  48.968  1.00  0.00    -0.027 C 
BRANCH  12  13
ATOM     13  C   UNL     1      53.010  27.193  50.109  1.00  0.00     0.054 C 
BRANCH  13  14
ATOM     14  C   UNL     1      52.876  28.643  49.713  1.00  0.00    -0.027 C 
ATOM     15  C   UNL     1      53.808  29.583  49.954  1.00  0.00    -0.031 C 
BRANCH  15  16
ATOM     16  C   UNL     1      55.135  29.326  50.625  1.00  0.00     0.027 C 
BRANCH  16  17
ATOM     17  C   UNL     1      55.034  29.471  52.149  1.00  0.00     0.004 C 
BRANCH  17  18
ATOM     18  C   UNL     1      55.779  28.332  52.858  1.00  0.00     0.000 C 
BRANCH  18  19
ATOM     19  C   UNL     1      54.836  27.217  53.337  1.00  0.00    -0.003 C 
ATOM     20  C   UNL     1      55.492  26.281  54.352  1.00  0.00     0.004 C 
ENDBRANCH  18  19
ENDBRANCH  17  18
ENDBRANCH  16  17
ENDBRANCH  15  16
ENDBRANCH  13  14
ENDBRANCH  12  13
ENDBRANCH   1  11
TORSDOF 14
ENDMDL
MODEL 8
REMARK VINA RESULT:    -3.151      9.946     12.623
REMARK INTER + INTRA:          -8.658
REMARK INTER:                  -6.528
REMARK INTRA:                  -2.129
REMARK UNBOUND:                -2.927
REMARK SMILES CCCCCC=CCC=CCCCCCCCC(=O)[O-]
REMARK SMILES IDX 11 1 12 2 13 3 14 4 15 5 16 6 17 7 18 8 19 9 20 10 10 11
REMARK SMILES IDX 9 12 8 13 7 14 6 15 5 16 4 17 3 18 2 19 1 20
REMARK H PARENT
REMARK Flexibility Score: inf
ROOT
ATOM      1  C   UNL     1      55.449  25.823  50.227  1.00  0.00     0.027 C 
ENDROOT
BRANCH   1   2
ATOM      2  C   UNL     1      56.858  26.398  50.012  1.00  0.00     0.004 C 
BRANCH   2   3
ATOM      3  C   UNL     1      57.189  27.527  50.999  1.00  0.00     0.000 C 
BRANCH   3   4
ATOM      4  C   UNL     1      57.393  28.856  50.261  1.00  0.00     0.000 C 
BRANCH   4   5
ATOM      5  C   UNL     1      58.854  29.318  50.353  1.00  0.00     0.000 C 
BRANCH   5   6
ATOM      6  C   UNL     1      59.633  29.097  49.043  1.00  0.00     0.006 C 
BRANCH   6   7
ATOM      7  C   UNL     1      60.407  27.770  48.984  1.00  0.00     0.053 C 
BRANCH   7   8
ATOM      8  C   UNL     1      61.813  27.918  49.477  1.00  0.00     0.041 C 
ATOM      9  O   UNL     1      62.280  29.061  49.725  1.00  0.00    -0.550 OA
ATOM     10  O   UNL     1      62.594  26.791  49.704  1.00  0.00    -0.550 OA
ENDBRANCH   7   8
ENDBRANCH   6   7
ENDBRANCH   5   6
ENDBRANCH   4   5
ENDBRANCH   3   4
ENDBRANCH   2   3
ENDBRANCH   1   2
BRANCH   1  11
ATOM     11  C   UNL     1      54.553  25.964  49.018  1.00  0.00    -0.031 C 
ATOM     12  C   UNL     1      53.474  26.767  48.936  1.00  0.00    -0.027 C 
BRANCH  12  13
ATOM     13  C   UNL     1      53.020  27.720  50.011  1.00  0.00     0.054 C 
BRANCH  13  14
ATOM     14  C   UNL     1      53.685  29.064  49.834  1.00  0.00    -0.027 C 
ATOM     15  C   UNL     1      54.007  29.888  50.847  1.00  0.00    -0.031 C 
BRANCH  15  16
ATOM     16  C   UNL     1      53.782  29.584  52.308  1.00  0.00     0.027 C 
BRANCH  16  17
ATOM     17  C   UNL     1      55.076  29.727  53.119  1.00  0.00     0.004 C 
BRANCH  17  18
ATOM     18  C   UNL     1      55.811  31.025  52.755  1.00  0.00     0.000 C 
BRANCH  18  19
ATOM     19  C   UNL     1      55.298  32.237  53.549  1.00  0.00    -0.003 C 
ATOM     20  C   UNL     1      55.458  33.554  52.789  1.00  0.00     0.004 C 
ENDBRANCH  18  19
ENDBRANCH  17  18
ENDBRANCH  16  17
ENDBRANCH  15  16
ENDBRANCH  13  14
ENDBRANCH  12  13
ENDBRANCH   1  11
TORSDOF 14
ENDMDL
MODEL 9
REMARK VINA RESULT:    -3.138      3.585      6.532
REMARK INTER + INTRA:          -8.633
REMARK INTER:                  -5.720
REMARK INTRA:                  -2.913
REMARK UNBOUND:                -2.927
REMARK SMILES CCCCCC=CCC=CCCCCCCCC(=O)[O-]
REMARK SMILES IDX 11 1 12 2 13 3 14 4 15 5 16 6 17 7 18 8 19 9 20 10 10 11
REMARK SMILES IDX 9 12 8 13 7 14 6 15 5 16 4 17 3 18 2 19 1 20
REMARK H PARENT
REMARK Flexibility Score: inf
ROOT
ATOM      1  C   UNL     1      60.675  31.135  58.434  1.00  0.00     0.027 C 
ENDROOT
BRANCH   1   2
ATOM      2  C   UNL     1      61.737  30.846  57.361  1.00  0.00     0.004 C 
BRANCH   2   3
ATOM      3  C   UNL     1      62.030  29.347  57.214  1.00  0.00     0.000 C 
BRANCH   3   4
ATOM      4  C   UNL     1      63.481  29.033  57.597  1.00  0.00     0.000 C 
BRANCH   4   5
ATOM      5  C   UNL     1      63.551  27.845  58.567  1.00  0.00     0.000 C 
BRANCH   5   6
ATOM      6  C   UNL     1      64.995  27.408  58.872  1.00  0.00     0.006 C 
BRANCH   6   7
ATOM      7  C   UNL     1      65.437  27.655  60.324  1.00  0.00     0.053 C 
BRANCH   7   8
ATOM      8  C   UNL     1      66.716  28.429  60.398  1.00  0.00     0.041 C 
ATOM      9  O   UNL     1      67.615  28.090  61.214  1.00  0.00    -0.550 OA
ATOM     10  O   UNL     1      66.935  29.498  59.538  1.00  0.00    -0.550 OA
ENDBRANCH   7   8
ENDBRANCH   6   7
ENDBRANCH   5   6
ENDBRANCH   4   5
ENDBRANCH   3   4
ENDBRANCH   2   3
ENDBRANCH   1   2
BRANCH   1  11
ATOM     11  C   UNL     1      60.395  29.955  59.336  1.00  0.00    -0.031 C 
ATOM     12  C   UNL     1      60.874  29.796  60.585  1.00  0.00    -0.027 C 
BRANCH  12  13
ATOM     13  C   UNL     1      61.712  30.806  61.326  1.00  0.00     0.054 C 
BRANCH  13  14
ATOM     14  C   UNL     1      63.170  30.423  61.263  1.00  0.00    -0.027 C 
ATOM     15  C   UNL     1      64.110  31.128  60.607  1.00  0.00    -0.031 C 
BRANCH  15  16
ATOM     16  C   UNL     1      63.856  32.418  59.867  1.00  0.00     0.027 C 
BRANCH  16  17
ATOM     17  C   UNL     1      64.257  33.638  60.705  1.00  0.00     0.004 C 
BRANCH  17  18
ATOM     18  C   UNL     1      63.261  34.790  60.508  1.00  0.00     0.000 C 
BRANCH  18  19
ATOM     19  C   UNL     1      61.907  34.312  59.961  1.00  0.00    -0.003 C 
ATOM     20  C   UNL     1      60.931  35.462  59.708  1.00  0.00     0.004 C 
ENDBRANCH  18  19
ENDBRANCH  17  18
ENDBRANCH  16  17
ENDBRANCH  15  16
ENDBRANCH  13  14
ENDBRANCH  12  13
ENDBRANCH   1  11
TORSDOF 14
ENDMDL
