MODEL 1
REMARK VINA RESULT:    -3.598      0.000      0.000
REMARK INTER + INTRA:          -4.287
REMARK INTER:                  -4.229
REMARK INTRA:                  -0.058
REMARK UNBOUND:                -0.058
REMARK SMILES CCCCC(=O)[O-]
REMARK SMILES IDX 4 1 5 2 6 3 7 4 3 5 2 6 1 7
REMARK H PARENT
REMARK Flexibility Score: inf
ROOT
ATOM      1  C   UNL     1      17.556  25.660   8.671  1.00  0.00     0.053 C 
ENDROOT
BRANCH   1   2
ATOM      2  C   UNL     1      17.892  27.091   8.951  1.00  0.00     0.041 C 
ATOM      3  O   UNL     1      19.092  27.448   9.073  1.00  0.00    -0.550 OA
ATOM      4  O   UNL     1      16.875  28.022   9.125  1.00  0.00    -0.550 OA
ENDBRANCH   1   2
BRANCH   1   5
ATOM      5  C   UNL     1      18.832  24.841   8.459  1.00  0.00     0.006 C 
BRANCH   5   6
ATOM      6  C   UNL     1      18.656  23.838   7.313  1.00  0.00    -0.003 C 
ATOM      7  C   UNL     1      17.232  23.870   6.768  1.00  0.00     0.004 C 
ENDBRANCH   5   6
ENDBRANCH   1   5
TORSDOF 3
ENDMDL
MODEL 2
REMARK VINA RESULT:    -3.573      2.872      3.980
REMARK INTER + INTRA:          -4.258
REMARK INTER:                  -4.196
REMARK INTRA:                  -0.062
REMARK UNBOUND:                -0.058
REMARK SMILES CCCCC(=O)[O-]
REMARK SMILES IDX 4 1 5 2 6 3 7 4 3 5 2 6 1 7
REMARK H PARENT
REMARK Flexibility Score: inf
ROOT
ATOM      1  C   UNL     1      19.776  24.243   8.483  1.00  0.00     0.053 C 
ENDROOT
BRANCH   1   2
ATOM      2  C   UNL     1      19.817  23.609   9.838  1.00  0.00     0.041 C 
ATOM      3  O   UNL     1      18.750  23.268  10.410  1.00  0.00    -0.550 OA
ATOM      4  O   UNL     1      21.033  23.440  10.489  1.00  0.00    -0.550 OA
ENDBRANCH   1   2
BRANCH   1   5
ATOM      5  C   UNL     1      18.567  25.173   8.362  1.00  0.00     0.006 C 
BRANCH   5   6
ATOM      6  C   UNL     1      18.877  26.557   8.946  1.00  0.00    -0.003 C 
ATOM      7  C   UNL     1      17.691  27.502   8.783  1.00  0.00     0.004 C 
ENDBRANCH   5   6
ENDBRANCH   1   5
TORSDOF 3
ENDMDL
MODEL 3
REMARK VINA RESULT:    -3.552      1.284      2.127
REMARK INTER + INTRA:          -4.233
REMARK INTER:                  -4.211
REMARK INTRA:                  -0.022
REMARK UNBOUND:                -0.058
REMARK SMILES CCCCC(=O)[O-]
REMARK SMILES IDX 4 1 5 2 6 3 7 4 3 5 2 6 1 7
REMARK H PARENT
REMARK Flexibility Score: inf
ROOT
ATOM      1  C   UNL     1      18.134  25.281   8.323  1.00  0.00     0.053 C 
ENDROOT
BRANCH   1   2
ATOM      2  C   UNL     1      18.026  26.630   8.962  1.00  0.00     0.041 C 
ATOM      3  O   UNL     1      16.898  27.096   9.272  1.00  0.00    -0.550 OA
ATOM      4  O   UNL     1      19.168  27.394   9.170  1.00  0.00    -0.550 OA
ENDBRANCH   1   2
BRANCH   1   5
ATOM      5  C   UNL     1      19.474  24.628   8.673  1.00  0.00     0.006 C 
BRANCH   5   6
ATOM      6  C   UNL     1      19.829  23.529   7.664  1.00  0.00    -0.003 C 
ATOM      7  C   UNL     1      21.279  23.082   7.825  1.00  0.00     0.004 C 
ENDBRANCH   5   6
ENDBRANCH   1   5
TORSDOF 3
ENDMDL
MODEL 4
REMARK VINA RESULT:    -3.522      0.844      1.362
REMARK INTER + INTRA:          -4.198
REMARK INTER:                  -4.158
REMARK INTRA:                  -0.040
REMARK UNBOUND:                -0.058
REMARK SMILES CCCCC(=O)[O-]
REMARK SMILES IDX 4 1 5 2 6 3 7 4 3 5 2 6 1 7
REMARK H PARENT
REMARK Flexibility Score: inf
ROOT
ATOM      1  C   UNL     1      17.635  25.571   8.496  1.00  0.00     0.053 C 
ENDROOT
BRANCH   1   2
ATOM      2  C   UNL     1      17.931  27.003   8.813  1.00  0.00     0.041 C 
ATOM      3  O   UNL     1      19.120  27.413   8.842  1.00  0.00    -0.550 OA
ATOM      4  O   UNL     1      16.894  27.874   9.125  1.00  0.00    -0.550 OA
ENDBRANCH   1   2
BRANCH   1   5
ATOM      5  C   UNL     1      18.858  24.694   8.783  1.00  0.00     0.006 C 
BRANCH   5   6
ATOM      6  C   UNL     1      19.141  23.747   7.611  1.00  0.00    -0.003 C 
ATOM      7  C   UNL     1      20.548  23.163   7.704  1.00  0.00     0.004 C 
ENDBRANCH   5   6
ENDBRANCH   1   5
TORSDOF 3
ENDMDL
MODEL 5
REMARK VINA RESULT:    -3.484      2.517      3.514
REMARK INTER + INTRA:          -4.153
REMARK INTER:                  -4.089
REMARK INTRA:                  -0.064
REMARK UNBOUND:                -0.058
REMARK SMILES CCCCC(=O)[O-]
REMARK SMILES IDX 4 1 5 2 6 3 7 4 3 5 2 6 1 7
REMARK H PARENT
REMARK Flexibility Score: inf
ROOT
ATOM      1  C   UNL     1      19.051  24.707   8.382  1.00  0.00     0.053 C 
ENDROOT
BRANCH   1   2
ATOM      2  C   UNL     1      17.721  24.027   8.284  1.00  0.00     0.041 C 
ATOM      3  O   UNL     1      17.357  23.217   9.177  1.00  0.00    -0.550 OA
ATOM      4  O   UNL     1      16.905  24.251   7.182  1.00  0.00    -0.550 OA
ENDBRANCH   1   2
BRANCH   1   5
ATOM      5  C   UNL     1      19.064  25.694   9.552  1.00  0.00     0.006 C 
BRANCH   5   6
ATOM      6  C   UNL     1      18.959  27.140   9.051  1.00  0.00    -0.003 C 
ATOM      7  C   UNL     1      17.501  27.572   8.921  1.00  0.00     0.004 C 
ENDBRANCH   5   6
ENDBRANCH   1   5
TORSDOF 3
ENDMDL
MODEL 6
REMARK VINA RESULT:    -3.474      1.495      1.977
REMARK INTER + INTRA:          -4.141
REMARK INTER:                  -4.105
REMARK INTRA:                  -0.035
REMARK UNBOUND:                -0.058
REMARK SMILES CCCCC(=O)[O-]
REMARK SMILES IDX 4 1 5 2 6 3 7 4 3 5 2 6 1 7
REMARK H PARENT
REMARK Flexibility Score: inf
ROOT
ATOM      1  C   UNL     1      18.755  24.668   8.044  1.00  0.00     0.053 C 
ENDROOT
BRANCH   1   2
ATOM      2  C   UNL     1      18.865  25.912   8.868  1.00  0.00     0.041 C 
ATOM      3  O   UNL     1      18.730  27.042   8.330  1.00  0.00    -0.550 OA
ATOM      4  O   UNL     1      19.165  25.825  10.221  1.00  0.00    -0.550 OA
ENDBRANCH   1   2
BRANCH   1   5
ATOM      5  C   UNL     1      20.049  23.854   8.125  1.00  0.00     0.006 C 
BRANCH   5   6
ATOM      6  C   UNL     1      20.177  22.903   6.929  1.00  0.00    -0.003 C 
ATOM      7  C   UNL     1      18.866  22.817   6.152  1.00  0.00     0.004 C 
ENDBRANCH   5   6
ENDBRANCH   1   5
TORSDOF 3
ENDMDL
MODEL 7
REMARK VINA RESULT:    -3.460      2.581      3.468
REMARK INTER + INTRA:          -4.125
REMARK INTER:                  -4.042
REMARK INTRA:                  -0.083
REMARK UNBOUND:                -0.058
REMARK SMILES CCCCC(=O)[O-]
REMARK SMILES IDX 4 1 5 2 6 3 7 4 3 5 2 6 1 7
REMARK H PARENT
REMARK Flexibility Score: inf
ROOT
ATOM      1  C   UNL     1      17.727  25.011   8.463  1.00  0.00     0.053 C 
ENDROOT
BRANCH   1   2
ATOM      2  C   UNL     1      17.350  24.012   9.512  1.00  0.00     0.041 C 
ATOM      3  O   UNL     1      17.361  22.782   9.247  1.00  0.00    -0.550 OA
ATOM      4  O   UNL     1      16.940  24.444  10.767  1.00  0.00    -0.550 OA
ENDBRANCH   1   2
BRANCH   1   5
ATOM      5  C   UNL     1      19.096  25.624   8.773  1.00  0.00     0.006 C 
BRANCH   5   6
ATOM      6  C   UNL     1      18.973  27.125   9.059  1.00  0.00    -0.003 C 
ATOM      7  C   UNL     1      17.532  27.599   8.901  1.00  0.00     0.004 C 
ENDBRANCH   5   6
ENDBRANCH   1   5
TORSDOF 3
ENDMDL
MODEL 8
REMARK VINA RESULT:    -3.413      3.104      3.641
REMARK INTER + INTRA:          -4.070
REMARK INTER:                  -3.999
REMARK INTRA:                  -0.071
REMARK UNBOUND:                -0.058
REMARK SMILES CCCCC(=O)[O-]
REMARK SMILES IDX 4 1 5 2 6 3 7 4 3 5 2 6 1 7
REMARK H PARENT
REMARK Flexibility Score: inf
ROOT
ATOM      1  C   UNL     1      20.004  23.912   8.360  1.00  0.00     0.053 C 
ENDROOT
BRANCH   1   2
ATOM      2  C   UNL     1      19.615  23.675   9.786  1.00  0.00     0.041 C 
ATOM      3  O   UNL     1      20.288  22.889  10.503  1.00  0.00    -0.550 OA
ATOM      4  O   UNL     1      18.481  24.284  10.308  1.00  0.00    -0.550 OA
ENDBRANCH   1   2
BRANCH   1   5
ATOM      5  C   UNL     1      21.285  23.147   8.018  1.00  0.00     0.006 C 
BRANCH   5   6
ATOM      6  C   UNL     1      21.112  22.331   6.732  1.00  0.00    -0.003 C 
ATOM      7  C   UNL     1      19.713  22.512   6.150  1.00  0.00     0.004 C 
ENDBRANCH   5   6
ENDBRANCH   1   5
TORSDOF 3
ENDMDL
MODEL 9
REMARK VINA RESULT:    -3.356      3.095      4.019
REMARK INTER + INTRA:          -4.002
REMARK INTER:                  -3.953
REMARK INTRA:                  -0.049
REMARK UNBOUND:                -0.058
REMARK SMILES CCCCC(=O)[O-]
REMARK SMILES IDX 4 1 5 2 6 3 7 4 3 5 2 6 1 7
REMARK H PARENT
REMARK Flexibility Score: inf
ROOT
ATOM      1  C   UNL     1      19.497  24.689   8.556  1.00  0.00     0.053 C 
ENDROOT
BRANCH   1   2
ATOM      2  C   UNL     1      19.956  23.595   7.644  1.00  0.00     0.041 C 
ATOM      3  O   UNL     1      21.079  23.054   7.819  1.00  0.00    -0.550 OA
ATOM      4  O   UNL     1      19.164  23.207   6.570  1.00  0.00    -0.550 OA
ENDBRANCH   1   2
BRANCH   1   5
ATOM      5  C   UNL     1      18.044  25.065   8.253  1.00  0.00     0.006 C 
BRANCH   5   6
ATOM      6  C   UNL     1      17.759  26.519   8.648  1.00  0.00    -0.003 C 
ATOM      7  C   UNL     1      19.039  27.237   9.066  1.00  0.00     0.004 C 
ENDBRANCH   5   6
ENDBRANCH   1   5
TORSDOF 3
ENDMDL
