MODEL 1
REMARK VINA RESULT:    -3.857      0.000      0.000
REMARK INTER + INTRA:          -6.319
REMARK INTER:                  -5.887
REMARK INTRA:                  -0.433
REMARK UNBOUND:                -0.433
REMARK SMILES O=C([O-])CCCCCCCCC(=O)[O-]
REMARK SMILES IDX 7 1 6 2 5 3 4 4 2 5 1 6 3 7 8 8 9 9 10 10 11 11 12 12 13 13
REMARK SMILES IDX 14 14
REMARK H PARENT
REMARK Flexibility Score: inf
ROOT
ATOM      1  C   UNL     1      58.498   1.641  96.544  1.00  0.00     0.000 C 
ENDROOT
BRANCH   1   2
ATOM      2  C   UNL     1      58.109   3.043  96.050  1.00  0.00     0.000 C 
BRANCH   2   3
ATOM      3  C   UNL     1      58.894   4.158  96.758  1.00  0.00     0.006 C 
BRANCH   3   4
ATOM      4  C   UNL     1      58.696   5.530  96.099  1.00  0.00     0.053 C 
BRANCH   4   5
ATOM      5  C   UNL     1      59.867   6.417  96.380  1.00  0.00     0.041 C 
ATOM      6  O   UNL     1      61.039   5.998  96.193  1.00  0.00    -0.550 OA
ATOM      7  O   UNL     1      59.665   7.692  96.896  1.00  0.00    -0.550 OA
ENDBRANCH   4   5
ENDBRANCH   3   4
ENDBRANCH   2   3
ENDBRANCH   1   2
BRANCH   1   8
ATOM      8  C   UNL     1      59.923   1.636  97.114  1.00  0.00     0.000 C 
BRANCH   8   9
ATOM      9  C   UNL     1      60.715   0.367  96.746  1.00  0.00     0.000 C 
BRANCH   9  10
ATOM     10  C   UNL     1      60.028  -0.551  95.719  1.00  0.00     0.006 C 
BRANCH  10  11
ATOM     11  C   UNL     1      61.003  -1.126  94.684  1.00  0.00     0.053 C 
BRANCH  11  12
ATOM     12  C   UNL     1      60.386  -1.111  93.321  1.00  0.00     0.041 C 
ATOM     13  O   UNL     1      60.703  -1.986  92.473  1.00  0.00    -0.550 OA
ATOM     14  O   UNL     1      59.424  -0.161  93.003  1.00  0.00    -0.550 OA
ENDBRANCH  11  12
ENDBRANCH  10  11
ENDBRANCH   9  10
ENDBRANCH   8   9
ENDBRANCH   1   8
TORSDOF 9
ENDMDL
MODEL 2
REMARK VINA RESULT:    -3.771      1.284      1.636
REMARK INTER + INTRA:          -6.188
REMARK INTER:                  -5.769
REMARK INTRA:                  -0.419
REMARK UNBOUND:                -0.433
REMARK SMILES O=C([O-])CCCCCCCCC(=O)[O-]
REMARK SMILES IDX 7 1 6 2 5 3 4 4 2 5 1 6 3 7 8 8 9 9 10 10 11 11 12 12 13 13
REMARK SMILES IDX 14 14
REMARK H PARENT
REMARK Flexibility Score: inf
ROOT
ATOM      1  C   UNL     1      58.421   3.134  96.198  1.00  0.00     0.000 C 
ENDROOT
BRANCH   1   2
ATOM      2  C   UNL     1      59.274   4.015  97.125  1.00  0.00     0.000 C 
BRANCH   2   3
ATOM      3  C   UNL     1      59.267   5.493  96.707  1.00  0.00     0.006 C 
BRANCH   3   4
ATOM      4  C   UNL     1      60.647   5.986  96.254  1.00  0.00     0.053 C 
BRANCH   4   5
ATOM      5  C   UNL     1      60.620   7.461  96.005  1.00  0.00     0.041 C 
ATOM      6  O   UNL     1      61.000   7.923  94.897  1.00  0.00    -0.550 OA
ATOM      7  O   UNL     1      60.222   8.329  97.014  1.00  0.00    -0.550 OA
ENDBRANCH   4   5
ENDBRANCH   3   4
ENDBRANCH   2   3
ENDBRANCH   1   2
BRANCH   1   8
ATOM      8  C   UNL     1      58.622   1.645  96.520  1.00  0.00     0.000 C 
BRANCH   8   9
ATOM      9  C   UNL     1      60.066   1.308  96.933  1.00  0.00     0.000 C 
BRANCH   9  10
ATOM     10  C   UNL     1      60.568  -0.073  96.471  1.00  0.00     0.006 C 
BRANCH  10  11
ATOM     11  C   UNL     1      60.498  -0.256  94.950  1.00  0.00     0.053 C 
BRANCH  11  12
ATOM     12  C   UNL     1      59.644  -1.436  94.606  1.00  0.00     0.041 C 
ATOM     13  O   UNL     1      60.115  -2.378  93.916  1.00  0.00    -0.550 OA
ATOM     14  O   UNL     1      58.344  -1.518  95.088  1.00  0.00    -0.550 OA
ENDBRANCH  11  12
ENDBRANCH  10  11
ENDBRANCH   9  10
ENDBRANCH   8   9
ENDBRANCH   1   8
TORSDOF 9
ENDMDL
MODEL 3
REMARK VINA RESULT:    -3.651      0.662      6.571
REMARK INTER + INTRA:          -6.004
REMARK INTER:                  -5.499
REMARK INTRA:                  -0.505
REMARK UNBOUND:                -0.433
REMARK SMILES O=C([O-])CCCCCCCCC(=O)[O-]
REMARK SMILES IDX 7 1 6 2 5 3 4 4 2 5 1 6 3 7 8 8 9 9 10 10 11 11 12 12 13 13
REMARK SMILES IDX 14 14
REMARK H PARENT
REMARK Flexibility Score: inf
ROOT
ATOM      1  C   UNL     1      59.663   1.742  97.040  1.00  0.00     0.000 C 
ENDROOT
BRANCH   1   2
ATOM      2  C   UNL     1      60.543   0.516  96.750  1.00  0.00     0.000 C 
BRANCH   2   3
ATOM      3  C   UNL     1      59.833  -0.528  95.875  1.00  0.00     0.006 C 
BRANCH   3   4
ATOM      4  C   UNL     1      60.698  -1.003  94.701  1.00  0.00     0.053 C 
BRANCH   4   5
ATOM      5  C   UNL     1      59.990  -0.773  93.403  1.00  0.00     0.041 C 
ATOM      6  O   UNL     1      60.379  -1.355  92.357  1.00  0.00    -0.550 OA
ATOM      7  O   UNL     1      58.930   0.123  93.339  1.00  0.00    -0.550 OA
ENDBRANCH   4   5
ENDBRANCH   3   4
ENDBRANCH   2   3
ENDBRANCH   1   2
BRANCH   1   8
ATOM      8  C   UNL     1      58.234   1.528  96.521  1.00  0.00     0.000 C 
BRANCH   8   9
ATOM      9  C   UNL     1      57.437   2.839  96.394  1.00  0.00     0.000 C 
BRANCH   9  10
ATOM     10  C   UNL     1      58.274   4.074  96.013  1.00  0.00     0.006 C 
BRANCH  10  11
ATOM     11  C   UNL     1      58.290   5.146  97.109  1.00  0.00     0.053 C 
BRANCH  11  12
ATOM     12  C   UNL     1      59.253   6.237  96.758  1.00  0.00     0.041 C 
ATOM     13  O   UNL     1      60.335   5.962  96.176  1.00  0.00    -0.550 OA
ATOM     14  O   UNL     1      58.932   7.561  97.027  1.00  0.00    -0.550 OA
ENDBRANCH  11  12
ENDBRANCH  10  11
ENDBRANCH   9  10
ENDBRANCH   8   9
ENDBRANCH   1   8
TORSDOF 9
ENDMDL
MODEL 4
REMARK VINA RESULT:    -3.632      1.253      7.204
REMARK INTER + INTRA:          -5.975
REMARK INTER:                  -5.642
REMARK INTRA:                  -0.333
REMARK UNBOUND:                -0.433
REMARK SMILES O=C([O-])CCCCCCCCC(=O)[O-]
REMARK SMILES IDX 7 1 6 2 5 3 4 4 2 5 1 6 3 7 8 8 9 9 10 10 11 11 12 12 13 13
REMARK SMILES IDX 14 14
REMARK H PARENT
REMARK Flexibility Score: inf
ROOT
ATOM      1  C   UNL     1      58.424   2.110  96.859  1.00  0.00     0.000 C 
ENDROOT
BRANCH   1   2
ATOM      2  C   UNL     1      59.868   1.595  96.961  1.00  0.00     0.000 C 
BRANCH   2   3
ATOM      3  C   UNL     1      60.047   0.204  96.334  1.00  0.00     0.006 C 
BRANCH   3   4
ATOM      4  C   UNL     1      59.315   0.061  94.993  1.00  0.00     0.053 C 
BRANCH   4   5
ATOM      5  C   UNL     1      60.173  -0.661  94.004  1.00  0.00     0.041 C 
ATOM      6  O   UNL     1      61.085  -1.433  94.400  1.00  0.00    -0.550 OA
ATOM      7  O   UNL     1      59.999  -0.442  92.642  1.00  0.00    -0.550 OA
ENDBRANCH   4   5
ENDBRANCH   3   4
ENDBRANCH   2   3
ENDBRANCH   1   2
BRANCH   1   8
ATOM      8  C   UNL     1      58.393   3.561  96.356  1.00  0.00     0.000 C 
BRANCH   8   9
ATOM      9  C   UNL     1      59.361   4.483  97.121  1.00  0.00     0.000 C 
BRANCH   9  10
ATOM     10  C   UNL     1      59.620   5.847  96.455  1.00  0.00     0.006 C 
BRANCH  10  11
ATOM     11  C   UNL     1      58.691   6.952  96.972  1.00  0.00     0.053 C 
BRANCH  11  12
ATOM     12  C   UNL     1      59.112   8.282  96.433  1.00  0.00     0.041 C 
ATOM     13  O   UNL     1      58.480   8.807  95.478  1.00  0.00    -0.550 OA
ATOM     14  O   UNL     1      60.171   8.966  97.016  1.00  0.00    -0.550 OA
ENDBRANCH  11  12
ENDBRANCH  10  11
ENDBRANCH   9  10
ENDBRANCH   8   9
ENDBRANCH   1   8
TORSDOF 9
ENDMDL
MODEL 5
REMARK VINA RESULT:    -3.578      1.296      1.742
REMARK INTER + INTRA:          -5.893
REMARK INTER:                  -5.468
REMARK INTRA:                  -0.425
REMARK UNBOUND:                -0.433
REMARK SMILES O=C([O-])CCCCCCCCC(=O)[O-]
REMARK SMILES IDX 7 1 6 2 5 3 4 4 2 5 1 6 3 7 8 8 9 9 10 10 11 11 12 12 13 13
REMARK SMILES IDX 14 14
REMARK H PARENT
REMARK Flexibility Score: inf
ROOT
ATOM      1  C   UNL     1      58.269   3.129  96.191  1.00  0.00     0.000 C 
ENDROOT
BRANCH   1   2
ATOM      2  C   UNL     1      58.323   4.484  96.915  1.00  0.00     0.000 C 
BRANCH   2   3
ATOM      3  C   UNL     1      59.679   5.188  96.752  1.00  0.00     0.006 C 
BRANCH   3   4
ATOM      4  C   UNL     1      59.534   6.669  96.379  1.00  0.00     0.053 C 
BRANCH   4   5
ATOM      5  C   UNL     1      60.030   6.908  94.988  1.00  0.00     0.041 C 
ATOM      6  O   UNL     1      61.082   7.574  94.796  1.00  0.00    -0.550 OA
ATOM      7  O   UNL     1      59.304   6.439  93.901  1.00  0.00    -0.550 OA
ENDBRANCH   4   5
ENDBRANCH   3   4
ENDBRANCH   2   3
ENDBRANCH   1   2
BRANCH   1   8
ATOM      8  C   UNL     1      58.705   1.991  97.125  1.00  0.00     0.000 C 
BRANCH   8   9
ATOM      9  C   UNL     1      60.210   1.679  97.032  1.00  0.00     0.000 C 
BRANCH   9  10
ATOM     10  C   UNL     1      60.555   0.187  96.874  1.00  0.00     0.006 C 
BRANCH  10  11
ATOM     11  C   UNL     1      59.549  -0.571  96.000  1.00  0.00     0.053 C 
BRANCH  11  12
ATOM     12  C   UNL     1      60.099  -0.770  94.623  1.00  0.00     0.041 C 
ATOM     13  O   UNL     1      60.953  -1.670  94.406  1.00  0.00    -0.550 OA
ATOM     14  O   UNL     1      59.634   0.006  93.569  1.00  0.00    -0.550 OA
ENDBRANCH  11  12
ENDBRANCH  10  11
ENDBRANCH   9  10
ENDBRANCH   8   9
ENDBRANCH   1   8
TORSDOF 9
ENDMDL
MODEL 6
REMARK VINA RESULT:    -3.533      2.678      3.947
REMARK INTER + INTRA:          -5.824
REMARK INTER:                  -4.840
REMARK INTRA:                  -0.984
REMARK UNBOUND:                -0.433
REMARK SMILES O=C([O-])CCCCCCCCC(=O)[O-]
REMARK SMILES IDX 7 1 6 2 5 3 4 4 2 5 1 6 3 7 8 8 9 9 10 10 11 11 12 12 13 13
REMARK SMILES IDX 14 14
REMARK H PARENT
REMARK Flexibility Score: inf
ROOT
ATOM      1  C   UNL     1      60.100  -0.632  95.930  1.00  0.00     0.000 C 
ENDROOT
BRANCH   1   2
ATOM      2  C   UNL     1      60.625   0.536  96.781  1.00  0.00     0.000 C 
BRANCH   2   3
ATOM      3  C   UNL     1      59.595   1.665  96.935  1.00  0.00     0.006 C 
BRANCH   3   4
ATOM      4  C   UNL     1      58.219   1.292  96.370  1.00  0.00     0.053 C 
BRANCH   4   5
ATOM      5  C   UNL     1      57.737   2.350  95.427  1.00  0.00     0.041 C 
ATOM      6  O   UNL     1      58.025   3.558  95.630  1.00  0.00    -0.550 OA
ATOM      7  O   UNL     1      56.925   2.006  94.353  1.00  0.00    -0.550 OA
ENDBRANCH   4   5
ENDBRANCH   3   4
ENDBRANCH   2   3
ENDBRANCH   1   2
BRANCH   1   8
ATOM      8  C   UNL     1      61.122  -1.029  94.855  1.00  0.00     0.000 C 
BRANCH   8   9
ATOM      9  C   UNL     1      60.486  -1.241  93.469  1.00  0.00     0.000 C 
BRANCH   9  10
ATOM     10  C   UNL     1      59.366  -0.246  93.110  1.00  0.00     0.006 C 
BRANCH  10  11
ATOM     11  C   UNL     1      58.126  -0.929  92.520  1.00  0.00     0.053 C 
BRANCH  11  12
ATOM     12  C   UNL     1      57.513  -1.855  93.522  1.00  0.00     0.041 C 
ATOM     13  O   UNL     1      56.888  -1.392  94.512  1.00  0.00    -0.550 OA
ATOM     14  O   UNL     1      57.590  -3.230  93.338  1.00  0.00    -0.550 OA
ENDBRANCH  11  12
ENDBRANCH  10  11
ENDBRANCH   9  10
ENDBRANCH   8   9
ENDBRANCH   1   8
TORSDOF 9
ENDMDL
MODEL 7
REMARK VINA RESULT:    -3.532      3.557      5.783
REMARK INTER + INTRA:          -5.822
REMARK INTER:                  -5.099
REMARK INTRA:                  -0.723
REMARK UNBOUND:                -0.433
REMARK SMILES O=C([O-])CCCCCCCCC(=O)[O-]
REMARK SMILES IDX 7 1 6 2 5 3 4 4 2 5 1 6 3 7 8 8 9 9 10 10 11 11 12 12 13 13
REMARK SMILES IDX 14 14
REMARK H PARENT
REMARK Flexibility Score: inf
ROOT
ATOM      1  C   UNL     1      60.102  -0.638  95.883  1.00  0.00     0.000 C 
ENDROOT
BRANCH   1   2
ATOM      2  C   UNL     1      61.067  -1.097  94.779  1.00  0.00     0.000 C 
BRANCH   2   3
ATOM      3  C   UNL     1      60.406  -1.135  93.393  1.00  0.00     0.006 C 
BRANCH   3   4
ATOM      4  C   UNL     1      58.912  -0.792  93.440  1.00  0.00     0.053 C 
BRANCH   4   5
ATOM      5  C   UNL     1      58.557   0.153  92.336  1.00  0.00     0.041 C 
ATOM      6  O   UNL     1      59.376   0.378  91.407  1.00  0.00    -0.550 OA
ATOM      7  O   UNL     1      57.341   0.826  92.361  1.00  0.00    -0.550 OA
ENDBRANCH   4   5
ENDBRANCH   3   4
ENDBRANCH   2   3
ENDBRANCH   1   2
BRANCH   1   8
ATOM      8  C   UNL     1      60.741   0.455  96.751  1.00  0.00     0.000 C 
BRANCH   8   9
ATOM      9  C   UNL     1      59.805   1.651  97.000  1.00  0.00     0.000 C 
BRANCH   9  10
ATOM     10  C   UNL     1      58.540   1.678  96.123  1.00  0.00     0.006 C 
BRANCH  10  11
ATOM     11  C   UNL     1      57.273   2.032  96.911  1.00  0.00     0.053 C 
BRANCH  11  12
ATOM     12  C   UNL     1      56.271   0.925  96.813  1.00  0.00     0.041 C 
ATOM     13  O   UNL     1      55.039   1.186  96.799  1.00  0.00    -0.550 OA
ATOM     14  O   UNL     1      56.698  -0.390  96.687  1.00  0.00    -0.550 OA
ENDBRANCH  11  12
ENDBRANCH  10  11
ENDBRANCH   9  10
ENDBRANCH   8   9
ENDBRANCH   1   8
TORSDOF 9
ENDMDL
MODEL 8
REMARK VINA RESULT:    -3.515      4.263      5.307
REMARK INTER + INTRA:          -5.796
REMARK INTER:                  -4.660
REMARK INTRA:                  -1.137
REMARK UNBOUND:                -0.433
REMARK SMILES O=C([O-])CCCCCCCCC(=O)[O-]
REMARK SMILES IDX 7 1 6 2 5 3 4 4 2 5 1 6 3 7 8 8 9 9 10 10 11 11 12 12 13 13
REMARK SMILES IDX 14 14
REMARK H PARENT
REMARK Flexibility Score: inf
ROOT
ATOM      1  C   UNL     1      60.214  -0.425  96.321  1.00  0.00     0.000 C 
ENDROOT
BRANCH   1   2
ATOM      2  C   UNL     1      59.329   0.816  96.133  1.00  0.00     0.000 C 
BRANCH   2   3
ATOM      3  C   UNL     1      57.841   0.465  95.980  1.00  0.00     0.006 C 
BRANCH   3   4
ATOM      4  C   UNL     1      57.574  -1.041  96.096  1.00  0.00     0.053 C 
BRANCH   4   5
ATOM      5  C   UNL     1      57.029  -1.576  94.810  1.00  0.00     0.041 C 
ATOM      6  O   UNL     1      57.436  -2.679  94.360  1.00  0.00    -0.550 OA
ATOM      7  O   UNL     1      56.109  -0.832  94.082  1.00  0.00    -0.550 OA
ENDBRANCH   4   5
ENDBRANCH   3   4
ENDBRANCH   2   3
ENDBRANCH   1   2
BRANCH   1   8
ATOM      8  C   UNL     1      61.125  -0.640  95.103  1.00  0.00     0.000 C 
BRANCH   8   9
ATOM      9  C   UNL     1      60.757  -1.894  94.290  1.00  0.00     0.000 C 
BRANCH   9  10
ATOM     10  C   UNL     1      60.446  -1.637  92.804  1.00  0.00     0.006 C 
BRANCH  10  11
ATOM     11  C   UNL     1      59.699  -0.319  92.569  1.00  0.00     0.053 C 
BRANCH  11  12
ATOM     12  C   UNL     1      58.769  -0.447  91.404  1.00  0.00     0.041 C 
ATOM     13  O   UNL     1      58.034  -1.463  91.290  1.00  0.00    -0.550 OA
ATOM     14  O   UNL     1      58.677   0.578  90.471  1.00  0.00    -0.550 OA
ENDBRANCH  11  12
ENDBRANCH  10  11
ENDBRANCH   9  10
ENDBRANCH   8   9
ENDBRANCH   1   8
TORSDOF 9
ENDMDL
MODEL 9
REMARK VINA RESULT:    -3.446      2.267      3.574
REMARK INTER + INTRA:          -5.692
REMARK INTER:                  -5.097
REMARK INTRA:                  -0.595
REMARK UNBOUND:                -0.433
REMARK SMILES O=C([O-])CCCCCCCCC(=O)[O-]
REMARK SMILES IDX 7 1 6 2 5 3 4 4 2 5 1 6 3 7 8 8 9 9 10 10 11 11 12 12 13 13
REMARK SMILES IDX 14 14
REMARK H PARENT
REMARK Flexibility Score: inf
ROOT
ATOM      1  C   UNL     1      60.101  -0.594  95.860  1.00  0.00     0.000 C 
ENDROOT
BRANCH   1   2
ATOM      2  C   UNL     1      60.711   0.493  96.760  1.00  0.00     0.000 C 
BRANCH   2   3
ATOM      3  C   UNL     1      59.742   1.655  97.025  1.00  0.00     0.006 C 
BRANCH   3   4
ATOM      4  C   UNL     1      58.519   1.628  96.099  1.00  0.00     0.053 C 
BRANCH   4   5
ATOM      5  C   UNL     1      57.770   2.920  96.185  1.00  0.00     0.041 C 
ATOM      6  O   UNL     1      56.540   2.923  96.455  1.00  0.00    -0.550 OA
ATOM      7  O   UNL     1      58.419   4.119  95.915  1.00  0.00    -0.550 OA
ENDBRANCH   4   5
ENDBRANCH   3   4
ENDBRANCH   2   3
ENDBRANCH   1   2
BRANCH   1   8
ATOM      8  C   UNL     1      61.103  -1.042  94.786  1.00  0.00     0.000 C 
BRANCH   8   9
ATOM      9  C   UNL     1      60.534  -2.119  93.844  1.00  0.00     0.000 C 
BRANCH   9  10
ATOM     10  C   UNL     1      60.373  -1.678  92.377  1.00  0.00     0.006 C 
BRANCH  10  11
ATOM     11  C   UNL     1      59.673  -0.321  92.233  1.00  0.00     0.053 C 
BRANCH  11  12
ATOM     12  C   UNL     1      58.187  -0.497  92.238  1.00  0.00     0.041 C 
ATOM     13  O   UNL     1      57.576  -0.752  91.167  1.00  0.00    -0.550 OA
ATOM     14  O   UNL     1      57.482  -0.430  93.433  1.00  0.00    -0.550 OA
ENDBRANCH  11  12
ENDBRANCH  10  11
ENDBRANCH   9  10
ENDBRANCH   8   9
ENDBRANCH   1   8
TORSDOF 9
ENDMDL
