MODEL 1
REMARK VINA RESULT:    -4.131      0.000      0.000
REMARK INTER + INTRA:          -9.799
REMARK INTER:                  -7.513
REMARK INTRA:                  -2.287
REMARK UNBOUND:                -2.287
REMARK SMILES CCCCCCCCCCCCCCCC(=O)[O-]
REMARK SMILES IDX 9 1 10 2 11 3 12 4 13 5 14 6 15 7 16 8 17 9 18 10 8 11 7 12
REMARK SMILES IDX 6 13 5 14 4 15 3 16 2 17 1 18
REMARK H PARENT
REMARK Flexibility Score: inf
ROOT
ATOM      1  C   UNL     1      45.631  34.753 -13.381  1.00  0.00     0.000 C 
ENDROOT
BRANCH   1   2
ATOM      2  C   UNL     1      45.111  36.197 -13.266  1.00  0.00     0.000 C 
BRANCH   2   3
ATOM      3  C   UNL     1      43.657  36.324 -12.770  1.00  0.00     0.000 C 
BRANCH   3   4
ATOM      4  C   UNL     1      43.481  36.262 -11.241  1.00  0.00     0.000 C 
BRANCH   4   5
ATOM      5  C   UNL     1      44.675  36.797 -10.426  1.00  0.00     0.000 C 
BRANCH   5   6
ATOM      6  C   UNL     1      45.014  35.988  -9.157  1.00  0.00     0.006 C 
BRANCH   6   7
ATOM      7  C   UNL     1      45.752  34.667  -9.425  1.00  0.00     0.053 C 
BRANCH   7   8
ATOM      8  C   UNL     1      45.574  33.689  -8.305  1.00  0.00     0.041 C 
ATOM      9  O   UNL     1      46.576  33.137  -7.779  1.00  0.00    -0.550 OA
ATOM     10  O   UNL     1      44.302  33.413  -7.819  1.00  0.00    -0.550 OA
ENDBRANCH   7   8
ENDBRANCH   6   7
ENDBRANCH   5   6
ENDBRANCH   4   5
ENDBRANCH   3   4
ENDBRANCH   2   3
ENDBRANCH   1   2
BRANCH   1  11
ATOM     11  C   UNL     1      47.123  34.627 -13.026  1.00  0.00     0.000 C 
BRANCH  11  12
ATOM     12  C   UNL     1      47.685  35.898 -12.370  1.00  0.00    -0.000 C 
BRANCH  12  13
ATOM     13  C   UNL     1      49.032  36.328 -12.976  1.00  0.00    -0.000 C 
BRANCH  13  14
ATOM     14  C   UNL     1      48.914  37.599 -13.832  1.00  0.00    -0.000 C 
BRANCH  14  15
ATOM     15  C   UNL     1      49.005  37.304 -15.339  1.00  0.00    -0.000 C 
BRANCH  15  16
ATOM     16  C   UNL     1      47.626  37.093 -15.992  1.00  0.00    -0.000 C 
BRANCH  16  17
ATOM     17  C   UNL     1      47.403  35.696 -16.600  1.00  0.00    -0.003 C 
ATOM     18  C   UNL     1      48.611  34.775 -16.443  1.00  0.00     0.004 C 
ENDBRANCH  16  17
ENDBRANCH  15  16
ENDBRANCH  14  15
ENDBRANCH  13  14
ENDBRANCH  12  13
ENDBRANCH  11  12
ENDBRANCH   1  11
TORSDOF 14
ENDMDL
MODEL 2
REMARK VINA RESULT:    -4.097      2.448      5.222
REMARK INTER + INTRA:          -9.736
REMARK INTER:                  -7.364
REMARK INTRA:                  -2.373
REMARK UNBOUND:                -2.287
REMARK SMILES CCCCCCCCCCCCCCCC(=O)[O-]
REMARK SMILES IDX 9 1 10 2 11 3 12 4 13 5 14 6 15 7 16 8 17 9 18 10 8 11 7 12
REMARK SMILES IDX 6 13 5 14 4 15 3 16 2 17 1 18
REMARK H PARENT
REMARK Flexibility Score: inf
ROOT
ATOM      1  C   UNL     1      49.000  34.741 -16.517  1.00  0.00     0.000 C 
ENDROOT
BRANCH   1   2
ATOM      2  C   UNL     1      49.848  35.886 -17.100  1.00  0.00     0.000 C 
BRANCH   2   3
ATOM      3  C   UNL     1      50.878  36.490 -16.125  1.00  0.00     0.000 C 
BRANCH   3   4
ATOM      4  C   UNL     1      50.297  37.466 -15.084  1.00  0.00     0.000 C 
BRANCH   4   5
ATOM      5  C   UNL     1      50.535  37.069 -13.614  1.00  0.00     0.000 C 
BRANCH   5   6
ATOM      6  C   UNL     1      49.562  36.009 -13.059  1.00  0.00     0.006 C 
BRANCH   6   7
ATOM      7  C   UNL     1      49.511  35.935 -11.525  1.00  0.00     0.053 C 
BRANCH   7   8
ATOM      8  C   UNL     1      48.253  36.535 -10.977  1.00  0.00     0.041 C 
ATOM      9  O   UNL     1      47.547  35.889 -10.159  1.00  0.00    -0.550 OA
ATOM     10  O   UNL     1      47.878  37.820 -11.344  1.00  0.00    -0.550 OA
ENDBRANCH   7   8
ENDBRANCH   6   7
ENDBRANCH   5   6
ENDBRANCH   4   5
ENDBRANCH   3   4
ENDBRANCH   2   3
ENDBRANCH   1   2
BRANCH   1  11
ATOM     11  C   UNL     1      47.510  35.104 -16.398  1.00  0.00     0.000 C 
BRANCH  11  12
ATOM     12  C   UNL     1      47.156  36.405 -17.136  1.00  0.00    -0.000 C 
BRANCH  12  13
ATOM     13  C   UNL     1      46.574  37.476 -16.198  1.00  0.00    -0.000 C 
BRANCH  13  14
ATOM     14  C   UNL     1      46.706  37.094 -14.715  1.00  0.00    -0.000 C 
BRANCH  14  15
ATOM     15  C   UNL     1      45.436  37.417 -13.908  1.00  0.00    -0.000 C 
BRANCH  15  16
ATOM     16  C   UNL     1      45.036  36.284 -12.944  1.00  0.00    -0.000 C 
BRANCH  16  17
ATOM     17  C   UNL     1      45.223  34.861 -13.500  1.00  0.00    -0.003 C 
ATOM     18  C   UNL     1      46.310  34.072 -12.772  1.00  0.00     0.004 C 
ENDBRANCH  16  17
ENDBRANCH  15  16
ENDBRANCH  14  15
ENDBRANCH  13  14
ENDBRANCH  12  13
ENDBRANCH  11  12
ENDBRANCH   1  11
TORSDOF 14
ENDMDL
MODEL 3
REMARK VINA RESULT:    -4.093      1.291      2.239
REMARK INTER + INTRA:          -9.729
REMARK INTER:                  -8.184
REMARK INTRA:                  -1.545
REMARK UNBOUND:                -2.287
REMARK SMILES CCCCCCCCCCCCCCCC(=O)[O-]
REMARK SMILES IDX 9 1 10 2 11 3 12 4 13 5 14 6 15 7 16 8 17 9 18 10 8 11 7 12
REMARK SMILES IDX 6 13 5 14 4 15 3 16 2 17 1 18
REMARK H PARENT
REMARK Flexibility Score: inf
ROOT
ATOM      1  C   UNL     1      44.094  37.555 -12.670  1.00  0.00     0.000 C 
ENDROOT
BRANCH   1   2
ATOM      2  C   UNL     1      42.828  36.801 -12.226  1.00  0.00     0.000 C 
BRANCH   2   3
ATOM      3  C   UNL     1      41.992  37.519 -11.147  1.00  0.00     0.000 C 
BRANCH   3   4
ATOM      4  C   UNL     1      42.342  37.145  -9.694  1.00  0.00     0.000 C 
BRANCH   4   5
ATOM      5  C   UNL     1      43.122  35.826  -9.531  1.00  0.00     0.000 C 
BRANCH   5   6
ATOM      6  C   UNL     1      44.564  35.981  -9.007  1.00  0.00     0.006 C 
BRANCH   6   7
ATOM      7  C   UNL     1      45.485  34.792  -9.322  1.00  0.00     0.053 C 
BRANCH   7   8
ATOM      8  C   UNL     1      45.492  33.782  -8.216  1.00  0.00     0.041 C 
ATOM      9  O   UNL     1      46.580  33.299  -7.805  1.00  0.00    -0.550 OA
ATOM     10  O   UNL     1      44.300  33.399  -7.617  1.00  0.00    -0.550 OA
ENDBRANCH   7   8
ENDBRANCH   6   7
ENDBRANCH   5   6
ENDBRANCH   4   5
ENDBRANCH   3   4
ENDBRANCH   2   3
ENDBRANCH   1   2
BRANCH   1  11
ATOM     11  C   UNL     1      45.097  36.651 -13.408  1.00  0.00     0.000 C 
BRANCH  11  12
ATOM     12  C   UNL     1      44.909  35.162 -13.075  1.00  0.00    -0.000 C 
BRANCH  12  13
ATOM     13  C   UNL     1      46.246  34.409 -12.965  1.00  0.00    -0.000 C 
BRANCH  13  14
ATOM     14  C   UNL     1      47.455  35.307 -13.274  1.00  0.00    -0.000 C 
BRANCH  14  15
ATOM     15  C   UNL     1      48.317  34.759 -14.425  1.00  0.00    -0.000 C 
BRANCH  15  16
ATOM     16  C   UNL     1      47.569  34.730 -15.771  1.00  0.00    -0.000 C 
BRANCH  16  17
ATOM     17  C   UNL     1      48.117  35.692 -16.840  1.00  0.00    -0.003 C 
ATOM     18  C   UNL     1      47.057  36.647 -17.387  1.00  0.00     0.004 C 
ENDBRANCH  16  17
ENDBRANCH  15  16
ENDBRANCH  14  15
ENDBRANCH  13  14
ENDBRANCH  12  13
ENDBRANCH  11  12
ENDBRANCH   1  11
TORSDOF 14
ENDMDL
MODEL 4
REMARK VINA RESULT:    -4.085      2.387      4.801
REMARK INTER + INTRA:          -9.715
REMARK INTER:                  -7.630
REMARK INTRA:                  -2.085
REMARK UNBOUND:                -2.287
REMARK SMILES CCCCCCCCCCCCCCCC(=O)[O-]
REMARK SMILES IDX 9 1 10 2 11 3 12 4 13 5 14 6 15 7 16 8 17 9 18 10 8 11 7 12
REMARK SMILES IDX 6 13 5 14 4 15 3 16 2 17 1 18
REMARK H PARENT
REMARK Flexibility Score: inf
ROOT
ATOM      1  C   UNL     1      49.013  34.905 -16.171  1.00  0.00     0.000 C 
ENDROOT
BRANCH   1   2
ATOM      2  C   UNL     1      47.522  35.108 -16.494  1.00  0.00     0.000 C 
BRANCH   2   3
ATOM      3  C   UNL     1      47.145  36.536 -16.938  1.00  0.00     0.000 C 
BRANCH   3   4
ATOM      4  C   UNL     1      47.037  37.567 -15.798  1.00  0.00     0.000 C 
BRANCH   4   5
ATOM      5  C   UNL     1      45.600  37.887 -15.343  1.00  0.00     0.000 C 
BRANCH   5   6
ATOM      6  C   UNL     1      45.329  37.674 -13.840  1.00  0.00     0.006 C 
BRANCH   6   7
ATOM      7  C   UNL     1      44.919  36.241 -13.466  1.00  0.00     0.053 C 
BRANCH   7   8
ATOM      8  C   UNL     1      43.890  36.219 -12.378  1.00  0.00     0.041 C 
ATOM      9  O   UNL     1      42.677  36.422 -12.648  1.00  0.00    -0.550 OA
ATOM     10  O   UNL     1      44.267  35.943 -11.070  1.00  0.00    -0.550 OA
ENDBRANCH   7   8
ENDBRANCH   6   7
ENDBRANCH   5   6
ENDBRANCH   4   5
ENDBRANCH   3   4
ENDBRANCH   2   3
ENDBRANCH   1   2
BRANCH   1  11
ATOM     11  C   UNL     1      49.941  35.466 -17.262  1.00  0.00     0.000 C 
BRANCH  11  12
ATOM     12  C   UNL     1      51.162  36.198 -16.683  1.00  0.00    -0.000 C 
BRANCH  12  13
ATOM     13  C   UNL     1      50.775  37.472 -15.913  1.00  0.00    -0.000 C 
BRANCH  13  14
ATOM     14  C   UNL     1      51.111  37.380 -14.415  1.00  0.00    -0.000 C 
BRANCH  14  15
ATOM     15  C   UNL     1      49.858  37.442 -13.525  1.00  0.00    -0.000 C 
BRANCH  15  16
ATOM     16  C   UNL     1      49.668  36.174 -12.671  1.00  0.00    -0.000 C 
BRANCH  16  17
ATOM     17  C   UNL     1      48.224  35.913 -12.207  1.00  0.00    -0.003 C 
ATOM     18  C   UNL     1      47.895  36.578 -10.872  1.00  0.00     0.004 C 
ENDBRANCH  16  17
ENDBRANCH  15  16
ENDBRANCH  14  15
ENDBRANCH  13  14
ENDBRANCH  12  13
ENDBRANCH  11  12
ENDBRANCH   1  11
TORSDOF 14
ENDMDL
MODEL 5
REMARK VINA RESULT:    -4.082      1.982      3.345
REMARK INTER + INTRA:          -9.709
REMARK INTER:                  -7.636
REMARK INTRA:                  -2.073
REMARK UNBOUND:                -2.287
REMARK SMILES CCCCCCCCCCCCCCCC(=O)[O-]
REMARK SMILES IDX 9 1 10 2 11 3 12 4 13 5 14 6 15 7 16 8 17 9 18 10 8 11 7 12
REMARK SMILES IDX 6 13 5 14 4 15 3 16 2 17 1 18
REMARK H PARENT
REMARK Flexibility Score: inf
ROOT
ATOM      1  C   UNL     1      48.767  35.523 -13.116  1.00  0.00     0.000 C 
ENDROOT
BRANCH   1   2
ATOM      2  C   UNL     1      47.505  35.454 -12.238  1.00  0.00     0.000 C 
BRANCH   2   3
ATOM      3  C   UNL     1      46.447  34.434 -12.704  1.00  0.00     0.000 C 
BRANCH   3   4
ATOM      4  C   UNL     1      45.248  35.037 -13.463  1.00  0.00     0.000 C 
BRANCH   4   5
ATOM      5  C   UNL     1      45.230  36.576 -13.534  1.00  0.00     0.000 C 
BRANCH   5   6
ATOM      6  C   UNL     1      44.075  37.251 -12.766  1.00  0.00     0.006 C 
BRANCH   6   7
ATOM      7  C   UNL     1      43.229  36.288 -11.919  1.00  0.00     0.053 C 
BRANCH   7   8
ATOM      8  C   UNL     1      43.630  36.313 -10.476  1.00  0.00     0.041 C 
ATOM      9  O   UNL     1      42.885  35.796  -9.602  1.00  0.00    -0.550 OA
ATOM     10  O   UNL     1      44.842  36.876 -10.101  1.00  0.00    -0.550 OA
ENDBRANCH   7   8
ENDBRANCH   6   7
ENDBRANCH   5   6
ENDBRANCH   4   5
ENDBRANCH   3   4
ENDBRANCH   2   3
ENDBRANCH   1   2
BRANCH   1  11
ATOM     11  C   UNL     1      49.215  36.967 -13.402  1.00  0.00     0.000 C 
BRANCH  11  12
ATOM     12  C   UNL     1      50.647  37.044 -13.956  1.00  0.00    -0.000 C 
BRANCH  12  13
ATOM     13  C   UNL     1      50.685  37.460 -15.437  1.00  0.00    -0.000 C 
BRANCH  13  14
ATOM     14  C   UNL     1      51.032  36.288 -16.369  1.00  0.00    -0.000 C 
BRANCH  14  15
ATOM     15  C   UNL     1      49.839  35.853 -17.238  1.00  0.00    -0.000 C 
BRANCH  15  16
ATOM     16  C   UNL     1      48.981  34.762 -16.571  1.00  0.00    -0.000 C 
BRANCH  16  17
ATOM     17  C   UNL     1      47.476  35.078 -16.493  1.00  0.00    -0.003 C 
ATOM     18  C   UNL     1      47.150  36.531 -16.834  1.00  0.00     0.004 C 
ENDBRANCH  16  17
ENDBRANCH  15  16
ENDBRANCH  14  15
ENDBRANCH  13  14
ENDBRANCH  12  13
ENDBRANCH  11  12
ENDBRANCH   1  11
TORSDOF 14
ENDMDL
MODEL 6
REMARK VINA RESULT:    -4.080      2.351      2.940
REMARK INTER + INTRA:          -9.705
REMARK INTER:                  -7.867
REMARK INTRA:                  -1.838
REMARK UNBOUND:                -2.287
REMARK SMILES CCCCCCCCCCCCCCCC(=O)[O-]
REMARK SMILES IDX 9 1 10 2 11 3 12 4 13 5 14 6 15 7 16 8 17 9 18 10 8 11 7 12
REMARK SMILES IDX 6 13 5 14 4 15 3 16 2 17 1 18
REMARK H PARENT
REMARK Flexibility Score: inf
ROOT
ATOM      1  C   UNL     1      44.188  36.045 -12.925  1.00  0.00     0.000 C 
ENDROOT
BRANCH   1   2
ATOM      2  C   UNL     1      42.868  36.520 -12.293  1.00  0.00     0.000 C 
BRANCH   2   3
ATOM      3  C   UNL     1      43.004  37.105 -10.872  1.00  0.00     0.000 C 
BRANCH   3   4
ATOM      4  C   UNL     1      42.790  36.095  -9.728  1.00  0.00     0.000 C 
BRANCH   4   5
ATOM      5  C   UNL     1      44.083  35.520  -9.117  1.00  0.00     0.000 C 
BRANCH   5   6
ATOM      6  C   UNL     1      45.347  36.373  -9.346  1.00  0.00     0.006 C 
BRANCH   6   7
ATOM      7  C   UNL     1      46.517  35.613  -9.991  1.00  0.00     0.053 C 
BRANCH   7   8
ATOM      8  C   UNL     1      47.568  36.543 -10.515  1.00  0.00     0.041 C 
ATOM      9  O   UNL     1      48.608  36.085 -11.056  1.00  0.00    -0.550 OA
ATOM     10  O   UNL     1      47.382  37.917 -10.436  1.00  0.00    -0.550 OA
ENDBRANCH   7   8
ENDBRANCH   6   7
ENDBRANCH   5   6
ENDBRANCH   4   5
ENDBRANCH   3   4
ENDBRANCH   2   3
ENDBRANCH   1   2
BRANCH   1  11
ATOM     11  C   UNL     1      45.097  37.210 -13.353  1.00  0.00     0.000 C 
BRANCH  11  12
ATOM     12  C   UNL     1      46.424  36.733 -13.964  1.00  0.00    -0.000 C 
BRANCH  12  13
ATOM     13  C   UNL     1      46.550  35.199 -13.976  1.00  0.00    -0.000 C 
BRANCH  13  14
ATOM     14  C   UNL     1      47.976  34.728 -14.304  1.00  0.00    -0.000 C 
BRANCH  14  15
ATOM     15  C   UNL     1      48.263  34.728 -15.816  1.00  0.00    -0.000 C 
BRANCH  15  16
ATOM     16  C   UNL     1      49.186  35.882 -16.249  1.00  0.00    -0.000 C 
BRANCH  16  17
ATOM     17  C   UNL     1      48.621  36.783 -17.361  1.00  0.00    -0.003 C 
ATOM     18  C   UNL     1      47.103  36.679 -17.503  1.00  0.00     0.004 C 
ENDBRANCH  16  17
ENDBRANCH  15  16
ENDBRANCH  14  15
ENDBRANCH  13  14
ENDBRANCH  12  13
ENDBRANCH  11  12
ENDBRANCH   1  11
TORSDOF 14
ENDMDL
MODEL 7
REMARK VINA RESULT:    -4.062      1.656      3.507
REMARK INTER + INTRA:          -9.673
REMARK INTER:                  -7.528
REMARK INTRA:                  -2.144
REMARK UNBOUND:                -2.287
REMARK SMILES CCCCCCCCCCCCCCCC(=O)[O-]
REMARK SMILES IDX 9 1 10 2 11 3 12 4 13 5 14 6 15 7 16 8 17 9 18 10 8 11 7 12
REMARK SMILES IDX 6 13 5 14 4 15 3 16 2 17 1 18
REMARK H PARENT
REMARK Flexibility Score: inf
ROOT
ATOM      1  C   UNL     1      47.069  36.407 -16.926  1.00  0.00     0.000 C 
ENDROOT
BRANCH   1   2
ATOM      2  C   UNL     1      46.584  37.456 -15.910  1.00  0.00     0.000 C 
BRANCH   2   3
ATOM      3  C   UNL     1      46.692  37.026 -14.433  1.00  0.00     0.000 C 
BRANCH   3   4
ATOM      4  C   UNL     1      45.346  36.769 -13.729  1.00  0.00     0.000 C 
BRANCH   4   5
ATOM      5  C   UNL     1      45.232  35.405 -13.020  1.00  0.00     0.000 C 
BRANCH   5   6
ATOM      6  C   UNL     1      46.525  34.915 -12.338  1.00  0.00     0.006 C 
BRANCH   6   7
ATOM      7  C   UNL     1      46.936  35.726 -11.099  1.00  0.00     0.053 C 
BRANCH   7   8
ATOM      8  C   UNL     1      46.091  35.394  -9.908  1.00  0.00     0.041 C 
ATOM      9  O   UNL     1      45.215  36.205  -9.507  1.00  0.00    -0.550 OA
ATOM     10  O   UNL     1      46.248  34.176  -9.261  1.00  0.00    -0.550 OA
ENDBRANCH   7   8
ENDBRANCH   6   7
ENDBRANCH   5   6
ENDBRANCH   4   5
ENDBRANCH   3   4
ENDBRANCH   2   3
ENDBRANCH   1   2
BRANCH   1  11
ATOM     11  C   UNL     1      47.508  35.092 -16.260  1.00  0.00     0.000 C 
BRANCH  11  12
ATOM     12  C   UNL     1      48.994  34.777 -16.494  1.00  0.00    -0.000 C 
BRANCH  12  13
ATOM     13  C   UNL     1      49.735  35.922 -17.205  1.00  0.00    -0.000 C 
BRANCH  13  14
ATOM     14  C   UNL     1      51.196  36.053 -16.745  1.00  0.00    -0.000 C 
BRANCH  14  15
ATOM     15  C   UNL     1      51.464  37.375 -16.005  1.00  0.00    -0.000 C 
BRANCH  15  16
ATOM     16  C   UNL     1      50.273  37.827 -15.139  1.00  0.00    -0.000 C 
BRANCH  16  17
ATOM     17  C   UNL     1      50.446  37.598 -13.627  1.00  0.00    -0.003 C 
ATOM     18  C   UNL     1      50.018  36.201 -13.180  1.00  0.00     0.004 C 
ENDBRANCH  16  17
ENDBRANCH  15  16
ENDBRANCH  14  15
ENDBRANCH  13  14
ENDBRANCH  12  13
ENDBRANCH  11  12
ENDBRANCH   1  11
TORSDOF 14
ENDMDL
MODEL 8
REMARK VINA RESULT:    -3.994      2.463      3.980
REMARK INTER + INTRA:          -9.549
REMARK INTER:                  -7.404
REMARK INTRA:                  -2.145
REMARK UNBOUND:                -2.287
REMARK SMILES CCCCCCCCCCCCCCCC(=O)[O-]
REMARK SMILES IDX 9 1 10 2 11 3 12 4 13 5 14 6 15 7 16 8 17 9 18 10 8 11 7 12
REMARK SMILES IDX 6 13 5 14 4 15 3 16 2 17 1 18
REMARK H PARENT
REMARK Flexibility Score: inf
ROOT
ATOM      1  C   UNL     1      48.187  34.609 -13.833  1.00  0.00     0.000 C 
ENDROOT
BRANCH   1   2
ATOM      2  C   UNL     1      48.972  35.796 -13.246  1.00  0.00     0.000 C 
BRANCH   2   3
ATOM      3  C   UNL     1      48.384  37.184 -13.570  1.00  0.00     0.000 C 
BRANCH   3   4
ATOM      4  C   UNL     1      48.063  38.060 -12.343  1.00  0.00     0.000 C 
BRANCH   4   5
ATOM      5  C   UNL     1      46.648  37.874 -11.763  1.00  0.00     0.000 C 
BRANCH   5   6
ATOM      6  C   UNL     1      46.513  36.746 -10.719  1.00  0.00     0.006 C 
BRANCH   6   7
ATOM      7  C   UNL     1      45.713  35.526 -11.202  1.00  0.00     0.053 C 
BRANCH   7   8
ATOM      8  C   UNL     1      44.362  35.913 -11.720  1.00  0.00     0.041 C 
ATOM      9  O   UNL     1      43.447  36.242 -10.920  1.00  0.00    -0.550 OA
ATOM     10  O   UNL     1      44.123  35.941 -13.088  1.00  0.00    -0.550 OA
ENDBRANCH   7   8
ENDBRANCH   6   7
ENDBRANCH   5   6
ENDBRANCH   4   5
ENDBRANCH   3   4
ENDBRANCH   2   3
ENDBRANCH   1   2
BRANCH   1  11
ATOM     11  C   UNL     1      47.087  35.049 -14.814  1.00  0.00     0.000 C 
BRANCH  11  12
ATOM     12  C   UNL     1      47.466  34.794 -16.282  1.00  0.00    -0.000 C 
BRANCH  12  13
ATOM     13  C   UNL     1      47.516  36.089 -17.111  1.00  0.00    -0.000 C 
BRANCH  13  14
ATOM     14  C   UNL     1      48.940  36.656 -17.230  1.00  0.00    -0.000 C 
BRANCH  14  15
ATOM     15  C   UNL     1      50.020  35.606 -16.917  1.00  0.00    -0.000 C 
BRANCH  15  16
ATOM     16  C   UNL     1      51.444  36.194 -16.920  1.00  0.00    -0.000 C 
BRANCH  16  17
ATOM     17  C   UNL     1      51.605  37.511 -16.141  1.00  0.00    -0.003 C 
ATOM     18  C   UNL     1      52.003  37.299 -14.681  1.00  0.00     0.004 C 
ENDBRANCH  16  17
ENDBRANCH  15  16
ENDBRANCH  14  15
ENDBRANCH  13  14
ENDBRANCH  12  13
ENDBRANCH  11  12
ENDBRANCH   1  11
TORSDOF 14
ENDMDL
MODEL 9
REMARK VINA RESULT:    -3.899      1.124      2.145
REMARK INTER + INTRA:          -9.378
REMARK INTER:                  -7.458
REMARK INTRA:                  -1.920
REMARK UNBOUND:                -2.287
REMARK SMILES CCCCCCCCCCCCCCCC(=O)[O-]
REMARK SMILES IDX 9 1 10 2 11 3 12 4 13 5 14 6 15 7 16 8 17 9 18 10 8 11 7 12
REMARK SMILES IDX 6 13 5 14 4 15 3 16 2 17 1 18
REMARK H PARENT
REMARK Flexibility Score: inf
ROOT
ATOM      1  C   UNL     1      46.464  36.766 -14.094  1.00  0.00     0.000 C 
ENDROOT
BRANCH   1   2
ATOM      2  C   UNL     1      45.098  37.286 -13.616  1.00  0.00     0.000 C 
BRANCH   2   3
ATOM      3  C   UNL     1      44.142  36.200 -13.083  1.00  0.00     0.000 C 
BRANCH   3   4
ATOM      4  C   UNL     1      43.905  36.229 -11.560  1.00  0.00     0.000 C 
BRANCH   4   5
ATOM      5  C   UNL     1      44.751  37.261 -10.789  1.00  0.00     0.000 C 
BRANCH   5   6
ATOM      6  C   UNL     1      45.637  36.672  -9.671  1.00  0.00     0.006 C 
BRANCH   6   7
ATOM      7  C   UNL     1      46.081  35.221  -9.912  1.00  0.00     0.053 C 
BRANCH   7   8
ATOM      8  C   UNL     1      45.886  34.368  -8.696  1.00  0.00     0.041 C 
ATOM      9  O   UNL     1      46.855  33.728  -8.208  1.00  0.00    -0.550 OA
ATOM     10  O   UNL     1      44.642  34.305  -8.084  1.00  0.00    -0.550 OA
ENDBRANCH   7   8
ENDBRANCH   6   7
ENDBRANCH   5   6
ENDBRANCH   4   5
ENDBRANCH   3   4
ENDBRANCH   2   3
ENDBRANCH   1   2
BRANCH   1  11
ATOM     11  C   UNL     1      46.760  35.336 -13.611  1.00  0.00     0.000 C 
BRANCH  11  12
ATOM     12  C   UNL     1      47.809  34.622 -14.478  1.00  0.00    -0.000 C 
BRANCH  12  13
ATOM     13  C   UNL     1      47.515  34.748 -15.983  1.00  0.00    -0.000 C 
BRANCH  13  14
ATOM     14  C   UNL     1      48.729  35.252 -16.780  1.00  0.00    -0.000 C 
BRANCH  14  15
ATOM     15  C   UNL     1      48.592  36.729 -17.190  1.00  0.00    -0.000 C 
BRANCH  15  16
ATOM     16  C   UNL     1      49.507  37.662 -16.375  1.00  0.00    -0.000 C 
BRANCH  16  17
ATOM     17  C   UNL     1      50.497  36.946 -15.439  1.00  0.00    -0.003 C 
ATOM     18  C   UNL     1      50.326  37.340 -13.973  1.00  0.00     0.004 C 
ENDBRANCH  16  17
ENDBRANCH  15  16
ENDBRANCH  14  15
ENDBRANCH  13  14
ENDBRANCH  12  13
ENDBRANCH  11  12
ENDBRANCH   1  11
TORSDOF 14
ENDMDL
