MODEL 1
REMARK VINA RESULT:    -3.299      0.000      0.000
REMARK INTER + INTRA:          -8.287
REMARK INTER:                  -5.998
REMARK INTRA:                  -2.288
REMARK UNBOUND:                -2.288
REMARK SMILES CCCCCCCCCCCCCC[C@H](C)C(=O)[O-]
REMARK SMILES IDX 9 1 10 2 11 3 12 4 13 5 14 6 15 7 16 8 17 9 18 10 19 11 8 12
REMARK SMILES IDX 7 13 6 14 5 15 4 16 3 17 2 18 1 19
REMARK H PARENT
REMARK Flexibility Score: inf
ROOT
ATOM      1  C   UNL     1       5.365  -8.497   3.795  1.00  0.00     0.000 C 
ENDROOT
BRANCH   1   2
ATOM      2  C   UNL     1       4.991  -9.976   4.000  1.00  0.00     0.000 C 
BRANCH   2   3
ATOM      3  C   UNL     1       3.831 -10.158   4.992  1.00  0.00     0.000 C 
BRANCH   3   4
ATOM      4  C   UNL     1       4.195 -11.083   6.167  1.00  0.00     0.000 C 
BRANCH   4   5
ATOM      5  C   UNL     1       3.823 -10.479   7.532  1.00  0.00     0.001 C 
BRANCH   5   6
ATOM      6  C   UNL     1       2.986  -9.191   7.397  1.00  0.00     0.009 C 
BRANCH   6   7
ATOM      7  C   UNL     1       3.411  -8.053   8.353  1.00  0.00     0.032 C 
ATOM      8  C   UNL     1       4.518  -8.479   9.329  1.00  0.00     0.014 C 
BRANCH   7   9
ATOM      9  C   UNL     1       2.230  -7.464   9.078  1.00  0.00     0.044 C 
ATOM     10  O   UNL     1       2.211  -6.235   9.352  1.00  0.00    -0.550 OA
ATOM     11  O   UNL     1       1.130  -8.252   9.403  1.00  0.00    -0.550 OA
ENDBRANCH   7   9
ENDBRANCH   6   7
ENDBRANCH   5   6
ENDBRANCH   4   5
ENDBRANCH   3   4
ENDBRANCH   2   3
ENDBRANCH   1   2
BRANCH   1  12
ATOM     12  C   UNL     1       6.661  -8.109   4.526  1.00  0.00     0.000 C 
BRANCH  12  13
ATOM     13  C   UNL     1       6.453  -7.915   6.039  1.00  0.00    -0.000 C 
BRANCH  13  14
ATOM     14  C   UNL     1       7.185  -8.977   6.876  1.00  0.00    -0.000 C 
BRANCH  14  15
ATOM     15  C   UNL     1       8.566  -8.501   7.356  1.00  0.00    -0.000 C 
BRANCH  15  16
ATOM     16  C   UNL     1       8.446  -7.697   8.658  1.00  0.00    -0.000 C 
BRANCH  16  17
ATOM     17  C   UNL     1       9.203  -6.361   8.601  1.00  0.00    -0.000 C 
BRANCH  17  18
ATOM     18  C   UNL     1       8.266  -5.156   8.427  1.00  0.00    -0.003 C 
ATOM     19  C   UNL     1       6.846  -5.496   8.870  1.00  0.00     0.004 C 
ENDBRANCH  17  18
ENDBRANCH  16  17
ENDBRANCH  15  16
ENDBRANCH  14  15
ENDBRANCH  13  14
ENDBRANCH  12  13
ENDBRANCH   1  12
TORSDOF 14
ENDMDL
MODEL 2
REMARK VINA RESULT:    -3.254      2.397      5.120
REMARK INTER + INTRA:          -8.205
REMARK INTER:                  -5.934
REMARK INTRA:                  -2.270
REMARK UNBOUND:                -2.288
REMARK SMILES CCCCCCCCCCCCCC[C@H](C)C(=O)[O-]
REMARK SMILES IDX 9 1 10 2 11 3 12 4 13 5 14 6 15 7 16 8 17 9 18 10 19 11 8 12
REMARK SMILES IDX 7 13 6 14 5 15 4 16 3 17 2 18 1 19
REMARK H PARENT
REMARK Flexibility Score: inf
ROOT
ATOM      1  C   UNL     1       6.454  -8.116   4.196  1.00  0.00     0.000 C 
ENDROOT
BRANCH   1   2
ATOM      2  C   UNL     1       6.461  -7.921   5.722  1.00  0.00     0.000 C 
BRANCH   2   3
ATOM      3  C   UNL     1       7.685  -8.565   6.393  1.00  0.00     0.000 C 
BRANCH   3   4
ATOM      4  C   UNL     1       7.302  -9.499   7.556  1.00  0.00     0.000 C 
BRANCH   4   5
ATOM      5  C   UNL     1       7.432  -8.818   8.928  1.00  0.00     0.001 C 
BRANCH   5   6
ATOM      6  C   UNL     1       8.390  -7.609   8.897  1.00  0.00     0.009 C 
BRANCH   6   7
ATOM      7  C   UNL     1       7.740  -6.272   9.321  1.00  0.00     0.032 C 
ATOM      8  C   UNL     1       6.212  -6.280   9.170  1.00  0.00     0.014 C 
BRANCH   7   9
ATOM      9  C   UNL     1       8.362  -5.101   8.608  1.00  0.00     0.044 C 
ATOM     10  O   UNL     1       9.600  -5.090   8.380  1.00  0.00    -0.550 OA
ATOM     11  O   UNL     1       7.576  -4.049   8.149  1.00  0.00    -0.550 OA
ENDBRANCH   7   9
ENDBRANCH   6   7
ENDBRANCH   5   6
ENDBRANCH   4   5
ENDBRANCH   3   4
ENDBRANCH   2   3
ENDBRANCH   1   2
BRANCH   1  12
ATOM     12  C   UNL     1       5.260  -8.956   3.714  1.00  0.00     0.000 C 
BRANCH  12  13
ATOM     13  C   UNL     1       4.978 -10.163   4.626  1.00  0.00    -0.000 C 
BRANCH  13  14
ATOM     14  C   UNL     1       3.513 -10.622   4.562  1.00  0.00    -0.000 C 
BRANCH  14  15
ATOM     15  C   UNL     1       2.843 -10.652   5.945  1.00  0.00    -0.000 C 
BRANCH  15  16
ATOM     16  C   UNL     1       3.884 -10.872   7.053  1.00  0.00    -0.000 C 
BRANCH  16  17
ATOM     17  C   UNL     1       3.637  -9.983   8.283  1.00  0.00    -0.000 C 
BRANCH  17  18
ATOM     18  C   UNL     1       3.580  -8.489   7.931  1.00  0.00    -0.003 C 
ATOM     19  C   UNL     1       2.332  -7.834   8.516  1.00  0.00     0.004 C 
ENDBRANCH  17  18
ENDBRANCH  16  17
ENDBRANCH  15  16
ENDBRANCH  14  15
ENDBRANCH  13  14
ENDBRANCH  12  13
ENDBRANCH   1  12
TORSDOF 14
ENDMDL
MODEL 3
REMARK VINA RESULT:    -3.231      1.430      2.342
REMARK INTER + INTRA:          -8.163
REMARK INTER:                  -6.145
REMARK INTRA:                  -2.018
REMARK UNBOUND:                -2.288
REMARK SMILES CCCCCCCCCCCCCC[C@H](C)C(=O)[O-]
REMARK SMILES IDX 9 1 10 2 11 3 12 4 13 5 14 6 15 7 16 8 17 9 18 10 19 11 8 12
REMARK SMILES IDX 7 13 6 14 5 15 4 16 3 17 2 18 1 19
REMARK H PARENT
REMARK Flexibility Score: inf
ROOT
ATOM      1  C   UNL     1       6.489  -8.040   5.813  1.00  0.00     0.000 C 
ENDROOT
BRANCH   1   2
ATOM      2  C   UNL     1       6.471  -7.998   4.275  1.00  0.00     0.000 C 
BRANCH   2   3
ATOM      3  C   UNL     1       5.292  -8.784   3.678  1.00  0.00     0.000 C 
BRANCH   3   4
ATOM      4  C   UNL     1       5.123 -10.175   4.314  1.00  0.00     0.000 C 
BRANCH   4   5
ATOM      5  C   UNL     1       3.657 -10.638   4.343  1.00  0.00     0.001 C 
BRANCH   5   6
ATOM      6  C   UNL     1       3.196 -11.043   5.758  1.00  0.00     0.009 C 
BRANCH   6   7
ATOM      7  C   UNL     1       3.012  -9.855   6.730  1.00  0.00     0.032 C 
ATOM      8  C   UNL     1       3.950  -9.930   7.944  1.00  0.00     0.014 C 
BRANCH   7   9
ATOM      9  C   UNL     1       1.575  -9.696   7.149  1.00  0.00     0.044 C 
ATOM     10  O   UNL     1       1.300  -9.184   8.267  1.00  0.00    -0.550 OA
ATOM     11  O   UNL     1       0.540 -10.058   6.293  1.00  0.00    -0.550 OA
ENDBRANCH   7   9
ENDBRANCH   6   7
ENDBRANCH   5   6
ENDBRANCH   4   5
ENDBRANCH   3   4
ENDBRANCH   2   3
ENDBRANCH   1   2
BRANCH   1  12
ATOM     12  C   UNL     1       7.777  -8.668   6.371  1.00  0.00     0.000 C 
BRANCH  12  13
ATOM     13  C   UNL     1       7.519  -9.557   7.600  1.00  0.00    -0.000 C 
BRANCH  13  14
ATOM     14  C   UNL     1       8.433  -9.207   8.785  1.00  0.00    -0.000 C 
BRANCH  14  15
ATOM     15  C   UNL     1       9.431  -8.087   8.450  1.00  0.00    -0.000 C 
BRANCH  15  16
ATOM     16  C   UNL     1       9.230  -6.878   9.375  1.00  0.00    -0.000 C 
BRANCH  16  17
ATOM     17  C   UNL     1       9.088  -5.557   8.602  1.00  0.00    -0.000 C 
BRANCH  17  18
ATOM     18  C   UNL     1       7.644  -5.283   8.158  1.00  0.00    -0.003 C 
ATOM     19  C   UNL     1       6.644  -5.831   9.172  1.00  0.00     0.004 C 
ENDBRANCH  17  18
ENDBRANCH  16  17
ENDBRANCH  15  16
ENDBRANCH  14  15
ENDBRANCH  13  14
ENDBRANCH  12  13
ENDBRANCH   1  12
TORSDOF 14
ENDMDL
MODEL 4
REMARK VINA RESULT:    -3.230      2.730      4.350
REMARK INTER + INTRA:          -8.161
REMARK INTER:                  -5.999
REMARK INTRA:                  -2.162
REMARK UNBOUND:                -2.288
REMARK SMILES CCCCCCCCCCCCCC[C@H](C)C(=O)[O-]
REMARK SMILES IDX 9 1 10 2 11 3 12 4 13 5 14 6 15 7 16 8 17 9 18 10 19 11 8 12
REMARK SMILES IDX 7 13 6 14 5 15 4 16 3 17 2 18 1 19
REMARK H PARENT
REMARK Flexibility Score: inf
ROOT
ATOM      1  C   UNL     1       4.069  -7.900   9.016  1.00  0.00     0.000 C 
ENDROOT
BRANCH   1   2
ATOM      2  C   UNL     1       2.601  -7.889   8.557  1.00  0.00     0.000 C 
BRANCH   2   3
ATOM      3  C   UNL     1       1.963  -9.287   8.588  1.00  0.00     0.000 C 
BRANCH   3   4
ATOM      4  C   UNL     1       1.703  -9.852   7.179  1.00  0.00     0.000 C 
BRANCH   4   5
ATOM      5  C   UNL     1       2.832 -10.778   6.697  1.00  0.00     0.001 C 
BRANCH   5   6
ATOM      6  C   UNL     1       2.989 -10.765   5.163  1.00  0.00     0.009 C 
BRANCH   6   7
ATOM      7  C   UNL     1       4.369 -10.276   4.669  1.00  0.00     0.032 C 
ATOM      8  C   UNL     1       5.068  -9.351   5.676  1.00  0.00     0.014 C 
BRANCH   7   9
ATOM      9  C   UNL     1       4.280  -9.644   3.305  1.00  0.00     0.044 C 
ATOM     10  O   UNL     1       3.328  -9.940   2.537  1.00  0.00    -0.550 OA
ATOM     11  O   UNL     1       5.211  -8.693   2.900  1.00  0.00    -0.550 OA
ENDBRANCH   7   9
ENDBRANCH   6   7
ENDBRANCH   5   6
ENDBRANCH   4   5
ENDBRANCH   3   4
ENDBRANCH   2   3
ENDBRANCH   1   2
BRANCH   1  12
ATOM     12  C   UNL     1       4.396  -9.103   9.917  1.00  0.00     0.000 C 
BRANCH  12  13
ATOM     13  C   UNL     1       5.462 -10.029   9.305  1.00  0.00    -0.000 C 
BRANCH  13  14
ATOM     14  C   UNL     1       6.889  -9.482   9.477  1.00  0.00    -0.000 C 
BRANCH  14  15
ATOM     15  C   UNL     1       7.637  -9.356   8.140  1.00  0.00    -0.000 C 
BRANCH  15  16
ATOM     16  C   UNL     1       8.269  -7.964   7.996  1.00  0.00    -0.000 C 
BRANCH  16  17
ATOM     17  C   UNL     1       7.255  -6.897   7.554  1.00  0.00    -0.000 C 
BRANCH  17  18
ATOM     18  C   UNL     1       7.513  -5.529   8.203  1.00  0.00    -0.003 C 
ATOM     19  C   UNL     1       6.713  -5.373   9.493  1.00  0.00     0.004 C 
ENDBRANCH  17  18
ENDBRANCH  16  17
ENDBRANCH  15  16
ENDBRANCH  14  15
ENDBRANCH  13  14
ENDBRANCH  12  13
ENDBRANCH   1  12
TORSDOF 14
ENDMDL
MODEL 5
REMARK VINA RESULT:    -3.107      2.159      5.558
REMARK INTER + INTRA:          -7.939
REMARK INTER:                  -5.756
REMARK INTRA:                  -2.183
REMARK UNBOUND:                -2.288
REMARK SMILES CCCCCCCCCCCCCC[C@H](C)C(=O)[O-]
REMARK SMILES IDX 9 1 10 2 11 3 12 4 13 5 14 6 15 7 16 8 17 9 18 10 19 11 8 12
REMARK SMILES IDX 7 13 6 14 5 15 4 16 3 17 2 18 1 19
REMARK H PARENT
REMARK Flexibility Score: inf
ROOT
ATOM      1  C   UNL     1       3.539 -10.370   5.422  1.00  0.00     0.000 C 
ENDROOT
BRANCH   1   2
ATOM      2  C   UNL     1       4.879 -10.366   4.666  1.00  0.00     0.000 C 
BRANCH   2   3
ATOM      3  C   UNL     1       4.961  -9.245   3.617  1.00  0.00     0.000 C 
BRANCH   3   4
ATOM      4  C   UNL     1       6.029  -8.190   3.959  1.00  0.00     0.000 C 
BRANCH   4   5
ATOM      5  C   UNL     1       6.795  -8.522   5.250  1.00  0.00     0.001 C 
BRANCH   5   6
ATOM      6  C   UNL     1       6.664  -7.413   6.314  1.00  0.00     0.009 C 
BRANCH   6   7
ATOM      7  C   UNL     1       7.342  -7.742   7.663  1.00  0.00     0.032 C 
ATOM      8  C   UNL     1       7.325  -9.243   7.986  1.00  0.00     0.014 C 
BRANCH   7   9
ATOM      9  C   UNL     1       6.766  -6.926   8.790  1.00  0.00     0.044 C 
ATOM     10  O   UNL     1       6.725  -5.671   8.698  1.00  0.00    -0.550 OA
ATOM     11  O   UNL     1       6.227  -7.545   9.913  1.00  0.00    -0.550 OA
ENDBRANCH   7   9
ENDBRANCH   6   7
ENDBRANCH   5   6
ENDBRANCH   4   5
ENDBRANCH   3   4
ENDBRANCH   2   3
ENDBRANCH   1   2
BRANCH   1  12
ATOM     12  C   UNL     1       3.721 -10.288   6.946  1.00  0.00     0.000 C 
BRANCH  12  13
ATOM     13  C   UNL     1       3.685  -8.841   7.470  1.00  0.00    -0.000 C 
BRANCH  13  14
ATOM     14  C   UNL     1       3.148  -8.747   8.908  1.00  0.00    -0.000 C 
BRANCH  14  15
ATOM     15  C   UNL     1       1.885  -7.878   9.011  1.00  0.00    -0.000 C 
BRANCH  15  16
ATOM     16  C   UNL     1       0.758  -8.633   9.732  1.00  0.00    -0.000 C 
BRANCH  16  17
ATOM     17  C   UNL     1       0.598 -10.077   9.231  1.00  0.00    -0.000 C 
BRANCH  17  18
ATOM     18  C   UNL     1      -0.547 -10.228   8.219  1.00  0.00    -0.003 C 
ATOM     19  C   UNL     1      -0.013 -10.308   6.792  1.00  0.00     0.004 C 
ENDBRANCH  17  18
ENDBRANCH  16  17
ENDBRANCH  15  16
ENDBRANCH  14  15
ENDBRANCH  13  14
ENDBRANCH  12  13
ENDBRANCH   1  12
TORSDOF 14
ENDMDL
MODEL 6
REMARK VINA RESULT:    -3.106     16.451     18.961
REMARK INTER + INTRA:          -7.937
REMARK INTER:                  -6.185
REMARK INTRA:                  -1.752
REMARK UNBOUND:                -2.288
REMARK SMILES CCCCCCCCCCCCCC[C@H](C)C(=O)[O-]
REMARK SMILES IDX 9 1 10 2 11 3 12 4 13 5 14 6 15 7 16 8 17 9 18 10 19 11 8 12
REMARK SMILES IDX 7 13 6 14 5 15 4 16 3 17 2 18 1 19
REMARK H PARENT
REMARK Flexibility Score: inf
ROOT
ATOM      1  C   UNL     1      -5.026  -9.837  -5.503  1.00  0.00     0.000 C 
ENDROOT
BRANCH   1   2
ATOM      2  C   UNL     1      -4.611  -9.487  -6.943  1.00  0.00     0.000 C 
BRANCH   2   3
ATOM      3  C   UNL     1      -5.471 -10.205  -7.996  1.00  0.00     0.000 C 
BRANCH   3   4
ATOM      4  C   UNL     1      -6.341  -9.233  -8.814  1.00  0.00     0.000 C 
BRANCH   4   5
ATOM      5  C   UNL     1      -7.807  -9.219  -8.350  1.00  0.00     0.001 C 
BRANCH   5   6
ATOM      6  C   UNL     1      -8.043  -8.251  -7.173  1.00  0.00     0.009 C 
BRANCH   6   7
ATOM      7  C   UNL     1      -8.917  -7.026  -7.522  1.00  0.00     0.032 C 
ATOM      8  C   UNL     1     -10.124  -7.387  -8.400  1.00  0.00     0.014 C 
BRANCH   7   9
ATOM      9  C   UNL     1      -8.102  -5.915  -8.130  1.00  0.00     0.044 C 
ATOM     10  O   UNL     1      -7.937  -5.869  -9.378  1.00  0.00    -0.550 OA
ATOM     11  O   UNL     1      -7.572  -4.905  -7.335  1.00  0.00    -0.550 OA
ENDBRANCH   7   9
ENDBRANCH   6   7
ENDBRANCH   5   6
ENDBRANCH   4   5
ENDBRANCH   3   4
ENDBRANCH   2   3
ENDBRANCH   1   2
BRANCH   1  12
ATOM     12  C   UNL     1      -6.092 -10.943  -5.450  1.00  0.00     0.000 C 
BRANCH  12  13
ATOM     13  C   UNL     1      -7.106 -10.736  -4.310  1.00  0.00    -0.000 C 
BRANCH  13  14
ATOM     14  C   UNL     1      -7.060  -9.312  -3.731  1.00  0.00    -0.000 C 
BRANCH  14  15
ATOM     15  C   UNL     1      -8.359  -8.929  -3.004  1.00  0.00    -0.000 C 
BRANCH  15  16
ATOM     16  C   UNL     1      -9.332 -10.116  -2.959  1.00  0.00    -0.000 C 
BRANCH  16  17
ATOM     17  C   UNL     1      -9.675 -10.547  -1.524  1.00  0.00    -0.000 C 
BRANCH  17  18
ATOM     18  C   UNL     1      -8.453 -11.074  -0.757  1.00  0.00    -0.003 C 
ATOM     19  C   UNL     1      -8.593 -10.818   0.741  1.00  0.00     0.004 C 
ENDBRANCH  17  18
ENDBRANCH  16  17
ENDBRANCH  15  16
ENDBRANCH  14  15
ENDBRANCH  13  14
ENDBRANCH  12  13
ENDBRANCH   1  12
TORSDOF 14
ENDMDL
MODEL 7
REMARK VINA RESULT:    -3.059      1.991      4.700
REMARK INTER + INTRA:          -7.851
REMARK INTER:                  -5.963
REMARK INTRA:                  -1.888
REMARK UNBOUND:                -2.288
REMARK SMILES CCCCCCCCCCCCCC[C@H](C)C(=O)[O-]
REMARK SMILES IDX 9 1 10 2 11 3 12 4 13 5 14 6 15 7 16 8 17 9 18 10 19 11 8 12
REMARK SMILES IDX 7 13 6 14 5 15 4 16 3 17 2 18 1 19
REMARK H PARENT
REMARK Flexibility Score: inf
ROOT
ATOM      1  C   UNL     1       6.786  -5.965   8.932  1.00  0.00     0.000 C 
ENDROOT
BRANCH   1   2
ATOM      2  C   UNL     1       5.594  -6.151   9.888  1.00  0.00     0.000 C 
BRANCH   2   3
ATOM      3  C   UNL     1       5.022  -7.577   9.847  1.00  0.00     0.000 C 
BRANCH   3   4
ATOM      4  C   UNL     1       3.534  -7.609   9.452  1.00  0.00     0.000 C 
BRANCH   4   5
ATOM      5  C   UNL     1       3.297  -8.299   8.099  1.00  0.00     0.001 C 
BRANCH   5   6
ATOM      6  C   UNL     1       2.587  -9.660   8.249  1.00  0.00     0.009 C 
BRANCH   6   7
ATOM      7  C   UNL     1       1.048  -9.565   8.357  1.00  0.00     0.032 C 
ATOM      8  C   UNL     1       0.502 -10.196   9.646  1.00  0.00     0.014 C 
BRANCH   7   9
ATOM      9  C   UNL     1       0.368 -10.125   7.135  1.00  0.00     0.044 C 
ATOM     10  O   UNL     1       1.014 -10.256   6.062  1.00  0.00    -0.550 OA
ATOM     11  O   UNL     1      -0.955 -10.551   7.190  1.00  0.00    -0.550 OA
ENDBRANCH   7   9
ENDBRANCH   6   7
ENDBRANCH   5   6
ENDBRANCH   4   5
ENDBRANCH   3   4
ENDBRANCH   2   3
ENDBRANCH   1   2
BRANCH   1  12
ATOM     12  C   UNL     1       6.768  -6.967   7.766  1.00  0.00     0.000 C 
BRANCH  12  13
ATOM     13  C   UNL     1       8.102  -7.719   7.611  1.00  0.00    -0.000 C 
BRANCH  13  14
ATOM     14  C   UNL     1       7.919  -9.134   7.038  1.00  0.00    -0.000 C 
BRANCH  14  15
ATOM     15  C   UNL     1       6.613  -9.796   7.507  1.00  0.00    -0.000 C 
BRANCH  15  16
ATOM     16  C   UNL     1       5.879 -10.453   6.329  1.00  0.00    -0.000 C 
BRANCH  16  17
ATOM     17  C   UNL     1       5.392  -9.430   5.290  1.00  0.00    -0.000 C 
BRANCH  17  18
ATOM     18  C   UNL     1       4.216  -9.952   4.451  1.00  0.00    -0.003 C 
ATOM     19  C   UNL     1       4.323  -9.483   3.003  1.00  0.00     0.004 C 
ENDBRANCH  17  18
ENDBRANCH  16  17
ENDBRANCH  15  16
ENDBRANCH  14  15
ENDBRANCH  13  14
ENDBRANCH  12  13
ENDBRANCH   1  12
TORSDOF 14
ENDMDL
MODEL 8
REMARK VINA RESULT:    -3.040     16.989     18.956
REMARK INTER + INTRA:          -7.816
REMARK INTER:                  -6.624
REMARK INTRA:                  -1.192
REMARK UNBOUND:                -2.288
REMARK SMILES CCCCCCCCCCCCCC[C@H](C)C(=O)[O-]
REMARK SMILES IDX 9 1 10 2 11 3 12 4 13 5 14 6 15 7 16 8 17 9 18 10 19 11 8 12
REMARK SMILES IDX 7 13 6 14 5 15 4 16 3 17 2 18 1 19
REMARK H PARENT
REMARK Flexibility Score: inf
ROOT
ATOM      1  C   UNL     1      -6.729  -9.890  -3.954  1.00  0.00     0.000 C 
ENDROOT
BRANCH   1   2
ATOM      2  C   UNL     1      -8.017  -9.175  -3.509  1.00  0.00     0.000 C 
BRANCH   2   3
ATOM      3  C   UNL     1      -9.231  -9.557  -4.372  1.00  0.00     0.000 C 
BRANCH   3   4
ATOM      4  C   UNL     1      -9.852  -8.347  -5.092  1.00  0.00     0.000 C 
BRANCH   4   5
ATOM      5  C   UNL     1      -9.811  -8.486  -6.623  1.00  0.00     0.001 C 
BRANCH   5   6
ATOM      6  C   UNL     1      -9.818  -7.120  -7.339  1.00  0.00     0.009 C 
BRANCH   6   7
ATOM      7  C   UNL     1      -8.540  -6.824  -8.155  1.00  0.00     0.032 C 
ATOM      8  C   UNL     1      -7.600  -8.034  -8.250  1.00  0.00     0.014 C 
BRANCH   7   9
ATOM      9  C   UNL     1      -7.822  -5.603  -7.642  1.00  0.00     0.044 C 
ATOM     10  O   UNL     1      -8.483  -4.606  -7.248  1.00  0.00    -0.550 OA
ATOM     11  O   UNL     1      -6.435  -5.582  -7.548  1.00  0.00    -0.550 OA
ENDBRANCH   7   9
ENDBRANCH   6   7
ENDBRANCH   5   6
ENDBRANCH   4   5
ENDBRANCH   3   4
ENDBRANCH   2   3
ENDBRANCH   1   2
BRANCH   1  12
ATOM     12  C   UNL     1      -6.047  -9.191  -5.142  1.00  0.00     0.000 C 
BRANCH  12  13
ATOM     13  C   UNL     1      -4.833  -9.974  -5.672  1.00  0.00    -0.000 C 
BRANCH  13  14
ATOM     14  C   UNL     1      -4.382  -9.495  -7.062  1.00  0.00    -0.000 C 
BRANCH  14  15
ATOM     15  C   UNL     1      -4.508 -10.591  -8.133  1.00  0.00    -0.000 C 
BRANCH  15  16
ATOM     16  C   UNL     1      -3.561 -10.317  -9.310  1.00  0.00    -0.000 C 
BRANCH  16  17
ATOM     17  C   UNL     1      -2.109 -10.723  -9.009  1.00  0.00    -0.000 C 
BRANCH  17  18
ATOM     18  C   UNL     1      -1.091  -9.959  -9.867  1.00  0.00    -0.003 C 
ATOM     19  C   UNL     1      -0.046  -9.267  -8.996  1.00  0.00     0.004 C 
ENDBRANCH  17  18
ENDBRANCH  16  17
ENDBRANCH  15  16
ENDBRANCH  14  15
ENDBRANCH  13  14
ENDBRANCH  12  13
ENDBRANCH   1  12
TORSDOF 14
ENDMDL
MODEL 9
REMARK VINA RESULT:    -3.026      1.977      5.276
REMARK INTER + INTRA:          -7.791
REMARK INTER:                  -5.713
REMARK INTRA:                  -2.078
REMARK UNBOUND:                -2.288
REMARK SMILES CCCCCCCCCCCCCC[C@H](C)C(=O)[O-]
REMARK SMILES IDX 9 1 10 2 11 3 12 4 13 5 14 6 15 7 16 8 17 9 18 10 19 11 8 12
REMARK SMILES IDX 7 13 6 14 5 15 4 16 3 17 2 18 1 19
REMARK H PARENT
REMARK Flexibility Score: inf
ROOT
ATOM      1  C   UNL     1       4.771  -9.675   4.682  1.00  0.00     0.000 C 
ENDROOT
BRANCH   1   2
ATOM      2  C   UNL     1       5.760  -9.693   5.862  1.00  0.00     0.000 C 
BRANCH   2   3
ATOM      3  C   UNL     1       6.526  -8.368   6.009  1.00  0.00     0.000 C 
BRANCH   3   4
ATOM      4  C   UNL     1       7.872  -8.538   6.736  1.00  0.00     0.000 C 
BRANCH   4   5
ATOM      5  C   UNL     1       7.700  -8.877   8.226  1.00  0.00     0.001 C 
BRANCH   5   6
ATOM      6  C   UNL     1       8.059  -7.692   9.145  1.00  0.00     0.009 C 
BRANCH   6   7
ATOM      7  C   UNL     1       8.400  -6.385   8.393  1.00  0.00     0.032 C 
ATOM      8  C   UNL     1       9.810  -5.867   8.710  1.00  0.00     0.014 C 
BRANCH   7   9
ATOM      9  C   UNL     1       7.356  -5.324   8.618  1.00  0.00     0.044 C 
ATOM     10  O   UNL     1       6.294  -5.609   9.233  1.00  0.00    -0.550 OA
ATOM     11  O   UNL     1       7.571  -4.015   8.201  1.00  0.00    -0.550 OA
ENDBRANCH   7   9
ENDBRANCH   6   7
ENDBRANCH   5   6
ENDBRANCH   4   5
ENDBRANCH   3   4
ENDBRANCH   2   3
ENDBRANCH   1   2
BRANCH   1  12
ATOM     12  C   UNL     1       3.623 -10.682   4.860  1.00  0.00     0.000 C 
BRANCH  12  13
ATOM     13  C   UNL     1       3.411 -11.086   6.330  1.00  0.00    -0.000 C 
BRANCH  13  14
ATOM     14  C   UNL     1       1.926 -11.125   6.723  1.00  0.00    -0.000 C 
BRANCH  14  15
ATOM     15  C   UNL     1       1.351  -9.726   6.994  1.00  0.00    -0.000 C 
BRANCH  15  16
ATOM     16  C   UNL     1       1.630  -9.289   8.439  1.00  0.00    -0.000 C 
BRANCH  16  17
ATOM     17  C   UNL     1       2.371  -7.945   8.519  1.00  0.00    -0.000 C 
BRANCH  17  18
ATOM     18  C   UNL     1       3.890  -8.115   8.678  1.00  0.00    -0.003 C 
ATOM     19  C   UNL     1       4.218  -9.310   9.569  1.00  0.00     0.004 C 
ENDBRANCH  17  18
ENDBRANCH  16  17
ENDBRANCH  15  16
ENDBRANCH  14  15
ENDBRANCH  13  14
ENDBRANCH  12  13
ENDBRANCH   1  12
TORSDOF 14
ENDMDL
