MODEL 1
REMARK VINA RESULT:    -4.277      0.000      0.000
REMARK INTER + INTRA:          -6.674
REMARK INTER:                  -6.027
REMARK INTRA:                  -0.647
REMARK UNBOUND:                -0.647
REMARK SMILES C=CCCCCCCC(=O)[O-]
REMARK SMILES IDX 6 1 7 2 8 3 9 4 10 5 11 6 5 7 4 8 3 9 2 10 1 11
REMARK H PARENT
REMARK Flexibility Score: inf
ROOT
ATOM      1  C   UNL     1      33.826   3.313   5.301  1.00  0.00     0.000 C 
ENDROOT
BRANCH   1   2
ATOM      2  C   UNL     1      33.975   1.780   5.281  1.00  0.00     0.006 C 
BRANCH   2   3
ATOM      3  C   UNL     1      34.528   1.219   6.597  1.00  0.00     0.053 C 
BRANCH   3   4
ATOM      4  C   UNL     1      33.560   0.249   7.197  1.00  0.00     0.041 C 
ATOM      5  O   UNL     1      33.200  -0.769   6.550  1.00  0.00    -0.550 OA
ATOM      6  O   UNL     1      33.095   0.442   8.492  1.00  0.00    -0.550 OA
ENDBRANCH   3   4
ENDBRANCH   2   3
ENDBRANCH   1   2
BRANCH   1   7
ATOM      7  C   UNL     1      33.518   3.919   6.685  1.00  0.00     0.000 C 
BRANCH   7   8
ATOM      8  C   UNL     1      34.459   5.059   7.124  1.00  0.00     0.004 C 
BRANCH   8   9
ATOM      9  C   UNL     1      35.326   4.727   8.351  1.00  0.00     0.027 C 
BRANCH   9  10
ATOM     10  C   UNL     1      36.790   4.630   8.015  1.00  0.00    -0.035 C 
ATOM     11  C   UNL     1      37.289   3.591   7.338  1.00  0.00     0.004 C 
ENDBRANCH   9  10
ENDBRANCH   8   9
ENDBRANCH   7   8
ENDBRANCH   1   7
TORSDOF 7
ENDMDL
MODEL 2
REMARK VINA RESULT:    -4.262      2.644      4.527
REMARK INTER + INTRA:          -6.652
REMARK INTER:                  -6.129
REMARK INTRA:                  -0.523
REMARK UNBOUND:                -0.647
REMARK SMILES C=CCCCCCCC(=O)[O-]
REMARK SMILES IDX 6 1 7 2 8 3 9 4 10 5 11 6 5 7 4 8 3 9 2 10 1 11
REMARK H PARENT
REMARK Flexibility Score: inf
ROOT
ATOM      1  C   UNL     1      34.367   1.855   3.531  1.00  0.00     0.000 C 
ENDROOT
BRANCH   1   2
ATOM      2  C   UNL     1      33.883   2.032   4.982  1.00  0.00     0.006 C 
BRANCH   2   3
ATOM      3  C   UNL     1      33.325   3.434   5.255  1.00  0.00     0.053 C 
BRANCH   3   4
ATOM      4  C   UNL     1      33.705   3.887   6.630  1.00  0.00     0.041 C 
ATOM      5  O   UNL     1      33.726   3.067   7.584  1.00  0.00    -0.550 OA
ATOM      6  O   UNL     1      34.084   5.206   6.846  1.00  0.00    -0.550 OA
ENDBRANCH   3   4
ENDBRANCH   2   3
ENDBRANCH   1   2
BRANCH   1   7
ATOM      7  C   UNL     1      34.651   0.398   3.112  1.00  0.00     0.000 C 
BRANCH   7   8
ATOM      8  C   UNL     1      34.634  -0.629   4.261  1.00  0.00     0.004 C 
BRANCH   8   9
ATOM      9  C   UNL     1      36.028  -1.047   4.759  1.00  0.00     0.027 C 
BRANCH   9  10
ATOM     10  C   UNL     1      36.292  -0.611   6.175  1.00  0.00    -0.035 C 
ATOM     11  C   UNL     1      37.050   0.455   6.453  1.00  0.00     0.004 C 
ENDBRANCH   9  10
ENDBRANCH   8   9
ENDBRANCH   7   8
ENDBRANCH   1   7
TORSDOF 7
ENDMDL
MODEL 3
REMARK VINA RESULT:    -4.257     20.822     21.559
REMARK INTER + INTRA:          -6.646
REMARK INTER:                  -5.994
REMARK INTRA:                  -0.652
REMARK UNBOUND:                -0.647
REMARK SMILES C=CCCCCCCC(=O)[O-]
REMARK SMILES IDX 6 1 7 2 8 3 9 4 10 5 11 6 5 7 4 8 3 9 2 10 1 11
REMARK H PARENT
REMARK Flexibility Score: inf
ROOT
ATOM      1  C   UNL     1      45.971   8.515  -9.304  1.00  0.00     0.000 C 
ENDROOT
BRANCH   1   2
ATOM      2  C   UNL     1      46.682   9.089  -8.064  1.00  0.00     0.006 C 
BRANCH   2   3
ATOM      3  C   UNL     1      48.065   9.668  -8.387  1.00  0.00     0.053 C 
BRANCH   3   4
ATOM      4  C   UNL     1      49.137   8.839  -7.755  1.00  0.00     0.041 C 
ATOM      5  O   UNL     1      49.255   7.621  -8.051  1.00  0.00    -0.550 OA
ATOM      6  O   UNL     1      50.041   9.424  -6.875  1.00  0.00    -0.550 OA
ENDBRANCH   3   4
ENDBRANCH   2   3
ENDBRANCH   1   2
BRANCH   1   7
ATOM      7  C   UNL     1      44.734   9.309  -9.771  1.00  0.00     0.000 C 
BRANCH   7   8
ATOM      8  C   UNL     1      45.037  10.681 -10.405  1.00  0.00     0.004 C 
BRANCH   8   9
ATOM      9  C   UNL     1      44.676  11.884  -9.516  1.00  0.00     0.027 C 
BRANCH   9  10
ATOM     10  C   UNL     1      45.891  12.626  -9.026  1.00  0.00    -0.035 C 
ATOM     11  C   UNL     1      45.938  13.171  -7.806  1.00  0.00     0.004 C 
ENDBRANCH   9  10
ENDBRANCH   8   9
ENDBRANCH   7   8
ENDBRANCH   1   7
TORSDOF 7
ENDMDL
MODEL 4
REMARK VINA RESULT:    -4.242      2.011      3.523
REMARK INTER + INTRA:          -6.624
REMARK INTER:                  -6.143
REMARK INTRA:                  -0.481
REMARK UNBOUND:                -0.647
REMARK SMILES C=CCCCCCCC(=O)[O-]
REMARK SMILES IDX 6 1 7 2 8 3 9 4 10 5 11 6 5 7 4 8 3 9 2 10 1 11
REMARK H PARENT
REMARK Flexibility Score: inf
ROOT
ATOM      1  C   UNL     1      37.506   3.324   7.150  1.00  0.00     0.000 C 
ENDROOT
BRANCH   1   2
ATOM      2  C   UNL     1      36.721   2.005   7.275  1.00  0.00     0.006 C 
BRANCH   2   3
ATOM      3  C   UNL     1      37.574   0.773   6.948  1.00  0.00     0.053 C 
BRANCH   3   4
ATOM      4  C   UNL     1      36.790  -0.201   6.127  1.00  0.00     0.041 C 
ATOM      5  O   UNL     1      35.660  -0.596   6.518  1.00  0.00    -0.550 OA
ATOM      6  O   UNL     1      37.284  -0.635   4.903  1.00  0.00    -0.550 OA
ENDBRANCH   3   4
ENDBRANCH   2   3
ENDBRANCH   1   2
BRANCH   1   7
ATOM      7  C   UNL     1      36.901   4.517   7.918  1.00  0.00     0.000 C 
BRANCH   7   8
ATOM      8  C   UNL     1      35.419   4.357   8.313  1.00  0.00     0.004 C 
BRANCH   8   9
ATOM      9  C   UNL     1      34.426   4.962   7.305  1.00  0.00     0.027 C 
BRANCH   9  10
ATOM     10  C   UNL     1      33.529   3.924   6.684  1.00  0.00    -0.035 C 
ATOM     11  C   UNL     1      33.540   3.680   5.370  1.00  0.00     0.004 C 
ENDBRANCH   9  10
ENDBRANCH   8   9
ENDBRANCH   7   8
ENDBRANCH   1   7
TORSDOF 7
ENDMDL
MODEL 5
REMARK VINA RESULT:    -4.236      3.099      4.517
REMARK INTER + INTRA:          -6.616
REMARK INTER:                  -5.991
REMARK INTRA:                  -0.624
REMARK UNBOUND:                -0.647
REMARK SMILES C=CCCCCCCC(=O)[O-]
REMARK SMILES IDX 6 1 7 2 8 3 9 4 10 5 11 6 5 7 4 8 3 9 2 10 1 11
REMARK H PARENT
REMARK Flexibility Score: inf
ROOT
ATOM      1  C   UNL     1      34.568   0.479   3.105  1.00  0.00     0.000 C 
ENDROOT
BRANCH   1   2
ATOM      2  C   UNL     1      34.879   1.801   3.830  1.00  0.00     0.006 C 
BRANCH   2   3
ATOM      3  C   UNL     1      33.947   2.059   5.020  1.00  0.00     0.053 C 
BRANCH   3   4
ATOM      4  C   UNL     1      33.465   3.475   5.007  1.00  0.00     0.041 C 
ATOM      5  O   UNL     1      32.422   3.785   4.374  1.00  0.00    -0.550 OA
ATOM      6  O   UNL     1      34.140   4.446   5.738  1.00  0.00    -0.550 OA
ENDBRANCH   3   4
ENDBRANCH   2   3
ENDBRANCH   1   2
BRANCH   1   7
ATOM      7  C   UNL     1      34.927  -0.797   3.893  1.00  0.00     0.000 C 
BRANCH   7   8
ATOM      8  C   UNL     1      36.326  -0.794   4.542  1.00  0.00     0.004 C 
BRANCH   8   9
ATOM      9  C   UNL     1      36.312  -0.704   6.078  1.00  0.00     0.027 C 
BRANCH   9  10
ATOM     10  C   UNL     1      37.381   0.211   6.613  1.00  0.00    -0.035 C 
ATOM     11  C   UNL     1      37.143   1.503   6.857  1.00  0.00     0.004 C 
ENDBRANCH   9  10
ENDBRANCH   8   9
ENDBRANCH   7   8
ENDBRANCH   1   7
TORSDOF 7
ENDMDL
MODEL 6
REMARK VINA RESULT:    -4.229     21.373     22.458
REMARK INTER + INTRA:          -6.607
REMARK INTER:                  -5.939
REMARK INTRA:                  -0.668
REMARK UNBOUND:                -0.647
REMARK SMILES C=CCCCCCCC(=O)[O-]
REMARK SMILES IDX 6 1 7 2 8 3 9 4 10 5 11 6 5 7 4 8 3 9 2 10 1 11
REMARK H PARENT
REMARK Flexibility Score: inf
ROOT
ATOM      1  C   UNL     1      46.140  12.798  -7.734  1.00  0.00     0.000 C 
ENDROOT
BRANCH   1   2
ATOM      2  C   UNL     1      47.243  11.888  -7.165  1.00  0.00     0.006 C 
BRANCH   2   3
ATOM      3  C   UNL     1      48.315  11.532  -8.203  1.00  0.00     0.053 C 
BRANCH   3   4
ATOM      4  C   UNL     1      49.638  12.104  -7.803  1.00  0.00     0.041 C 
ATOM      5  O   UNL     1      50.146  11.808  -6.690  1.00  0.00    -0.550 OA
ATOM      6  O   UNL     1      50.336  12.924  -8.682  1.00  0.00    -0.550 OA
ENDBRANCH   3   4
ENDBRANCH   2   3
ENDBRANCH   1   2
BRANCH   1   7
ATOM      7  C   UNL     1      45.890  12.651  -9.249  1.00  0.00     0.000 C 
BRANCH   7   8
ATOM      8  C   UNL     1      44.787  11.646  -9.636  1.00  0.00     0.004 C 
BRANCH   8   9
ATOM      9  C   UNL     1      45.235  10.568 -10.638  1.00  0.00     0.027 C 
BRANCH   9  10
ATOM     10  C   UNL     1      45.158   9.178 -10.065  1.00  0.00    -0.035 C 
ATOM     11  C   UNL     1      45.942   8.789  -9.055  1.00  0.00     0.004 C 
ENDBRANCH   9  10
ENDBRANCH   8   9
ENDBRANCH   7   8
ENDBRANCH   1   7
TORSDOF 7
ENDMDL
MODEL 7
REMARK VINA RESULT:    -4.226     20.686     21.806
REMARK INTER + INTRA:          -6.602
REMARK INTER:                  -6.052
REMARK INTRA:                  -0.550
REMARK UNBOUND:                -0.647
REMARK SMILES C=CCCCCCCC(=O)[O-]
REMARK SMILES IDX 6 1 7 2 8 3 9 4 10 5 11 6 5 7 4 8 3 9 2 10 1 11
REMARK H PARENT
REMARK Flexibility Score: inf
ROOT
ATOM      1  C   UNL     1      47.209  11.991  -5.584  1.00  0.00     0.000 C 
ENDROOT
BRANCH   1   2
ATOM      2  C   UNL     1      47.422  12.419  -7.047  1.00  0.00     0.006 C 
BRANCH   2   3
ATOM      3  C   UNL     1      46.115  12.806  -7.750  1.00  0.00     0.053 C 
BRANCH   3   4
ATOM      4  C   UNL     1      46.096  12.269  -9.147  1.00  0.00     0.041 C 
ATOM      5  O   UNL     1      45.001  12.049  -9.726  1.00  0.00    -0.550 OA
ATOM      6  O   UNL     1      47.289  12.060  -9.827  1.00  0.00    -0.550 OA
ENDBRANCH   3   4
ENDBRANCH   2   3
ENDBRANCH   1   2
BRANCH   1   7
ATOM      7  C   UNL     1      48.474  12.032  -4.702  1.00  0.00     0.000 C 
BRANCH   7   8
ATOM      8  C   UNL     1      49.796  11.741  -5.440  1.00  0.00     0.004 C 
BRANCH   8   9
ATOM      9  C   UNL     1      50.114  10.244  -5.604  1.00  0.00     0.027 C 
BRANCH   9  10
ATOM     10  C   UNL     1      50.153   9.816  -7.047  1.00  0.00    -0.035 C 
ATOM     11  C   UNL     1      49.137   9.157  -7.613  1.00  0.00     0.004 C 
ENDBRANCH   9  10
ENDBRANCH   8   9
ENDBRANCH   7   8
ENDBRANCH   1   7
TORSDOF 7
ENDMDL
MODEL 8
REMARK VINA RESULT:    -4.210     20.727     21.615
REMARK INTER + INTRA:          -6.579
REMARK INTER:                  -5.897
REMARK INTRA:                  -0.683
REMARK UNBOUND:                -0.647
REMARK SMILES C=CCCCCCCC(=O)[O-]
REMARK SMILES IDX 6 1 7 2 8 3 9 4 10 5 11 6 5 7 4 8 3 9 2 10 1 11
REMARK H PARENT
REMARK Flexibility Score: inf
ROOT
ATOM      1  C   UNL     1      48.481  12.005  -4.915  1.00  0.00     0.000 C 
ENDROOT
BRANCH   1   2
ATOM      2  C   UNL     1      47.204  12.020  -5.775  1.00  0.00     0.006 C 
BRANCH   2   3
ATOM      3  C   UNL     1      47.491  12.257  -7.263  1.00  0.00     0.053 C 
BRANCH   3   4
ATOM      4  C   UNL     1      46.291  12.840  -7.939  1.00  0.00     0.041 C 
ATOM      5  O   UNL     1      45.880  12.359  -9.027  1.00  0.00    -0.550 OA
ATOM      6  O   UNL     1      45.595  13.883  -7.341  1.00  0.00    -0.550 OA
ENDBRANCH   3   4
ENDBRANCH   2   3
ENDBRANCH   1   2
BRANCH   1   7
ATOM      7  C   UNL     1      49.773  11.636  -5.674  1.00  0.00     0.000 C 
BRANCH   7   8
ATOM      8  C   UNL     1      50.350  10.245  -5.345  1.00  0.00     0.004 C 
BRANCH   8   9
ATOM      9  C   UNL     1      49.534   9.070  -5.911  1.00  0.00     0.027 C 
BRANCH   9  10
ATOM     10  C   UNL     1      49.576   9.006  -7.414  1.00  0.00    -0.035 C 
ATOM     11  C   UNL     1      48.497   8.689  -8.136  1.00  0.00     0.004 C 
ENDBRANCH   9  10
ENDBRANCH   8   9
ENDBRANCH   7   8
ENDBRANCH   1   7
TORSDOF 7
ENDMDL
MODEL 9
REMARK VINA RESULT:    -4.198     20.987     21.989
REMARK INTER + INTRA:          -6.562
REMARK INTER:                  -5.870
REMARK INTRA:                  -0.692
REMARK UNBOUND:                -0.647
REMARK SMILES C=CCCCCCCC(=O)[O-]
REMARK SMILES IDX 6 1 7 2 8 3 9 4 10 5 11 6 5 7 4 8 3 9 2 10 1 11
REMARK H PARENT
REMARK Flexibility Score: inf
ROOT
ATOM      1  C   UNL     1      48.883   8.863  -7.577  1.00  0.00     0.000 C 
ENDROOT
BRANCH   1   2
ATOM      2  C   UNL     1      47.765   9.414  -8.481  1.00  0.00     0.006 C 
BRANCH   2   3
ATOM      3  C   UNL     1      48.103  10.788  -9.073  1.00  0.00     0.053 C 
BRANCH   3   4
ATOM      4  C   UNL     1      46.876  11.425  -9.644  1.00  0.00     0.041 C 
ATOM      5  O   UNL     1      46.350  10.962 -10.690  1.00  0.00    -0.550 OA
ATOM      6  O   UNL     1      46.283  12.500  -8.993  1.00  0.00    -0.550 OA
ENDBRANCH   3   4
ENDBRANCH   2   3
ENDBRANCH   1   2
BRANCH   1   7
ATOM      7  C   UNL     1      50.069   9.822  -7.349  1.00  0.00     0.000 C 
BRANCH   7   8
ATOM      8  C   UNL     1      50.360  10.166  -5.875  1.00  0.00     0.004 C 
BRANCH   8   9
ATOM      9  C   UNL     1      50.110  11.638  -5.506  1.00  0.00     0.027 C 
BRANCH   9  10
ATOM     10  C   UNL     1      48.781  11.847  -4.828  1.00  0.00    -0.035 C 
ATOM     11  C   UNL     1      47.661  12.060  -5.526  1.00  0.00     0.004 C 
ENDBRANCH   9  10
ENDBRANCH   8   9
ENDBRANCH   7   8
ENDBRANCH   1   7
TORSDOF 7
ENDMDL
