MODEL 1
REMARK VINA RESULT:    -6.552      0.000      0.000
REMARK INTER + INTRA:          -7.906
REMARK INTER:                  -7.893
REMARK INTRA:                  -0.013
REMARK UNBOUND:                -0.013
REMARK SMILES O=c1c(O)c(-c2ccc(O)c(O)c2)oc2cc(O)cc(O)c12
REMARK SMILES IDX 5 1 3 2 2 3 1 4 22 5 20 6 19 7 17 8 16 9 15 10 14 11 6 12
REMARK SMILES IDX 7 13 8 14 9 15 13 16 11 17 10 18 12 20 4 22 21 24 18 26
REMARK H PARENT 10 19 12 21 4 23 21 25 18 27
REMARK Flexibility Score: inf
ROOT
ATOM      1  C   UNL     1      16.512 -32.587  73.220  1.00  0.00     0.180 A 
ATOM      2  C   UNL     1      16.809 -33.030  74.522  1.00  0.00     0.208 A 
ATOM      3  C   UNL     1      16.802 -34.408  74.790  1.00  0.00     0.238 A 
ATOM      4  O   UNL     1      17.123 -34.801  75.942  1.00  0.00    -0.285 OA
ATOM      5  C   UNL     1      16.484 -35.326  73.759  1.00  0.00     0.111 A 
ATOM      6  C   UNL     1      16.409 -36.740  73.929  1.00  0.00     0.134 A 
ATOM      7  C   UNL     1      16.214 -37.560  72.810  1.00  0.00     0.093 A 
ATOM      8  C   UNL     1      16.026 -37.015  71.541  1.00  0.00     0.123 A 
ATOM      9  C   UNL     1      16.038 -35.629  71.373  1.00  0.00     0.094 A 
ATOM     10  C   UNL     1      16.267 -34.787  72.464  1.00  0.00     0.146 A 
ATOM     11  O   UNL     1      16.282 -33.475  72.260  1.00  0.00    -0.452 OA
ENDROOT
BRANCH   1  12
ATOM     12  C   UNL     1      16.474 -31.151  72.867  1.00  0.00     0.025 A 
ATOM     13  C   UNL     1      17.124 -30.708  71.704  1.00  0.00     0.016 A 
ATOM     14  C   UNL     1      17.083 -29.360  71.339  1.00  0.00     0.051 A 
ATOM     15  C   UNL     1      16.380 -28.436  72.124  1.00  0.00     0.157 A 
ATOM     16  C   UNL     1      15.751 -30.224  73.641  1.00  0.00     0.062 A 
ATOM     17  C   UNL     1      15.707 -28.873  73.278  1.00  0.00     0.158 A 
BRANCH  15  18
ATOM     18  O   UNL     1      16.343 -27.091  71.760  1.00  0.00    -0.504 OA
ATOM     19  H   UNL     1      15.648 -26.457  72.138  1.00  0.00     0.293 HD
ENDBRANCH  15  18
BRANCH  17  20
ATOM     20  O   UNL     1      14.986 -27.982  74.072  1.00  0.00    -0.504 OA
ATOM     21  H   UNL     1      14.825 -28.148  75.058  1.00  0.00     0.293 HD
ENDBRANCH  17  20
ENDBRANCH   1  12
BRANCH   2  22
ATOM     22  O   UNL     1      17.141 -32.109  75.518  1.00  0.00    -0.502 OA
ATOM     23  H   UNL     1      17.702 -32.358  76.323  1.00  0.00     0.293 HD
ENDBRANCH   2  22
BRANCH   6  24
ATOM     24  O   UNL     1      16.491 -37.384  75.168  1.00  0.00    -0.507 OA
ATOM     25  H   UNL     1      16.286 -38.360  75.322  1.00  0.00     0.293 HD
ENDBRANCH   6  24
BRANCH   8  26
ATOM     26  O   UNL     1      15.819 -37.861  70.453  1.00  0.00    -0.508 OA
ATOM     27  H   UNL     1      14.922 -38.305  70.291  1.00  0.00     0.293 HD
ENDBRANCH   8  26
TORSDOF 6
ENDMDL
MODEL 2
REMARK VINA RESULT:    -6.333      1.697      7.181
REMARK INTER + INTRA:          -7.642
REMARK INTER:                  -7.309
REMARK INTRA:                  -0.333
REMARK UNBOUND:                -0.013
REMARK SMILES O=c1c(O)c(-c2ccc(O)c(O)c2)oc2cc(O)cc(O)c12
REMARK SMILES IDX 5 1 3 2 2 3 1 4 22 5 20 6 19 7 17 8 16 9 15 10 14 11 6 12
REMARK SMILES IDX 7 13 8 14 9 15 13 16 11 17 10 18 12 20 4 22 21 24 18 26
REMARK H PARENT 10 19 12 21 4 23 21 25 18 27
REMARK Flexibility Score: inf
ROOT
ATOM      1  C   UNL     1      16.675 -32.309  72.763  1.00  0.00     0.180 A 
ATOM      2  C   UNL     1      17.623 -32.130  71.740  1.00  0.00     0.208 A 
ATOM      3  C   UNL     1      17.729 -30.873  71.124  1.00  0.00     0.238 A 
ATOM      4  O   UNL     1      18.617 -30.703  70.247  1.00  0.00    -0.285 OA
ATOM      5  C   UNL     1      16.877 -29.816  71.526  1.00  0.00     0.111 A 
ATOM      6  C   UNL     1      16.871 -28.513  70.943  1.00  0.00     0.134 A 
ATOM      7  C   UNL     1      16.076 -27.508  71.508  1.00  0.00     0.093 A 
ATOM      8  C   UNL     1      15.240 -27.773  72.591  1.00  0.00     0.123 A 
ATOM      9  C   UNL     1      15.194 -29.060  73.131  1.00  0.00     0.094 A 
ATOM     10  C   UNL     1      16.002 -30.075  72.613  1.00  0.00     0.146 A 
ATOM     11  O   UNL     1      15.936 -31.281  73.163  1.00  0.00    -0.452 OA
ENDROOT
BRANCH   1  12
ATOM     12  C   UNL     1      16.486 -33.611  73.442  1.00  0.00     0.025 A 
ATOM     13  C   UNL     1      17.145 -33.858  74.657  1.00  0.00     0.016 A 
ATOM     14  C   UNL     1      16.966 -35.071  75.326  1.00  0.00     0.051 A 
ATOM     15  C   UNL     1      16.113 -36.050  74.798  1.00  0.00     0.157 A 
ATOM     16  C   UNL     1      15.615 -34.587  72.926  1.00  0.00     0.062 A 
ATOM     17  C   UNL     1      15.431 -35.804  73.594  1.00  0.00     0.158 A 
BRANCH  15  18
ATOM     18  O   UNL     1      15.937 -37.261  75.466  1.00  0.00    -0.504 OA
ATOM     19  H   UNL     1      16.693 -37.928  75.564  1.00  0.00     0.293 HD
ENDBRANCH  15  18
BRANCH  17  20
ATOM     20  O   UNL     1      14.565 -36.751  73.050  1.00  0.00    -0.504 OA
ATOM     21  H   UNL     1      13.615 -36.522  72.785  1.00  0.00     0.293 HD
ENDBRANCH  17  20
ENDBRANCH   1  12
BRANCH   2  22
ATOM     22  O   UNL     1      18.469 -33.179  71.374  1.00  0.00    -0.502 OA
ATOM     23  H   UNL     1      19.470 -33.064  71.282  1.00  0.00     0.293 HD
ENDBRANCH   2  22
BRANCH   6  24
ATOM     24  O   UNL     1      17.600 -28.165  69.801  1.00  0.00    -0.507 OA
ATOM     25  H   UNL     1      17.720 -27.223  69.462  1.00  0.00     0.293 HD
ENDBRANCH   6  24
BRANCH   8  26
ATOM     26  O   UNL     1      14.451 -26.753  73.117  1.00  0.00    -0.508 OA
ATOM     27  H   UNL     1      14.813 -26.107  73.809  1.00  0.00     0.293 HD
ENDBRANCH   8  26
TORSDOF 6
ENDMDL
MODEL 3
REMARK VINA RESULT:    -6.310      2.523      6.807
REMARK INTER + INTRA:          -7.615
REMARK INTER:                  -7.445
REMARK INTRA:                  -0.170
REMARK UNBOUND:                -0.013
REMARK SMILES O=c1c(O)c(-c2ccc(O)c(O)c2)oc2cc(O)cc(O)c12
REMARK SMILES IDX 5 1 3 2 2 3 1 4 22 5 20 6 19 7 17 8 16 9 15 10 14 11 6 12
REMARK SMILES IDX 7 13 8 14 9 15 13 16 11 17 10 18 12 20 4 22 21 24 18 26
REMARK H PARENT 10 19 12 21 4 23 21 25 18 27
REMARK Flexibility Score: inf
ROOT
ATOM      1  C   UNL     1      16.747 -32.153  75.199  1.00  0.00     0.180 A 
ATOM      2  C   UNL     1      16.230 -33.021  74.221  1.00  0.00     0.208 A 
ATOM      3  C   UNL     1      15.864 -32.497  72.971  1.00  0.00     0.238 A 
ATOM      4  O   UNL     1      15.454 -33.288  72.081  1.00  0.00    -0.285 OA
ATOM      5  C   UNL     1      16.005 -31.111  72.719  1.00  0.00     0.111 A 
ATOM      6  C   UNL     1      15.629 -30.467  71.502  1.00  0.00     0.134 A 
ATOM      7  C   UNL     1      15.933 -29.113  71.315  1.00  0.00     0.093 A 
ATOM      8  C   UNL     1      16.540 -28.365  72.323  1.00  0.00     0.123 A 
ATOM      9  C   UNL     1      16.859 -28.971  73.540  1.00  0.00     0.094 A 
ATOM     10  C   UNL     1      16.600 -30.329  73.743  1.00  0.00     0.146 A 
ATOM     11  O   UNL     1      16.928 -30.870  74.910  1.00  0.00    -0.452 OA
ENDROOT
BRANCH   1  12
ATOM     12  C   UNL     1      17.131 -32.625  76.548  1.00  0.00     0.025 A 
ATOM     13  C   UNL     1      16.380 -32.219  77.662  1.00  0.00     0.016 A 
ATOM     14  C   UNL     1      16.710 -32.669  78.943  1.00  0.00     0.051 A 
ATOM     15  C   UNL     1      17.788 -33.546  79.127  1.00  0.00     0.157 A 
ATOM     16  C   UNL     1      18.199 -33.522  76.735  1.00  0.00     0.062 A 
ATOM     17  C   UNL     1      18.533 -33.977  78.016  1.00  0.00     0.158 A 
BRANCH  15  18
ATOM     18  O   UNL     1      18.118 -33.992  80.406  1.00  0.00    -0.504 OA
ATOM     19  H   UNL     1      17.406 -34.244  81.081  1.00  0.00     0.293 HD
ENDBRANCH  15  18
BRANCH  17  20
ATOM     20  O   UNL     1      19.602 -34.860  78.164  1.00  0.00    -0.504 OA
ATOM     21  H   UNL     1      20.217 -35.094  77.394  1.00  0.00     0.293 HD
ENDBRANCH  17  20
ENDBRANCH   1  12
BRANCH   2  22
ATOM     22  O   UNL     1      16.121 -34.389  74.483  1.00  0.00    -0.502 OA
ATOM     23  H   UNL     1      15.835 -35.057  73.778  1.00  0.00     0.293 HD
ENDBRANCH   2  22
BRANCH   6  24
ATOM     24  O   UNL     1      14.935 -31.099  70.466  1.00  0.00    -0.507 OA
ATOM     25  H   UNL     1      14.186 -30.679  69.937  1.00  0.00     0.293 HD
ENDBRANCH   6  24
BRANCH   8  26
ATOM     26  O   UNL     1      16.814 -27.016  72.108  1.00  0.00    -0.508 OA
ATOM     27  H   UNL     1      16.601 -26.314  72.808  1.00  0.00     0.293 HD
ENDBRANCH   8  26
TORSDOF 6
ENDMDL
MODEL 4
REMARK VINA RESULT:    -6.267      1.821      7.136
REMARK INTER + INTRA:          -7.563
REMARK INTER:                  -7.308
REMARK INTRA:                  -0.256
REMARK UNBOUND:                -0.013
REMARK SMILES O=c1c(O)c(-c2ccc(O)c(O)c2)oc2cc(O)cc(O)c12
REMARK SMILES IDX 5 1 3 2 2 3 1 4 22 5 20 6 19 7 17 8 16 9 15 10 14 11 6 12
REMARK SMILES IDX 7 13 8 14 9 15 13 16 11 17 10 18 12 20 4 22 21 24 18 26
REMARK H PARENT 10 19 12 21 4 23 21 25 18 27
REMARK Flexibility Score: inf
ROOT
ATOM      1  C   UNL     1      15.649 -33.385  72.546  1.00  0.00     0.180 A 
ATOM      2  C   UNL     1      14.465 -33.016  71.882  1.00  0.00     0.208 A 
ATOM      3  C   UNL     1      14.099 -31.660  71.847  1.00  0.00     0.238 A 
ATOM      4  O   UNL     1      13.068 -31.329  71.205  1.00  0.00    -0.285 OA
ATOM      5  C   UNL     1      14.911 -30.694  72.488  1.00  0.00     0.111 A 
ATOM      6  C   UNL     1      14.615 -29.299  72.549  1.00  0.00     0.134 A 
ATOM      7  C   UNL     1      15.556 -28.417  73.097  1.00  0.00     0.093 A 
ATOM      8  C   UNL     1      16.750 -28.886  73.643  1.00  0.00     0.123 A 
ATOM      9  C   UNL     1      17.023 -30.255  73.642  1.00  0.00     0.094 A 
ATOM     10  C   UNL     1      16.120 -31.156  73.071  1.00  0.00     0.146 A 
ATOM     11  O   UNL     1      16.423 -32.448  73.080  1.00  0.00    -0.452 OA
ENDROOT
BRANCH   1  12
ATOM     12  C   UNL     1      16.087 -34.795  72.647  1.00  0.00     0.025 A 
ATOM     13  C   UNL     1      16.665 -35.420  71.532  1.00  0.00     0.016 A 
ATOM     14  C   UNL     1      17.105 -36.744  71.611  1.00  0.00     0.051 A 
ATOM     15  C   UNL     1      16.987 -37.458  72.811  1.00  0.00     0.157 A 
ATOM     16  C   UNL     1      15.989 -35.508  73.857  1.00  0.00     0.062 A 
ATOM     17  C   UNL     1      16.431 -36.833  73.940  1.00  0.00     0.158 A 
BRANCH  15  18
ATOM     18  O   UNL     1      17.425 -38.779  72.887  1.00  0.00    -0.504 OA
ATOM     19  H   UNL     1      18.404 -39.021  72.791  1.00  0.00     0.293 HD
ENDBRANCH  15  18
BRANCH  17  20
ATOM     20  O   UNL     1      16.313 -37.511  75.153  1.00  0.00    -0.504 OA
ATOM     21  H   UNL     1      15.413 -37.731  75.562  1.00  0.00     0.293 HD
ENDBRANCH  17  20
ENDBRANCH   1  12
BRANCH   2  22
ATOM     22  O   UNL     1      13.690 -33.982  71.238  1.00  0.00    -0.502 OA
ATOM     23  H   UNL     1      13.903 -34.971  71.285  1.00  0.00     0.293 HD
ENDBRANCH   2  22
BRANCH   6  24
ATOM     24  O   UNL     1      13.411 -28.736  72.115  1.00  0.00    -0.507 OA
ATOM     25  H   UNL     1      12.866 -28.072  72.643  1.00  0.00     0.293 HD
ENDBRANCH   6  24
BRANCH   8  26
ATOM     26  O   UNL     1      17.655 -27.981  74.194  1.00  0.00    -0.508 OA
ATOM     27  H   UNL     1      18.544 -27.784  73.749  1.00  0.00     0.293 HD
ENDBRANCH   8  26
TORSDOF 6
ENDMDL
MODEL 5
REMARK VINA RESULT:    -6.237      3.817      4.949
REMARK INTER + INTRA:          -7.527
REMARK INTER:                  -7.323
REMARK INTRA:                  -0.204
REMARK UNBOUND:                -0.013
REMARK SMILES O=c1c(O)c(-c2ccc(O)c(O)c2)oc2cc(O)cc(O)c12
REMARK SMILES IDX 5 1 3 2 2 3 1 4 22 5 20 6 19 7 17 8 16 9 15 10 14 11 6 12
REMARK SMILES IDX 7 13 8 14 9 15 13 16 11 17 10 18 12 20 4 22 21 24 18 26
REMARK H PARENT 10 19 12 21 4 23 21 25 18 27
REMARK Flexibility Score: inf
ROOT
ATOM      1  C   UNL     1      18.329 -33.324  70.597  1.00  0.00     0.180 A 
ATOM      2  C   UNL     1      17.346 -32.429  71.056  1.00  0.00     0.208 A 
ATOM      3  C   UNL     1      16.364 -32.893  71.945  1.00  0.00     0.238 A 
ATOM      4  O   UNL     1      15.521 -32.074  72.395  1.00  0.00    -0.285 OA
ATOM      5  C   UNL     1      16.366 -34.249  72.353  1.00  0.00     0.111 A 
ATOM      6  C   UNL     1      15.396 -34.836  73.219  1.00  0.00     0.134 A 
ATOM      7  C   UNL     1      15.572 -36.154  73.659  1.00  0.00     0.093 A 
ATOM      8  C   UNL     1      16.644 -36.926  73.215  1.00  0.00     0.123 A 
ATOM      9  C   UNL     1      17.567 -36.380  72.320  1.00  0.00     0.094 A 
ATOM     10  C   UNL     1      17.439 -35.057  71.891  1.00  0.00     0.146 A 
ATOM     11  O   UNL     1      18.343 -34.572  71.050  1.00  0.00    -0.452 OA
ENDROOT
BRANCH   1  12
ATOM     12  C   UNL     1      19.381 -32.916  69.640  1.00  0.00     0.025 A 
ATOM     13  C   UNL     1      19.328 -33.382  68.316  1.00  0.00     0.016 A 
ATOM     14  C   UNL     1      20.299 -32.992  67.389  1.00  0.00     0.051 A 
ATOM     15  C   UNL     1      21.328 -32.119  67.768  1.00  0.00     0.157 A 
ATOM     16  C   UNL     1      20.404 -32.024  70.010  1.00  0.00     0.062 A 
ATOM     17  C   UNL     1      21.377 -31.630  69.084  1.00  0.00     0.158 A 
BRANCH  15  18
ATOM     18  O   UNL     1      22.296 -31.734  66.842  1.00  0.00    -0.504 OA
ATOM     19  H   UNL     1      22.181 -30.909  66.265  1.00  0.00     0.293 HD
ENDBRANCH  15  18
BRANCH  17  20
ATOM     20  O   UNL     1      22.379 -30.749  69.488  1.00  0.00    -0.504 OA
ATOM     21  H   UNL     1      23.361 -30.945  69.337  1.00  0.00     0.293 HD
ENDBRANCH  17  20
ENDBRANCH   1  12
BRANCH   2  22
ATOM     22  O   UNL     1      17.376 -31.090  70.658  1.00  0.00    -0.502 OA
ATOM     23  H   UNL     1      17.780 -30.792  69.779  1.00  0.00     0.293 HD
ENDBRANCH   2  22
BRANCH   6  24
ATOM     24  O   UNL     1      14.238 -34.183  73.651  1.00  0.00    -0.507 OA
ATOM     25  H   UNL     1      13.427 -34.646  74.033  1.00  0.00     0.293 HD
ENDBRANCH   6  24
BRANCH   8  26
ATOM     26  O   UNL     1      16.778 -38.239  73.661  1.00  0.00    -0.508 OA
ATOM     27  H   UNL     1      15.971 -38.799  73.909  1.00  0.00     0.293 HD
ENDBRANCH   8  26
TORSDOF 6
ENDMDL
MODEL 6
REMARK VINA RESULT:    -6.190      3.159      7.124
REMARK INTER + INTRA:          -7.470
REMARK INTER:                  -7.207
REMARK INTRA:                  -0.263
REMARK UNBOUND:                -0.013
REMARK SMILES O=c1c(O)c(-c2ccc(O)c(O)c2)oc2cc(O)cc(O)c12
REMARK SMILES IDX 5 1 3 2 2 3 1 4 22 5 20 6 19 7 17 8 16 9 15 10 14 11 6 12
REMARK SMILES IDX 7 13 8 14 9 15 13 16 11 17 10 18 12 20 4 22 21 24 18 26
REMARK H PARENT 10 19 12 21 4 23 21 25 18 27
REMARK Flexibility Score: inf
ROOT
ATOM      1  C   UNL     1      16.103 -31.367  74.564  1.00  0.00     0.180 A 
ATOM      2  C   UNL     1      14.964 -31.762  73.840  1.00  0.00     0.208 A 
ATOM      3  C   UNL     1      14.345 -30.835  72.987  1.00  0.00     0.238 A 
ATOM      4  O   UNL     1      13.360 -31.211  72.299  1.00  0.00    -0.285 OA
ATOM      5  C   UNL     1      14.862 -29.521  72.879  1.00  0.00     0.111 A 
ATOM      6  C   UNL     1      14.291 -28.489  72.076  1.00  0.00     0.134 A 
ATOM      7  C   UNL     1      14.961 -27.266  71.945  1.00  0.00     0.093 A 
ATOM      8  C   UNL     1      16.144 -27.015  72.637  1.00  0.00     0.123 A 
ATOM      9  C   UNL     1      16.680 -27.996  73.473  1.00  0.00     0.094 A 
ATOM     10  C   UNL     1      16.054 -29.239  73.596  1.00  0.00     0.146 A 
ATOM     11  O   UNL     1      16.602 -30.149  74.392  1.00  0.00    -0.452 OA
ENDROOT
BRANCH   1  12
ATOM     12  C   UNL     1      16.795 -32.279  75.502  1.00  0.00     0.025 A 
ATOM     13  C   UNL     1      17.642 -33.278  74.996  1.00  0.00     0.016 A 
ATOM     14  C   UNL     1      18.321 -34.137  75.863  1.00  0.00     0.051 A 
ATOM     15  C   UNL     1      18.177 -34.001  77.251  1.00  0.00     0.157 A 
ATOM     16  C   UNL     1      16.669 -32.132  76.896  1.00  0.00     0.062 A 
ATOM     17  C   UNL     1      17.349 -32.990  77.768  1.00  0.00     0.158 A 
BRANCH  15  18
ATOM     18  O   UNL     1      18.854 -34.860  78.114  1.00  0.00    -0.504 OA
ATOM     19  H   UNL     1      19.864 -34.852  78.188  1.00  0.00     0.293 HD
ENDBRANCH  15  18
BRANCH  17  20
ATOM     20  O   UNL     1      17.196 -32.818  79.143  1.00  0.00    -0.504 OA
ATOM     21  H   UNL     1      17.622 -33.445  79.815  1.00  0.00     0.293 HD
ENDBRANCH  17  20
ENDBRANCH   1  12
BRANCH   2  22
ATOM     22  O   UNL     1      14.485 -33.070  73.944  1.00  0.00    -0.502 OA
ATOM     23  H   UNL     1      13.498 -33.293  73.891  1.00  0.00     0.293 HD
ENDBRANCH   2  22
BRANCH   6  24
ATOM     24  O   UNL     1      13.064 -28.603  71.414  1.00  0.00    -0.507 OA
ATOM     25  H   UNL     1      12.308 -27.940  71.489  1.00  0.00     0.293 HD
ENDBRANCH   6  24
BRANCH   8  26
ATOM     26  O   UNL     1      16.775 -25.781  72.495  1.00  0.00    -0.508 OA
ATOM     27  H   UNL     1      17.125 -25.269  73.297  1.00  0.00     0.293 HD
ENDBRANCH   8  26
TORSDOF 6
ENDMDL
MODEL 7
REMARK VINA RESULT:    -6.188      3.830      4.878
REMARK INTER + INTRA:          -7.468
REMARK INTER:                  -7.225
REMARK INTRA:                  -0.243
REMARK UNBOUND:                -0.013
REMARK SMILES O=c1c(O)c(-c2ccc(O)c(O)c2)oc2cc(O)cc(O)c12
REMARK SMILES IDX 5 1 3 2 2 3 1 4 22 5 20 6 19 7 17 8 16 9 15 10 14 11 6 12
REMARK SMILES IDX 7 13 8 14 9 15 13 16 11 17 10 18 12 20 4 22 21 24 18 26
REMARK H PARENT 10 19 12 21 4 23 21 25 18 27
REMARK Flexibility Score: inf
ROOT
ATOM      1  C   UNL     1      17.619 -31.395  75.017  1.00  0.00     0.180 A 
ATOM      2  C   UNL     1      18.746 -31.963  74.397  1.00  0.00     0.208 A 
ATOM      3  C   UNL     1      19.555 -32.845  75.132  1.00  0.00     0.238 A 
ATOM      4  O   UNL     1      20.530 -33.393  74.554  1.00  0.00    -0.285 OA
ATOM      5  C   UNL     1      19.237 -33.136  76.480  1.00  0.00     0.111 A 
ATOM      6  C   UNL     1      20.009 -33.984  77.330  1.00  0.00     0.134 A 
ATOM      7  C   UNL     1      19.528 -34.304  78.606  1.00  0.00     0.093 A 
ATOM      8  C   UNL     1      18.340 -33.757  79.087  1.00  0.00     0.123 A 
ATOM      9  C   UNL     1      17.607 -32.878  78.286  1.00  0.00     0.094 A 
ATOM     10  C   UNL     1      18.042 -32.569  76.995  1.00  0.00     0.146 A 
ATOM     11  O   UNL     1      17.310 -31.738  76.262  1.00  0.00    -0.452 OA
ENDROOT
BRANCH   1  12
ATOM     12  C   UNL     1      16.734 -30.437  74.317  1.00  0.00     0.025 A 
ATOM     13  C   UNL     1      15.417 -30.813  74.009  1.00  0.00     0.016 A 
ATOM     14  C   UNL     1      14.557 -29.918  73.367  1.00  0.00     0.051 A 
ATOM     15  C   UNL     1      14.997 -28.629  73.036  1.00  0.00     0.157 A 
ATOM     16  C   UNL     1      17.166 -29.136  74.002  1.00  0.00     0.062 A 
ATOM     17  C   UNL     1      16.306 -28.236  73.360  1.00  0.00     0.158 A 
BRANCH  15  18
ATOM     18  O   UNL     1      14.138 -27.739  72.393  1.00  0.00    -0.504 OA
ATOM     19  H   UNL     1      14.481 -27.066  71.716  1.00  0.00     0.293 HD
ENDBRANCH  15  18
BRANCH  17  20
ATOM     20  O   UNL     1      16.770 -26.956  73.058  1.00  0.00    -0.504 OA
ATOM     21  H   UNL     1      16.675 -26.554  72.133  1.00  0.00     0.293 HD
ENDBRANCH  17  20
ENDBRANCH   1  12
BRANCH   2  22
ATOM     22  O   UNL     1      19.029 -31.679  73.059  1.00  0.00    -0.502 OA
ATOM     23  H   UNL     1      19.753 -31.028  72.782  1.00  0.00     0.293 HD
ENDBRANCH   2  22
BRANCH   6  24
ATOM     24  O   UNL     1      21.256 -34.511  76.982  1.00  0.00    -0.507 OA
ATOM     25  H   UNL     1      22.072 -34.492  77.575  1.00  0.00     0.293 HD
ENDBRANCH   6  24
BRANCH   8  26
ATOM     26  O   UNL     1      17.901 -34.085  80.368  1.00  0.00    -0.508 OA
ATOM     27  H   UNL     1      17.580 -33.374  81.016  1.00  0.00     0.293 HD
ENDBRANCH   8  26
TORSDOF 6
ENDMDL
MODEL 8
REMARK VINA RESULT:    -6.162      3.578      6.230
REMARK INTER + INTRA:          -7.436
REMARK INTER:                  -7.710
REMARK INTRA:                   0.273
REMARK UNBOUND:                -0.013
REMARK SMILES O=c1c(O)c(-c2ccc(O)c(O)c2)oc2cc(O)cc(O)c12
REMARK SMILES IDX 5 1 3 2 2 3 1 4 22 5 20 6 19 7 17 8 16 9 15 10 14 11 6 12
REMARK SMILES IDX 7 13 8 14 9 15 13 16 11 17 10 18 12 20 4 22 21 24 18 26
REMARK H PARENT 10 19 12 21 4 23 21 25 18 27
REMARK Flexibility Score: inf
ROOT
ATOM      1  C   UNL     1      17.829 -32.108  70.792  1.00  0.00     0.180 A 
ATOM      2  C   UNL     1      16.998 -33.190  71.135  1.00  0.00     0.208 A 
ATOM      3  C   UNL     1      15.952 -32.981  72.048  1.00  0.00     0.238 A 
ATOM      4  O   UNL     1      15.177 -33.939  72.308  1.00  0.00    -0.285 OA
ATOM      5  C   UNL     1      15.759 -31.700  72.619  1.00  0.00     0.111 A 
ATOM      6  C   UNL     1      14.756 -31.385  73.584  1.00  0.00     0.134 A 
ATOM      7  C   UNL     1      14.574 -30.055  73.982  1.00  0.00     0.093 A 
ATOM      8  C   UNL     1      15.399 -29.040  73.502  1.00  0.00     0.123 A 
ATOM      9  C   UNL     1      16.422 -29.345  72.602  1.00  0.00     0.094 A 
ATOM     10  C   UNL     1      16.605 -30.657  72.158  1.00  0.00     0.146 A 
ATOM     11  O   UNL     1      17.582 -30.904  71.294  1.00  0.00    -0.452 OA
ENDROOT
BRANCH   1  12
ATOM     12  C   UNL     1      18.967 -32.255  69.858  1.00  0.00     0.025 A 
ATOM     13  C   UNL     1      18.860 -33.140  68.773  1.00  0.00     0.016 A 
ATOM     14  C   UNL     1      19.913 -33.280  67.866  1.00  0.00     0.051 A 
ATOM     15  C   UNL     1      21.084 -32.526  68.021  1.00  0.00     0.157 A 
ATOM     16  C   UNL     1      20.136 -31.485  69.998  1.00  0.00     0.062 A 
ATOM     17  C   UNL     1      21.193 -31.621  69.091  1.00  0.00     0.158 A 
BRANCH  15  18
ATOM     18  O   UNL     1      22.135 -32.669  67.116  1.00  0.00    -0.504 OA
ATOM     19  H   UNL     1      22.739 -31.891  66.877  1.00  0.00     0.293 HD
ENDBRANCH  15  18
BRANCH  17  20
ATOM     20  O   UNL     1      22.339 -30.846  69.265  1.00  0.00    -0.504 OA
ATOM     21  H   UNL     1      22.512 -30.010  68.719  1.00  0.00     0.293 HD
ENDBRANCH  17  20
ENDBRANCH   1  12
BRANCH   2  22
ATOM     22  O   UNL     1      17.192 -34.440  70.543  1.00  0.00    -0.502 OA
ATOM     23  H   UNL     1      17.844 -35.121  70.911  1.00  0.00     0.293 HD
ENDBRANCH   2  22
BRANCH   6  24
ATOM     24  O   UNL     1      13.937 -32.338  74.199  1.00  0.00    -0.507 OA
ATOM     25  H   UNL     1      13.150 -32.122  74.791  1.00  0.00     0.293 HD
ENDBRANCH   6  24
BRANCH   8  26
ATOM     26  O   UNL     1      15.199 -27.730  73.932  1.00  0.00    -0.508 OA
ATOM     27  H   UNL     1      15.763 -27.322  74.669  1.00  0.00     0.293 HD
ENDBRANCH   8  26
TORSDOF 6
ENDMDL
MODEL 9
REMARK VINA RESULT:    -6.127      2.940      5.231
REMARK INTER + INTRA:          -7.395
REMARK INTER:                  -7.207
REMARK INTRA:                  -0.187
REMARK UNBOUND:                -0.013
REMARK SMILES O=c1c(O)c(-c2ccc(O)c(O)c2)oc2cc(O)cc(O)c12
REMARK SMILES IDX 5 1 3 2 2 3 1 4 22 5 20 6 19 7 17 8 16 9 15 10 14 11 6 12
REMARK SMILES IDX 7 13 8 14 9 15 13 16 11 17 10 18 12 20 4 22 21 24 18 26
REMARK H PARENT 10 19 12 21 4 23 21 25 18 27
REMARK Flexibility Score: inf
ROOT
ATOM      1  C   UNL     1      17.138 -34.259  75.350  1.00  0.00     0.180 A 
ATOM      2  C   UNL     1      17.206 -33.482  74.179  1.00  0.00     0.208 A 
ATOM      3  C   UNL     1      16.810 -34.054  72.960  1.00  0.00     0.238 A 
ATOM      4  O   UNL     1      16.820 -33.337  71.925  1.00  0.00    -0.285 OA
ATOM      5  C   UNL     1      16.366 -35.398  72.922  1.00  0.00     0.111 A 
ATOM      6  C   UNL     1      15.978 -36.090  71.736  1.00  0.00     0.134 A 
ATOM      7  C   UNL     1      15.432 -37.376  71.835  1.00  0.00     0.093 A 
ATOM      8  C   UNL     1      15.320 -38.019  73.066  1.00  0.00     0.123 A 
ATOM      9  C   UNL     1      15.752 -37.374  74.227  1.00  0.00     0.094 A 
ATOM     10  C   UNL     1      16.267 -36.077  74.165  1.00  0.00     0.146 A 
ATOM     11  O   UNL     1      16.656 -35.495  75.292  1.00  0.00    -0.452 OA
ENDROOT
BRANCH   1  12
ATOM     12  C   UNL     1      17.563 -33.735  76.668  1.00  0.00     0.025 A 
ATOM     13  C   UNL     1      16.799 -32.737  77.293  1.00  0.00     0.016 A 
ATOM     14  C   UNL     1      17.168 -32.243  78.546  1.00  0.00     0.051 A 
ATOM     15  C   UNL     1      18.299 -32.750  79.200  1.00  0.00     0.157 A 
ATOM     16  C   UNL     1      18.686 -34.256  77.336  1.00  0.00     0.062 A 
ATOM     17  C   UNL     1      19.058 -33.765  78.593  1.00  0.00     0.158 A 
BRANCH  15  18
ATOM     18  O   UNL     1      18.668 -32.253  80.450  1.00  0.00    -0.504 OA
ATOM     19  H   UNL     1      18.493 -32.775  81.301  1.00  0.00     0.293 HD
ENDBRANCH  15  18
BRANCH  17  20
ATOM     20  O   UNL     1      20.181 -34.300  79.224  1.00  0.00    -0.504 OA
ATOM     21  H   UNL     1      20.522 -35.231  79.018  1.00  0.00     0.293 HD
ENDBRANCH  17  20
ENDBRANCH   1  12
BRANCH   2  22
ATOM     22  O   UNL     1      17.626 -32.152  74.243  1.00  0.00    -0.502 OA
ATOM     23  H   UNL     1      18.440 -31.863  74.770  1.00  0.00     0.293 HD
ENDBRANCH   2  22
BRANCH   6  24
ATOM     24  O   UNL     1      16.133 -35.575  70.445  1.00  0.00    -0.507 OA
ATOM     25  H   UNL     1      15.506 -35.758  69.676  1.00  0.00     0.293 HD
ENDBRANCH   6  24
BRANCH   8  26
ATOM     26  O   UNL     1      14.786 -39.305  73.125  1.00  0.00    -0.508 OA
ATOM     27  H   UNL     1      14.255 -39.693  72.355  1.00  0.00     0.293 HD
ENDBRANCH   8  26
TORSDOF 6
ENDMDL
