MODEL 1
REMARK VINA RESULT:    -3.909      0.000      0.000
REMARK INTER + INTRA:          -5.527
REMARK INTER:                  -5.280
REMARK INTRA:                  -0.247
REMARK UNBOUND:                -0.247
REMARK SMILES CCCCCCCC(=O)[O-]
REMARK SMILES IDX 5 1 6 2 7 3 8 4 9 5 10 6 4 7 3 8 2 9 1 10
REMARK H PARENT
REMARK Flexibility Score: inf
ROOT
ATOM      1  C   UNL     1     -19.087   9.306  17.881  1.00  0.00     0.000 C 
ENDROOT
BRANCH   1   2
ATOM      2  C   UNL     1     -18.892   7.883  18.420  1.00  0.00     0.006 C 
BRANCH   2   3
ATOM      3  C   UNL     1     -17.428   7.632  18.790  1.00  0.00     0.053 C 
BRANCH   3   4
ATOM      4  C   UNL     1     -17.187   6.173  19.015  1.00  0.00     0.041 C 
ATOM      5  O   UNL     1     -16.785   5.762  20.135  1.00  0.00    -0.550 OA
ATOM      6  O   UNL     1     -17.453   5.260  18.001  1.00  0.00    -0.550 OA
ENDBRANCH   3   4
ENDBRANCH   2   3
ENDBRANCH   1   2
BRANCH   1   7
ATOM      7  C   UNL     1     -20.540   9.769  18.069  1.00  0.00     0.000 C 
BRANCH   7   8
ATOM      8  C   UNL     1     -20.638  11.219  18.572  1.00  0.00    -0.000 C 
BRANCH   8   9
ATOM      9  C   UNL     1     -19.264  11.884  18.732  1.00  0.00    -0.003 C 
ATOM     10  C   UNL     1     -19.091  13.035  17.745  1.00  0.00     0.004 C 
ENDBRANCH   8   9
ENDBRANCH   7   8
ENDBRANCH   1   7
TORSDOF 6
ENDMDL
MODEL 2
REMARK VINA RESULT:    -3.825      8.619     11.250
REMARK INTER + INTRA:          -5.414
REMARK INTER:                  -4.981
REMARK INTRA:                  -0.433
REMARK UNBOUND:                -0.247
REMARK SMILES CCCCCCCC(=O)[O-]
REMARK SMILES IDX 5 1 6 2 7 3 8 4 9 5 10 6 4 7 3 8 2 9 1 10
REMARK H PARENT
REMARK Flexibility Score: inf
ROOT
ATOM      1  C   UNL     1     -13.472   1.870  13.986  1.00  0.00     0.000 C 
ENDROOT
BRANCH   1   2
ATOM      2  C   UNL     1     -14.321   2.753  13.063  1.00  0.00     0.006 C 
BRANCH   2   3
ATOM      3  C   UNL     1     -14.306   4.211  13.532  1.00  0.00     0.053 C 
BRANCH   3   4
ATOM      4  C   UNL     1     -12.903   4.728  13.588  1.00  0.00     0.041 C 
ATOM      5  O   UNL     1     -12.445   5.201  14.661  1.00  0.00    -0.550 OA
ATOM      6  O   UNL     1     -12.085   4.643  12.468  1.00  0.00    -0.550 OA
ENDBRANCH   3   4
ENDBRANCH   2   3
ENDBRANCH   1   2
BRANCH   1   7
ATOM      7  C   UNL     1     -12.493   1.009  13.172  1.00  0.00     0.000 C 
BRANCH   7   8
ATOM      8  C   UNL     1     -12.895   0.895  11.692  1.00  0.00    -0.000 C 
BRANCH   8   9
ATOM      9  C   UNL     1     -11.806   1.413  10.742  1.00  0.00    -0.003 C 
ATOM     10  C   UNL     1     -10.472   0.721  11.005  1.00  0.00     0.004 C 
ENDBRANCH   8   9
ENDBRANCH   7   8
ENDBRANCH   1   7
TORSDOF 6
ENDMDL
MODEL 3
REMARK VINA RESULT:    -3.803      1.055      1.715
REMARK INTER + INTRA:          -5.384
REMARK INTER:                  -5.169
REMARK INTRA:                  -0.214
REMARK UNBOUND:                -0.247
REMARK SMILES CCCCCCCC(=O)[O-]
REMARK SMILES IDX 5 1 6 2 7 3 8 4 9 5 10 6 4 7 3 8 2 9 1 10
REMARK H PARENT
REMARK Flexibility Score: inf
ROOT
ATOM      1  C   UNL     1     -20.336  10.068  17.947  1.00  0.00     0.000 C 
ENDROOT
BRANCH   1   2
ATOM      2  C   UNL     1     -18.967   9.401  18.129  1.00  0.00     0.006 C 
BRANCH   2   3
ATOM      3  C   UNL     1     -19.116   7.892  18.344  1.00  0.00     0.053 C 
BRANCH   3   4
ATOM      4  C   UNL     1     -17.872   7.325  18.953  1.00  0.00     0.041 C 
ATOM      5  O   UNL     1     -17.932   6.684  20.034  1.00  0.00    -0.550 OA
ATOM      6  O   UNL     1     -16.653   7.463  18.300  1.00  0.00    -0.550 OA
ENDBRANCH   3   4
ENDBRANCH   2   3
ENDBRANCH   1   2
BRANCH   1   7
ATOM      7  C   UNL     1     -20.394  11.412  18.689  1.00  0.00     0.000 C 
BRANCH   7   8
ATOM      8  C   UNL     1     -19.092  12.219  18.554  1.00  0.00    -0.000 C 
BRANCH   8   9
ATOM      9  C   UNL     1     -18.983  12.945  17.206  1.00  0.00    -0.003 C 
ATOM     10  C   UNL     1     -19.614  14.332  17.275  1.00  0.00     0.004 C 
ENDBRANCH   8   9
ENDBRANCH   7   8
ENDBRANCH   1   7
TORSDOF 6
ENDMDL
MODEL 4
REMARK VINA RESULT:    -3.777      1.246      2.211
REMARK INTER + INTRA:          -5.348
REMARK INTER:                  -5.138
REMARK INTRA:                  -0.210
REMARK UNBOUND:                -0.247
REMARK SMILES CCCCCCCC(=O)[O-]
REMARK SMILES IDX 5 1 6 2 7 3 8 4 9 5 10 6 4 7 3 8 2 9 1 10
REMARK H PARENT
REMARK Flexibility Score: inf
ROOT
ATOM      1  C   UNL     1     -19.535   8.891  18.053  1.00  0.00     0.000 C 
ENDROOT
BRANCH   1   2
ATOM      2  C   UNL     1     -18.167   8.244  18.305  1.00  0.00     0.006 C 
BRANCH   2   3
ATOM      3  C   UNL     1     -18.283   7.087  19.302  1.00  0.00     0.053 C 
BRANCH   3   4
ATOM      4  C   UNL     1     -17.070   6.213  19.232  1.00  0.00     0.041 C 
ATOM      5  O   UNL     1     -16.401   6.142  18.169  1.00  0.00    -0.550 OA
ATOM      6  O   UNL     1     -16.651   5.516  20.359  1.00  0.00    -0.550 OA
ENDBRANCH   3   4
ENDBRANCH   2   3
ENDBRANCH   1   2
BRANCH   1   7
ATOM      7  C   UNL     1     -19.421  10.423  18.028  1.00  0.00     0.000 C 
BRANCH   7   8
ATOM      8  C   UNL     1     -20.714  11.120  18.481  1.00  0.00    -0.000 C 
BRANCH   8   9
ATOM      9  C   UNL     1     -21.969  10.285  18.193  1.00  0.00    -0.003 C 
ATOM     10  C   UNL     1     -23.046  10.529  19.246  1.00  0.00     0.004 C 
ENDBRANCH   8   9
ENDBRANCH   7   8
ENDBRANCH   1   7
TORSDOF 6
ENDMDL
MODEL 5
REMARK VINA RESULT:    -3.767      4.045      5.540
REMARK INTER + INTRA:          -5.335
REMARK INTER:                  -4.915
REMARK INTRA:                  -0.420
REMARK UNBOUND:                -0.247
REMARK SMILES CCCCCCCC(=O)[O-]
REMARK SMILES IDX 5 1 6 2 7 3 8 4 9 5 10 6 4 7 3 8 2 9 1 10
REMARK H PARENT
REMARK Flexibility Score: inf
ROOT
ATOM      1  C   UNL     1     -19.657  12.940  16.223  1.00  0.00     0.000 C 
ENDROOT
BRANCH   1   2
ATOM      2  C   UNL     1     -18.558  12.300  15.366  1.00  0.00     0.006 C 
BRANCH   2   3
ATOM      3  C   UNL     1     -19.120  11.155  14.519  1.00  0.00     0.053 C 
BRANCH   3   4
ATOM      4  C   UNL     1     -18.217  10.867  13.362  1.00  0.00     0.041 C 
ATOM      5  O   UNL     1     -18.676  10.843  12.190  1.00  0.00    -0.550 OA
ATOM      6  O   UNL     1     -16.857  10.672  13.573  1.00  0.00    -0.550 OA
ENDBRANCH   3   4
ENDBRANCH   2   3
ENDBRANCH   1   2
BRANCH   1   7
ATOM      7  C   UNL     1     -19.098  13.400  17.578  1.00  0.00     0.000 C 
BRANCH   7   8
ATOM      8  C   UNL     1     -19.018  12.256  18.603  1.00  0.00    -0.000 C 
BRANCH   8   9
ATOM      9  C   UNL     1     -20.217  11.303  18.521  1.00  0.00    -0.003 C 
ATOM     10  C   UNL     1     -19.762   9.865  18.286  1.00  0.00     0.004 C 
ENDBRANCH   8   9
ENDBRANCH   7   8
ENDBRANCH   1   7
TORSDOF 6
ENDMDL
MODEL 6
REMARK VINA RESULT:    -3.739      8.819     11.310
REMARK INTER + INTRA:          -5.298
REMARK INTER:                  -5.058
REMARK INTRA:                  -0.239
REMARK UNBOUND:                -0.247
REMARK SMILES CCCCCCCC(=O)[O-]
REMARK SMILES IDX 5 1 6 2 7 3 8 4 9 5 10 6 4 7 3 8 2 9 1 10
REMARK H PARENT
REMARK Flexibility Score: inf
ROOT
ATOM      1  C   UNL     1     -13.252   2.750  11.994  1.00  0.00     0.000 C 
ENDROOT
BRANCH   1   2
ATOM      2  C   UNL     1     -12.771   4.085  12.577  1.00  0.00     0.006 C 
BRANCH   2   3
ATOM      3  C   UNL     1     -13.890   4.774  13.363  1.00  0.00     0.053 C 
BRANCH   3   4
ATOM      4  C   UNL     1     -13.436   5.091  14.753  1.00  0.00     0.041 C 
ATOM      5  O   UNL     1     -12.211   5.059  15.041  1.00  0.00    -0.550 OA
ATOM      6  O   UNL     1     -14.362   5.469  15.717  1.00  0.00    -0.550 OA
ENDBRANCH   3   4
ENDBRANCH   2   3
ENDBRANCH   1   2
BRANCH   1   7
ATOM      7  C   UNL     1     -12.341   1.596  12.443  1.00  0.00     0.000 C 
BRANCH   7   8
ATOM      8  C   UNL     1     -11.538   0.990  11.280  1.00  0.00    -0.000 C 
BRANCH   8   9
ATOM      9  C   UNL     1     -12.028   1.472   9.907  1.00  0.00    -0.003 C 
ATOM     10  C   UNL     1     -11.192   0.870   8.782  1.00  0.00     0.004 C 
ENDBRANCH   8   9
ENDBRANCH   7   8
ENDBRANCH   1   7
TORSDOF 6
ENDMDL
MODEL 7
REMARK VINA RESULT:    -3.736      4.347      6.010
REMARK INTER + INTRA:          -5.294
REMARK INTER:                  -4.833
REMARK INTRA:                  -0.461
REMARK UNBOUND:                -0.247
REMARK SMILES CCCCCCCC(=O)[O-]
REMARK SMILES IDX 5 1 6 2 7 3 8 4 9 5 10 6 4 7 3 8 2 9 1 10
REMARK H PARENT
REMARK Flexibility Score: inf
ROOT
ATOM      1  C   UNL     1     -19.462  13.310  17.235  1.00  0.00     0.000 C 
ENDROOT
BRANCH   1   2
ATOM      2  C   UNL     1     -18.487  13.325  16.051  1.00  0.00     0.006 C 
BRANCH   2   3
ATOM      3  C   UNL     1     -18.625  12.051  15.211  1.00  0.00     0.053 C 
BRANCH   3   4
ATOM      4  C   UNL     1     -19.019  12.389  13.808  1.00  0.00     0.041 C 
ATOM      5  O   UNL     1     -19.300  13.576  13.497  1.00  0.00    -0.550 OA
ATOM      6  O   UNL     1     -19.029  11.400  12.832  1.00  0.00    -0.550 OA
ENDBRANCH   3   4
ENDBRANCH   2   3
ENDBRANCH   1   2
BRANCH   1   7
ATOM      7  C   UNL     1     -18.865  12.547  18.427  1.00  0.00     0.000 C 
BRANCH   7   8
ATOM      8  C   UNL     1     -19.878  11.598  19.089  1.00  0.00    -0.000 C 
BRANCH   8   9
ATOM      9  C   UNL     1     -20.337  10.474  18.150  1.00  0.00    -0.003 C 
ATOM     10  C   UNL     1     -19.223   9.456  17.925  1.00  0.00     0.004 C 
ENDBRANCH   8   9
ENDBRANCH   7   8
ENDBRANCH   1   7
TORSDOF 6
ENDMDL
MODEL 8
REMARK VINA RESULT:    -3.655      7.211      8.325
REMARK INTER + INTRA:          -5.184
REMARK INTER:                  -5.068
REMARK INTRA:                  -0.115
REMARK UNBOUND:                -0.247
REMARK SMILES CCCCCCCC(=O)[O-]
REMARK SMILES IDX 5 1 6 2 7 3 8 4 9 5 10 6 4 7 3 8 2 9 1 10
REMARK H PARENT
REMARK Flexibility Score: inf
ROOT
ATOM      1  C   UNL     1     -14.278   4.059  15.569  1.00  0.00     0.000 C 
ENDROOT
BRANCH   1   2
ATOM      2  C   UNL     1     -13.711   5.046  14.541  1.00  0.00     0.006 C 
BRANCH   2   3
ATOM      3  C   UNL     1     -14.249   4.747  13.139  1.00  0.00     0.053 C 
BRANCH   3   4
ATOM      4  C   UNL     1     -13.147   4.814  12.130  1.00  0.00     0.041 C 
ATOM      5  O   UNL     1     -11.970   4.506  12.455  1.00  0.00    -0.550 OA
ATOM      6  O   UNL     1     -13.427   5.170  10.816  1.00  0.00    -0.550 OA
ENDBRANCH   3   4
ENDBRANCH   2   3
ENDBRANCH   1   2
BRANCH   1   7
ATOM      7  C   UNL     1     -14.361   4.704  16.961  1.00  0.00     0.000 C 
BRANCH   7   8
ATOM      8  C   UNL     1     -15.438   4.058  17.849  1.00  0.00    -0.000 C 
BRANCH   8   9
ATOM      9  C   UNL     1     -14.944   3.792  19.278  1.00  0.00    -0.003 C 
ATOM     10  C   UNL     1     -15.886   4.407  20.309  1.00  0.00     0.004 C 
ENDBRANCH   8   9
ENDBRANCH   7   8
ENDBRANCH   1   7
TORSDOF 6
ENDMDL
MODEL 9
REMARK VINA RESULT:    -3.654      4.385      5.203
REMARK INTER + INTRA:          -5.182
REMARK INTER:                  -4.801
REMARK INTRA:                  -0.381
REMARK UNBOUND:                -0.247
REMARK SMILES CCCCCCCC(=O)[O-]
REMARK SMILES IDX 5 1 6 2 7 3 8 4 9 5 10 6 4 7 3 8 2 9 1 10
REMARK H PARENT
REMARK Flexibility Score: inf
ROOT
ATOM      1  C   UNL     1     -20.176  10.016  16.190  1.00  0.00     0.000 C 
ENDROOT
BRANCH   1   2
ATOM      2  C   UNL     1     -19.189   9.643  15.077  1.00  0.00     0.006 C 
BRANCH   2   3
ATOM      3  C   UNL     1     -18.384  10.864  14.625  1.00  0.00     0.053 C 
BRANCH   3   4
ATOM      4  C   UNL     1     -18.573  11.103  13.161  1.00  0.00     0.041 C 
ATOM      5  O   UNL     1     -19.609  11.682  12.741  1.00  0.00    -0.550 OA
ATOM      6  O   UNL     1     -17.580  10.731  12.262  1.00  0.00    -0.550 OA
ENDBRANCH   3   4
ENDBRANCH   2   3
ENDBRANCH   1   2
BRANCH   1   7
ATOM      7  C   UNL     1     -19.481  10.019  17.561  1.00  0.00     0.000 C 
BRANCH   7   8
ATOM      8  C   UNL     1     -20.033  11.103  18.501  1.00  0.00    -0.000 C 
BRANCH   8   9
ATOM      9  C   UNL     1     -19.028  12.237  18.751  1.00  0.00    -0.003 C 
ATOM     10  C   UNL     1     -19.076  13.270  17.629  1.00  0.00     0.004 C 
ENDBRANCH   8   9
ENDBRANCH   7   8
ENDBRANCH   1   7
TORSDOF 6
ENDMDL
