MODEL 1
REMARK VINA RESULT:    -4.534      0.000      0.000
REMARK INTER + INTRA:         -11.984
REMARK INTER:                 -10.365
REMARK INTRA:                  -1.619
REMARK UNBOUND:                -1.619
REMARK SMILES CCCCCCCCCCCCCCCCCCCCCCCC(=O)[O-]
REMARK SMILES IDX 13 1 14 2 15 3 16 4 17 5 18 6 19 7 20 8 21 9 22 10 23 11
REMARK SMILES IDX 24 12 25 13 26 14 12 15 11 16 10 17 9 18 8 19 7 20 6 21 5 22
REMARK SMILES IDX 4 23 3 24 2 25 1 26
REMARK H PARENT
REMARK Flexibility Score: inf
ROOT
ATOM      1  C   UNL     1       7.871   8.489   4.575  1.00  0.00     0.000 C 
ENDROOT
BRANCH   1   2
ATOM      2  C   UNL     1       7.414   9.477   5.662  1.00  0.00     0.000 C 
BRANCH   2   3
ATOM      3  C   UNL     1       6.505  10.582   5.096  1.00  0.00     0.000 C 
BRANCH   3   4
ATOM      4  C   UNL     1       5.414  10.994   6.097  1.00  0.00     0.000 C 
BRANCH   4   5
ATOM      5  C   UNL     1       5.297   9.977   7.243  1.00  0.00     0.000 C 
BRANCH   5   6
ATOM      6  C   UNL     1       4.564  10.564   8.461  1.00  0.00     0.000 C 
BRANCH   6   7
ATOM      7  C   UNL     1       3.083  10.859   8.165  1.00  0.00     0.000 C 
BRANCH   7   8
ATOM      8  C   UNL     1       2.133  10.177   9.168  1.00  0.00     0.000 C 
BRANCH   8   9
ATOM      9  C   UNL     1       1.313   9.010   8.578  1.00  0.00     0.000 C 
BRANCH   9  10
ATOM     10  C   UNL     1       2.123   7.733   8.260  1.00  0.00     0.006 C 
BRANCH  10  11
ATOM     11  C   UNL     1       2.958   7.210   9.443  1.00  0.00     0.053 C 
BRANCH  11  12
ATOM     12  C   UNL     1       3.109   5.720   9.428  1.00  0.00     0.041 C 
ATOM     13  O   UNL     1       4.235   5.198   9.211  1.00  0.00    -0.550 OA
ATOM     14  O   UNL     1       2.013   4.904   9.683  1.00  0.00    -0.550 OA
ENDBRANCH  11  12
ENDBRANCH  10  11
ENDBRANCH   9  10
ENDBRANCH   8   9
ENDBRANCH   7   8
ENDBRANCH   6   7
ENDBRANCH   5   6
ENDBRANCH   4   5
ENDBRANCH   3   4
ENDBRANCH   2   3
ENDBRANCH   1   2
BRANCH   1  15
ATOM     15  C   UNL     1       7.623   9.019   3.153  1.00  0.00     0.000 C 
BRANCH  15  16
ATOM     16  C   UNL     1       8.828   8.781   2.221  1.00  0.00     0.000 C 
BRANCH  16  17
ATOM     17  C   UNL     1       8.410   8.702   0.738  1.00  0.00     0.000 C 
BRANCH  17  18
ATOM     18  C   UNL     1       8.521   7.288   0.140  1.00  0.00    -0.000 C 
BRANCH  18  19
ATOM     19  C   UNL     1       7.276   6.426   0.410  1.00  0.00    -0.000 C 
BRANCH  19  20
ATOM     20  C   UNL     1       7.589   5.164   1.238  1.00  0.00    -0.000 C 
BRANCH  20  21
ATOM     21  C   UNL     1       7.727   3.865   0.420  1.00  0.00    -0.000 C 
BRANCH  21  22
ATOM     22  C   UNL     1       6.487   2.947   0.426  1.00  0.00    -0.000 C 
BRANCH  22  23
ATOM     23  C   UNL     1       6.296   2.156  -0.885  1.00  0.00    -0.000 C 
BRANCH  23  24
ATOM     24  C   UNL     1       6.624   0.661  -0.725  1.00  0.00    -0.000 C 
BRANCH  24  25
ATOM     25  C   UNL     1       7.914   0.264  -1.461  1.00  0.00    -0.003 C 
ATOM     26  C   UNL     1       8.300   1.268  -2.547  1.00  0.00     0.004 C 
ENDBRANCH  24  25
ENDBRANCH  23  24
ENDBRANCH  22  23
ENDBRANCH  21  22
ENDBRANCH  20  21
ENDBRANCH  19  20
ENDBRANCH  18  19
ENDBRANCH  17  18
ENDBRANCH  16  17
ENDBRANCH  15  16
ENDBRANCH   1  15
TORSDOF 22
ENDMDL
MODEL 2
REMARK VINA RESULT:    -4.479      3.537     10.176
REMARK INTER + INTRA:         -11.859
REMARK INTER:                 -10.699
REMARK INTRA:                  -1.160
REMARK UNBOUND:                -1.619
REMARK SMILES CCCCCCCCCCCCCCCCCCCCCCCC(=O)[O-]
REMARK SMILES IDX 13 1 14 2 15 3 16 4 17 5 18 6 19 7 20 8 21 9 22 10 23 11
REMARK SMILES IDX 24 12 25 13 26 14 12 15 11 16 10 17 9 18 8 19 7 20 6 21 5 22
REMARK SMILES IDX 4 23 3 24 2 25 1 26
REMARK H PARENT
REMARK Flexibility Score: inf
ROOT
ATOM      1  C   UNL     1       6.022  10.835   6.473  1.00  0.00     0.000 C 
ENDROOT
BRANCH   1   2
ATOM      2  C   UNL     1       6.886   9.802   5.730  1.00  0.00     0.000 C 
BRANCH   2   3
ATOM      3  C   UNL     1       6.326   9.472   4.335  1.00  0.00     0.000 C 
BRANCH   3   4
ATOM      4  C   UNL     1       7.444   9.275   3.301  1.00  0.00     0.000 C 
BRANCH   4   5
ATOM      5  C   UNL     1       8.357   8.100   3.686  1.00  0.00     0.000 C 
BRANCH   5   6
ATOM      6  C   UNL     1       8.628   7.166   2.495  1.00  0.00     0.000 C 
BRANCH   6   7
ATOM      7  C   UNL     1       7.946   7.652   1.204  1.00  0.00     0.000 C 
BRANCH   7   8
ATOM      8  C   UNL     1       7.298   6.503   0.409  1.00  0.00     0.000 C 
BRANCH   8   9
ATOM      9  C   UNL     1       7.856   5.102   0.744  1.00  0.00     0.000 C 
BRANCH   9  10
ATOM     10  C   UNL     1       6.903   3.925   0.439  1.00  0.00     0.006 C 
BRANCH  10  11
ATOM     11  C   UNL     1       7.488   2.881  -0.528  1.00  0.00     0.053 C 
BRANCH  11  12
ATOM     12  C   UNL     1       6.461   1.906  -1.016  1.00  0.00     0.041 C 
ATOM     13  O   UNL     1       6.210   1.810  -2.246  1.00  0.00    -0.550 OA
ATOM     14  O   UNL     1       5.797   1.081  -0.115  1.00  0.00    -0.550 OA
ENDBRANCH  11  12
ENDBRANCH  10  11
ENDBRANCH   9  10
ENDBRANCH   8   9
ENDBRANCH   7   8
ENDBRANCH   6   7
ENDBRANCH   5   6
ENDBRANCH   4   5
ENDBRANCH   3   4
ENDBRANCH   2   3
ENDBRANCH   1   2
BRANCH   1  15
ATOM     15  C   UNL     1       4.760  10.213   7.094  1.00  0.00     0.000 C 
BRANCH  15  16
ATOM     16  C   UNL     1       4.200  11.060   8.254  1.00  0.00     0.000 C 
BRANCH  16  17
ATOM     17  C   UNL     1       3.145  10.292   9.078  1.00  0.00     0.000 C 
BRANCH  17  18
ATOM     18  C   UNL     1       3.066   8.793   8.738  1.00  0.00    -0.000 C 
BRANCH  18  19
ATOM     19  C   UNL     1       1.669   8.363   8.257  1.00  0.00    -0.000 C 
BRANCH  19  20
ATOM     20  C   UNL     1       0.579   8.558   9.328  1.00  0.00    -0.000 C 
BRANCH  20  21
ATOM     21  C   UNL     1       0.722   7.662  10.575  1.00  0.00    -0.000 C 
BRANCH  21  22
ATOM     22  C   UNL     1       1.226   6.229  10.302  1.00  0.00    -0.000 C 
BRANCH  22  23
ATOM     23  C   UNL     1       2.015   5.615  11.478  1.00  0.00    -0.000 C 
BRANCH  23  24
ATOM     24  C   UNL     1       1.665   4.136  11.715  1.00  0.00    -0.000 C 
BRANCH  24  25
ATOM     25  C   UNL     1       1.174   3.439  10.436  1.00  0.00    -0.003 C 
ATOM     26  C   UNL     1       1.306   1.917  10.513  1.00  0.00     0.004 C 
ENDBRANCH  24  25
ENDBRANCH  23  24
ENDBRANCH  22  23
ENDBRANCH  21  22
ENDBRANCH  20  21
ENDBRANCH  19  20
ENDBRANCH  18  19
ENDBRANCH  17  18
ENDBRANCH  16  17
ENDBRANCH  15  16
ENDBRANCH   1  15
TORSDOF 22
ENDMDL
MODEL 3
REMARK VINA RESULT:    -4.464      4.324     10.927
REMARK INTER + INTRA:         -11.825
REMARK INTER:                 -10.678
REMARK INTRA:                  -1.147
REMARK UNBOUND:                -1.619
REMARK SMILES CCCCCCCCCCCCCCCCCCCCCCCC(=O)[O-]
REMARK SMILES IDX 13 1 14 2 15 3 16 4 17 5 18 6 19 7 20 8 21 9 22 10 23 11
REMARK SMILES IDX 24 12 25 13 26 14 12 15 11 16 10 17 9 18 8 19 7 20 6 21 5 22
REMARK SMILES IDX 4 23 3 24 2 25 1 26
REMARK H PARENT
REMARK Flexibility Score: inf
ROOT
ATOM      1  C   UNL     1       8.950   8.494   1.298  1.00  0.00     0.000 C 
ENDROOT
BRANCH   1   2
ATOM      2  C   UNL     1       8.358   8.119  -0.071  1.00  0.00     0.000 C 
BRANCH   2   3
ATOM      3  C   UNL     1       7.317   6.991   0.035  1.00  0.00     0.000 C 
BRANCH   3   4
ATOM      4  C   UNL     1       7.638   6.021   1.182  1.00  0.00     0.000 C 
BRANCH   4   5
ATOM      5  C   UNL     1       8.053   4.642   0.646  1.00  0.00     0.000 C 
BRANCH   5   6
ATOM      6  C   UNL     1       6.915   3.614   0.759  1.00  0.00     0.000 C 
BRANCH   6   7
ATOM      7  C   UNL     1       6.663   2.873  -0.566  1.00  0.00     0.000 C 
BRANCH   7   8
ATOM      8  C   UNL     1       6.313   1.387  -0.354  1.00  0.00     0.000 C 
BRANCH   8   9
ATOM      9  C   UNL     1       6.242   0.558  -1.654  1.00  0.00     0.000 C 
BRANCH   9  10
ATOM     10  C   UNL     1       6.577   1.333  -2.948  1.00  0.00     0.006 C 
BRANCH  10  11
ATOM     11  C   UNL     1       7.970   1.021  -3.522  1.00  0.00     0.053 C 
BRANCH  11  12
ATOM     12  C   UNL     1       8.200  -0.447  -3.713  1.00  0.00     0.041 C 
ATOM     13  O   UNL     1       8.777  -1.121  -2.820  1.00  0.00    -0.550 OA
ATOM     14  O   UNL     1       7.752  -1.080  -4.867  1.00  0.00    -0.550 OA
ENDBRANCH  11  12
ENDBRANCH  10  11
ENDBRANCH   9  10
ENDBRANCH   8   9
ENDBRANCH   7   8
ENDBRANCH   6   7
ENDBRANCH   5   6
ENDBRANCH   4   5
ENDBRANCH   3   4
ENDBRANCH   2   3
ENDBRANCH   1   2
BRANCH   1  15
ATOM     15  C   UNL     1       8.515   9.892   1.768  1.00  0.00     0.000 C 
BRANCH  15  16
ATOM     16  C   UNL     1       8.233   9.940   3.282  1.00  0.00     0.000 C 
BRANCH  16  17
ATOM     17  C   UNL     1       6.901   9.251   3.647  1.00  0.00     0.000 C 
BRANCH  17  18
ATOM     18  C   UNL     1       5.722  10.229   3.803  1.00  0.00    -0.000 C 
BRANCH  18  19
ATOM     19  C   UNL     1       5.770  11.016   5.123  1.00  0.00    -0.000 C 
BRANCH  19  20
ATOM     20  C   UNL     1       5.795  10.105   6.365  1.00  0.00    -0.000 C 
BRANCH  20  21
ATOM     21  C   UNL     1       4.804  10.494   7.480  1.00  0.00    -0.000 C 
BRANCH  21  22
ATOM     22  C   UNL     1       4.174   9.311   8.245  1.00  0.00    -0.000 C 
BRANCH  22  23
ATOM     23  C   UNL     1       2.670   9.493   8.539  1.00  0.00    -0.000 C 
BRANCH  23  24
ATOM     24  C   UNL     1       1.877   8.183   8.393  1.00  0.00    -0.000 C 
BRANCH  24  25
ATOM     25  C   UNL     1       2.345   7.103   9.381  1.00  0.00    -0.003 C 
ATOM     26  C   UNL     1       1.248   6.086   9.697  1.00  0.00     0.004 C 
ENDBRANCH  24  25
ENDBRANCH  23  24
ENDBRANCH  22  23
ENDBRANCH  21  22
ENDBRANCH  20  21
ENDBRANCH  19  20
ENDBRANCH  18  19
ENDBRANCH  17  18
ENDBRANCH  16  17
ENDBRANCH  15  16
ENDBRANCH   1  15
TORSDOF 22
ENDMDL
MODEL 4
REMARK VINA RESULT:    -4.383      1.509      2.928
REMARK INTER + INTRA:         -11.638
REMARK INTER:                 -10.537
REMARK INTRA:                  -1.101
REMARK UNBOUND:                -1.619
REMARK SMILES CCCCCCCCCCCCCCCCCCCCCCCC(=O)[O-]
REMARK SMILES IDX 13 1 14 2 15 3 16 4 17 5 18 6 19 7 20 8 21 9 22 10 23 11
REMARK SMILES IDX 24 12 25 13 26 14 12 15 11 16 10 17 9 18 8 19 7 20 6 21 5 22
REMARK SMILES IDX 4 23 3 24 2 25 1 26
REMARK H PARENT
REMARK Flexibility Score: inf
ROOT
ATOM      1  C   UNL     1       5.949   9.755   5.842  1.00  0.00     0.000 C 
ENDROOT
BRANCH   1   2
ATOM      2  C   UNL     1       5.607  11.094   6.518  1.00  0.00     0.000 C 
BRANCH   2   3
ATOM      3  C   UNL     1       5.012  10.900   7.924  1.00  0.00     0.000 C 
BRANCH   3   4
ATOM      4  C   UNL     1       4.176   9.614   8.019  1.00  0.00     0.000 C 
BRANCH   4   5
ATOM      5  C   UNL     1       2.694   9.932   8.273  1.00  0.00     0.000 C 
BRANCH   5   6
ATOM      6  C   UNL     1       1.818   8.669   8.226  1.00  0.00     0.000 C 
BRANCH   6   7
ATOM      7  C   UNL     1       0.692   8.700   9.275  1.00  0.00     0.000 C 
BRANCH   7   8
ATOM      8  C   UNL     1       0.999   7.814  10.497  1.00  0.00     0.000 C 
BRANCH   8   9
ATOM      9  C   UNL     1       1.027   6.299  10.196  1.00  0.00     0.000 C 
BRANCH   9  10
ATOM     10  C   UNL     1       1.986   5.471  11.079  1.00  0.00     0.006 C 
BRANCH  10  11
ATOM     11  C   UNL     1       1.552   4.007  11.272  1.00  0.00     0.053 C 
BRANCH  11  12
ATOM     12  C   UNL     1       2.256   3.068  10.341  1.00  0.00     0.041 C 
ATOM     13  O   UNL     1       1.904   1.861  10.270  1.00  0.00    -0.550 OA
ATOM     14  O   UNL     1       3.284   3.531   9.528  1.00  0.00    -0.550 OA
ENDBRANCH  11  12
ENDBRANCH  10  11
ENDBRANCH   9  10
ENDBRANCH   8   9
ENDBRANCH   7   8
ENDBRANCH   6   7
ENDBRANCH   5   6
ENDBRANCH   4   5
ENDBRANCH   3   4
ENDBRANCH   2   3
ENDBRANCH   1   2
BRANCH   1  15
ATOM     15  C   UNL     1       7.392   9.303   6.124  1.00  0.00     0.000 C 
BRANCH  15  16
ATOM     16  C   UNL     1       8.022   8.572   4.923  1.00  0.00     0.000 C 
BRANCH  16  17
ATOM     17  C   UNL     1       7.290   8.887   3.601  1.00  0.00     0.000 C 
BRANCH  17  18
ATOM     18  C   UNL     1       8.206   9.473   2.512  1.00  0.00    -0.000 C 
BRANCH  18  19
ATOM     19  C   UNL     1       8.693   8.414   1.508  1.00  0.00    -0.000 C 
BRANCH  19  20
ATOM     20  C   UNL     1       7.645   7.317   1.237  1.00  0.00    -0.000 C 
BRANCH  20  21
ATOM     21  C   UNL     1       8.195   6.039   0.574  1.00  0.00    -0.000 C 
BRANCH  21  22
ATOM     22  C   UNL     1       7.860   4.721   1.304  1.00  0.00    -0.000 C 
BRANCH  22  23
ATOM     23  C   UNL     1       6.856   3.830   0.543  1.00  0.00    -0.000 C 
BRANCH  23  24
ATOM     24  C   UNL     1       7.549   2.854  -0.424  1.00  0.00    -0.000 C 
BRANCH  24  25
ATOM     25  C   UNL     1       6.544   1.994  -1.207  1.00  0.00    -0.003 C 
ATOM     26  C   UNL     1       6.226   0.677  -0.498  1.00  0.00     0.004 C 
ENDBRANCH  24  25
ENDBRANCH  23  24
ENDBRANCH  22  23
ENDBRANCH  21  22
ENDBRANCH  20  21
ENDBRANCH  19  20
ENDBRANCH  18  19
ENDBRANCH  17  18
ENDBRANCH  16  17
ENDBRANCH  15  16
ENDBRANCH   1  15
TORSDOF 22
ENDMDL
MODEL 5
REMARK VINA RESULT:    -4.311      7.115     10.776
REMARK INTER + INTRA:         -11.474
REMARK INTER:                  -7.809
REMARK INTRA:                  -3.665
REMARK UNBOUND:                -1.619
REMARK SMILES CCCCCCCCCCCCCCCCCCCCCCCC(=O)[O-]
REMARK SMILES IDX 13 1 14 2 15 3 16 4 17 5 18 6 19 7 20 8 21 9 22 10 23 11
REMARK SMILES IDX 24 12 25 13 26 14 12 15 11 16 10 17 9 18 8 19 7 20 6 21 5 22
REMARK SMILES IDX 4 23 3 24 2 25 1 26
REMARK H PARENT
REMARK Flexibility Score: inf
ROOT
ATOM      1  C   UNL     1       2.488   5.526   9.817  1.00  0.00     0.000 C 
ENDROOT
BRANCH   1   2
ATOM      2  C   UNL     1       1.839   4.295  10.472  1.00  0.00     0.000 C 
BRANCH   2   3
ATOM      3  C   UNL     1       2.570   2.990  10.107  1.00  0.00     0.000 C 
BRANCH   3   4
ATOM      4  C   UNL     1       1.873   1.758  10.703  1.00  0.00     0.000 C 
BRANCH   4   5
ATOM      5  C   UNL     1       2.842   0.931  11.561  1.00  0.00     0.000 C 
BRANCH   5   6
ATOM      6  C   UNL     1       3.272   1.682  12.832  1.00  0.00     0.000 C 
BRANCH   6   7
ATOM      7  C   UNL     1       4.768   2.039  12.823  1.00  0.00     0.000 C 
BRANCH   7   8
ATOM      8  C   UNL     1       5.012   3.558  12.728  1.00  0.00     0.000 C 
BRANCH   8   9
ATOM      9  C   UNL     1       6.498   3.971  12.816  1.00  0.00     0.000 C 
BRANCH   9  10
ATOM     10  C   UNL     1       6.871   5.252  12.036  1.00  0.00     0.006 C 
BRANCH  10  11
ATOM     11  C   UNL     1       7.786   5.002  10.824  1.00  0.00     0.053 C 
BRANCH  11  12
ATOM     12  C   UNL     1       7.097   5.260   9.519  1.00  0.00     0.041 C 
ATOM     13  O   UNL     1       7.705   5.844   8.584  1.00  0.00    -0.550 OA
ATOM     14  O   UNL     1       5.789   4.829   9.322  1.00  0.00    -0.550 OA
ENDBRANCH  11  12
ENDBRANCH  10  11
ENDBRANCH   9  10
ENDBRANCH   8   9
ENDBRANCH   7   8
ENDBRANCH   6   7
ENDBRANCH   5   6
ENDBRANCH   4   5
ENDBRANCH   3   4
ENDBRANCH   2   3
ENDBRANCH   1   2
BRANCH   1  15
ATOM     15  C   UNL     1       1.450   6.557   9.341  1.00  0.00     0.000 C 
BRANCH  15  16
ATOM     16  C   UNL     1       2.026   7.524   8.288  1.00  0.00     0.000 C 
BRANCH  16  17
ATOM     17  C   UNL     1       1.625   8.989   8.561  1.00  0.00     0.000 C 
BRANCH  17  18
ATOM     18  C   UNL     1       0.305   9.133   9.340  1.00  0.00    -0.000 C 
BRANCH  18  19
ATOM     19  C   UNL     1       0.443  10.019  10.590  1.00  0.00    -0.000 C 
BRANCH  19  20
ATOM     20  C   UNL     1      -0.149   9.368  11.855  1.00  0.00    -0.000 C 
BRANCH  20  21
ATOM     21  C   UNL     1       0.884   8.981  12.932  1.00  0.00    -0.000 C 
BRANCH  21  22
ATOM     22  C   UNL     1       1.610   7.640  12.697  1.00  0.00    -0.000 C 
BRANCH  22  23
ATOM     23  C   UNL     1       3.149   7.753  12.741  1.00  0.00    -0.000 C 
BRANCH  23  24
ATOM     24  C   UNL     1       3.708   8.632  11.609  1.00  0.00    -0.000 C 
BRANCH  24  25
ATOM     25  C   UNL     1       5.021   8.077  11.032  1.00  0.00    -0.003 C 
ATOM     26  C   UNL     1       5.267   8.535   9.594  1.00  0.00     0.004 C 
ENDBRANCH  24  25
ENDBRANCH  23  24
ENDBRANCH  22  23
ENDBRANCH  21  22
ENDBRANCH  20  21
ENDBRANCH  19  20
ENDBRANCH  18  19
ENDBRANCH  17  18
ENDBRANCH  16  17
ENDBRANCH  15  16
ENDBRANCH   1  15
TORSDOF 22
ENDMDL
MODEL 6
REMARK VINA RESULT:    -4.243      6.837      9.430
REMARK INTER + INTRA:         -11.318
REMARK INTER:                  -7.323
REMARK INTRA:                  -3.995
REMARK UNBOUND:                -1.619
REMARK SMILES CCCCCCCCCCCCCCCCCCCCCCCC(=O)[O-]
REMARK SMILES IDX 13 1 14 2 15 3 16 4 17 5 18 6 19 7 20 8 21 9 22 10 23 11
REMARK SMILES IDX 24 12 25 13 26 14 12 15 11 16 10 17 9 18 8 19 7 20 6 21 5 22
REMARK SMILES IDX 4 23 3 24 2 25 1 26
REMARK H PARENT
REMARK Flexibility Score: inf
ROOT
ATOM      1  C   UNL     1       2.281   9.603   8.509  1.00  0.00     0.000 C 
ENDROOT
BRANCH   1   2
ATOM      2  C   UNL     1       3.675   8.983   8.311  1.00  0.00     0.000 C 
BRANCH   2   3
ATOM      3  C   UNL     1       4.227   8.367   9.609  1.00  0.00     0.000 C 
BRANCH   3   4
ATOM      4  C   UNL     1       5.681   8.789   9.870  1.00  0.00     0.000 C 
BRANCH   4   5
ATOM      5  C   UNL     1       6.079   8.537  11.332  1.00  0.00     0.000 C 
BRANCH   5   6
ATOM      6  C   UNL     1       4.879   8.104  12.190  1.00  0.00     0.000 C 
BRANCH   6   7
ATOM      7  C   UNL     1       5.077   6.710  12.812  1.00  0.00     0.000 C 
BRANCH   7   8
ATOM      8  C   UNL     1       6.344   6.005  12.289  1.00  0.00     0.000 C 
BRANCH   8   9
ATOM      9  C   UNL     1       6.066   4.786  11.383  1.00  0.00     0.000 C 
BRANCH   9  10
ATOM     10  C   UNL     1       6.084   5.076   9.866  1.00  0.00     0.006 C 
BRANCH  10  11
ATOM     11  C   UNL     1       7.443   4.814   9.194  1.00  0.00     0.053 C 
BRANCH  11  12
ATOM     12  C   UNL     1       8.194   6.076   8.900  1.00  0.00     0.041 C 
ATOM     13  O   UNL     1       8.734   6.726   9.834  1.00  0.00    -0.550 OA
ATOM     14  O   UNL     1       8.324   6.523   7.590  1.00  0.00    -0.550 OA
ENDBRANCH  11  12
ENDBRANCH  10  11
ENDBRANCH   9  10
ENDBRANCH   8   9
ENDBRANCH   7   8
ENDBRANCH   6   7
ENDBRANCH   5   6
ENDBRANCH   4   5
ENDBRANCH   3   4
ENDBRANCH   2   3
ENDBRANCH   1   2
BRANCH   1  15
ATOM     15  C   UNL     1       2.293  10.776   9.503  1.00  0.00     0.000 C 
BRANCH  15  16
ATOM     16  C   UNL     1       1.017  10.825  10.366  1.00  0.00     0.000 C 
BRANCH  16  17
ATOM     17  C   UNL     1       0.064   9.649  10.063  1.00  0.00     0.000 C 
BRANCH  17  18
ATOM     18  C   UNL     1      -0.186   8.730  11.272  1.00  0.00    -0.000 C 
BRANCH  18  19
ATOM     19  C   UNL     1       1.109   8.338  12.003  1.00  0.00    -0.000 C 
BRANCH  19  20
ATOM     20  C   UNL     1       1.514   6.870  11.762  1.00  0.00    -0.000 C 
BRANCH  20  21
ATOM     21  C   UNL     1       1.234   6.341  10.341  1.00  0.00    -0.000 C 
BRANCH  21  22
ATOM     22  C   UNL     1       2.351   5.470   9.730  1.00  0.00    -0.000 C 
BRANCH  22  23
ATOM     23  C   UNL     1       2.503   4.092  10.408  1.00  0.00    -0.000 C 
BRANCH  23  24
ATOM     24  C   UNL     1       1.149   3.406  10.660  1.00  0.00    -0.000 C 
BRANCH  24  25
ATOM     25  C   UNL     1       1.229   1.879  10.506  1.00  0.00    -0.003 C 
ATOM     26  C   UNL     1       2.492   1.293  11.137  1.00  0.00     0.004 C 
ENDBRANCH  24  25
ENDBRANCH  23  24
ENDBRANCH  22  23
ENDBRANCH  21  22
ENDBRANCH  20  21
ENDBRANCH  19  20
ENDBRANCH  18  19
ENDBRANCH  17  18
ENDBRANCH  16  17
ENDBRANCH  15  16
ENDBRANCH   1  15
TORSDOF 22
ENDMDL
MODEL 7
REMARK VINA RESULT:    -4.213      7.090     10.238
REMARK INTER + INTRA:         -11.250
REMARK INTER:                  -7.429
REMARK INTRA:                  -3.821
REMARK UNBOUND:                -1.619
REMARK SMILES CCCCCCCCCCCCCCCCCCCCCCCC(=O)[O-]
REMARK SMILES IDX 13 1 14 2 15 3 16 4 17 5 18 6 19 7 20 8 21 9 22 10 23 11
REMARK SMILES IDX 24 12 25 13 26 14 12 15 11 16 10 17 9 18 8 19 7 20 6 21 5 22
REMARK SMILES IDX 4 23 3 24 2 25 1 26
REMARK H PARENT
REMARK Flexibility Score: inf
ROOT
ATOM      1  C   UNL     1       2.125   1.766  10.544  1.00  0.00     0.000 C 
ENDROOT
BRANCH   1   2
ATOM      2  C   UNL     1       1.193   2.864  11.087  1.00  0.00     0.000 C 
BRANCH   2   3
ATOM      3  C   UNL     1       1.429   4.219  10.397  1.00  0.00     0.000 C 
BRANCH   3   4
ATOM      4  C   UNL     1       1.594   5.358  11.414  1.00  0.00     0.000 C 
BRANCH   4   5
ATOM      5  C   UNL     1       1.433   6.731  10.743  1.00  0.00     0.000 C 
BRANCH   5   6
ATOM      6  C   UNL     1       1.519   6.637   9.210  1.00  0.00     0.000 C 
BRANCH   6   7
ATOM      7  C   UNL     1       1.624   8.021   8.545  1.00  0.00     0.000 C 
BRANCH   7   8
ATOM      8  C   UNL     1       0.918   9.123   9.358  1.00  0.00     0.000 C 
BRANCH   8   9
ATOM      9  C   UNL     1       1.773  10.386   9.596  1.00  0.00     0.000 C 
BRANCH   9  10
ATOM     10  C   UNL     1       2.793  10.709   8.482  1.00  0.00     0.006 C 
BRANCH  10  11
ATOM     11  C   UNL     1       4.262  10.573   8.920  1.00  0.00     0.053 C 
BRANCH  11  12
ATOM     12  C   UNL     1       5.134   9.998   7.846  1.00  0.00     0.041 C 
ATOM     13  O   UNL     1       4.652   9.208   6.992  1.00  0.00    -0.550 OA
ATOM     14  O   UNL     1       6.476  10.354   7.769  1.00  0.00    -0.550 OA
ENDBRANCH  11  12
ENDBRANCH  10  11
ENDBRANCH   9  10
ENDBRANCH   8   9
ENDBRANCH   7   8
ENDBRANCH   6   7
ENDBRANCH   5   6
ENDBRANCH   4   5
ENDBRANCH   3   4
ENDBRANCH   2   3
ENDBRANCH   1   2
BRANCH   1  15
ATOM     15  C   UNL     1       2.840   0.991  11.664  1.00  0.00     0.000 C 
BRANCH  15  16
ATOM     16  C   UNL     1       3.042   1.846  12.930  1.00  0.00     0.000 C 
BRANCH  16  17
ATOM     17  C   UNL     1       4.489   2.368  13.054  1.00  0.00     0.000 C 
BRANCH  17  18
ATOM     18  C   UNL     1       4.639   3.860  12.707  1.00  0.00    -0.000 C 
BRANCH  18  19
ATOM     19  C   UNL     1       5.708   4.119  11.632  1.00  0.00    -0.000 C 
BRANCH  19  20
ATOM     20  C   UNL     1       5.136   4.782  10.364  1.00  0.00    -0.000 C 
BRANCH  20  21
ATOM     21  C   UNL     1       5.683   6.191  10.061  1.00  0.00    -0.000 C 
BRANCH  21  22
ATOM     22  C   UNL     1       4.797   7.359  10.542  1.00  0.00    -0.000 C 
BRANCH  22  23
ATOM     23  C   UNL     1       5.380   8.123  11.749  1.00  0.00    -0.000 C 
BRANCH  23  24
ATOM     24  C   UNL     1       6.919   8.124  11.759  1.00  0.00    -0.000 C 
BRANCH  24  25
ATOM     25  C   UNL     1       7.496   7.512  13.045  1.00  0.00    -0.003 C 
ATOM     26  C   UNL     1       8.427   6.332  12.764  1.00  0.00     0.004 C 
ENDBRANCH  24  25
ENDBRANCH  23  24
ENDBRANCH  22  23
ENDBRANCH  21  22
ENDBRANCH  20  21
ENDBRANCH  19  20
ENDBRANCH  18  19
ENDBRANCH  17  18
ENDBRANCH  16  17
ENDBRANCH  15  16
ENDBRANCH   1  15
TORSDOF 22
ENDMDL
MODEL 8
REMARK VINA RESULT:    -4.164      6.881      9.294
REMARK INTER + INTRA:         -11.139
REMARK INTER:                  -6.522
REMARK INTRA:                  -4.617
REMARK UNBOUND:                -1.619
REMARK SMILES CCCCCCCCCCCCCCCCCCCCCCCC(=O)[O-]
REMARK SMILES IDX 13 1 14 2 15 3 16 4 17 5 18 6 19 7 20 8 21 9 22 10 23 11
REMARK SMILES IDX 24 12 25 13 26 14 12 15 11 16 10 17 9 18 8 19 7 20 6 21 5 22
REMARK SMILES IDX 4 23 3 24 2 25 1 26
REMARK H PARENT
REMARK Flexibility Score: inf
ROOT
ATOM      1  C   UNL     1       2.222   7.928   8.300  1.00  0.00     0.000 C 
ENDROOT
BRANCH   1   2
ATOM      2  C   UNL     1       0.849   8.476   8.725  1.00  0.00     0.000 C 
BRANCH   2   3
ATOM      3  C   UNL     1       0.973   9.649   9.713  1.00  0.00     0.000 C 
BRANCH   3   4
ATOM      4  C   UNL     1       0.031   9.487  10.916  1.00  0.00     0.000 C 
BRANCH   4   5
ATOM      5  C   UNL     1       0.695   8.672  12.036  1.00  0.00     0.000 C 
BRANCH   5   6
ATOM      6  C   UNL     1       2.103   9.191  12.370  1.00  0.00     0.000 C 
BRANCH   6   7
ATOM      7  C   UNL     1       3.176   8.095  12.238  1.00  0.00     0.000 C 
BRANCH   7   8
ATOM      8  C   UNL     1       4.466   8.609  11.570  1.00  0.00     0.000 C 
BRANCH   8   9
ATOM      9  C   UNL     1       4.455  10.118  11.239  1.00  0.00     0.000 C 
BRANCH   9  10
ATOM     10  C   UNL     1       4.579  10.463   9.738  1.00  0.00     0.006 C 
BRANCH  10  11
ATOM     11  C   UNL     1       5.344   9.412   8.915  1.00  0.00     0.053 C 
BRANCH  11  12
ATOM     12  C   UNL     1       5.433   9.769   7.463  1.00  0.00     0.041 C 
ATOM     13  O   UNL     1       6.406   9.369   6.769  1.00  0.00    -0.550 OA
ATOM     14  O   UNL     1       4.429  10.521   6.865  1.00  0.00    -0.550 OA
ENDBRANCH  11  12
ENDBRANCH  10  11
ENDBRANCH   9  10
ENDBRANCH   8   9
ENDBRANCH   7   8
ENDBRANCH   6   7
ENDBRANCH   5   6
ENDBRANCH   4   5
ENDBRANCH   3   4
ENDBRANCH   2   3
ENDBRANCH   1   2
BRANCH   1  15
ATOM     15  C   UNL     1       2.560   6.590   8.979  1.00  0.00     0.000 C 
BRANCH  15  16
ATOM     16  C   UNL     1       1.347   5.980   9.706  1.00  0.00     0.000 C 
BRANCH  16  17
ATOM     17  C   UNL     1       1.699   4.656  10.416  1.00  0.00     0.000 C 
BRANCH  17  18
ATOM     18  C   UNL     1       1.700   4.759  11.952  1.00  0.00    -0.000 C 
BRANCH  18  19
ATOM     19  C   UNL     1       2.291   3.513  12.634  1.00  0.00    -0.000 C 
BRANCH  19  20
ATOM     20  C   UNL     1       3.455   2.889  11.840  1.00  0.00    -0.000 C 
BRANCH  20  21
ATOM     21  C   UNL     1       4.863   3.301  12.313  1.00  0.00    -0.000 C 
BRANCH  21  22
ATOM     22  C   UNL     1       5.348   4.679  11.818  1.00  0.00    -0.000 C 
BRANCH  22  23
ATOM     23  C   UNL     1       5.447   4.786  10.282  1.00  0.00    -0.000 C 
BRANCH  23  24
ATOM     24  C   UNL     1       6.358   5.939   9.828  1.00  0.00    -0.000 C 
BRANCH  24  25
ATOM     25  C   UNL     1       7.400   6.315  10.893  1.00  0.00    -0.003 C 
ATOM     26  C   UNL     1       8.774   5.707  10.608  1.00  0.00     0.004 C 
ENDBRANCH  24  25
ENDBRANCH  23  24
ENDBRANCH  22  23
ENDBRANCH  21  22
ENDBRANCH  20  21
ENDBRANCH  19  20
ENDBRANCH  18  19
ENDBRANCH  17  18
ENDBRANCH  16  17
ENDBRANCH  15  16
ENDBRANCH   1  15
TORSDOF 22
ENDMDL
MODEL 9
REMARK VINA RESULT:    -4.123      7.079     10.902
REMARK INTER + INTRA:         -11.045
REMARK INTER:                  -7.402
REMARK INTRA:                  -3.643
REMARK UNBOUND:                -1.619
REMARK SMILES CCCCCCCCCCCCCCCCCCCCCCCC(=O)[O-]
REMARK SMILES IDX 13 1 14 2 15 3 16 4 17 5 18 6 19 7 20 8 21 9 22 10 23 11
REMARK SMILES IDX 24 12 25 13 26 14 12 15 11 16 10 17 9 18 8 19 7 20 6 21 5 22
REMARK SMILES IDX 4 23 3 24 2 25 1 26
REMARK H PARENT
REMARK Flexibility Score: inf
ROOT
ATOM      1  C   UNL     1       2.554   4.637  10.113  1.00  0.00     0.000 C 
ENDROOT
BRANCH   1   2
ATOM      2  C   UNL     1       2.280   3.132  10.280  1.00  0.00     0.000 C 
BRANCH   2   3
ATOM      3  C   UNL     1       0.878   2.857  10.851  1.00  0.00     0.000 C 
BRANCH   3   4
ATOM      4  C   UNL     1       0.931   1.936  12.079  1.00  0.00     0.000 C 
BRANCH   4   5
ATOM      5  C   UNL     1       2.146   2.257  12.964  1.00  0.00     0.000 C 
BRANCH   5   6
ATOM      6  C   UNL     1       3.078   1.044  13.125  1.00  0.00     0.000 C 
BRANCH   6   7
ATOM      7  C   UNL     1       4.558   1.414  12.925  1.00  0.00     0.000 C 
BRANCH   7   8
ATOM      8  C   UNL     1       4.771   2.932  12.767  1.00  0.00     0.000 C 
BRANCH   8   9
ATOM      9  C   UNL     1       6.252   3.371  12.767  1.00  0.00     0.000 C 
BRANCH   9  10
ATOM     10  C   UNL     1       6.556   4.657  11.967  1.00  0.00     0.006 C 
BRANCH  10  11
ATOM     11  C   UNL     1       7.382   4.419  10.690  1.00  0.00     0.053 C 
BRANCH  11  12
ATOM     12  C   UNL     1       6.910   5.248   9.535  1.00  0.00     0.041 C 
ATOM     13  O   UNL     1       7.725   5.639   8.659  1.00  0.00    -0.550 OA
ATOM     14  O   UNL     1       5.563   5.567   9.408  1.00  0.00    -0.550 OA
ENDBRANCH  11  12
ENDBRANCH  10  11
ENDBRANCH   9  10
ENDBRANCH   8   9
ENDBRANCH   7   8
ENDBRANCH   6   7
ENDBRANCH   5   6
ENDBRANCH   4   5
ENDBRANCH   3   4
ENDBRANCH   2   3
ENDBRANCH   1   2
BRANCH   1  15
ATOM     15  C   UNL     1       1.337   5.503  10.478  1.00  0.00     0.000 C 
BRANCH  15  16
ATOM     16  C   UNL     1       1.611   6.417  11.688  1.00  0.00     0.000 C 
BRANCH  16  17
ATOM     17  C   UNL     1       2.954   6.089  12.373  1.00  0.00     0.000 C 
BRANCH  17  18
ATOM     18  C   UNL     1       3.918   7.287  12.447  1.00  0.00    -0.000 C 
BRANCH  18  19
ATOM     19  C   UNL     1       3.533   8.424  11.484  1.00  0.00    -0.000 C 
BRANCH  19  20
ATOM     20  C   UNL     1       4.683   8.827  10.541  1.00  0.00    -0.000 C 
BRANCH  20  21
ATOM     21  C   UNL     1       4.319   8.858   9.043  1.00  0.00    -0.000 C 
BRANCH  21  22
ATOM     22  C   UNL     1       2.916   8.318   8.695  1.00  0.00    -0.000 C 
BRANCH  22  23
ATOM     23  C   UNL     1       1.837   9.416   8.598  1.00  0.00    -0.000 C 
BRANCH  23  24
ATOM     24  C   UNL     1       0.526   9.019   9.299  1.00  0.00    -0.000 C 
BRANCH  24  25
ATOM     25  C   UNL     1       0.235   9.890  10.532  1.00  0.00    -0.003 C 
ATOM     26  C   UNL     1      -1.065  10.684  10.393  1.00  0.00     0.004 C 
ENDBRANCH  24  25
ENDBRANCH  23  24
ENDBRANCH  22  23
ENDBRANCH  21  22
ENDBRANCH  20  21
ENDBRANCH  19  20
ENDBRANCH  18  19
ENDBRANCH  17  18
ENDBRANCH  16  17
ENDBRANCH  15  16
ENDBRANCH   1  15
TORSDOF 22
ENDMDL
