MODEL 1
REMARK VINA RESULT:    36.060      0.000      0.000
REMARK INTER + INTRA:          42.486
REMARK INTER:                  42.384
REMARK INTRA:                   0.102
REMARK UNBOUND:                 0.102
REMARK SMILES O=c1c(O)c(-c2ccc(O)cc2)oc2cc(O)cc(O)c12
REMARK SMILES IDX 5 1 3 2 2 3 1 4 21 5 19 6 18 7 16 8 15 9 14 10 13 11 6 12
REMARK SMILES IDX 7 13 8 14 9 15 12 16 11 17 10 18 4 20 20 22 17 24
REMARK H PARENT 10 19 4 21 20 23 17 25
REMARK Flexibility Score: inf
ROOT
ATOM      1  C   UNL     1       9.790  60.502  22.393  1.00  0.00     0.180 A 
ATOM      2  C   UNL     1      11.147  60.734  22.096  1.00  0.00     0.208 A 
ATOM      3  C   UNL     1      11.781  61.857  22.653  1.00  0.00     0.238 A 
ATOM      4  O   UNL     1      12.992  62.081  22.386  1.00  0.00    -0.285 OA
ATOM      5  C   UNL     1      11.057  62.713  23.509  1.00  0.00     0.111 A 
ATOM      6  C   UNL     1      11.623  63.861  24.114  1.00  0.00     0.134 A 
ATOM      7  C   UNL     1      10.839  64.657  24.962  1.00  0.00     0.093 A 
ATOM      8  C   UNL     1       9.506  64.329  25.217  1.00  0.00     0.123 A 
ATOM      9  C   UNL     1       8.941  63.196  24.622  1.00  0.00     0.094 A 
ATOM     10  C   UNL     1       9.705  62.390  23.773  1.00  0.00     0.146 A 
ATOM     11  O   UNL     1       9.144  61.323  23.216  1.00  0.00    -0.452 OA
ENDROOT
BRANCH   1  12
ATOM     12  C   UNL     1       9.047  59.353  21.830  1.00  0.00     0.021 A 
ATOM     13  C   UNL     1       7.785  59.563  21.249  1.00  0.00     0.016 A 
ATOM     14  C   UNL     1       7.075  58.496  20.690  1.00  0.00     0.047 A 
ATOM     15  C   UNL     1       7.621  57.209  20.692  1.00  0.00     0.115 A 
ATOM     16  C   UNL     1       9.601  58.059  21.809  1.00  0.00     0.016 A 
ATOM     17  C   UNL     1       8.889  56.994  21.250  1.00  0.00     0.047 A 
BRANCH  15  18
ATOM     18  O   UNL     1       6.903  56.155  20.133  1.00  0.00    -0.508 OA
ATOM     19  H   UNL     1       5.994  55.885  20.490  1.00  0.00     0.293 HD
ENDBRANCH  15  18
ENDBRANCH   1  12
BRANCH   2  20
ATOM     20  O   UNL     1      11.854  59.844  21.284  1.00  0.00    -0.502 OA
ATOM     21  H   UNL     1      11.436  58.999  20.914  1.00  0.00     0.293 HD
ENDBRANCH   2  20
BRANCH   6  22
ATOM     22  O   UNL     1      12.952  64.215  23.880  1.00  0.00    -0.507 OA
ATOM     23  H   UNL     1      13.702  63.534  23.933  1.00  0.00     0.293 HD
ENDBRANCH   6  22
BRANCH   8  24
ATOM     24  O   UNL     1       8.750  65.137  26.064  1.00  0.00    -0.508 OA
ATOM     25  H   UNL     1       7.882  65.562  25.757  1.00  0.00     0.293 HD
ENDBRANCH   8  24
TORSDOF 5
ENDMDL
