MODEL 1
REMARK VINA RESULT:    -6.712      0.000      0.000
REMARK INTER + INTRA:          -8.528
REMARK INTER:                  -8.281
REMARK INTRA:                  -0.246
REMARK UNBOUND:                -0.246
REMARK SMILES COc1cc(-c2oc3cc(O)cc(O)c3c(=O)c2O)ccc1O
REMARK SMILES IDX 6 1 18 2 16 3 17 4 15 5 13 6 12 7 10 8 9 9 8 10 7 11 5 12
REMARK SMILES IDX 3 13 22 14 4 15 21 16 20 17 2 18 1 19 23 20 19 22 14 24
REMARK SMILES IDX 11 26
REMARK H PARENT 23 21 19 23 14 25 11 27
REMARK Flexibility Score: inf
ROOT
ATOM      1  C   UNL     1      13.186   9.829  12.895  1.00  0.00     0.180 A 
ATOM      2  C   UNL     1      13.152  10.386  14.188  1.00  0.00     0.208 A 
ATOM      3  C   UNL     1      11.923  10.464  14.859  1.00  0.00     0.238 A 
ATOM      4  O   UNL     1      11.881  10.950  16.022  1.00  0.00    -0.285 OA
ATOM      5  C   UNL     1      10.750  10.005  14.224  1.00  0.00     0.111 A 
ATOM      6  C   UNL     1       9.472  10.051  14.831  1.00  0.00     0.134 A 
ATOM      7  C   UNL     1       8.351   9.583  14.128  1.00  0.00     0.093 A 
ATOM      8  C   UNL     1       8.485   9.071  12.832  1.00  0.00     0.123 A 
ATOM      9  C   UNL     1       9.744   9.023  12.231  1.00  0.00     0.094 A 
ATOM     10  C   UNL     1      10.874   9.483  12.915  1.00  0.00     0.146 A 
ATOM     11  O   UNL     1      12.059   9.420  12.321  1.00  0.00    -0.452 OA
ENDROOT
BRANCH   1  12
ATOM     12  C   UNL     1      14.447   9.696  12.128  1.00  0.00     0.025 A 
ATOM     13  C   UNL     1      16.302  10.755  10.938  1.00  0.00     0.161 A 
ATOM     14  C   UNL     1      16.810   9.488  10.616  1.00  0.00     0.157 A 
ATOM     15  C   UNL     1      15.114  10.852  11.688  1.00  0.00     0.062 A 
ATOM     16  C   UNL     1      16.137   8.335  11.035  1.00  0.00     0.051 A 
ATOM     17  C   UNL     1      14.960   8.436  11.779  1.00  0.00     0.016 A 
BRANCH  13  18
ATOM     18  O   UNL     1      17.001  11.888  10.493  1.00  0.00    -0.493 OA
ATOM     19  C   UNL     1      17.584  12.863  11.351  1.00  0.00     0.278 C 
ENDBRANCH  13  18
BRANCH  14  20
ATOM     20  O   UNL     1      17.986   9.385   9.875  1.00  0.00    -0.504 OA
ATOM     21  H   UNL     1      18.441   8.492   9.722  1.00  0.00     0.293 HD
ENDBRANCH  14  20
ENDBRANCH   1  12
BRANCH   2  22
ATOM     22  O   UNL     1      14.320  10.878  14.775  1.00  0.00    -0.502 OA
ATOM     23  H   UNL     1      15.209  10.399  14.699  1.00  0.00     0.293 HD
ENDBRANCH   2  22
BRANCH   6  24
ATOM     24  O   UNL     1       9.307  10.558  16.121  1.00  0.00    -0.507 OA
ATOM     25  H   UNL     1      10.088  10.658  16.759  1.00  0.00     0.293 HD
ENDBRANCH   6  24
BRANCH   8  26
ATOM     26  O   UNL     1       7.373   8.607  12.135  1.00  0.00    -0.508 OA
ATOM     27  H   UNL     1       6.449   8.993  12.294  1.00  0.00     0.293 HD
ENDBRANCH   8  26
TORSDOF 6
ENDMDL
MODEL 2
REMARK VINA RESULT:    -6.636      0.782      2.047
REMARK INTER + INTRA:          -8.434
REMARK INTER:                  -8.243
REMARK INTRA:                  -0.191
REMARK UNBOUND:                -0.246
REMARK SMILES COc1cc(-c2oc3cc(O)cc(O)c3c(=O)c2O)ccc1O
REMARK SMILES IDX 6 1 18 2 16 3 17 4 15 5 13 6 12 7 10 8 9 9 8 10 7 11 5 12
REMARK SMILES IDX 3 13 22 14 4 15 21 16 20 17 2 18 1 19 23 20 19 22 14 24
REMARK SMILES IDX 11 26
REMARK H PARENT 23 21 19 23 14 25 11 27
REMARK Flexibility Score: inf
ROOT
ATOM      1  C   UNL     1      13.160   9.843  12.843  1.00  0.00     0.180 A 
ATOM      2  C   UNL     1      13.096  10.377  14.145  1.00  0.00     0.208 A 
ATOM      3  C   UNL     1      11.854  10.423  14.797  1.00  0.00     0.238 A 
ATOM      4  O   UNL     1      11.786  10.888  15.968  1.00  0.00    -0.285 OA
ATOM      5  C   UNL     1      10.700   9.958  14.135  1.00  0.00     0.111 A 
ATOM      6  C   UNL     1       9.411   9.974  14.721  1.00  0.00     0.134 A 
ATOM      7  C   UNL     1       8.310   9.501  13.992  1.00  0.00     0.093 A 
ATOM      8  C   UNL     1       8.472   9.015  12.690  1.00  0.00     0.123 A 
ATOM      9  C   UNL     1       9.742   8.996  12.108  1.00  0.00     0.094 A 
ATOM     10  C   UNL     1      10.853   9.462  12.819  1.00  0.00     0.146 A 
ATOM     11  O   UNL     1      12.048   9.428  12.243  1.00  0.00    -0.452 OA
ENDROOT
BRANCH   1  12
ATOM     12  C   UNL     1      14.435   9.744  12.095  1.00  0.00     0.025 A 
ATOM     13  C   UNL     1      16.156   8.353  11.055  1.00  0.00     0.161 A 
ATOM     14  C   UNL     1      16.883   9.508  10.731  1.00  0.00     0.157 A 
ATOM     15  C   UNL     1      14.935   8.478  11.746  1.00  0.00     0.062 A 
ATOM     16  C   UNL     1      16.398  10.769  11.096  1.00  0.00     0.051 A 
ATOM     17  C   UNL     1      15.187  10.888  11.779  1.00  0.00     0.016 A 
BRANCH  13  18
ATOM     18  O   UNL     1      16.679   7.106  10.679  1.00  0.00    -0.493 OA
ATOM     19  C   UNL     1      16.520   5.906  11.429  1.00  0.00     0.278 C 
ENDBRANCH  13  18
BRANCH  14  20
ATOM     20  O   UNL     1      18.092   9.391  10.046  1.00  0.00    -0.504 OA
ATOM     21  H   UNL     1      18.150   8.921   9.149  1.00  0.00     0.293 HD
ENDBRANCH  14  20
ENDBRANCH   1  12
BRANCH   2  22
ATOM     22  O   UNL     1      14.246  10.876  14.760  1.00  0.00    -0.502 OA
ATOM     23  H   UNL     1      14.241  11.238  15.706  1.00  0.00     0.293 HD
ENDBRANCH   2  22
BRANCH   6  24
ATOM     24  O   UNL     1       9.217  10.455  16.017  1.00  0.00    -0.507 OA
ATOM     25  H   UNL     1       9.978  10.513  16.684  1.00  0.00     0.293 HD
ENDBRANCH   6  24
BRANCH   8  26
ATOM     26  O   UNL     1       7.379   8.546  11.965  1.00  0.00    -0.508 OA
ATOM     27  H   UNL     1       6.877   7.712  12.245  1.00  0.00     0.293 HD
ENDBRANCH   8  26
TORSDOF 6
ENDMDL
MODEL 3
REMARK VINA RESULT:    -6.196      1.492      7.124
REMARK INTER + INTRA:          -7.891
REMARK INTER:                  -7.553
REMARK INTRA:                  -0.338
REMARK UNBOUND:                -0.246
REMARK SMILES COc1cc(-c2oc3cc(O)cc(O)c3c(=O)c2O)ccc1O
REMARK SMILES IDX 6 1 18 2 16 3 17 4 15 5 13 6 12 7 10 8 9 9 8 10 7 11 5 12
REMARK SMILES IDX 3 13 22 14 4 15 21 16 20 17 2 18 1 19 23 20 19 22 14 24
REMARK SMILES IDX 11 26
REMARK H PARENT 23 21 19 23 14 25 11 27
REMARK Flexibility Score: inf
ROOT
ATOM      1  C   UNL     1      12.558  10.343  12.292  1.00  0.00     0.180 A 
ATOM      2  C   UNL     1      12.872  11.665  11.921  1.00  0.00     0.208 A 
ATOM      3  C   UNL     1      14.119  11.925  11.333  1.00  0.00     0.238 A 
ATOM      4  O   UNL     1      14.407  13.102  10.985  1.00  0.00    -0.285 OA
ATOM      5  C   UNL     1      15.035  10.870  11.144  1.00  0.00     0.111 A 
ATOM      6  C   UNL     1      16.313  11.049  10.562  1.00  0.00     0.134 A 
ATOM      7  C   UNL     1      17.171   9.949  10.417  1.00  0.00     0.093 A 
ATOM      8  C   UNL     1      16.777   8.675  10.843  1.00  0.00     0.123 A 
ATOM      9  C   UNL     1      15.517   8.494  11.417  1.00  0.00     0.094 A 
ATOM     10  C   UNL     1      14.646   9.578  11.568  1.00  0.00     0.146 A 
ATOM     11  O   UNL     1      13.452   9.375  12.113  1.00  0.00    -0.452 OA
ENDROOT
BRANCH   1  12
ATOM     12  C   UNL     1      11.256   9.985  12.903  1.00  0.00     0.025 A 
ATOM     13  C   UNL     1       9.808   9.919  14.871  1.00  0.00     0.161 A 
ATOM     14  C   UNL     1       8.823   9.266  14.116  1.00  0.00     0.157 A 
ATOM     15  C   UNL     1      11.027  10.268  14.259  1.00  0.00     0.062 A 
ATOM     16  C   UNL     1       9.056   8.963  12.770  1.00  0.00     0.051 A 
ATOM     17  C   UNL     1      10.265   9.313  12.167  1.00  0.00     0.016 A 
BRANCH  13  18
ATOM     18  O   UNL     1       9.540  10.198  16.220  1.00  0.00    -0.493 OA
ATOM     19  C   UNL     1       9.950   9.376  17.309  1.00  0.00     0.278 C 
ENDBRANCH  13  18
BRANCH  14  20
ATOM     20  O   UNL     1       7.613   8.918  14.716  1.00  0.00    -0.504 OA
ATOM     21  H   UNL     1       6.724   9.206  14.322  1.00  0.00     0.293 HD
ENDBRANCH  14  20
ENDBRANCH   1  12
BRANCH   2  22
ATOM     22  O   UNL     1      11.966  12.700  12.164  1.00  0.00    -0.502 OA
ATOM     23  H   UNL     1      10.997  12.652  11.871  1.00  0.00     0.293 HD
ENDBRANCH   2  22
BRANCH   6  24
ATOM     24  O   UNL     1      16.736  12.307  10.128  1.00  0.00    -0.507 OA
ATOM     25  H   UNL     1      17.548  12.763  10.527  1.00  0.00     0.293 HD
ENDBRANCH   6  24
BRANCH   8  26
ATOM     26  O   UNL     1      17.629   7.583  10.701  1.00  0.00    -0.508 OA
ATOM     27  H   UNL     1      18.055   7.356   9.810  1.00  0.00     0.293 HD
ENDBRANCH   8  26
TORSDOF 6
ENDMDL
MODEL 4
REMARK VINA RESULT:    -6.138      2.630      7.252
REMARK INTER + INTRA:          -7.820
REMARK INTER:                  -7.432
REMARK INTRA:                  -0.388
REMARK UNBOUND:                -0.246
REMARK SMILES COc1cc(-c2oc3cc(O)cc(O)c3c(=O)c2O)ccc1O
REMARK SMILES IDX 6 1 18 2 16 3 17 4 15 5 13 6 12 7 10 8 9 9 8 10 7 11 5 12
REMARK SMILES IDX 3 13 22 14 4 15 21 16 20 17 2 18 1 19 23 20 19 22 14 24
REMARK SMILES IDX 11 26
REMARK H PARENT 23 21 19 23 14 25 11 27
REMARK Flexibility Score: inf
ROOT
ATOM      1  C   UNL     1      14.122   8.777  12.991  1.00  0.00     0.180 A 
ATOM      2  C   UNL     1      14.514   8.971  11.653  1.00  0.00     0.208 A 
ATOM      3  C   UNL     1      15.424   8.071  11.077  1.00  0.00     0.238 A 
ATOM      4  O   UNL     1      15.775   8.228   9.875  1.00  0.00    -0.285 OA
ATOM      5  C   UNL     1      15.940   7.010  11.848  1.00  0.00     0.111 A 
ATOM      6  C   UNL     1      16.864   6.063  11.344  1.00  0.00     0.134 A 
ATOM      7  C   UNL     1      17.338   5.041  12.180  1.00  0.00     0.093 A 
ATOM      8  C   UNL     1      16.907   4.949  13.508  1.00  0.00     0.123 A 
ATOM      9  C   UNL     1      15.996   5.880  14.009  1.00  0.00     0.094 A 
ATOM     10  C   UNL     1      15.510   6.905  13.192  1.00  0.00     0.146 A 
ATOM     11  O   UNL     1      14.640   7.774  13.694  1.00  0.00    -0.452 OA
ENDROOT
BRANCH   1  12
ATOM     12  C   UNL     1      13.153   9.672  13.665  1.00  0.00     0.025 A 
ATOM     13  C   UNL     1      10.832  10.271  14.148  1.00  0.00     0.161 A 
ATOM     14  C   UNL     1      11.278  11.384  14.876  1.00  0.00     0.157 A 
ATOM     15  C   UNL     1      11.776   9.423  13.537  1.00  0.00     0.062 A 
ATOM     16  C   UNL     1      12.648  11.647  14.987  1.00  0.00     0.051 A 
ATOM     17  C   UNL     1      13.580  10.803  14.381  1.00  0.00     0.016 A 
BRANCH  13  18
ATOM     18  O   UNL     1       9.450  10.046  14.052  1.00  0.00    -0.493 OA
ATOM     19  C   UNL     1       8.853   9.033  13.248  1.00  0.00     0.278 C 
ENDBRANCH  13  18
BRANCH  14  20
ATOM     20  O   UNL     1      10.349  12.227  15.483  1.00  0.00    -0.504 OA
ATOM     21  H   UNL     1      10.638  13.036  16.021  1.00  0.00     0.293 HD
ENDBRANCH  14  20
ENDBRANCH   1  12
BRANCH   2  22
ATOM     22  O   UNL     1      14.026  10.058  10.925  1.00  0.00    -0.502 OA
ATOM     23  H   UNL     1      13.922  10.034   9.917  1.00  0.00     0.293 HD
ENDBRANCH   2  22
BRANCH   6  24
ATOM     24  O   UNL     1      17.313   6.130  10.024  1.00  0.00    -0.507 OA
ATOM     25  H   UNL     1      18.220   5.769   9.751  1.00  0.00     0.293 HD
ENDBRANCH   6  24
BRANCH   8  26
ATOM     26  O   UNL     1      17.379   3.934  14.338  1.00  0.00    -0.508 OA
ATOM     27  H   UNL     1      17.753   4.134  15.258  1.00  0.00     0.293 HD
ENDBRANCH   8  26
TORSDOF 6
ENDMDL
MODEL 5
REMARK VINA RESULT:    -6.005      1.337      3.362
REMARK INTER + INTRA:          -7.656
REMARK INTER:                  -7.348
REMARK INTRA:                  -0.308
REMARK UNBOUND:                -0.246
REMARK SMILES COc1cc(-c2oc3cc(O)cc(O)c3c(=O)c2O)ccc1O
REMARK SMILES IDX 6 1 18 2 16 3 17 4 15 5 13 6 12 7 10 8 9 9 8 10 7 11 5 12
REMARK SMILES IDX 3 13 22 14 4 15 21 16 20 17 2 18 1 19 23 20 19 22 14 24
REMARK SMILES IDX 11 26
REMARK H PARENT 23 21 19 23 14 25 11 27
REMARK Flexibility Score: inf
ROOT
ATOM      1  C   UNL     1      12.628   9.789  12.069  1.00  0.00     0.180 A 
ATOM      2  C   UNL     1      11.599   9.333  11.221  1.00  0.00     0.208 A 
ATOM      3  C   UNL     1      10.320   9.128  11.759  1.00  0.00     0.238 A 
ATOM      4  O   UNL     1       9.387   8.732  11.007  1.00  0.00    -0.285 OA
ATOM      5  C   UNL     1      10.094   9.360  13.131  1.00  0.00     0.111 A 
ATOM      6  C   UNL     1       8.835   9.174  13.751  1.00  0.00     0.134 A 
ATOM      7  C   UNL     1       8.694   9.418  15.125  1.00  0.00     0.093 A 
ATOM      8  C   UNL     1       9.786   9.843  15.890  1.00  0.00     0.123 A 
ATOM      9  C   UNL     1      11.029  10.029  15.282  1.00  0.00     0.094 A 
ATOM     10  C   UNL     1      11.190   9.793  13.913  1.00  0.00     0.146 A 
ATOM     11  O   UNL     1      12.382   9.983  13.361  1.00  0.00    -0.452 OA
ENDROOT
BRANCH   1  12
ATOM     12  C   UNL     1      14.000  10.046  11.573  1.00  0.00     0.025 A 
ATOM     13  C   UNL     1      16.162   9.177  10.835  1.00  0.00     0.161 A 
ATOM     14  C   UNL     1      16.633  10.490  10.690  1.00  0.00     0.157 A 
ATOM     15  C   UNL     1      14.845   8.962  11.285  1.00  0.00     0.062 A 
ATOM     16  C   UNL     1      15.800  11.573  10.996  1.00  0.00     0.051 A 
ATOM     17  C   UNL     1      14.495  11.355  11.441  1.00  0.00     0.016 A 
BRANCH  13  18
ATOM     18  O   UNL     1      17.031   8.119  10.525  1.00  0.00    -0.493 OA
ATOM     19  C   UNL     1      16.717   6.741  10.705  1.00  0.00     0.278 C 
ENDBRANCH  13  18
BRANCH  14  20
ATOM     20  O   UNL     1      17.935  10.710  10.243  1.00  0.00    -0.504 OA
ATOM     21  H   UNL     1      18.281  11.644  10.054  1.00  0.00     0.293 HD
ENDBRANCH  14  20
ENDBRANCH   1  12
BRANCH   2  22
ATOM     22  O   UNL     1      11.861   9.064   9.876  1.00  0.00    -0.502 OA
ATOM     23  H   UNL     1      12.031   9.799   9.199  1.00  0.00     0.293 HD
ENDBRANCH   2  22
BRANCH   6  24
ATOM     24  O   UNL     1       7.727   8.749  13.015  1.00  0.00    -0.507 OA
ATOM     25  H   UNL     1       7.327   7.826  13.139  1.00  0.00     0.293 HD
ENDBRANCH   6  24
BRANCH   8  26
ATOM     26  O   UNL     1       9.646  10.084  17.254  1.00  0.00    -0.508 OA
ATOM     27  H   UNL     1       9.643  11.026  17.628  1.00  0.00     0.293 HD
ENDBRANCH   8  26
TORSDOF 6
ENDMDL
MODEL 6
REMARK VINA RESULT:    -5.929      4.240      6.624
REMARK INTER + INTRA:          -7.562
REMARK INTER:                  -7.175
REMARK INTRA:                  -0.387
REMARK UNBOUND:                -0.246
REMARK SMILES COc1cc(-c2oc3cc(O)cc(O)c3c(=O)c2O)ccc1O
REMARK SMILES IDX 6 1 18 2 16 3 17 4 15 5 13 6 12 7 10 8 9 9 8 10 7 11 5 12
REMARK SMILES IDX 3 13 22 14 4 15 21 16 20 17 2 18 1 19 23 20 19 22 14 24
REMARK SMILES IDX 11 26
REMARK H PARENT 23 21 19 23 14 25 11 27
REMARK Flexibility Score: inf
ROOT
ATOM      1  C   UNL     1      15.779   6.345  12.405  1.00  0.00     0.180 A 
ATOM      2  C   UNL     1      15.921   6.958  11.144  1.00  0.00     0.208 A 
ATOM      3  C   UNL     1      15.532   8.298  10.996  1.00  0.00     0.238 A 
ATOM      4  O   UNL     1      15.665   8.861   9.875  1.00  0.00    -0.285 OA
ATOM      5  C   UNL     1      14.992   8.994  12.096  1.00  0.00     0.111 A 
ATOM      6  C   UNL     1      14.573  10.345  12.028  1.00  0.00     0.134 A 
ATOM      7  C   UNL     1      14.037  10.964  13.167  1.00  0.00     0.093 A 
ATOM      8  C   UNL     1      13.911  10.260  14.370  1.00  0.00     0.123 A 
ATOM      9  C   UNL     1      14.324   8.929  14.442  1.00  0.00     0.094 A 
ATOM     10  C   UNL     1      14.863   8.293  13.318  1.00  0.00     0.146 A 
ATOM     11  O   UNL     1      15.252   7.028  13.417  1.00  0.00    -0.452 OA
ENDROOT
BRANCH   1  12
ATOM     12  C   UNL     1      16.183   4.940  12.646  1.00  0.00     0.025 A 
ATOM     13  C   UNL     1      17.887   3.338  13.358  1.00  0.00     0.161 A 
ATOM     14  C   UNL     1      17.011   2.284  13.059  1.00  0.00     0.157 A 
ATOM     15  C   UNL     1      17.469   4.665  13.140  1.00  0.00     0.062 A 
ATOM     16  C   UNL     1      15.737   2.554  12.547  1.00  0.00     0.051 A 
ATOM     17  C   UNL     1      15.326   3.871  12.334  1.00  0.00     0.016 A 
BRANCH  13  18
ATOM     18  O   UNL     1      19.159   3.026  13.862  1.00  0.00    -0.493 OA
ATOM     19  C   UNL     1      20.385   3.415  13.251  1.00  0.00     0.278 C 
ENDBRANCH  13  18
BRANCH  14  20
ATOM     20  O   UNL     1      17.418   0.968  13.273  1.00  0.00    -0.504 OA
ATOM     21  H   UNL     1      18.305   0.623  12.922  1.00  0.00     0.293 HD
ENDBRANCH  14  20
ENDBRANCH   1  12
BRANCH   2  22
ATOM     22  O   UNL     1      16.413   6.231  10.058  1.00  0.00    -0.502 OA
ATOM     23  H   UNL     1      15.961   5.390   9.718  1.00  0.00     0.293 HD
ENDBRANCH   2  22
BRANCH   6  24
ATOM     24  O   UNL     1      14.683  11.073  10.843  1.00  0.00    -0.507 OA
ATOM     25  H   UNL     1      13.935  11.671  10.513  1.00  0.00     0.293 HD
ENDBRANCH   6  24
BRANCH   8  26
ATOM     26  O   UNL     1      13.378  10.875  15.500  1.00  0.00    -0.508 OA
ATOM     27  H   UNL     1      13.278  11.882  15.558  1.00  0.00     0.293 HD
ENDBRANCH   8  26
TORSDOF 6
ENDMDL
MODEL 7
REMARK VINA RESULT:    -5.840      1.658      7.195
REMARK INTER + INTRA:          -7.452
REMARK INTER:                  -7.066
REMARK INTRA:                  -0.386
REMARK UNBOUND:                -0.246
REMARK SMILES COc1cc(-c2oc3cc(O)cc(O)c3c(=O)c2O)ccc1O
REMARK SMILES IDX 6 1 18 2 16 3 17 4 15 5 13 6 12 7 10 8 9 9 8 10 7 11 5 12
REMARK SMILES IDX 3 13 22 14 4 15 21 16 20 17 2 18 1 19 23 20 19 22 14 24
REMARK SMILES IDX 11 26
REMARK H PARENT 23 21 19 23 14 25 11 27
REMARK Flexibility Score: inf
ROOT
ATOM      1  C   UNL     1      13.219  10.140  12.262  1.00  0.00     0.180 A 
ATOM      2  C   UNL     1      13.504  11.483  11.944  1.00  0.00     0.208 A 
ATOM      3  C   UNL     1      14.697  11.780  11.270  1.00  0.00     0.238 A 
ATOM      4  O   UNL     1      14.958  12.977  10.969  1.00  0.00    -0.285 OA
ATOM      5  C   UNL     1      15.593  10.741  10.943  1.00  0.00     0.111 A 
ATOM      6  C   UNL     1      16.818  10.958  10.268  1.00  0.00     0.134 A 
ATOM      7  C   UNL     1      17.659   9.871   9.988  1.00  0.00     0.093 A 
ATOM      8  C   UNL     1      17.300   8.574  10.370  1.00  0.00     0.123 A 
ATOM      9  C   UNL     1      16.092   8.355  11.036  1.00  0.00     0.094 A 
ATOM     10  C   UNL     1      15.239   9.426  11.323  1.00  0.00     0.146 A 
ATOM     11  O   UNL     1      14.094   9.188  11.952  1.00  0.00    -0.452 OA
ENDROOT
BRANCH   1  12
ATOM     12  C   UNL     1      11.973   9.743  12.957  1.00  0.00     0.025 A 
ATOM     13  C   UNL     1       9.639   9.024  12.837  1.00  0.00     0.161 A 
ATOM     14  C   UNL     1       9.568   9.043  14.237  1.00  0.00     0.157 A 
ATOM     15  C   UNL     1      10.844   9.384  12.202  1.00  0.00     0.062 A 
ATOM     16  C   UNL     1      10.685   9.421  14.992  1.00  0.00     0.051 A 
ATOM     17  C   UNL     1      11.877   9.776  14.359  1.00  0.00     0.016 A 
BRANCH  13  18
ATOM     18  O   UNL     1       8.496   8.647  12.115  1.00  0.00    -0.493 OA
ATOM     19  C   UNL     1       8.518   7.882  10.914  1.00  0.00     0.278 C 
ENDBRANCH  13  18
BRANCH  14  20
ATOM     20  O   UNL     1       8.379   8.687  14.871  1.00  0.00    -0.504 OA
ATOM     21  H   UNL     1       8.352   8.457  15.858  1.00  0.00     0.293 HD
ENDBRANCH  14  20
ENDBRANCH   1  12
BRANCH   2  22
ATOM     22  O   UNL     1      12.623  12.498  12.322  1.00  0.00    -0.502 OA
ATOM     23  H   UNL     1      12.023  12.972  11.656  1.00  0.00     0.293 HD
ENDBRANCH   2  22
BRANCH   6  24
ATOM     24  O   UNL     1      17.205  12.240   9.875  1.00  0.00    -0.507 OA
ATOM     25  H   UNL     1      17.811  12.394   9.078  1.00  0.00     0.293 HD
ENDBRANCH   6  24
BRANCH   8  26
ATOM     26  O   UNL     1      18.135   7.495  10.093  1.00  0.00    -0.508 OA
ATOM     27  H   UNL     1      18.948   7.594   9.497  1.00  0.00     0.293 HD
ENDBRANCH   8  26
TORSDOF 6
ENDMDL
MODEL 8
REMARK VINA RESULT:    -5.669      3.090      5.045
REMARK INTER + INTRA:          -7.241
REMARK INTER:                  -7.187
REMARK INTRA:                  -0.054
REMARK UNBOUND:                -0.246
REMARK SMILES COc1cc(-c2oc3cc(O)cc(O)c3c(=O)c2O)ccc1O
REMARK SMILES IDX 6 1 18 2 16 3 17 4 15 5 13 6 12 7 10 8 9 9 8 10 7 11 5 12
REMARK SMILES IDX 3 13 22 14 4 15 21 16 20 17 2 18 1 19 23 20 19 22 14 24
REMARK SMILES IDX 11 26
REMARK H PARENT 23 21 19 23 14 25 11 27
REMARK Flexibility Score: inf
ROOT
ATOM      1  C   UNL     1      14.858   8.368  12.651  1.00  0.00     0.180 A 
ATOM      2  C   UNL     1      15.301   9.322  11.715  1.00  0.00     0.208 A 
ATOM      3  C   UNL     1      14.674  10.577  11.679  1.00  0.00     0.238 A 
ATOM      4  O   UNL     1      15.069  11.444  10.852  1.00  0.00    -0.285 OA
ATOM      5  C   UNL     1      13.607  10.849  12.559  1.00  0.00     0.111 A 
ATOM      6  C   UNL     1      12.919  12.086  12.583  1.00  0.00     0.134 A 
ATOM      7  C   UNL     1      11.860  12.276  13.483  1.00  0.00     0.093 A 
ATOM      8  C   UNL     1      11.476  11.253  14.358  1.00  0.00     0.123 A 
ATOM      9  C   UNL     1      12.151  10.032  14.338  1.00  0.00     0.094 A 
ATOM     10  C   UNL     1      13.211   9.824  13.449  1.00  0.00     0.146 A 
ATOM     11  O   UNL     1      13.839   8.654  13.455  1.00  0.00    -0.452 OA
ENDROOT
BRANCH   1  12
ATOM     12  C   UNL     1      15.481   7.028  12.763  1.00  0.00     0.025 A 
ATOM     13  C   UNL     1      16.187   4.945  11.696  1.00  0.00     0.161 A 
ATOM     14  C   UNL     1      16.599   4.453  12.942  1.00  0.00     0.157 A 
ATOM     15  C   UNL     1      15.620   6.232  11.614  1.00  0.00     0.062 A 
ATOM     16  C   UNL     1      16.442   5.236  14.092  1.00  0.00     0.051 A 
ATOM     17  C   UNL     1      15.881   6.511  14.007  1.00  0.00     0.016 A 
BRANCH  13  18
ATOM     18  O   UNL     1      16.354   4.127  10.567  1.00  0.00    -0.493 OA
ATOM     19  C   UNL     1      15.313   3.364   9.964  1.00  0.00     0.278 C 
ENDBRANCH  13  18
BRANCH  14  20
ATOM     20  O   UNL     1      17.162   3.181  13.029  1.00  0.00    -0.504 OA
ATOM     21  H   UNL     1      17.071   2.508  12.277  1.00  0.00     0.293 HD
ENDBRANCH  14  20
ENDBRANCH   1  12
BRANCH   2  22
ATOM     22  O   UNL     1      16.328   9.010  10.821  1.00  0.00    -0.502 OA
ATOM     23  H   UNL     1      17.288   9.296  10.976  1.00  0.00     0.293 HD
ENDBRANCH   2  22
BRANCH   6  24
ATOM     24  O   UNL     1      13.278  13.125  11.722  1.00  0.00    -0.507 OA
ATOM     25  H   UNL     1      12.768  14.001  11.702  1.00  0.00     0.293 HD
ENDBRANCH   6  24
BRANCH   8  26
ATOM     26  O   UNL     1      10.424  11.441  15.251  1.00  0.00    -0.508 OA
ATOM     27  H   UNL     1      10.514  11.205  16.232  1.00  0.00     0.293 HD
ENDBRANCH   8  26
TORSDOF 6
ENDMDL
MODEL 9
REMARK VINA RESULT:    -5.402      3.311      7.423
REMARK INTER + INTRA:          -6.911
REMARK INTER:                  -6.566
REMARK INTRA:                  -0.345
REMARK UNBOUND:                -0.246
REMARK SMILES COc1cc(-c2oc3cc(O)cc(O)c3c(=O)c2O)ccc1O
REMARK SMILES IDX 6 1 18 2 16 3 17 4 15 5 13 6 12 7 10 8 9 9 8 10 7 11 5 12
REMARK SMILES IDX 3 13 22 14 4 15 21 16 20 17 2 18 1 19 23 20 19 22 14 24
REMARK SMILES IDX 11 26
REMARK H PARENT 23 21 19 23 14 25 11 27
REMARK Flexibility Score: inf
ROOT
ATOM      1  C   UNL     1      14.854   7.995  13.009  1.00  0.00     0.180 A 
ATOM      2  C   UNL     1      15.294   7.986  11.671  1.00  0.00     0.208 A 
ATOM      3  C   UNL     1      16.091   6.919  11.229  1.00  0.00     0.238 A 
ATOM      4  O   UNL     1      16.482   6.893  10.029  1.00  0.00    -0.285 OA
ATOM      5  C   UNL     1      16.452   5.897  12.129  1.00  0.00     0.111 A 
ATOM      6  C   UNL     1      17.256   4.790  11.764  1.00  0.00     0.134 A 
ATOM      7  C   UNL     1      17.579   3.818  12.722  1.00  0.00     0.093 A 
ATOM      8  C   UNL     1      17.114   3.932  14.038  1.00  0.00     0.123 A 
ATOM      9  C   UNL     1      16.321   5.021  14.403  1.00  0.00     0.094 A 
ATOM     10  C   UNL     1      15.986   6.000  13.461  1.00  0.00     0.146 A 
ATOM     11  O   UNL     1      15.226   7.022  13.835  1.00  0.00    -0.452 OA
ENDROOT
BRANCH   1  12
ATOM     12  C   UNL     1      13.995   9.076  13.547  1.00  0.00     0.025 A 
ATOM     13  C   UNL     1      11.792  10.124  13.706  1.00  0.00     0.161 A 
ATOM     14  C   UNL     1      12.342  11.145  14.496  1.00  0.00     0.157 A 
ATOM     15  C   UNL     1      12.627   9.096  13.227  1.00  0.00     0.062 A 
ATOM     16  C   UNL     1      13.708  11.138  14.798  1.00  0.00     0.051 A 
ATOM     17  C   UNL     1      14.532  10.117  14.323  1.00  0.00     0.016 A 
BRANCH  13  18
ATOM     18  O   UNL     1      10.419  10.170  13.417  1.00  0.00    -0.493 OA
ATOM     19  C   UNL     1       9.418   9.475  14.155  1.00  0.00     0.278 C 
ENDBRANCH  13  18
BRANCH  14  20
ATOM     20  O   UNL     1      11.520  12.164  14.974  1.00  0.00    -0.504 OA
ATOM     21  H   UNL     1      10.941  12.037  15.796  1.00  0.00     0.293 HD
ENDBRANCH  14  20
ENDBRANCH   1  12
BRANCH   2  22
ATOM     22  O   UNL     1      14.963   9.036  10.812  1.00  0.00    -0.502 OA
ATOM     23  H   UNL     1      14.885   8.912   9.809  1.00  0.00     0.293 HD
ENDBRANCH   2  22
BRANCH   6  24
ATOM     24  O   UNL     1      17.736   4.650  10.460  1.00  0.00    -0.507 OA
ATOM     25  H   UNL     1      18.425   3.948  10.219  1.00  0.00     0.293 HD
ENDBRANCH   6  24
BRANCH   8  26
ATOM     26  O   UNL     1      17.436   2.968  14.990  1.00  0.00    -0.508 OA
ATOM     27  H   UNL     1      17.226   1.987  14.843  1.00  0.00     0.293 HD
ENDBRANCH   8  26
TORSDOF 6
ENDMDL
