MODEL 1
REMARK VINA RESULT:    -5.812      0.000      0.000
REMARK INTER + INTRA:          -6.165
REMARK INTER:                  -6.492
REMARK INTRA:                   0.327
REMARK UNBOUND:                 0.327
REMARK SMILES O=C([O-])c1ccccc1C(=O)[O-]
REMARK SMILES IDX 4 1 9 2 5 3 8 4 6 5 7 6 2 7 1 8 3 9 10 10 11 11 12 12
REMARK H PARENT
REMARK Flexibility Score: inf
ROOT
ATOM      1  C   UNL     1      57.296  -0.768 210.221  1.00  0.00     0.006 A 
ATOM      2  C   UNL     1      57.152  -1.882 211.091  1.00  0.00     0.006 A 
ATOM      3  C   UNL     1      58.446   0.039 210.326  1.00  0.00     0.010 A 
ATOM      4  C   UNL     1      58.191  -2.187 211.992  1.00  0.00     0.010 A 
ATOM      5  C   UNL     1      59.453  -0.269 211.240  1.00  0.00     0.001 A 
ATOM      6  C   UNL     1      59.332  -1.386 212.063  1.00  0.00     0.001 A 
ENDROOT
BRANCH   1   7
ATOM      7  C   UNL     1      56.321  -0.459 209.151  1.00  0.00     0.072 C 
ATOM      8  O   UNL     1      55.657   0.612 209.188  1.00  0.00    -0.545 OA
ATOM      9  O   UNL     1      56.170  -1.309 208.061  1.00  0.00    -0.545 OA
ENDBRANCH   1   7
BRANCH   2  10
ATOM     10  C   UNL     1      55.917  -2.698 211.146  1.00  0.00     0.072 C 
ATOM     11  O   UNL     1      55.959  -3.885 211.568  1.00  0.00    -0.545 OA
ATOM     12  O   UNL     1      54.690  -2.150 210.794  1.00  0.00    -0.545 OA
ENDBRANCH   2  10
TORSDOF 2
ENDMDL
MODEL 2
REMARK VINA RESULT:    -5.768      1.271      1.493
REMARK INTER + INTRA:          -6.116
REMARK INTER:                  -5.925
REMARK INTRA:                  -0.191
REMARK UNBOUND:                 0.327
REMARK SMILES O=C([O-])c1ccccc1C(=O)[O-]
REMARK SMILES IDX 4 1 9 2 5 3 8 4 6 5 7 6 2 7 1 8 3 9 10 10 11 11 12 12
REMARK H PARENT
REMARK Flexibility Score: inf
ROOT
ATOM      1  C   UNL     1      56.346  -1.234 209.499  1.00  0.00     0.006 A 
ATOM      2  C   UNL     1      56.159  -2.437 210.233  1.00  0.00     0.006 A 
ATOM      3  C   UNL     1      57.323  -0.316 209.928  1.00  0.00     0.010 A 
ATOM      4  C   UNL     1      56.998  -2.707 211.331  1.00  0.00     0.010 A 
ATOM      5  C   UNL     1      58.129  -0.593 211.032  1.00  0.00     0.001 A 
ATOM      6  C   UNL     1      57.975  -1.791 211.725  1.00  0.00     0.001 A 
ENDROOT
BRANCH   1   7
ATOM      7  C   UNL     1      55.607  -0.937 208.251  1.00  0.00     0.072 C 
ATOM      8  O   UNL     1      54.780   0.014 208.216  1.00  0.00    -0.545 OA
ATOM      9  O   UNL     1      55.857  -1.656 207.089  1.00  0.00    -0.545 OA
ENDBRANCH   1   7
BRANCH   2  10
ATOM     10  C   UNL     1      55.065  -3.391 209.938  1.00  0.00     0.072 C 
ATOM     11  O   UNL     1      55.301  -4.448 209.293  1.00  0.00    -0.545 OA
ATOM     12  O   UNL     1      53.781  -3.168 210.420  1.00  0.00    -0.545 OA
ENDBRANCH   2  10
TORSDOF 2
ENDMDL
MODEL 3
REMARK VINA RESULT:    -5.767      1.278      3.429
REMARK INTER + INTRA:          -6.115
REMARK INTER:                  -5.922
REMARK INTRA:                  -0.192
REMARK UNBOUND:                 0.327
REMARK SMILES O=C([O-])c1ccccc1C(=O)[O-]
REMARK SMILES IDX 4 1 9 2 5 3 8 4 6 5 7 6 2 7 1 8 3 9 10 10 11 11 12 12
REMARK H PARENT
REMARK Flexibility Score: inf
ROOT
ATOM      1  C   UNL     1      56.135  -2.420 210.219  1.00  0.00     0.006 A 
ATOM      2  C   UNL     1      56.345  -1.219 209.489  1.00  0.00     0.006 A 
ATOM      3  C   UNL     1      56.961  -2.703 211.324  1.00  0.00     0.010 A 
ATOM      4  C   UNL     1      57.331  -0.314 209.927  1.00  0.00     0.010 A 
ATOM      5  C   UNL     1      57.947  -1.803 211.728  1.00  0.00     0.001 A 
ATOM      6  C   UNL     1      58.124  -0.605 211.038  1.00  0.00     0.001 A 
ENDROOT
BRANCH   1   7
ATOM      7  C   UNL     1      55.030  -3.357 209.914  1.00  0.00     0.072 C 
ATOM      8  O   UNL     1      55.256  -4.412 209.263  1.00  0.00    -0.545 OA
ATOM      9  O   UNL     1      53.747  -3.122 210.393  1.00  0.00    -0.545 OA
ENDBRANCH   1   7
BRANCH   2  10
ATOM     10  C   UNL     1      55.619  -0.908 208.236  1.00  0.00     0.072 C 
ATOM     11  O   UNL     1      54.798   0.047 208.198  1.00  0.00    -0.545 OA
ATOM     12  O   UNL     1      55.879  -1.621 207.072  1.00  0.00    -0.545 OA
ENDBRANCH   2  10
TORSDOF 2
ENDMDL
MODEL 4
REMARK VINA RESULT:    -5.659      2.370      4.060
REMARK INTER + INTRA:          -5.993
REMARK INTER:                  -5.786
REMARK INTRA:                  -0.207
REMARK UNBOUND:                 0.327
REMARK SMILES O=C([O-])c1ccccc1C(=O)[O-]
REMARK SMILES IDX 4 1 9 2 5 3 8 4 6 5 7 6 2 7 1 8 3 9 10 10 11 11 12 12
REMARK H PARENT
REMARK Flexibility Score: inf
ROOT
ATOM      1  C   UNL     1      55.373   0.403 208.474  1.00  0.00     0.006 A 
ATOM      2  C   UNL     1      56.267   0.825 209.495  1.00  0.00     0.006 A 
ATOM      3  C   UNL     1      54.775   1.371 207.645  1.00  0.00     0.010 A 
ATOM      4  C   UNL     1      56.578   2.193 209.610  1.00  0.00     0.010 A 
ATOM      5  C   UNL     1      55.081   2.723 207.790  1.00  0.00     0.001 A 
ATOM      6  C   UNL     1      55.989   3.133 208.763  1.00  0.00     0.001 A 
ENDROOT
BRANCH   1   7
ATOM      7  C   UNL     1      55.100  -1.025 208.192  1.00  0.00     0.072 C 
ATOM      8  O   UNL     1      55.810  -1.654 207.362  1.00  0.00    -0.545 OA
ATOM      9  O   UNL     1      54.104  -1.707 208.881  1.00  0.00    -0.545 OA
ENDBRANCH   1   7
BRANCH   2  10
ATOM     10  C   UNL     1      56.831  -0.107 210.499  1.00  0.00     0.072 C 
ATOM     11  O   UNL     1      58.056  -0.404 210.471  1.00  0.00    -0.545 OA
ATOM     12  O   UNL     1      56.036  -0.616 211.519  1.00  0.00    -0.545 OA
ENDBRANCH   2  10
TORSDOF 2
ENDMDL
MODEL 5
REMARK VINA RESULT:    -5.646      2.356      4.248
REMARK INTER + INTRA:          -5.979
REMARK INTER:                  -5.783
REMARK INTRA:                  -0.196
REMARK UNBOUND:                 0.327
REMARK SMILES O=C([O-])c1ccccc1C(=O)[O-]
REMARK SMILES IDX 4 1 9 2 5 3 8 4 6 5 7 6 2 7 1 8 3 9 10 10 11 11 12 12
REMARK H PARENT
REMARK Flexibility Score: inf
ROOT
ATOM      1  C   UNL     1      56.277   0.809 209.433  1.00  0.00     0.006 A 
ATOM      2  C   UNL     1      55.369   0.334 208.448  1.00  0.00     0.006 A 
ATOM      3  C   UNL     1      56.533   2.191 209.518  1.00  0.00     0.010 A 
ATOM      4  C   UNL     1      54.702   1.263 207.626  1.00  0.00     0.010 A 
ATOM      5  C   UNL     1      55.877   3.092 208.680  1.00  0.00     0.001 A 
ATOM      6  C   UNL     1      54.955   2.630 207.743  1.00  0.00     0.001 A 
ENDROOT
BRANCH   1   7
ATOM      7  C   UNL     1      56.912  -0.083 210.429  1.00  0.00     0.072 C 
ATOM      8  O   UNL     1      58.156  -0.286 210.397  1.00  0.00    -0.545 OA
ATOM      9  O   UNL     1      56.162  -0.657 211.449  1.00  0.00    -0.545 OA
ENDBRANCH   1   7
BRANCH   2  10
ATOM     10  C   UNL     1      55.147  -1.109 208.195  1.00  0.00     0.072 C 
ATOM     11  O   UNL     1      55.863  -1.724 207.360  1.00  0.00    -0.545 OA
ATOM     12  O   UNL     1      54.194  -1.816 208.917  1.00  0.00    -0.545 OA
ENDBRANCH   2  10
TORSDOF 2
ENDMDL
MODEL 6
REMARK VINA RESULT:    -5.513      2.249      3.430
REMARK INTER + INTRA:          -5.830
REMARK INTER:                  -5.718
REMARK INTRA:                  -0.112
REMARK UNBOUND:                 0.327
REMARK SMILES O=C([O-])c1ccccc1C(=O)[O-]
REMARK SMILES IDX 4 1 9 2 5 3 8 4 6 5 7 6 2 7 1 8 3 9 10 10 11 11 12 12
REMARK H PARENT
REMARK Flexibility Score: inf
ROOT
ATOM      1  C   UNL     1      56.474  -1.402 210.311  1.00  0.00     0.006 A 
ATOM      2  C   UNL     1      55.730  -2.012 209.265  1.00  0.00     0.006 A 
ATOM      3  C   UNL     1      56.667  -2.107 211.514  1.00  0.00     0.010 A 
ATOM      4  C   UNL     1      55.261  -3.329 209.436  1.00  0.00     0.010 A 
ATOM      5  C   UNL     1      56.175  -3.402 211.670  1.00  0.00     0.001 A 
ATOM      6  C   UNL     1      55.483  -4.017 210.629  1.00  0.00     0.001 A 
ENDROOT
BRANCH   1   7
ATOM      7  C   UNL     1      57.123  -0.079 210.163  1.00  0.00     0.072 C 
ATOM      8  O   UNL     1      56.431   0.974 210.192  1.00  0.00    -0.545 OA
ATOM      9  O   UNL     1      58.505   0.025 210.055  1.00  0.00    -0.545 OA
ENDBRANCH   1   7
BRANCH   2  10
ATOM     10  C   UNL     1      55.360  -1.293 208.023  1.00  0.00     0.072 C 
ATOM     11  O   UNL     1      55.935  -1.567 206.936  1.00  0.00    -0.545 OA
ATOM     12  O   UNL     1      54.333  -0.357 208.027  1.00  0.00    -0.545 OA
ENDBRANCH   2  10
TORSDOF 2
ENDMDL
MODEL 7
REMARK VINA RESULT:    -5.456      1.985      4.299
REMARK INTER + INTRA:          -5.767
REMARK INTER:                  -5.712
REMARK INTRA:                  -0.055
REMARK UNBOUND:                 0.327
REMARK SMILES O=C([O-])c1ccccc1C(=O)[O-]
REMARK SMILES IDX 4 1 9 2 5 3 8 4 6 5 7 6 2 7 1 8 3 9 10 10 11 11 12 12
REMARK H PARENT
REMARK Flexibility Score: inf
ROOT
ATOM      1  C   UNL     1      56.854  -2.121 210.721  1.00  0.00     0.006 A 
ATOM      2  C   UNL     1      56.757  -1.062 209.778  1.00  0.00     0.006 A 
ATOM      3  C   UNL     1      56.193  -3.335 210.458  1.00  0.00     0.010 A 
ATOM      4  C   UNL     1      56.056  -1.278 208.576  1.00  0.00     0.010 A 
ATOM      5  C   UNL     1      55.485  -3.520 209.271  1.00  0.00     0.001 A 
ATOM      6  C   UNL     1      55.426  -2.498 208.326  1.00  0.00     0.001 A 
ENDROOT
BRANCH   1   7
ATOM      7  C   UNL     1      57.688  -2.029 211.942  1.00  0.00     0.072 C 
ATOM      8  O   UNL     1      57.181  -1.639 213.028  1.00  0.00    -0.545 OA
ATOM      9  O   UNL     1      59.019  -2.430 211.925  1.00  0.00    -0.545 OA
ENDBRANCH   1   7
BRANCH   2  10
ATOM     10  C   UNL     1      57.302   0.291 210.036  1.00  0.00     0.072 C 
ATOM     11  O   UNL     1      56.527   1.281 210.118  1.00  0.00    -0.545 OA
ATOM     12  O   UNL     1      58.662   0.477 210.254  1.00  0.00    -0.545 OA
ENDBRANCH   2  10
TORSDOF 2
ENDMDL
MODEL 8
REMARK VINA RESULT:    -5.398      2.393      3.413
REMARK INTER + INTRA:          -5.701
REMARK INTER:                  -5.500
REMARK INTRA:                  -0.201
REMARK UNBOUND:                 0.327
REMARK SMILES O=C([O-])c1ccccc1C(=O)[O-]
REMARK SMILES IDX 4 1 9 2 5 3 8 4 6 5 7 6 2 7 1 8 3 9 10 10 11 11 12 12
REMARK H PARENT
REMARK Flexibility Score: inf
ROOT
ATOM      1  C   UNL     1      55.520  -1.975 209.281  1.00  0.00     0.006 A 
ATOM      2  C   UNL     1      56.123  -1.339 210.400  1.00  0.00     0.006 A 
ATOM      3  C   UNL     1      55.287  -3.363 209.326  1.00  0.00     0.010 A 
ATOM      4  C   UNL     1      56.414  -2.102 211.547  1.00  0.00     0.010 A 
ATOM      5  C   UNL     1      55.602  -4.104 210.465  1.00  0.00     0.001 A 
ATOM      6  C   UNL     1      56.154  -3.473 211.578  1.00  0.00     0.001 A 
ENDROOT
BRANCH   1   7
ATOM      7  C   UNL     1      55.053  -1.226 208.092  1.00  0.00     0.072 C 
ATOM      8  O   UNL     1      55.649  -1.352 206.989  1.00  0.00    -0.545 OA
ATOM      9  O   UNL     1      53.918  -0.426 208.158  1.00  0.00    -0.545 OA
ENDBRANCH   1   7
BRANCH   2  10
ATOM     10  C   UNL     1      56.531   0.085 210.385  1.00  0.00     0.072 C 
ATOM     11  O   UNL     1      57.697   0.407 210.031  1.00  0.00    -0.545 OA
ATOM     12  O   UNL     1      55.620   1.086 210.698  1.00  0.00    -0.545 OA
ENDBRANCH   2  10
TORSDOF 2
ENDMDL
MODEL 9
REMARK VINA RESULT:    -5.366      2.083      3.318
REMARK INTER + INTRA:          -5.666
REMARK INTER:                  -5.578
REMARK INTRA:                  -0.089
REMARK UNBOUND:                 0.327
REMARK SMILES O=C([O-])c1ccccc1C(=O)[O-]
REMARK SMILES IDX 4 1 9 2 5 3 8 4 6 5 7 6 2 7 1 8 3 9 10 10 11 11 12 12
REMARK H PARENT
REMARK Flexibility Score: inf
ROOT
ATOM      1  C   UNL     1      56.804  -1.232 210.569  1.00  0.00     0.006 A 
ATOM      2  C   UNL     1      55.821  -1.808 209.718  1.00  0.00     0.006 A 
ATOM      3  C   UNL     1      57.137   0.126 210.406  1.00  0.00     0.010 A 
ATOM      4  C   UNL     1      55.163  -0.991 208.779  1.00  0.00     0.010 A 
ATOM      5  C   UNL     1      56.488   0.913 209.455  1.00  0.00     0.001 A 
ATOM      6  C   UNL     1      55.495   0.358 208.651  1.00  0.00     0.001 A 
ENDROOT
BRANCH   1   7
ATOM      7  C   UNL     1      57.442  -1.981 211.675  1.00  0.00     0.072 C 
ATOM      8  O   UNL     1      57.195  -1.676 212.872  1.00  0.00    -0.545 OA
ATOM      9  O   UNL     1      58.268  -3.068 211.412  1.00  0.00    -0.545 OA
ENDBRANCH   1   7
BRANCH   2  10
ATOM     10  C   UNL     1      55.510  -3.257 209.725  1.00  0.00     0.072 C 
ATOM     11  O   UNL     1      56.024  -4.020 208.864  1.00  0.00    -0.545 OA
ATOM     12  O   UNL     1      54.701  -3.803 210.714  1.00  0.00    -0.545 OA
ENDBRANCH   2  10
TORSDOF 2
ENDMDL
