MODEL 1
REMARK VINA RESULT:    -3.931      0.000      0.000
REMARK INTER + INTRA:          -7.810
REMARK INTER:                  -7.148
REMARK INTRA:                  -0.663
REMARK UNBOUND:                -0.663
REMARK SMILES CCCCCCCCCCCCCCCC(=O)[O-]
REMARK SMILES IDX 9 1 10 2 11 3 12 4 13 5 14 6 15 7 16 8 17 9 18 10 8 11 7 12
REMARK SMILES IDX 6 13 5 14 4 15 3 16 2 17 1 18
REMARK H PARENT
REMARK Flexibility Score: inf
ROOT
ATOM      1  C   UNL     1      15.748  -6.514  12.895  1.00  0.00     0.000 C 
ENDROOT
BRANCH   1   2
ATOM      2  C   UNL     1      15.839  -5.591  14.116  1.00  0.00     0.000 C 
BRANCH   2   3
ATOM      3  C   UNL     1      16.040  -4.132  13.690  1.00  0.00     0.000 C 
BRANCH   3   4
ATOM      4  C   UNL     1      15.689  -3.171  14.836  1.00  0.00     0.000 C 
BRANCH   4   5
ATOM      5  C   UNL     1      15.686  -1.698  14.397  1.00  0.00     0.000 C 
BRANCH   5   6
ATOM      6  C   UNL     1      15.318  -0.739  15.543  1.00  0.00     0.006 C 
BRANCH   6   7
ATOM      7  C   UNL     1      16.468   0.215  15.892  1.00  0.00     0.053 C 
BRANCH   7   8
ATOM      8  C   UNL     1      17.464  -0.425  16.810  1.00  0.00     0.041 C 
ATOM      9  O   UNL     1      17.405  -0.219  18.051  1.00  0.00    -0.550 OA
ATOM     10  O   UNL     1      18.441  -1.269  16.299  1.00  0.00    -0.550 OA
ENDBRANCH   7   8
ENDBRANCH   6   7
ENDBRANCH   5   6
ENDBRANCH   4   5
ENDBRANCH   3   4
ENDBRANCH   2   3
ENDBRANCH   1   2
BRANCH   1  11
ATOM     11  C   UNL     1      15.742  -5.702  11.592  1.00  0.00     0.000 C 
BRANCH  11  12
ATOM     12  C   UNL     1      14.951  -6.389  10.468  1.00  0.00    -0.000 C 
BRANCH  12  13
ATOM     13  C   UNL     1      15.809  -6.662   9.220  1.00  0.00    -0.000 C 
BRANCH  13  14
ATOM     14  C   UNL     1      16.936  -5.620   9.048  1.00  0.00    -0.000 C 
BRANCH  14  15
ATOM     15  C   UNL     1      17.426  -5.479   7.597  1.00  0.00    -0.000 C 
BRANCH  15  16
ATOM     16  C   UNL     1      18.101  -4.125   7.325  1.00  0.00    -0.000 C 
BRANCH  16  17
ATOM     17  C   UNL     1      19.581  -4.111   7.740  1.00  0.00    -0.003 C 
ATOM     18  C   UNL     1      20.133  -2.695   7.906  1.00  0.00     0.004 C 
ENDBRANCH  16  17
ENDBRANCH  15  16
ENDBRANCH  14  15
ENDBRANCH  13  14
ENDBRANCH  12  13
ENDBRANCH  11  12
ENDBRANCH   1  11
TORSDOF 14
ENDMDL
MODEL 2
REMARK VINA RESULT:    -3.838     14.496     18.122
REMARK INTER + INTRA:          -7.643
REMARK INTER:                  -6.386
REMARK INTRA:                  -1.257
REMARK UNBOUND:                -0.663
REMARK SMILES CCCCCCCCCCCCCCCC(=O)[O-]
REMARK SMILES IDX 9 1 10 2 11 3 12 4 13 5 14 6 15 7 16 8 17 9 18 10 8 11 7 12
REMARK SMILES IDX 6 13 5 14 4 15 3 16 2 17 1 18
REMARK H PARENT
REMARK Flexibility Score: inf
ROOT
ATOM      1  C   UNL     1      22.979  11.039   5.102  1.00  0.00     0.000 C 
ENDROOT
BRANCH   1   2
ATOM      2  C   UNL     1      24.026  11.877   4.359  1.00  0.00     0.000 C 
BRANCH   2   3
ATOM      3  C   UNL     1      25.106  12.388   5.321  1.00  0.00     0.000 C 
BRANCH   3   4
ATOM      4  C   UNL     1      26.468  12.487   4.617  1.00  0.00     0.000 C 
BRANCH   4   5
ATOM      5  C   UNL     1      27.551  11.632   5.294  1.00  0.00     0.000 C 
BRANCH   5   6
ATOM      6  C   UNL     1      27.064  10.989   6.604  1.00  0.00     0.006 C 
BRANCH   6   7
ATOM      7  C   UNL     1      27.173   9.459   6.573  1.00  0.00     0.053 C 
BRANCH   7   8
ATOM      8  C   UNL     1      26.943   8.910   5.198  1.00  0.00     0.041 C 
ATOM      9  O   UNL     1      25.777   8.857   4.725  1.00  0.00    -0.550 OA
ATOM     10  O   UNL     1      28.018   8.484   4.429  1.00  0.00    -0.550 OA
ENDBRANCH   7   8
ENDBRANCH   6   7
ENDBRANCH   5   6
ENDBRANCH   4   5
ENDBRANCH   3   4
ENDBRANCH   2   3
ENDBRANCH   1   2
BRANCH   1  11
ATOM     11  C   UNL     1      23.490  10.624   6.489  1.00  0.00     0.000 C 
BRANCH  11  12
ATOM     12  C   UNL     1      22.358  10.466   7.516  1.00  0.00    -0.000 C 
BRANCH  12  13
ATOM     13  C   UNL     1      21.525  11.750   7.683  1.00  0.00    -0.000 C 
BRANCH  13  14
ATOM     14  C   UNL     1      20.236  11.505   8.496  1.00  0.00    -0.000 C 
BRANCH  14  15
ATOM     15  C   UNL     1      20.171  10.110   9.139  1.00  0.00    -0.000 C 
BRANCH  15  16
ATOM     16  C   UNL     1      19.048   9.236   8.555  1.00  0.00    -0.000 C 
BRANCH  16  17
ATOM     17  C   UNL     1      18.482   8.242   9.582  1.00  0.00    -0.003 C 
ATOM     18  C   UNL     1      17.672   8.928  10.682  1.00  0.00     0.004 C 
ENDBRANCH  16  17
ENDBRANCH  15  16
ENDBRANCH  14  15
ENDBRANCH  13  14
ENDBRANCH  12  13
ENDBRANCH  11  12
ENDBRANCH   1  11
TORSDOF 14
ENDMDL
MODEL 3
REMARK VINA RESULT:    -3.801      7.131     10.570
REMARK INTER + INTRA:          -7.575
REMARK INTER:                  -6.944
REMARK INTRA:                  -0.631
REMARK UNBOUND:                -0.663
REMARK SMILES CCCCCCCCCCCCCCCC(=O)[O-]
REMARK SMILES IDX 9 1 10 2 11 3 12 4 13 5 14 6 15 7 16 8 17 9 18 10 8 11 7 12
REMARK SMILES IDX 6 13 5 14 4 15 3 16 2 17 1 18
REMARK H PARENT
REMARK Flexibility Score: inf
ROOT
ATOM      1  C   UNL     1      15.606   5.682  13.909  1.00  0.00     0.000 C 
ENDROOT
BRANCH   1   2
ATOM      2  C   UNL     1      16.679   4.609  14.126  1.00  0.00     0.000 C 
BRANCH   2   3
ATOM      3  C   UNL     1      16.043   3.238  14.387  1.00  0.00     0.000 C 
BRANCH   3   4
ATOM      4  C   UNL     1      15.304   3.223  15.734  1.00  0.00     0.000 C 
BRANCH   4   5
ATOM      5  C   UNL     1      15.364   1.853  16.429  1.00  0.00     0.000 C 
BRANCH   5   6
ATOM      6  C   UNL     1      15.924   0.749  15.515  1.00  0.00     0.006 C 
BRANCH   6   7
ATOM      7  C   UNL     1      15.299  -0.620  15.811  1.00  0.00     0.053 C 
BRANCH   7   8
ATOM      8  C   UNL     1      15.825  -1.683  14.895  1.00  0.00     0.041 C 
ATOM      9  O   UNL     1      15.378  -1.787  13.723  1.00  0.00    -0.550 OA
ATOM     10  O   UNL     1      16.829  -2.540  15.327  1.00  0.00    -0.550 OA
ENDBRANCH   7   8
ENDBRANCH   6   7
ENDBRANCH   5   6
ENDBRANCH   4   5
ENDBRANCH   3   4
ENDBRANCH   2   3
ENDBRANCH   1   2
BRANCH   1  11
ATOM     11  C   UNL     1      16.022   7.013  14.550  1.00  0.00     0.000 C 
BRANCH  11  12
ATOM     12  C   UNL     1      15.554   8.233  13.743  1.00  0.00    -0.000 C 
BRANCH  12  13
ATOM     13  C   UNL     1      16.695   8.895  12.951  1.00  0.00    -0.000 C 
BRANCH  13  14
ATOM     14  C   UNL     1      16.984   8.163  11.622  1.00  0.00    -0.000 C 
BRANCH  14  15
ATOM     15  C   UNL     1      17.527   9.085  10.518  1.00  0.00    -0.000 C 
BRANCH  15  16
ATOM     16  C   UNL     1      18.630   8.423   9.676  1.00  0.00    -0.000 C 
BRANCH  16  17
ATOM     17  C   UNL     1      19.341   9.420   8.748  1.00  0.00    -0.003 C 
ATOM     18  C   UNL     1      19.677  10.738   9.445  1.00  0.00     0.004 C 
ENDBRANCH  16  17
ENDBRANCH  15  16
ENDBRANCH  14  15
ENDBRANCH  13  14
ENDBRANCH  12  13
ENDBRANCH  11  12
ENDBRANCH   1  11
TORSDOF 14
ENDMDL
MODEL 4
REMARK VINA RESULT:    -3.737      3.468      7.718
REMARK INTER + INTRA:          -7.458
REMARK INTER:                  -6.408
REMARK INTRA:                  -1.050
REMARK UNBOUND:                -0.663
REMARK SMILES CCCCCCCCCCCCCCCC(=O)[O-]
REMARK SMILES IDX 9 1 10 2 11 3 12 4 13 5 14 6 15 7 16 8 17 9 18 10 8 11 7 12
REMARK SMILES IDX 6 13 5 14 4 15 3 16 2 17 1 18
REMARK H PARENT
REMARK Flexibility Score: inf
ROOT
ATOM      1  C   UNL     1      15.994  -5.341  12.315  1.00  0.00     0.000 C 
ENDROOT
BRANCH   1   2
ATOM      2  C   UNL     1      15.751  -6.635  11.529  1.00  0.00     0.000 C 
BRANCH   2   3
ATOM      3  C   UNL     1      14.795  -6.395  10.354  1.00  0.00     0.000 C 
BRANCH   3   4
ATOM      4  C   UNL     1      15.436  -6.827   9.026  1.00  0.00     0.000 C 
BRANCH   4   5
ATOM      5  C   UNL     1      16.914  -6.422   8.920  1.00  0.00     0.000 C 
BRANCH   5   6
ATOM      6  C   UNL     1      17.098  -4.975   8.431  1.00  0.00     0.006 C 
BRANCH   6   7
ATOM      7  C   UNL     1      17.775  -4.909   7.056  1.00  0.00     0.053 C 
BRANCH   7   8
ATOM      8  C   UNL     1      19.208  -4.484   7.159  1.00  0.00     0.041 C 
ATOM      9  O   UNL     1      19.794  -4.498   8.273  1.00  0.00    -0.550 OA
ATOM     10  O   UNL     1      19.904  -4.099   6.021  1.00  0.00    -0.550 OA
ENDBRANCH   7   8
ENDBRANCH   6   7
ENDBRANCH   5   6
ENDBRANCH   4   5
ENDBRANCH   3   4
ENDBRANCH   2   3
ENDBRANCH   1   2
BRANCH   1  11
ATOM     11  C   UNL     1      16.822  -5.614  13.579  1.00  0.00     0.000 C 
BRANCH  11  12
ATOM     12  C   UNL     1      15.992  -6.248  14.706  1.00  0.00    -0.000 C 
BRANCH  12  13
ATOM     13  C   UNL     1      15.242  -5.204  15.551  1.00  0.00    -0.000 C 
BRANCH  13  14
ATOM     14  C   UNL     1      16.193  -4.142  16.144  1.00  0.00    -0.000 C 
BRANCH  14  15
ATOM     15  C   UNL     1      15.675  -2.702  15.995  1.00  0.00    -0.000 C 
BRANCH  15  16
ATOM     16  C   UNL     1      15.750  -2.187  14.548  1.00  0.00    -0.000 C 
BRANCH  16  17
ATOM     17  C   UNL     1      16.181  -0.714  14.470  1.00  0.00    -0.003 C 
ATOM     18  C   UNL     1      15.902   0.052  15.763  1.00  0.00     0.004 C 
ENDBRANCH  16  17
ENDBRANCH  15  16
ENDBRANCH  14  15
ENDBRANCH  13  14
ENDBRANCH  12  13
ENDBRANCH  11  12
ENDBRANCH   1  11
TORSDOF 14
ENDMDL
MODEL 5
REMARK VINA RESULT:    -3.702      5.686      8.408
REMARK INTER + INTRA:          -7.395
REMARK INTER:                  -5.606
REMARK INTRA:                  -1.789
REMARK UNBOUND:                -0.663
REMARK SMILES CCCCCCCCCCCCCCCC(=O)[O-]
REMARK SMILES IDX 9 1 10 2 11 3 12 4 13 5 14 6 15 7 16 8 17 9 18 10 8 11 7 12
REMARK SMILES IDX 6 13 5 14 4 15 3 16 2 17 1 18
REMARK H PARENT
REMARK Flexibility Score: inf
ROOT
ATOM      1  C   UNL     1      16.632   0.482  16.605  1.00  0.00     0.000 C 
ENDROOT
BRANCH   1   2
ATOM      2  C   UNL     1      15.721   1.345  15.724  1.00  0.00     0.000 C 
BRANCH   2   3
ATOM      3  C   UNL     1      15.096   2.489  16.531  1.00  0.00     0.000 C 
BRANCH   3   4
ATOM      4  C   UNL     1      15.261   3.832  15.802  1.00  0.00     0.000 C 
BRANCH   4   5
ATOM      5  C   UNL     1      16.038   3.699  14.483  1.00  0.00     0.000 C 
BRANCH   5   6
ATOM      6  C   UNL     1      16.863   4.956  14.153  1.00  0.00     0.006 C 
BRANCH   6   7
ATOM      7  C   UNL     1      15.979   6.137  13.735  1.00  0.00     0.053 C 
BRANCH   7   8
ATOM      8  C   UNL     1      15.975   7.224  14.767  1.00  0.00     0.041 C 
ATOM      9  O   UNL     1      16.647   7.096  15.823  1.00  0.00    -0.550 OA
ATOM     10  O   UNL     1      15.252   8.389  14.548  1.00  0.00    -0.550 OA
ENDBRANCH   7   8
ENDBRANCH   6   7
ENDBRANCH   5   6
ENDBRANCH   4   5
ENDBRANCH   3   4
ENDBRANCH   2   3
ENDBRANCH   1   2
BRANCH   1  11
ATOM     11  C   UNL     1      17.138  -0.746  15.835  1.00  0.00     0.000 C 
BRANCH  11  12
ATOM     12  C   UNL     1      16.431  -0.931  14.484  1.00  0.00    -0.000 C 
BRANCH  12  13
ATOM     13  C   UNL     1      15.359  -2.035  14.522  1.00  0.00    -0.000 C 
BRANCH  13  14
ATOM     14  C   UNL     1      15.431  -2.873  15.817  1.00  0.00    -0.000 C 
BRANCH  14  15
ATOM     15  C   UNL     1      14.219  -2.677  16.743  1.00  0.00    -0.000 C 
BRANCH  15  16
ATOM     16  C   UNL     1      13.317  -1.511  16.306  1.00  0.00    -0.000 C 
BRANCH  16  17
ATOM     17  C   UNL     1      13.074  -0.498  17.436  1.00  0.00    -0.003 C 
ATOM     18  C   UNL     1      13.866  -0.827  18.702  1.00  0.00     0.004 C 
ENDBRANCH  16  17
ENDBRANCH  15  16
ENDBRANCH  14  15
ENDBRANCH  13  14
ENDBRANCH  12  13
ENDBRANCH  11  12
ENDBRANCH   1  11
TORSDOF 14
ENDMDL
MODEL 6
REMARK VINA RESULT:    -3.692     10.972     13.242
REMARK INTER + INTRA:          -7.377
REMARK INTER:                  -4.659
REMARK INTRA:                  -2.718
REMARK UNBOUND:                -0.663
REMARK SMILES CCCCCCCCCCCCCCCC(=O)[O-]
REMARK SMILES IDX 9 1 10 2 11 3 12 4 13 5 14 6 15 7 16 8 17 9 18 10 8 11 7 12
REMARK SMILES IDX 6 13 5 14 4 15 3 16 2 17 1 18
REMARK H PARENT
REMARK Flexibility Score: inf
ROOT
ATOM      1  C   UNL     1      27.238  -1.780   8.257  1.00  0.00     0.000 C 
ENDROOT
BRANCH   1   2
ATOM      2  C   UNL     1      26.877  -2.030   6.788  1.00  0.00     0.000 C 
BRANCH   2   3
ATOM      3  C   UNL     1      27.612  -1.049   5.866  1.00  0.00     0.000 C 
BRANCH   3   4
ATOM      4  C   UNL     1      26.706   0.132   5.484  1.00  0.00     0.000 C 
BRANCH   4   5
ATOM      5  C   UNL     1      27.149   1.454   6.129  1.00  0.00     0.000 C 
BRANCH   5   6
ATOM      6  C   UNL     1      25.962   2.294   6.633  1.00  0.00     0.006 C 
BRANCH   6   7
ATOM      7  C   UNL     1      24.620   1.576   6.441  1.00  0.00     0.053 C 
BRANCH   7   8
ATOM      8  C   UNL     1      23.518   2.533   6.105  1.00  0.00     0.041 C 
ATOM      9  O   UNL     1      23.771   3.598   5.483  1.00  0.00    -0.550 OA
ATOM     10  O   UNL     1      22.207   2.236   6.454  1.00  0.00    -0.550 OA
ENDBRANCH   7   8
ENDBRANCH   6   7
ENDBRANCH   5   6
ENDBRANCH   4   5
ENDBRANCH   3   4
ENDBRANCH   2   3
ENDBRANCH   1   2
BRANCH   1  11
ATOM     11  C   UNL     1      26.004  -1.343   9.059  1.00  0.00     0.000 C 
BRANCH  11  12
ATOM     12  C   UNL     1      26.152   0.066   9.654  1.00  0.00    -0.000 C 
BRANCH  12  13
ATOM     13  C   UNL     1      27.613   0.421   9.983  1.00  0.00    -0.000 C 
BRANCH  13  14
ATOM     14  C   UNL     1      27.942   1.894   9.660  1.00  0.00    -0.000 C 
BRANCH  14  15
ATOM     15  C   UNL     1      29.359   2.099   9.100  1.00  0.00    -0.000 C 
BRANCH  15  16
ATOM     16  C   UNL     1      30.180   0.799   9.065  1.00  0.00    -0.000 C 
BRANCH  16  17
ATOM     17  C   UNL     1      30.591   0.401   7.638  1.00  0.00    -0.003 C 
ATOM     18  C   UNL     1      30.893  -1.092   7.507  1.00  0.00     0.004 C 
ENDBRANCH  16  17
ENDBRANCH  15  16
ENDBRANCH  14  15
ENDBRANCH  13  14
ENDBRANCH  12  13
ENDBRANCH  11  12
ENDBRANCH   1  11
TORSDOF 14
ENDMDL
MODEL 7
REMARK VINA RESULT:    -3.671     16.559     19.373
REMARK INTER + INTRA:          -7.338
REMARK INTER:                  -5.028
REMARK INTRA:                  -2.311
REMARK UNBOUND:                -0.663
REMARK SMILES CCCCCCCCCCCCCCCC(=O)[O-]
REMARK SMILES IDX 9 1 10 2 11 3 12 4 13 5 14 6 15 7 16 8 17 9 18 10 8 11 7 12
REMARK SMILES IDX 6 13 5 14 4 15 3 16 2 17 1 18
REMARK H PARENT
REMARK Flexibility Score: inf
ROOT
ATOM      1  C   UNL     1      26.665   9.523   6.200  1.00  0.00     0.000 C 
ENDROOT
BRANCH   1   2
ATOM      2  C   UNL     1      27.421  10.613   6.968  1.00  0.00     0.000 C 
BRANCH   2   3
ATOM      3  C   UNL     1      27.369  11.951   6.222  1.00  0.00     0.000 C 
BRANCH   3   4
ATOM      4  C   UNL     1      28.246  11.913   4.961  1.00  0.00     0.000 C 
BRANCH   4   5
ATOM      5  C   UNL     1      27.459  12.231   3.680  1.00  0.00     0.000 C 
BRANCH   5   6
ATOM      6  C   UNL     1      27.393  11.036   2.713  1.00  0.00     0.006 C 
BRANCH   6   7
ATOM      7  C   UNL     1      28.468   9.985   3.016  1.00  0.00     0.053 C 
BRANCH   7   8
ATOM      8  C   UNL     1      27.960   8.591   2.805  1.00  0.00     0.041 C 
ATOM      9  O   UNL     1      26.740   8.390   2.569  1.00  0.00    -0.550 OA
ATOM     10  O   UNL     1      28.839   7.517   2.841  1.00  0.00    -0.550 OA
ENDBRANCH   7   8
ENDBRANCH   6   7
ENDBRANCH   5   6
ENDBRANCH   4   5
ENDBRANCH   3   4
ENDBRANCH   2   3
ENDBRANCH   1   2
BRANCH   1  11
ATOM     11  C   UNL     1      25.152   9.785   6.223  1.00  0.00     0.000 C 
BRANCH  11  12
ATOM     12  C   UNL     1      24.556   9.942   4.815  1.00  0.00    -0.000 C 
BRANCH  12  13
ATOM     13  C   UNL     1      23.794  11.267   4.637  1.00  0.00    -0.000 C 
BRANCH  13  14
ATOM     14  C   UNL     1      23.796  12.118   5.925  1.00  0.00    -0.000 C 
BRANCH  14  15
ATOM     15  C   UNL     1      22.399  12.307   6.539  1.00  0.00    -0.000 C 
BRANCH  15  16
ATOM     16  C   UNL     1      21.995  11.151   7.469  1.00  0.00    -0.000 C 
BRANCH  16  17
ATOM     17  C   UNL     1      20.588  10.614   7.163  1.00  0.00    -0.003 C 
ATOM     18  C   UNL     1      20.440  10.138   5.718  1.00  0.00     0.004 C 
ENDBRANCH  16  17
ENDBRANCH  15  16
ENDBRANCH  14  15
ENDBRANCH  13  14
ENDBRANCH  12  13
ENDBRANCH  11  12
ENDBRANCH   1  11
TORSDOF 14
ENDMDL
MODEL 8
REMARK VINA RESULT:    -3.666     11.147     13.062
REMARK INTER + INTRA:          -7.330
REMARK INTER:                  -5.386
REMARK INTRA:                  -1.944
REMARK UNBOUND:                -0.663
REMARK SMILES CCCCCCCCCCCCCCCC(=O)[O-]
REMARK SMILES IDX 9 1 10 2 11 3 12 4 13 5 14 6 15 7 16 8 17 9 18 10 8 11 7 12
REMARK SMILES IDX 6 13 5 14 4 15 3 16 2 17 1 18
REMARK H PARENT
REMARK Flexibility Score: inf
ROOT
ATOM      1  C   UNL     1      28.258   1.512   5.655  1.00  0.00     0.000 C 
ENDROOT
BRANCH   1   2
ATOM      2  C   UNL     1      26.816   1.905   5.309  1.00  0.00     0.000 C 
BRANCH   2   3
ATOM      3  C   UNL     1      26.005   2.193   6.578  1.00  0.00     0.000 C 
BRANCH   3   4
ATOM      4  C   UNL     1      24.532   1.798   6.390  1.00  0.00     0.000 C 
BRANCH   4   5
ATOM      5  C   UNL     1      23.641   2.991   6.010  1.00  0.00     0.000 C 
BRANCH   5   6
ATOM      6  C   UNL     1      22.168   2.591   5.814  1.00  0.00     0.006 C 
BRANCH   6   7
ATOM      7  C   UNL     1      21.353   3.699   5.134  1.00  0.00     0.053 C 
BRANCH   7   8
ATOM      8  C   UNL     1      20.009   3.208   4.687  1.00  0.00     0.041 C 
ATOM      9  O   UNL     1      19.021   3.987   4.680  1.00  0.00    -0.550 OA
ATOM     10  O   UNL     1      19.856   1.898   4.251  1.00  0.00    -0.550 OA
ENDBRANCH   7   8
ENDBRANCH   6   7
ENDBRANCH   5   6
ENDBRANCH   4   5
ENDBRANCH   3   4
ENDBRANCH   2   3
ENDBRANCH   1   2
BRANCH   1  11
ATOM     11  C   UNL     1      28.600   1.897   7.101  1.00  0.00     0.000 C 
BRANCH  11  12
ATOM     12  C   UNL     1      29.416   0.816   7.825  1.00  0.00    -0.000 C 
BRANCH  12  13
ATOM     13  C   UNL     1      28.926   0.564   9.263  1.00  0.00    -0.000 C 
BRANCH  13  14
ATOM     14  C   UNL     1      27.630   1.342   9.580  1.00  0.00    -0.000 C 
BRANCH  14  15
ATOM     15  C   UNL     1      26.423   0.432   9.865  1.00  0.00    -0.000 C 
BRANCH  15  16
ATOM     16  C   UNL     1      26.608  -0.993   9.319  1.00  0.00    -0.000 C 
BRANCH  16  17
ATOM     17  C   UNL     1      25.753  -1.261   8.070  1.00  0.00    -0.003 C 
ATOM     18  C   UNL     1      26.596  -1.556   6.830  1.00  0.00     0.004 C 
ENDBRANCH  16  17
ENDBRANCH  15  16
ENDBRANCH  14  15
ENDBRANCH  13  14
ENDBRANCH  12  13
ENDBRANCH  11  12
ENDBRANCH   1  11
TORSDOF 14
ENDMDL
MODEL 9
REMARK VINA RESULT:    -3.666      5.679      8.113
REMARK INTER + INTRA:          -7.329
REMARK INTER:                  -5.776
REMARK INTRA:                  -1.553
REMARK UNBOUND:                -0.663
REMARK SMILES CCCCCCCCCCCCCCCC(=O)[O-]
REMARK SMILES IDX 9 1 10 2 11 3 12 4 13 5 14 6 15 7 16 8 17 9 18 10 8 11 7 12
REMARK SMILES IDX 6 13 5 14 4 15 3 16 2 17 1 18
REMARK H PARENT
REMARK Flexibility Score: inf
ROOT
ATOM      1  C   UNL     1      16.329  -0.438  14.459  1.00  0.00     0.000 C 
ENDROOT
BRANCH   1   2
ATOM      2  C   UNL     1      16.402   0.066  15.905  1.00  0.00     0.000 C 
BRANCH   2   3
ATOM      3  C   UNL     1      15.624   1.377  16.072  1.00  0.00     0.000 C 
BRANCH   3   4
ATOM      4  C   UNL     1      15.804   2.283  14.844  1.00  0.00     0.000 C 
BRANCH   4   5
ATOM      5  C   UNL     1      15.697   3.777  15.187  1.00  0.00     0.000 C 
BRANCH   5   6
ATOM      6  C   UNL     1      16.453   4.670  14.187  1.00  0.00     0.006 C 
BRANCH   6   7
ATOM      7  C   UNL     1      16.179   6.161  14.420  1.00  0.00     0.053 C 
BRANCH   7   8
ATOM      8  C   UNL     1      15.632   6.826  13.194  1.00  0.00     0.041 C 
ATOM      9  O   UNL     1      14.427   6.664  12.869  1.00  0.00    -0.550 OA
ATOM     10  O   UNL     1      16.447   7.648  12.425  1.00  0.00    -0.550 OA
ENDBRANCH   7   8
ENDBRANCH   6   7
ENDBRANCH   5   6
ENDBRANCH   4   5
ENDBRANCH   3   4
ENDBRANCH   2   3
ENDBRANCH   1   2
BRANCH   1  11
ATOM     11  C   UNL     1      15.713  -1.843  14.398  1.00  0.00     0.000 C 
BRANCH  11  12
ATOM     12  C   UNL     1      16.315  -2.800  15.439  1.00  0.00    -0.000 C 
BRANCH  12  13
ATOM     13  C   UNL     1      15.699  -4.209  15.377  1.00  0.00    -0.000 C 
BRANCH  13  14
ATOM     14  C   UNL     1      14.765  -4.489  16.574  1.00  0.00    -0.000 C 
BRANCH  14  15
ATOM     15  C   UNL     1      14.884  -3.450  17.702  1.00  0.00    -0.000 C 
BRANCH  15  16
ATOM     16  C   UNL     1      13.538  -2.795  18.054  1.00  0.00    -0.000 C 
BRANCH  16  17
ATOM     17  C   UNL     1      13.462  -1.328  17.604  1.00  0.00    -0.003 C 
ATOM     18  C   UNL     1      12.594  -1.137  16.360  1.00  0.00     0.004 C 
ENDBRANCH  16  17
ENDBRANCH  15  16
ENDBRANCH  14  15
ENDBRANCH  13  14
ENDBRANCH  12  13
ENDBRANCH  11  12
ENDBRANCH   1  11
TORSDOF 14
ENDMDL
