MODEL 1
REMARK VINA RESULT:    -6.670      0.000      0.000
REMARK INTER + INTRA:         -13.083
REMARK INTER:                 -10.959
REMARK INTRA:                  -2.124
REMARK UNBOUND:                -2.124
REMARK SMILES C[C@H]1O[C@@H](OC[C@H]2O[C@@H](Oc3c(-c4ccc(O)c(O)c4)oc4cc(O)cc(O)c4c3=O)[C@@H](O)[C@@H](O)[C@@H]2O)[C@H](O)[C@H](O)[C@@H]1O
REMARK SMILES IDX 7 1 36 2 34 3 32 4 9 5 8 6 6 7 5 8 4 9 1 10 2 11 42 12 3 13
REMARK SMILES IDX 40 14 38 15 43 16 41 18 39 20 37 22 35 24 10 26 11 27 12 28
REMARK SMILES IDX 30 29 21 30 29 31 31 32 22 33 27 34 23 35 26 36 24 37 13 38
REMARK SMILES IDX 20 39 14 40 18 41 15 42 16 43 19 44 17 46 28 48 25 50 33 52
REMARK H PARENT 43 17 41 19 39 21 37 23 35 25 19 45 17 47 28 49 25 51 33 53
REMARK Flexibility Score: inf
ROOT
ATOM      1  C   UNL     1      29.584   0.444 103.230  1.00  0.00     0.180 C 
ATOM      2  C   UNL     1      28.341   1.364 103.347  1.00  0.00     0.177 C 
ATOM      3  C   UNL     1      27.810   1.438 104.794  1.00  0.00     0.180 C 
ATOM      4  C   UNL     1      27.680   0.025 105.378  1.00  0.00     0.214 C 
ATOM      5  C   UNL     1      28.975  -0.782 105.191  1.00  0.00     0.339 C 
ATOM      6  O   UNL     1      29.386  -0.833 103.829  1.00  0.00    -0.332 OA
ENDROOT
BRANCH   1   7
ATOM      7  C   UNL     1      30.913   1.100 103.667  1.00  0.00     0.198 C 
BRANCH   7   8
ATOM      8  O   UNL     1      31.612   1.602 102.541  1.00  0.00    -0.347 OA
BRANCH   8   9
ATOM      9  C   UNL     1      31.260   2.940 102.220  1.00  0.00     0.281 C 
ATOM     10  C   UNL     1      33.466   1.751 100.428  1.00  0.00     0.041 C 
ATOM     11  C   UNL     1      32.854   3.165 100.451  1.00  0.00     0.150 C 
ATOM     12  C   UNL     1      33.708   4.186 101.234  1.00  0.00     0.174 C 
ATOM     13  O   UNL     1      31.480   3.177 100.836  1.00  0.00    -0.344 OA
ATOM     14  C   UNL     1      33.504   4.037 102.752  1.00  0.00     0.179 C 
ATOM     15  C   UNL     1      32.009   3.965 103.112  1.00  0.00     0.202 C 
BRANCH  12  16
ATOM     16  O   UNL     1      33.364   5.483 100.812  1.00  0.00    -0.388 OA
ATOM     17  H   UNL     1      32.530   5.404 100.278  1.00  0.00     0.211 HD
ENDBRANCH  12  16
BRANCH  14  18
ATOM     18  O   UNL     1      34.124   5.103 103.425  1.00  0.00    -0.387 OA
ATOM     19  H   UNL     1      34.970   5.299 102.938  1.00  0.00     0.211 HD
ENDBRANCH  14  18
BRANCH  15  20
ATOM     20  O   UNL     1      31.405   5.235 103.051  1.00  0.00    -0.385 OA
ATOM     21  H   UNL     1      31.928   5.805 102.431  1.00  0.00     0.211 HD
ENDBRANCH  15  20
ENDBRANCH   8   9
ENDBRANCH   7   8
ENDBRANCH   1   7
BRANCH   2  22
ATOM     22  O   UNL     1      27.334   0.860 102.505  1.00  0.00    -0.387 OA
ATOM     23  H   UNL     1      27.776   0.566 101.665  1.00  0.00     0.211 HD
ENDBRANCH   2  22
BRANCH   3  24
ATOM     24  O   UNL     1      28.643   2.222 105.607  1.00  0.00    -0.387 OA
ATOM     25  H   UNL     1      29.440   1.673 105.818  1.00  0.00     0.211 HD
ENDBRANCH   3  24
BRANCH   5  26
ATOM     26  O   UNL     1      30.018  -0.300 106.048  1.00  0.00    -0.454 OA
BRANCH  26  27
ATOM     27  C   UNL     1      30.677  -1.036 107.059  1.00  0.00     0.214 A 
ATOM     28  C   UNL     1      31.803  -0.463 107.683  1.00  0.00     0.180 A 
ATOM     29  C   UNL     1      30.254  -2.313 107.498  1.00  0.00     0.239 A 
ATOM     30  O   UNL     1      32.430  -1.105 108.662  1.00  0.00    -0.452 OA
ATOM     31  C   UNL     1      30.953  -2.963 108.537  1.00  0.00     0.111 A 
ATOM     32  O   UNL     1      29.262  -2.875 106.962  1.00  0.00    -0.285 OA
ATOM     33  C   UNL     1      32.066  -2.301 109.101  1.00  0.00     0.146 A 
ATOM     34  C   UNL     1      30.586  -4.239 109.035  1.00  0.00     0.134 A 
ATOM     35  C   UNL     1      32.798  -2.900 110.131  1.00  0.00     0.094 A 
ATOM     36  C   UNL     1      31.331  -4.820 110.072  1.00  0.00     0.093 A 
ATOM     37  C   UNL     1      32.433  -4.161 110.616  1.00  0.00     0.123 A 
BRANCH  28  38
ATOM     38  C   UNL     1      32.296   0.878 107.310  1.00  0.00     0.025 A 
ATOM     39  C   UNL     1      31.675   2.015 107.846  1.00  0.00     0.062 A 
ATOM     40  C   UNL     1      33.404   1.034 106.467  1.00  0.00     0.016 A 
ATOM     41  C   UNL     1      32.119   3.300 107.513  1.00  0.00     0.158 A 
ATOM     42  C   UNL     1      33.859   2.311 106.131  1.00  0.00     0.051 A 
ATOM     43  C   UNL     1      33.220   3.451 106.635  1.00  0.00     0.157 A 
BRANCH  41  44
ATOM     44  O   UNL     1      31.446   4.386 108.075  1.00  0.00    -0.504 OA
ATOM     45  H   UNL     1      30.555   4.312 108.544  1.00  0.00     0.293 HD
ENDBRANCH  41  44
BRANCH  43  46
ATOM     46  O   UNL     1      33.712   4.699 106.249  1.00  0.00    -0.504 OA
ATOM     47  H   UNL     1      34.541   5.124 106.640  1.00  0.00     0.293 HD
ENDBRANCH  43  46
ENDBRANCH  28  38
BRANCH  34  48
ATOM     48  O   UNL     1      29.490  -4.926 108.514  1.00  0.00    -0.507 OA
ATOM     49  H   UNL     1      29.020  -4.619 107.671  1.00  0.00     0.293 HD
ENDBRANCH  34  48
BRANCH  37  50
ATOM     50  O   UNL     1      33.160  -4.766 111.641  1.00  0.00    -0.508 OA
ATOM     51  H   UNL     1      33.616  -5.661 111.512  1.00  0.00     0.293 HD
ENDBRANCH  37  50
ENDBRANCH  26  27
ENDBRANCH   5  26
BRANCH   4  52
ATOM     52  O   UNL     1      27.353   0.082 106.743  1.00  0.00    -0.384 OA
ATOM     53  H   UNL     1      27.867  -0.639 107.191  1.00  0.00     0.211 HD
ENDBRANCH   4  52
TORSDOF 16
ENDMDL
MODEL 2
REMARK VINA RESULT:    -6.613      7.334     10.759
REMARK INTER + INTRA:         -12.990
REMARK INTER:                 -10.944
REMARK INTRA:                  -2.045
REMARK UNBOUND:                -2.124
REMARK SMILES C[C@H]1O[C@@H](OC[C@H]2O[C@@H](Oc3c(-c4ccc(O)c(O)c4)oc4cc(O)cc(O)c4c3=O)[C@@H](O)[C@@H](O)[C@@H]2O)[C@H](O)[C@H](O)[C@@H]1O
REMARK SMILES IDX 7 1 36 2 34 3 32 4 9 5 8 6 6 7 5 8 4 9 1 10 2 11 42 12 3 13
REMARK SMILES IDX 40 14 38 15 43 16 41 18 39 20 37 22 35 24 10 26 11 27 12 28
REMARK SMILES IDX 30 29 21 30 29 31 31 32 22 33 27 34 23 35 26 36 24 37 13 38
REMARK SMILES IDX 20 39 14 40 18 41 15 42 16 43 19 44 17 46 28 48 25 50 33 52
REMARK H PARENT 43 17 41 19 39 21 37 23 35 25 19 45 17 47 28 49 25 51 33 53
REMARK Flexibility Score: inf
ROOT
ATOM      1  C   UNL     1      26.520  -4.237  99.532  1.00  0.00     0.180 C 
ATOM      2  C   UNL     1      26.173  -4.588  98.063  1.00  0.00     0.177 C 
ATOM      3  C   UNL     1      24.840  -5.359  97.951  1.00  0.00     0.180 C 
ATOM      4  C   UNL     1      24.817  -6.514  98.961  1.00  0.00     0.214 C 
ATOM      5  C   UNL     1      25.185  -6.033 100.374  1.00  0.00     0.339 C 
ATOM      6  O   UNL     1      26.439  -5.360 100.404  1.00  0.00    -0.332 OA
ENDROOT
BRANCH   1   7
ATOM      7  C   UNL     1      25.777  -3.002 100.091  1.00  0.00     0.198 C 
BRANCH   7   8
ATOM      8  O   UNL     1      26.563  -2.357 101.079  1.00  0.00    -0.347 OA
BRANCH   8   9
ATOM      9  C   UNL     1      26.018  -2.473 102.385  1.00  0.00     0.281 C 
ATOM     10  C   UNL     1      26.841   0.394 101.613  1.00  0.00     0.041 C 
ATOM     11  C   UNL     1      26.279  -0.160 102.936  1.00  0.00     0.150 C 
ATOM     12  C   UNL     1      27.372  -0.445 103.990  1.00  0.00     0.174 C 
ATOM     13  O   UNL     1      25.383  -1.255 102.752  1.00  0.00    -0.344 OA
ATOM     14  C   UNL     1      28.092  -1.775 103.701  1.00  0.00     0.179 C 
ATOM     15  C   UNL     1      27.088  -2.908 103.422  1.00  0.00     0.202 C 
BRANCH  12  16
ATOM     16  O   UNL     1      26.777  -0.471 105.264  1.00  0.00    -0.388 OA
ATOM     17  H   UNL     1      26.203   0.337 105.334  1.00  0.00     0.211 HD
ENDBRANCH  12  16
BRANCH  14  18
ATOM     18  O   UNL     1      28.929  -2.110 104.780  1.00  0.00    -0.387 OA
ATOM     19  H   UNL     1      29.739  -2.540 104.394  1.00  0.00     0.211 HD
ENDBRANCH  14  18
BRANCH  15  20
ATOM     20  O   UNL     1      26.492  -3.369 104.611  1.00  0.00    -0.385 OA
ATOM     21  H   UNL     1      25.965  -2.630 105.009  1.00  0.00     0.211 HD
ENDBRANCH  15  20
ENDBRANCH   8   9
ENDBRANCH   7   8
ENDBRANCH   1   7
BRANCH   2  22
ATOM     22  O   UNL     1      27.212  -5.373  97.535  1.00  0.00    -0.387 OA
ATOM     23  H   UNL     1      26.796  -6.191  97.155  1.00  0.00     0.211 HD
ENDBRANCH   2  22
BRANCH   3  24
ATOM     24  O   UNL     1      23.739  -4.513  98.158  1.00  0.00    -0.387 OA
ATOM     25  H   UNL     1      23.944  -3.961  98.955  1.00  0.00     0.211 HD
ENDBRANCH   3  24
BRANCH   5  26
ATOM     26  O   UNL     1      24.136  -5.240 100.944  1.00  0.00    -0.454 OA
BRANCH  26  27
ATOM     27  C   UNL     1      23.596  -5.377 102.243  1.00  0.00     0.214 A 
ATOM     28  C   UNL     1      22.204  -5.239 102.411  1.00  0.00     0.180 A 
ATOM     29  C   UNL     1      24.376  -5.668 103.387  1.00  0.00     0.239 A 
ATOM     30  O   UNL     1      21.651  -5.396 103.608  1.00  0.00    -0.452 OA
ATOM     31  C   UNL     1      23.749  -5.820 104.642  1.00  0.00     0.111 A 
ATOM     32  O   UNL     1      25.626  -5.786 103.293  1.00  0.00    -0.285 OA
ATOM     33  C   UNL     1      22.346  -5.668 104.703  1.00  0.00     0.146 A 
ATOM     34  C   UNL     1      24.461  -6.119 105.831  1.00  0.00     0.134 A 
ATOM     35  C   UNL     1      21.673  -5.804 105.921  1.00  0.00     0.094 A 
ATOM     36  C   UNL     1      23.766  -6.256 107.042  1.00  0.00     0.093 A 
ATOM     37  C   UNL     1      22.381  -6.096 107.092  1.00  0.00     0.123 A 
BRANCH  28  38
ATOM     38  C   UNL     1      21.310  -4.966 101.269  1.00  0.00     0.025 A 
ATOM     39  C   UNL     1      20.602  -3.756 101.220  1.00  0.00     0.062 A 
ATOM     40  C   UNL     1      21.191  -5.874 100.208  1.00  0.00     0.016 A 
ATOM     41  C   UNL     1      19.747  -3.468 100.150  1.00  0.00     0.158 A 
ATOM     42  C   UNL     1      20.345  -5.594  99.133  1.00  0.00     0.051 A 
ATOM     43  C   UNL     1      19.608  -4.404  99.096  1.00  0.00     0.157 A 
BRANCH  41  44
ATOM     44  O   UNL     1      19.066  -2.249 100.173  1.00  0.00    -0.504 OA
ATOM     45  H   UNL     1      18.089  -2.157 100.413  1.00  0.00     0.293 HD
ENDBRANCH  41  44
BRANCH  43  46
ATOM     46  O   UNL     1      18.767  -4.190  98.003  1.00  0.00    -0.504 OA
ATOM     47  H   UNL     1      18.553  -3.278  97.625  1.00  0.00     0.293 HD
ENDBRANCH  43  46
ENDBRANCH  28  38
BRANCH  34  48
ATOM     48  O   UNL     1      25.846  -6.285 105.817  1.00  0.00    -0.507 OA
ATOM     49  H   UNL     1      26.324  -6.707 105.030  1.00  0.00     0.293 HD
ENDBRANCH  34  48
BRANCH  37  50
ATOM     50  O   UNL     1      21.717  -6.230 108.310  1.00  0.00    -0.508 OA
ATOM     51  H   UNL     1      21.583  -7.135 108.746  1.00  0.00     0.293 HD
ENDBRANCH  37  50
ENDBRANCH  26  27
ENDBRANCH   5  26
BRANCH   4  52
ATOM     52  O   UNL     1      23.552  -7.125  98.985  1.00  0.00    -0.384 OA
ATOM     53  H   UNL     1      22.897  -6.416  99.221  1.00  0.00     0.211 HD
ENDBRANCH   4  52
TORSDOF 16
ENDMDL
MODEL 3
REMARK VINA RESULT:    -6.458      2.548      7.699
REMARK INTER + INTRA:         -12.735
REMARK INTER:                 -10.750
REMARK INTRA:                  -1.985
REMARK UNBOUND:                -2.124
REMARK SMILES C[C@H]1O[C@@H](OC[C@H]2O[C@@H](Oc3c(-c4ccc(O)c(O)c4)oc4cc(O)cc(O)c4c3=O)[C@@H](O)[C@@H](O)[C@@H]2O)[C@H](O)[C@H](O)[C@@H]1O
REMARK SMILES IDX 7 1 36 2 34 3 32 4 9 5 8 6 6 7 5 8 4 9 1 10 2 11 42 12 3 13
REMARK SMILES IDX 40 14 38 15 43 16 41 18 39 20 37 22 35 24 10 26 11 27 12 28
REMARK SMILES IDX 30 29 21 30 29 31 31 32 22 33 27 34 23 35 26 36 24 37 13 38
REMARK SMILES IDX 20 39 14 40 18 41 15 42 16 43 19 44 17 46 28 48 25 50 33 52
REMARK H PARENT 43 17 41 19 39 21 37 23 35 25 19 45 17 47 28 49 25 51 33 53
REMARK Flexibility Score: inf
ROOT
ATOM      1  C   UNL     1      31.056  -0.161 106.052  1.00  0.00     0.180 C 
ATOM      2  C   UNL     1      31.591   0.126 107.479  1.00  0.00     0.177 C 
ATOM      3  C   UNL     1      32.429   1.421 107.534  1.00  0.00     0.180 C 
ATOM      4  C   UNL     1      33.459   1.427 106.396  1.00  0.00     0.214 C 
ATOM      5  C   UNL     1      32.801   1.124 105.040  1.00  0.00     0.339 C 
ATOM      6  O   UNL     1      32.073  -0.099 105.057  1.00  0.00    -0.332 OA
ENDROOT
BRANCH   1   7
ATOM      7  C   UNL     1      29.799   0.650 105.662  1.00  0.00     0.198 C 
BRANCH   7   8
ATOM      8  O   UNL     1      29.032  -0.057 104.703  1.00  0.00    -0.347 OA
BRANCH   8   9
ATOM      9  C   UNL     1      28.870   0.656 103.486  1.00  0.00     0.281 C 
ATOM     10  C   UNL     1      26.303  -0.716 104.493  1.00  0.00     0.041 C 
ATOM     11  C   UNL     1      26.564   0.088 103.205  1.00  0.00     0.150 C 
ATOM     12  C   UNL     1      26.844  -0.804 101.976  1.00  0.00     0.174 C 
ATOM     13  O   UNL     1      27.532   1.123 103.375  1.00  0.00    -0.344 OA
ATOM     14  C   UNL     1      28.292  -1.325 101.983  1.00  0.00     0.179 C 
ATOM     15  C   UNL     1      29.296  -0.190 102.257  1.00  0.00     0.202 C 
BRANCH  12  16
ATOM     16  O   UNL     1      26.591  -0.060 100.809  1.00  0.00    -0.388 OA
ATOM     17  H   UNL     1      25.946  -0.582 100.264  1.00  0.00     0.211 HD
ENDBRANCH  12  16
BRANCH  14  18
ATOM     18  O   UNL     1      28.580  -1.955 100.760  1.00  0.00    -0.387 OA
ATOM     19  H   UNL     1      27.923  -1.611 100.096  1.00  0.00     0.211 HD
ENDBRANCH  14  18
BRANCH  15  20
ATOM     20  O   UNL     1      29.482   0.615 101.118  1.00  0.00    -0.385 OA
ATOM     21  H   UNL     1      30.199   0.217 100.562  1.00  0.00     0.211 HD
ENDBRANCH  15  20
ENDBRANCH   8   9
ENDBRANCH   7   8
ENDBRANCH   1   7
BRANCH   2  22
ATOM     22  O   UNL     1      32.385  -0.962 107.883  1.00  0.00    -0.387 OA
ATOM     23  H   UNL     1      32.213  -1.105 108.852  1.00  0.00     0.211 HD
ENDBRANCH   2  22
BRANCH   3  24
ATOM     24  O   UNL     1      31.615   2.562 107.456  1.00  0.00    -0.387 OA
ATOM     25  H   UNL     1      30.740   2.269 107.096  1.00  0.00     0.211 HD
ENDBRANCH   3  24
BRANCH   5  26
ATOM     26  O   UNL     1      31.995   2.222 104.594  1.00  0.00    -0.454 OA
BRANCH  26  27
ATOM     27  C   UNL     1      31.983   2.778 103.295  1.00  0.00     0.214 A 
ATOM     28  C   UNL     1      31.722   4.156 103.155  1.00  0.00     0.180 A 
ATOM     29  C   UNL     1      32.244   2.031 102.122  1.00  0.00     0.239 A 
ATOM     30  O   UNL     1      31.738   4.726 101.956  1.00  0.00    -0.452 OA
ATOM     31  C   UNL     1      32.245   2.675 100.868  1.00  0.00     0.111 A 
ATOM     32  O   UNL     1      32.467   0.793 102.193  1.00  0.00    -0.285 OA
ATOM     33  C   UNL     1      31.977   4.061 100.835  1.00  0.00     0.146 A 
ATOM     34  C   UNL     1      32.503   1.995  99.650  1.00  0.00     0.134 A 
ATOM     35  C   UNL     1      31.961   4.750  99.618  1.00  0.00     0.094 A 
ATOM     36  C   UNL     1      32.487   2.706  98.440  1.00  0.00     0.093 A 
ATOM     37  C   UNL     1      32.213   4.074  98.420  1.00  0.00     0.123 A 
BRANCH  28  38
ATOM     38  C   UNL     1      31.471   5.019 104.326  1.00  0.00     0.025 A 
ATOM     39  C   UNL     1      30.237   5.673 104.449  1.00  0.00     0.062 A 
ATOM     40  C   UNL     1      32.426   5.159 105.342  1.00  0.00     0.016 A 
ATOM     41  C   UNL     1      29.968   6.498 105.548  1.00  0.00     0.158 A 
ATOM     42  C   UNL     1      32.167   5.975 106.445  1.00  0.00     0.051 A 
ATOM     43  C   UNL     1      30.950   6.659 106.555  1.00  0.00     0.157 A 
BRANCH  41  44
ATOM     44  O   UNL     1      28.723   7.127 105.599  1.00  0.00    -0.504 OA
ATOM     45  H   UNL     1      27.915   6.817 105.078  1.00  0.00     0.293 HD
ENDBRANCH  41  44
BRANCH  43  46
ATOM     46  O   UNL     1      30.758   7.473 107.673  1.00  0.00    -0.504 OA
ATOM     47  H   UNL     1      31.467   8.084 108.055  1.00  0.00     0.293 HD
ENDBRANCH  43  46
ENDBRANCH  28  38
BRANCH  34  48
ATOM     48  O   UNL     1      32.780   0.628  99.635  1.00  0.00    -0.507 OA
ATOM     49  H   UNL     1      33.420   0.206 100.296  1.00  0.00     0.293 HD
ENDBRANCH  34  48
BRANCH  37  50
ATOM     50  O   UNL     1      32.197   4.753  97.202  1.00  0.00    -0.508 OA
ATOM     51  H   UNL     1      32.922   4.618  96.508  1.00  0.00     0.293 HD
ENDBRANCH  37  50
ENDBRANCH  26  27
ENDBRANCH   5  26
BRANCH   4  52
ATOM     52  O   UNL     1      34.119   2.666 106.333  1.00  0.00    -0.384 OA
ATOM     53  H   UNL     1      33.863   3.168 107.150  1.00  0.00     0.211 HD
ENDBRANCH   4  52
TORSDOF 16
ENDMDL
MODEL 4
REMARK VINA RESULT:    -6.401      3.708      6.892
REMARK INTER + INTRA:         -12.640
REMARK INTER:                  -9.536
REMARK INTRA:                  -3.104
REMARK UNBOUND:                -2.124
REMARK SMILES C[C@H]1O[C@@H](OC[C@H]2O[C@@H](Oc3c(-c4ccc(O)c(O)c4)oc4cc(O)cc(O)c4c3=O)[C@@H](O)[C@@H](O)[C@@H]2O)[C@H](O)[C@H](O)[C@@H]1O
REMARK SMILES IDX 7 1 36 2 34 3 32 4 9 5 8 6 6 7 5 8 4 9 1 10 2 11 42 12 3 13
REMARK SMILES IDX 40 14 38 15 43 16 41 18 39 20 37 22 35 24 10 26 11 27 12 28
REMARK SMILES IDX 30 29 21 30 29 31 31 32 22 33 27 34 23 35 26 36 24 37 13 38
REMARK SMILES IDX 20 39 14 40 18 41 15 42 16 43 19 44 17 46 28 48 25 50 33 52
REMARK H PARENT 43 17 41 19 39 21 37 23 35 25 19 45 17 47 28 49 25 51 33 53
REMARK Flexibility Score: inf
ROOT
ATOM      1  C   UNL     1      31.461  -0.678 102.998  1.00  0.00     0.180 C 
ATOM      2  C   UNL     1      32.468  -1.343 102.026  1.00  0.00     0.177 C 
ATOM      3  C   UNL     1      31.762  -2.223 100.973  1.00  0.00     0.180 C 
ATOM      4  C   UNL     1      30.750  -3.151 101.660  1.00  0.00     0.214 C 
ATOM      5  C   UNL     1      29.818  -2.369 102.600  1.00  0.00     0.339 C 
ATOM      6  O   UNL     1      30.539  -1.606 103.561  1.00  0.00    -0.332 OA
ENDROOT
BRANCH   1   7
ATOM      7  C   UNL     1      30.761   0.582 102.437  1.00  0.00     0.198 C 
BRANCH   7   8
ATOM      8  O   UNL     1      31.718   1.567 102.090  1.00  0.00    -0.347 OA
BRANCH   8   9
ATOM      9  C   UNL     1      31.329   2.878 102.472  1.00  0.00     0.281 C 
ATOM     10  C   UNL     1      34.066   2.735 101.065  1.00  0.00     0.041 C 
ATOM     11  C   UNL     1      33.323   3.936 101.681  1.00  0.00     0.150 C 
ATOM     12  C   UNL     1      33.806   4.286 103.106  1.00  0.00     0.174 C 
ATOM     13  O   UNL     1      31.903   3.829 101.585  1.00  0.00    -0.344 OA
ATOM     14  C   UNL     1      33.199   3.333 104.150  1.00  0.00     0.179 C 
ATOM     15  C   UNL     1      31.680   3.178 103.954  1.00  0.00     0.202 C 
BRANCH  12  16
ATOM     16  O   UNL     1      33.456   5.619 103.388  1.00  0.00    -0.388 OA
ATOM     17  H   UNL     1      34.287   6.087 103.663  1.00  0.00     0.211 HD
ENDBRANCH  12  16
BRANCH  14  18
ATOM     18  O   UNL     1      33.486   3.797 105.446  1.00  0.00    -0.387 OA
ATOM     19  H   UNL     1      34.022   4.629 105.342  1.00  0.00     0.211 HD
ENDBRANCH  14  18
BRANCH  15  20
ATOM     20  O   UNL     1      30.985   4.306 104.428  1.00  0.00    -0.385 OA
ATOM     21  H   UNL     1      30.225   3.999 104.986  1.00  0.00     0.211 HD
ENDBRANCH  15  20
ENDBRANCH   8   9
ENDBRANCH   7   8
ENDBRANCH   1   7
BRANCH   2  22
ATOM     22  O   UNL     1      33.356  -2.133 102.776  1.00  0.00    -0.387 OA
ATOM     23  H   UNL     1      32.877  -2.973 103.006  1.00  0.00     0.211 HD
ENDBRANCH   2  22
BRANCH   3  24
ATOM     24  O   UNL     1      31.119  -1.444  99.999  1.00  0.00    -0.387 OA
ATOM     25  H   UNL     1      31.212  -0.498 100.279  1.00  0.00     0.211 HD
ENDBRANCH   3  24
BRANCH   5  26
ATOM     26  O   UNL     1      28.890  -1.563 101.861  1.00  0.00    -0.454 OA
BRANCH  26  27
ATOM     27  C   UNL     1      27.485  -1.709 101.844  1.00  0.00     0.214 A 
ATOM     28  C   UNL     1      26.719  -0.954 102.754  1.00  0.00     0.180 A 
ATOM     29  C   UNL     1      26.797  -2.558 100.945  1.00  0.00     0.239 A 
ATOM     30  O   UNL     1      25.394  -1.033 102.748  1.00  0.00    -0.452 OA
ATOM     31  C   UNL     1      25.388  -2.617 100.976  1.00  0.00     0.111 A 
ATOM     32  O   UNL     1      27.437  -3.266 100.122  1.00  0.00    -0.285 OA
ATOM     33  C   UNL     1      24.713  -1.816 101.923  1.00  0.00     0.146 A 
ATOM     34  C   UNL     1      24.629  -3.438 100.103  1.00  0.00     0.134 A 
ATOM     35  C   UNL     1      23.317  -1.838 102.001  1.00  0.00     0.094 A 
ATOM     36  C   UNL     1      23.230  -3.442 100.196  1.00  0.00     0.093 A 
ATOM     37  C   UNL     1      22.574  -2.652 101.140  1.00  0.00     0.123 A 
BRANCH  28  38
ATOM     38  C   UNL     1      27.350  -0.019 103.708  1.00  0.00     0.025 A 
ATOM     39  C   UNL     1      27.452   1.339 103.377  1.00  0.00     0.062 A 
ATOM     40  C   UNL     1      27.806  -0.458 104.958  1.00  0.00     0.016 A 
ATOM     41  C   UNL     1      28.044   2.250 104.259  1.00  0.00     0.158 A 
ATOM     42  C   UNL     1      28.394   0.443 105.848  1.00  0.00     0.051 A 
ATOM     43  C   UNL     1      28.531   1.795 105.508  1.00  0.00     0.157 A 
BRANCH  41  44
ATOM     44  O   UNL     1      28.122   3.585 103.859  1.00  0.00    -0.504 OA
ATOM     45  H   UNL     1      27.928   3.902 102.920  1.00  0.00     0.293 HD
ENDBRANCH  41  44
BRANCH  43  46
ATOM     46  O   UNL     1      29.143   2.642 106.435  1.00  0.00    -0.504 OA
ATOM     47  H   UNL     1      29.234   2.430 107.418  1.00  0.00     0.293 HD
ENDBRANCH  43  46
ENDBRANCH  28  38
BRANCH  34  48
ATOM     48  O   UNL     1      25.253  -4.240  99.148  1.00  0.00    -0.507 OA
ATOM     49  H   UNL     1      24.779  -5.027  98.721  1.00  0.00     0.293 HD
ENDBRANCH  34  48
BRANCH  37  50
ATOM     50  O   UNL     1      21.182  -2.682 101.214  1.00  0.00    -0.508 OA
ATOM     51  H   UNL     1      20.625  -3.202 100.547  1.00  0.00     0.293 HD
ENDBRANCH  37  50
ENDBRANCH  26  27
ENDBRANCH   5  26
BRANCH   4  52
ATOM     52  O   UNL     1      29.986  -3.843 100.706  1.00  0.00    -0.384 OA
ATOM     53  H   UNL     1      29.970  -3.278  99.889  1.00  0.00     0.211 HD
ENDBRANCH   4  52
TORSDOF 16
ENDMDL
MODEL 5
REMARK VINA RESULT:    -6.398      2.022      4.432
REMARK INTER + INTRA:         -12.636
REMARK INTER:                  -9.817
REMARK INTRA:                  -2.818
REMARK UNBOUND:                -2.124
REMARK SMILES C[C@H]1O[C@@H](OC[C@H]2O[C@@H](Oc3c(-c4ccc(O)c(O)c4)oc4cc(O)cc(O)c4c3=O)[C@@H](O)[C@@H](O)[C@@H]2O)[C@H](O)[C@H](O)[C@@H]1O
REMARK SMILES IDX 7 1 36 2 34 3 32 4 9 5 8 6 6 7 5 8 4 9 1 10 2 11 42 12 3 13
REMARK SMILES IDX 40 14 38 15 43 16 41 18 39 20 37 22 35 24 10 26 11 27 12 28
REMARK SMILES IDX 30 29 21 30 29 31 31 32 22 33 27 34 23 35 26 36 24 37 13 38
REMARK SMILES IDX 20 39 14 40 18 41 15 42 16 43 19 44 17 46 28 48 25 50 33 52
REMARK H PARENT 43 17 41 19 39 21 37 23 35 25 19 45 17 47 28 49 25 51 33 53
REMARK Flexibility Score: inf
ROOT
ATOM      1  C   UNL     1      33.738   0.333 104.293  1.00  0.00     0.180 C 
ATOM      2  C   UNL     1      33.138   0.248 102.866  1.00  0.00     0.177 C 
ATOM      3  C   UNL     1      31.899  -0.670 102.813  1.00  0.00     0.180 C 
ATOM      4  C   UNL     1      32.202  -2.001 103.514  1.00  0.00     0.214 C 
ATOM      5  C   UNL     1      32.797  -1.776 104.914  1.00  0.00     0.339 C 
ATOM      6  O   UNL     1      33.953  -0.946 104.880  1.00  0.00    -0.332 OA
ENDROOT
BRANCH   1   7
ATOM      7  C   UNL     1      32.999   1.301 105.245  1.00  0.00     0.198 C 
BRANCH   7   8
ATOM      8  O   UNL     1      32.355   2.326 104.507  1.00  0.00    -0.347 OA
BRANCH   8   9
ATOM      9  C   UNL     1      31.109   2.714 105.067  1.00  0.00     0.281 C 
ATOM     10  C   UNL     1      32.379   4.832 103.225  1.00  0.00     0.041 C 
ATOM     11  C   UNL     1      31.087   4.884 104.063  1.00  0.00     0.150 C 
ATOM     12  C   UNL     1      31.266   5.608 105.415  1.00  0.00     0.174 C 
ATOM     13  O   UNL     1      30.447   3.615 104.190  1.00  0.00    -0.344 OA
ATOM     14  C   UNL     1      31.940   4.691 106.452  1.00  0.00     0.179 C 
ATOM     15  C   UNL     1      31.274   3.304 106.493  1.00  0.00     0.202 C 
BRANCH  12  16
ATOM     16  O   UNL     1      30.006   6.031 105.873  1.00  0.00    -0.388 OA
ATOM     17  H   UNL     1      29.323   5.512 105.372  1.00  0.00     0.211 HD
ENDBRANCH  12  16
BRANCH  14  18
ATOM     18  O   UNL     1      31.902   5.296 107.721  1.00  0.00    -0.387 OA
ATOM     19  H   UNL     1      31.859   4.560 108.390  1.00  0.00     0.211 HD
ENDBRANCH  14  18
BRANCH  15  20
ATOM     20  O   UNL     1      30.044   3.346 107.176  1.00  0.00    -0.385 OA
ATOM     21  H   UNL     1      29.843   4.288 107.408  1.00  0.00     0.211 HD
ENDBRANCH  15  20
ENDBRANCH   8   9
ENDBRANCH   7   8
ENDBRANCH   1   7
BRANCH   2  22
ATOM     22  O   UNL     1      34.125  -0.248 101.997  1.00  0.00    -0.387 OA
ATOM     23  H   UNL     1      34.980  -0.264 102.504  1.00  0.00     0.211 HD
ENDBRANCH   2  22
BRANCH   3  24
ATOM     24  O   UNL     1      30.780  -0.058 103.400  1.00  0.00    -0.387 OA
ATOM     25  H   UNL     1      30.018  -0.680 103.289  1.00  0.00     0.211 HD
ENDBRANCH   3  24
BRANCH   5  26
ATOM     26  O   UNL     1      31.809  -1.282 105.827  1.00  0.00    -0.454 OA
BRANCH  26  27
ATOM     27  C   UNL     1      31.279  -1.973 106.940  1.00  0.00     0.214 A 
ATOM     28  C   UNL     1      29.884  -1.963 107.138  1.00  0.00     0.180 A 
ATOM     29  C   UNL     1      32.073  -2.698 107.860  1.00  0.00     0.239 A 
ATOM     30  O   UNL     1      29.342  -2.630 108.150  1.00  0.00    -0.452 OA
ATOM     31  C   UNL     1      31.457  -3.387 108.926  1.00  0.00     0.111 A 
ATOM     32  O   UNL     1      33.326  -2.726 107.737  1.00  0.00    -0.285 OA
ATOM     33  C   UNL     1      30.050  -3.319 109.033  1.00  0.00     0.146 A 
ATOM     34  C   UNL     1      32.184  -4.140 109.883  1.00  0.00     0.134 A 
ATOM     35  C   UNL     1      29.387  -3.980 110.071  1.00  0.00     0.094 A 
ATOM     36  C   UNL     1      31.499  -4.799 110.915  1.00  0.00     0.093 A 
ATOM     37  C   UNL     1      30.109  -4.718 111.015  1.00  0.00     0.123 A 
BRANCH  28  38
ATOM     38  C   UNL     1      28.977  -1.259 106.210  1.00  0.00     0.025 A 
ATOM     39  C   UNL     1      28.819   0.130 106.320  1.00  0.00     0.062 A 
ATOM     40  C   UNL     1      28.305  -1.947 105.191  1.00  0.00     0.016 A 
ATOM     41  C   UNL     1      27.967   0.827 105.456  1.00  0.00     0.158 A 
ATOM     42  C   UNL     1      27.456  -1.262 104.320  1.00  0.00     0.051 A 
ATOM     43  C   UNL     1      27.267   0.120 104.447  1.00  0.00     0.157 A 
BRANCH  41  44
ATOM     44  O   UNL     1      27.850   2.207 105.631  1.00  0.00    -0.504 OA
ATOM     45  H   UNL     1      28.346   2.887 105.073  1.00  0.00     0.293 HD
ENDBRANCH  41  44
BRANCH  43  46
ATOM     46  O   UNL     1      26.392   0.744 103.557  1.00  0.00    -0.504 OA
ATOM     47  H   UNL     1      26.151   1.724 103.597  1.00  0.00     0.293 HD
ENDBRANCH  43  46
ENDBRANCH  28  38
BRANCH  34  48
ATOM     48  O   UNL     1      33.573  -4.242 109.813  1.00  0.00    -0.507 OA
ATOM     49  H   UNL     1      34.174  -3.441 109.964  1.00  0.00     0.293 HD
ENDBRANCH  34  48
BRANCH  37  50
ATOM     50  O   UNL     1      29.456  -5.377 112.055  1.00  0.00    -0.508 OA
ATOM     51  H   UNL     1      29.694  -6.326 112.316  1.00  0.00     0.293 HD
ENDBRANCH  37  50
ENDBRANCH  26  27
ENDBRANCH   5  26
BRANCH   4  52
ATOM     52  O   UNL     1      31.039  -2.782 103.616  1.00  0.00    -0.384 OA
ATOM     53  H   UNL     1      31.261  -3.551 104.205  1.00  0.00     0.211 HD
ENDBRANCH   4  52
TORSDOF 16
ENDMDL
MODEL 6
REMARK VINA RESULT:    -6.357      3.257      7.095
REMARK INTER + INTRA:         -12.569
REMARK INTER:                  -9.855
REMARK INTRA:                  -2.715
REMARK UNBOUND:                -2.124
REMARK SMILES C[C@H]1O[C@@H](OC[C@H]2O[C@@H](Oc3c(-c4ccc(O)c(O)c4)oc4cc(O)cc(O)c4c3=O)[C@@H](O)[C@@H](O)[C@@H]2O)[C@H](O)[C@H](O)[C@@H]1O
REMARK SMILES IDX 7 1 36 2 34 3 32 4 9 5 8 6 6 7 5 8 4 9 1 10 2 11 42 12 3 13
REMARK SMILES IDX 40 14 38 15 43 16 41 18 39 20 37 22 35 24 10 26 11 27 12 28
REMARK SMILES IDX 30 29 21 30 29 31 31 32 22 33 27 34 23 35 26 36 24 37 13 38
REMARK SMILES IDX 20 39 14 40 18 41 15 42 16 43 19 44 17 46 28 48 25 50 33 52
REMARK H PARENT 43 17 41 19 39 21 37 23 35 25 19 45 17 47 28 49 25 51 33 53
REMARK Flexibility Score: inf
ROOT
ATOM      1  C   UNL     1      32.217  -0.886 103.720  1.00  0.00     0.180 C 
ATOM      2  C   UNL     1      32.984  -0.353 102.483  1.00  0.00     0.177 C 
ATOM      3  C   UNL     1      32.116  -0.381 101.207  1.00  0.00     0.180 C 
ATOM      4  C   UNL     1      31.440  -1.751 101.063  1.00  0.00     0.214 C 
ATOM      5  C   UNL     1      30.722  -2.163 102.359  1.00  0.00     0.339 C 
ATOM      6  O   UNL     1      31.592  -2.144 103.485  1.00  0.00    -0.332 OA
ENDROOT
BRANCH   1   7
ATOM      7  C   UNL     1      31.257   0.137 104.371  1.00  0.00     0.198 C 
BRANCH   7   8
ATOM      8  O   UNL     1      31.711   1.459 104.138  1.00  0.00    -0.347 OA
BRANCH   8   9
ATOM      9  C   UNL     1      30.661   2.356 103.806  1.00  0.00     0.281 C 
ATOM     10  C   UNL     1      33.482   3.432 103.191  1.00  0.00     0.041 C 
ATOM     11  C   UNL     1      32.103   4.104 103.042  1.00  0.00     0.150 C 
ATOM     12  C   UNL     1      31.747   5.033 104.223  1.00  0.00     0.174 C 
ATOM     13  O   UNL     1      31.060   3.184 102.722  1.00  0.00    -0.344 OA
ATOM     14  C   UNL     1      31.258   4.226 105.439  1.00  0.00     0.179 C 
ATOM     15  C   UNL     1      30.198   3.186 105.033  1.00  0.00     0.202 C 
BRANCH  12  16
ATOM     16  O   UNL     1      30.760   5.942 103.803  1.00  0.00    -0.388 OA
ATOM     17  H   UNL     1      30.880   6.073 102.826  1.00  0.00     0.211 HD
ENDBRANCH  12  16
BRANCH  14  18
ATOM     18  O   UNL     1      30.747   5.097 106.418  1.00  0.00    -0.387 OA
ATOM     19  H   UNL     1      30.143   4.558 106.996  1.00  0.00     0.211 HD
ENDBRANCH  14  18
BRANCH  15  20
ATOM     20  O   UNL     1      28.948   3.790 104.802  1.00  0.00    -0.385 OA
ATOM     21  H   UNL     1      28.793   4.475 105.502  1.00  0.00     0.211 HD
ENDBRANCH  15  20
ENDBRANCH   8   9
ENDBRANCH   7   8
ENDBRANCH   1   7
BRANCH   2  22
ATOM     22  O   UNL     1      34.125  -1.152 102.289  1.00  0.00    -0.387 OA
ATOM     23  H   UNL     1      34.913  -0.547 102.316  1.00  0.00     0.211 HD
ENDBRANCH   2  22
BRANCH   3  24
ATOM     24  O   UNL     1      31.149   0.636 101.222  1.00  0.00    -0.387 OA
ATOM     25  H   UNL     1      31.577   1.448 100.849  1.00  0.00     0.211 HD
ENDBRANCH   3  24
BRANCH   5  26
ATOM     26  O   UNL     1      29.545  -1.374 102.576  1.00  0.00    -0.454 OA
BRANCH  26  27
ATOM     27  C   UNL     1      28.209  -1.797 102.393  1.00  0.00     0.214 A 
ATOM     28  C   UNL     1      27.625  -2.624 103.372  1.00  0.00     0.180 A 
ATOM     29  C   UNL     1      27.413  -1.416 101.287  1.00  0.00     0.239 A 
ATOM     30  O   UNL     1      26.361  -3.015 103.258  1.00  0.00    -0.452 OA
ATOM     31  C   UNL     1      26.077  -1.859 101.200  1.00  0.00     0.111 A 
ATOM     32  O   UNL     1      27.894  -0.691 100.376  1.00  0.00    -0.285 OA
ATOM     33  C   UNL     1      25.583  -2.680 102.237  1.00  0.00     0.146 A 
ATOM     34  C   UNL     1      25.216  -1.514 100.127  1.00  0.00     0.134 A 
ATOM     35  C   UNL     1      24.267  -3.152 102.201  1.00  0.00     0.094 A 
ATOM     36  C   UNL     1      23.898  -1.994 100.112  1.00  0.00     0.093 A 
ATOM     37  C   UNL     1      23.424  -2.811 101.139  1.00  0.00     0.123 A 
BRANCH  28  38
ATOM     38  C   UNL     1      28.371  -3.045 104.575  1.00  0.00     0.025 A 
ATOM     39  C   UNL     1      28.566  -2.131 105.621  1.00  0.00     0.062 A 
ATOM     40  C   UNL     1      28.846  -4.356 104.711  1.00  0.00     0.016 A 
ATOM     41  C   UNL     1      29.268  -2.500 106.774  1.00  0.00     0.158 A 
ATOM     42  C   UNL     1      29.544  -4.736 105.859  1.00  0.00     0.051 A 
ATOM     43  C   UNL     1      29.773  -3.818 106.891  1.00  0.00     0.157 A 
BRANCH  41  44
ATOM     44  O   UNL     1      29.434  -1.536 107.770  1.00  0.00    -0.504 OA
ATOM     45  H   UNL     1      29.253  -1.703 108.749  1.00  0.00     0.293 HD
ENDBRANCH  41  44
BRANCH  43  46
ATOM     46  O   UNL     1      30.492  -4.255 108.006  1.00  0.00    -0.504 OA
ATOM     47  H   UNL     1      31.250  -3.736 108.426  1.00  0.00     0.293 HD
ENDBRANCH  43  46
ENDBRANCH  28  38
BRANCH  34  48
ATOM     48  O   UNL     1      25.658  -0.699  99.085  1.00  0.00    -0.507 OA
ATOM     49  H   UNL     1      25.854   0.284  99.224  1.00  0.00     0.293 HD
ENDBRANCH  34  48
BRANCH  37  50
ATOM     50  O   UNL     1      22.111  -3.279 101.094  1.00  0.00    -0.508 OA
ATOM     51  H   UNL     1      21.870  -4.217 101.391  1.00  0.00     0.293 HD
ENDBRANCH  37  50
ENDBRANCH  26  27
ENDBRANCH   5  26
BRANCH   4  52
ATOM     52  O   UNL     1      30.522  -1.740  99.999  1.00  0.00    -0.384 OA
ATOM     53  H   UNL     1      29.743  -1.204 100.299  1.00  0.00     0.211 HD
ENDBRANCH   4  52
TORSDOF 16
ENDMDL
MODEL 7
REMARK VINA RESULT:    -6.290      3.268      7.954
REMARK INTER + INTRA:         -12.458
REMARK INTER:                  -9.850
REMARK INTRA:                  -2.609
REMARK UNBOUND:                -2.124
REMARK SMILES C[C@H]1O[C@@H](OC[C@H]2O[C@@H](Oc3c(-c4ccc(O)c(O)c4)oc4cc(O)cc(O)c4c3=O)[C@@H](O)[C@@H](O)[C@@H]2O)[C@H](O)[C@H](O)[C@@H]1O
REMARK SMILES IDX 7 1 36 2 34 3 32 4 9 5 8 6 6 7 5 8 4 9 1 10 2 11 42 12 3 13
REMARK SMILES IDX 40 14 38 15 43 16 41 18 39 20 37 22 35 24 10 26 11 27 12 28
REMARK SMILES IDX 30 29 21 30 29 31 31 32 22 33 27 34 23 35 26 36 24 37 13 38
REMARK SMILES IDX 20 39 14 40 18 41 15 42 16 43 19 44 17 46 28 48 25 50 33 52
REMARK H PARENT 43 17 41 19 39 21 37 23 35 25 19 45 17 47 28 49 25 51 33 53
REMARK Flexibility Score: inf
ROOT
ATOM      1  C   UNL     1      29.202  -3.225 103.265  1.00  0.00     0.180 C 
ATOM      2  C   UNL     1      28.262  -3.392 104.487  1.00  0.00     0.177 C 
ATOM      3  C   UNL     1      28.353  -2.193 105.454  1.00  0.00     0.180 C 
ATOM      4  C   UNL     1      29.823  -1.870 105.753  1.00  0.00     0.214 C 
ATOM      5  C   UNL     1      30.643  -1.737 104.459  1.00  0.00     0.339 C 
ATOM      6  O   UNL     1      30.536  -2.892 103.633  1.00  0.00    -0.332 OA
ENDROOT
BRANCH   1   7
ATOM      7  C   UNL     1      28.651  -2.305 102.151  1.00  0.00     0.198 C 
BRANCH   7   8
ATOM      8  O   UNL     1      27.236  -2.246 102.212  1.00  0.00    -0.347 OA
BRANCH   8   9
ATOM      9  C   UNL     1      26.692  -1.167 101.466  1.00  0.00     0.281 C 
ATOM     10  C   UNL     1      24.876  -2.167 103.745  1.00  0.00     0.041 C 
ATOM     11  C   UNL     1      24.635  -1.078 102.681  1.00  0.00     0.150 C 
ATOM     12  C   UNL     1      23.802  -1.574 101.479  1.00  0.00     0.174 C 
ATOM     13  O   UNL     1      25.828  -0.399 102.291  1.00  0.00    -0.344 OA
ATOM     14  C   UNL     1      24.667  -2.385 100.498  1.00  0.00     0.179 C 
ATOM     15  C   UNL     1      25.983  -1.655 100.174  1.00  0.00     0.202 C 
BRANCH  12  16
ATOM     16  O   UNL     1      23.232  -0.462 100.833  1.00  0.00    -0.388 OA
ATOM     17  H   UNL     1      22.305  -0.368 101.178  1.00  0.00     0.211 HD
ENDBRANCH  12  16
BRANCH  14  18
ATOM     18  O   UNL     1      23.942  -2.645  99.322  1.00  0.00    -0.387 OA
ATOM     19  H   UNL     1      24.441  -2.216  98.575  1.00  0.00     0.211 HD
ENDBRANCH  14  18
BRANCH  15  20
ATOM     20  O   UNL     1      25.773  -0.595  99.272  1.00  0.00    -0.385 OA
ATOM     21  H   UNL     1      26.161  -0.844  98.395  1.00  0.00     0.211 HD
ENDBRANCH  15  20
ENDBRANCH   8   9
ENDBRANCH   7   8
ENDBRANCH   1   7
BRANCH   2  22
ATOM     22  O   UNL     1      28.621  -4.569 105.166  1.00  0.00    -0.387 OA
ATOM     23  H   UNL     1      29.322  -4.322 105.827  1.00  0.00     0.211 HD
ENDBRANCH   2  22
BRANCH   3  24
ATOM     24  O   UNL     1      27.706  -1.062 104.932  1.00  0.00    -0.387 OA
ATOM     25  H   UNL     1      28.339  -0.303 105.014  1.00  0.00     0.211 HD
ENDBRANCH   3  24
BRANCH   5  26
ATOM     26  O   UNL     1      30.309  -0.537 103.750  1.00  0.00    -0.454 OA
BRANCH  26  27
ATOM     27  C   UNL     1      31.084   0.643 103.692  1.00  0.00     0.214 A 
ATOM     28  C   UNL     1      32.207   0.668 102.841  1.00  0.00     0.180 A 
ATOM     29  C   UNL     1      30.782   1.815 104.425  1.00  0.00     0.239 A 
ATOM     30  O   UNL     1      32.942   1.768 102.728  1.00  0.00    -0.452 OA
ATOM     31  C   UNL     1      31.593   2.960 104.280  1.00  0.00     0.111 A 
ATOM     32  O   UNL     1      29.798   1.838 105.211  1.00  0.00    -0.285 OA
ATOM     33  C   UNL     1      32.692   2.885 103.397  1.00  0.00     0.146 A 
ATOM     34  C   UNL     1      31.350   4.172 104.975  1.00  0.00     0.134 A 
ATOM     35  C   UNL     1      33.532   3.989 103.218  1.00  0.00     0.094 A 
ATOM     36  C   UNL     1      32.202   5.269 104.778  1.00  0.00     0.093 A 
ATOM     37  C   UNL     1      33.290   5.180 103.909  1.00  0.00     0.123 A 
BRANCH  28  38
ATOM     38  C   UNL     1      32.579  -0.498 102.015  1.00  0.00     0.025 A 
ATOM     39  C   UNL     1      31.876  -0.756 100.830  1.00  0.00     0.062 A 
ATOM     40  C   UNL     1      33.653  -1.324 102.370  1.00  0.00     0.016 A 
ATOM     41  C   UNL     1      32.204  -1.853 100.025  1.00  0.00     0.158 A 
ATOM     42  C   UNL     1      33.993  -2.418 101.572  1.00  0.00     0.051 A 
ATOM     43  C   UNL     1      33.272  -2.702 100.406  1.00  0.00     0.157 A 
BRANCH  41  44
ATOM     44  O   UNL     1      31.454  -2.056  98.865  1.00  0.00    -0.504 OA
ATOM     45  H   UNL     1      31.748  -1.755  97.947  1.00  0.00     0.293 HD
ENDBRANCH  41  44
BRANCH  43  46
ATOM     46  O   UNL     1      33.650  -3.820  99.660  1.00  0.00    -0.504 OA
ATOM     47  H   UNL     1      34.462  -4.386  99.864  1.00  0.00     0.293 HD
ENDBRANCH  43  46
ENDBRANCH  28  38
BRANCH  34  48
ATOM     48  O   UNL     1      30.272   4.294 105.852  1.00  0.00    -0.507 OA
ATOM     49  H   UNL     1      30.387   4.209 106.854  1.00  0.00     0.293 HD
ENDBRANCH  34  48
BRANCH  37  50
ATOM     50  O   UNL     1      34.124   6.284 103.738  1.00  0.00    -0.508 OA
ATOM     51  H   UNL     1      33.842   7.214 104.025  1.00  0.00     0.293 HD
ENDBRANCH  37  50
ENDBRANCH  26  27
ENDBRANCH   5  26
BRANCH   4  52
ATOM     52  O   UNL     1      29.928  -0.685 106.501  1.00  0.00    -0.384 OA
ATOM     53  H   UNL     1      29.707  -0.920 107.440  1.00  0.00     0.211 HD
ENDBRANCH   4  52
TORSDOF 16
ENDMDL
MODEL 8
REMARK VINA RESULT:    -6.141      4.192      7.397
REMARK INTER + INTRA:         -12.214
REMARK INTER:                  -9.695
REMARK INTRA:                  -2.519
REMARK UNBOUND:                -2.124
REMARK SMILES C[C@H]1O[C@@H](OC[C@H]2O[C@@H](Oc3c(-c4ccc(O)c(O)c4)oc4cc(O)cc(O)c4c3=O)[C@@H](O)[C@@H](O)[C@@H]2O)[C@H](O)[C@H](O)[C@@H]1O
REMARK SMILES IDX 7 1 36 2 34 3 32 4 9 5 8 6 6 7 5 8 4 9 1 10 2 11 42 12 3 13
REMARK SMILES IDX 40 14 38 15 43 16 41 18 39 20 37 22 35 24 10 26 11 27 12 28
REMARK SMILES IDX 30 29 21 30 29 31 31 32 22 33 27 34 23 35 26 36 24 37 13 38
REMARK SMILES IDX 20 39 14 40 18 41 15 42 16 43 19 44 17 46 28 48 25 50 33 52
REMARK H PARENT 43 17 41 19 39 21 37 23 35 25 19 45 17 47 28 49 25 51 33 53
REMARK Flexibility Score: inf
ROOT
ATOM      1  C   UNL     1      30.963  -1.407 102.621  1.00  0.00     0.180 C 
ATOM      2  C   UNL     1      31.866  -2.565 102.124  1.00  0.00     0.177 C 
ATOM      3  C   UNL     1      31.042  -3.732 101.540  1.00  0.00     0.180 C 
ATOM      4  C   UNL     1      29.908  -4.106 102.505  1.00  0.00     0.214 C 
ATOM      5  C   UNL     1      29.096  -2.869 102.924  1.00  0.00     0.339 C 
ATOM      6  O   UNL     1      29.918  -1.849 103.480  1.00  0.00    -0.332 OA
ENDROOT
BRANCH   1   7
ATOM      7  C   UNL     1      30.451  -0.467 101.506  1.00  0.00     0.198 C 
BRANCH   7   8
ATOM      8  O   UNL     1      30.919   0.854 101.717  1.00  0.00    -0.347 OA
BRANCH   8   9
ATOM      9  C   UNL     1      32.268   1.037 101.312  1.00  0.00     0.281 C 
ATOM     10  C   UNL     1      31.197   3.252 103.167  1.00  0.00     0.041 C 
ATOM     11  C   UNL     1      32.562   3.111 102.466  1.00  0.00     0.150 C 
ATOM     12  C   UNL     1      32.663   3.924 101.157  1.00  0.00     0.174 C 
ATOM     13  O   UNL     1      32.978   1.754 102.312  1.00  0.00    -0.344 OA
ATOM     14  C   UNL     1      31.956   3.203  99.996  1.00  0.00     0.179 C 
ATOM     15  C   UNL     1      32.367   1.721  99.923  1.00  0.00     0.202 C 
BRANCH  12  16
ATOM     16  O   UNL     1      34.021   4.134 100.857  1.00  0.00    -0.388 OA
ATOM     17  H   UNL     1      34.446   4.505 101.674  1.00  0.00     0.211 HD
ENDBRANCH  12  16
BRANCH  14  18
ATOM     18  O   UNL     1      32.239   3.856  98.784  1.00  0.00    -0.387 OA
ATOM     19  H   UNL     1      32.892   4.577  98.990  1.00  0.00     0.211 HD
ENDBRANCH  14  18
BRANCH  15  20
ATOM     20  O   UNL     1      33.653   1.573  99.368  1.00  0.00    -0.385 OA
ATOM     21  H   UNL     1      33.913   2.428  98.939  1.00  0.00     0.211 HD
ENDBRANCH  15  20
ENDBRANCH   8   9
ENDBRANCH   7   8
ENDBRANCH   1   7
BRANCH   2  22
ATOM     22  O   UNL     1      32.631  -3.029 103.208  1.00  0.00    -0.387 OA
ATOM     23  H   UNL     1      32.862  -2.238 103.763  1.00  0.00     0.211 HD
ENDBRANCH   2  22
BRANCH   3  24
ATOM     24  O   UNL     1      30.518  -3.410 100.279  1.00  0.00    -0.387 OA
ATOM     25  H   UNL     1      30.540  -2.423 100.200  1.00  0.00     0.211 HD
ENDBRANCH   3  24
BRANCH   5  26
ATOM     26  O   UNL     1      28.293  -2.381 101.841  1.00  0.00    -0.454 OA
BRANCH  26  27
ATOM     27  C   UNL     1      26.886  -2.461 101.741  1.00  0.00     0.214 A 
ATOM     28  C   UNL     1      26.108  -1.509 102.429  1.00  0.00     0.180 A 
ATOM     29  C   UNL     1      26.211  -3.434 100.967  1.00  0.00     0.239 A 
ATOM     30  O   UNL     1      24.783  -1.525 102.333  1.00  0.00    -0.452 OA
ATOM     31  C   UNL     1      24.802  -3.420 100.897  1.00  0.00     0.111 A 
ATOM     32  O   UNL     1      26.861  -4.317 100.346  1.00  0.00    -0.285 OA
ATOM     33  C   UNL     1      24.114  -2.420 101.619  1.00  0.00     0.146 A 
ATOM     34  C   UNL     1      24.056  -4.357 100.138  1.00  0.00     0.134 A 
ATOM     35  C   UNL     1      22.717  -2.361 101.590  1.00  0.00     0.094 A 
ATOM     36  C   UNL     1      22.656  -4.277 100.118  1.00  0.00     0.093 A 
ATOM     37  C   UNL     1      21.986  -3.289 100.842  1.00  0.00     0.123 A 
BRANCH  28  38
ATOM     38  C   UNL     1      26.728  -0.439 103.235  1.00  0.00     0.025 A 
ATOM     39  C   UNL     1      26.839  -0.597 104.624  1.00  0.00     0.062 A 
ATOM     40  C   UNL     1      27.250   0.713 102.632  1.00  0.00     0.016 A 
ATOM     41  C   UNL     1      27.422   0.399 105.415  1.00  0.00     0.158 A 
ATOM     42  C   UNL     1      27.839   1.711 103.411  1.00  0.00     0.051 A 
ATOM     43  C   UNL     1      27.920   1.574 104.802  1.00  0.00     0.157 A 
BRANCH  41  44
ATOM     44  O   UNL     1      27.489   0.178 106.792  1.00  0.00    -0.504 OA
ATOM     45  H   UNL     1      27.313   0.892 107.485  1.00  0.00     0.293 HD
ENDBRANCH  41  44
BRANCH  43  46
ATOM     46  O   UNL     1      28.504   2.614 105.527  1.00  0.00    -0.504 OA
ATOM     47  H   UNL     1      28.525   2.656 106.536  1.00  0.00     0.293 HD
ENDBRANCH  43  46
ENDBRANCH  28  38
BRANCH  34  48
ATOM     48  O   UNL     1      24.693  -5.357  99.403  1.00  0.00    -0.507 OA
ATOM     49  H   UNL     1      24.369  -6.316  99.416  1.00  0.00     0.293 HD
ENDBRANCH  34  48
BRANCH  37  50
ATOM     50  O   UNL     1      20.594  -3.239 100.809  1.00  0.00    -0.508 OA
ATOM     51  H   UNL     1      20.034  -3.475 101.619  1.00  0.00     0.293 HD
ENDBRANCH  37  50
ENDBRANCH  26  27
ENDBRANCH   5  26
BRANCH   4  52
ATOM     52  O   UNL     1      29.053  -5.055 101.918  1.00  0.00    -0.384 OA
ATOM     53  H   UNL     1      28.896  -4.759 100.984  1.00  0.00     0.211 HD
ENDBRANCH   4  52
TORSDOF 16
ENDMDL
MODEL 9
REMARK VINA RESULT:    -6.112      4.723      9.742
REMARK INTER + INTRA:         -12.165
REMARK INTER:                  -9.726
REMARK INTRA:                  -2.439
REMARK UNBOUND:                -2.124
REMARK SMILES C[C@H]1O[C@@H](OC[C@H]2O[C@@H](Oc3c(-c4ccc(O)c(O)c4)oc4cc(O)cc(O)c4c3=O)[C@@H](O)[C@@H](O)[C@@H]2O)[C@H](O)[C@H](O)[C@@H]1O
REMARK SMILES IDX 7 1 36 2 34 3 32 4 9 5 8 6 6 7 5 8 4 9 1 10 2 11 42 12 3 13
REMARK SMILES IDX 40 14 38 15 43 16 41 18 39 20 37 22 35 24 10 26 11 27 12 28
REMARK SMILES IDX 30 29 21 30 29 31 31 32 22 33 27 34 23 35 26 36 24 37 13 38
REMARK SMILES IDX 20 39 14 40 18 41 15 42 16 43 19 44 17 46 28 48 25 50 33 52
REMARK H PARENT 43 17 41 19 39 21 37 23 35 25 19 45 17 47 28 49 25 51 33 53
REMARK Flexibility Score: inf
ROOT
ATOM      1  C   UNL     1      27.625  -4.343 102.722  1.00  0.00     0.180 C 
ATOM      2  C   UNL     1      28.623  -5.358 103.334  1.00  0.00     0.177 C 
ATOM      3  C   UNL     1      29.762  -4.657 104.105  1.00  0.00     0.180 C 
ATOM      4  C   UNL     1      30.359  -3.532 103.249  1.00  0.00     0.214 C 
ATOM      5  C   UNL     1      29.264  -2.602 102.700  1.00  0.00     0.339 C 
ATOM      6  O   UNL     1      28.268  -3.315 101.975  1.00  0.00    -0.332 OA
ENDROOT
BRANCH   1   7
ATOM      7  C   UNL     1      26.584  -3.784 103.719  1.00  0.00     0.198 C 
BRANCH   7   8
ATOM      8  O   UNL     1      25.734  -4.819 104.181  1.00  0.00    -0.347 OA
BRANCH   8   9
ATOM      9  C   UNL     1      24.356  -4.534 103.992  1.00  0.00     0.281 C 
ATOM     10  C   UNL     1      24.901  -7.073 105.648  1.00  0.00     0.041 C 
ATOM     11  C   UNL     1      23.570  -6.460 105.171  1.00  0.00     0.150 C 
ATOM     12  C   UNL     1      23.017  -7.125 103.892  1.00  0.00     0.174 C 
ATOM     13  O   UNL     1      23.605  -5.036 105.089  1.00  0.00    -0.344 OA
ATOM     14  C   UNL     1      23.743  -6.609 102.636  1.00  0.00     0.179 C 
ATOM     15  C   UNL     1      23.834  -5.072 102.633  1.00  0.00     0.202 C 
BRANCH  12  16
ATOM     16  O   UNL     1      21.637  -6.867 103.807  1.00  0.00    -0.388 OA
ATOM     17  H   UNL     1      21.504  -6.233 103.055  1.00  0.00     0.211 HD
ENDBRANCH  12  16
BRANCH  14  18
ATOM     18  O   UNL     1      23.086  -7.068 101.481  1.00  0.00    -0.387 OA
ATOM     19  H   UNL     1      23.684  -6.868 100.711  1.00  0.00     0.211 HD
ENDBRANCH  14  18
BRANCH  15  20
ATOM     20  O   UNL     1      22.602  -4.486 102.288  1.00  0.00    -0.385 OA
ATOM     21  H   UNL     1      22.537  -3.601 102.730  1.00  0.00     0.211 HD
ENDBRANCH  15  20
ENDBRANCH   8   9
ENDBRANCH   7   8
ENDBRANCH   1   7
BRANCH   2  22
ATOM     22  O   UNL     1      29.170  -6.128 102.293  1.00  0.00    -0.387 OA
ATOM     23  H   UNL     1      30.056  -6.452 102.604  1.00  0.00     0.211 HD
ENDBRANCH   2  22
BRANCH   3  24
ATOM     24  O   UNL     1      29.312  -4.144 105.332  1.00  0.00    -0.387 OA
ATOM     25  H   UNL     1      29.664  -4.740 106.041  1.00  0.00     0.211 HD
ENDBRANCH   3  24
BRANCH   5  26
ATOM     26  O   UNL     1      28.698  -1.793 103.738  1.00  0.00    -0.454 OA
BRANCH  26  27
ATOM     27  C   UNL     1      28.828  -0.392 103.872  1.00  0.00     0.214 A 
ATOM     28  C   UNL     1      27.889   0.436 103.224  1.00  0.00     0.180 A 
ATOM     29  C   UNL     1      29.840   0.229 104.641  1.00  0.00     0.239 A 
ATOM     30  O   UNL     1      27.953   1.756 103.353  1.00  0.00    -0.452 OA
ATOM     31  C   UNL     1      29.875   1.636 104.746  1.00  0.00     0.111 A 
ATOM     32  O   UNL     1      30.712  -0.466 105.227  1.00  0.00    -0.285 OA
ATOM     33  C   UNL     1      28.885   2.375 104.064  1.00  0.00     0.146 A 
ATOM     34  C   UNL     1      30.853   2.330 105.504  1.00  0.00     0.134 A 
ATOM     35  C   UNL     1      28.874   3.772 104.130  1.00  0.00     0.094 A 
ATOM     36  C   UNL     1      30.822   3.731 105.560  1.00  0.00     0.093 A 
ATOM     37  C   UNL     1      29.843   4.452 104.875  1.00  0.00     0.123 A 
BRANCH  28  38
ATOM     38  C   UNL     1      26.782  -0.127 102.426  1.00  0.00     0.025 A 
ATOM     39  C   UNL     1      26.923  -0.244 101.037  1.00  0.00     0.062 A 
ATOM     40  C   UNL     1      25.609  -0.590 103.039  1.00  0.00     0.016 A 
ATOM     41  C   UNL     1      25.892  -0.774 100.252  1.00  0.00     0.158 A 
ATOM     42  C   UNL     1      24.576  -1.124 102.267  1.00  0.00     0.051 A 
ATOM     43  C   UNL     1      24.697  -1.211 100.875  1.00  0.00     0.157 A 
BRANCH  41  44
ATOM     44  O   UNL     1      26.097  -0.850  98.874  1.00  0.00    -0.504 OA
ATOM     45  H   UNL     1      25.350  -0.872  98.195  1.00  0.00     0.293 HD
ENDBRANCH  41  44
BRANCH  43  46
ATOM     46  O   UNL     1      23.622  -1.740 100.157  1.00  0.00    -0.504 OA
ATOM     47  H   UNL     1      22.667  -1.426 100.260  1.00  0.00     0.293 HD
ENDBRANCH  43  46
ENDBRANCH  28  38
BRANCH  34  48
ATOM     48  O   UNL     1      31.845   1.641 106.200  1.00  0.00    -0.507 OA
ATOM     49  H   UNL     1      32.480   1.005 105.733  1.00  0.00     0.293 HD
ENDBRANCH  34  48
BRANCH  37  50
ATOM     50  O   UNL     1      29.840   5.844 104.944  1.00  0.00    -0.508 OA
ATOM     51  H   UNL     1      28.978   6.376 104.937  1.00  0.00     0.293 HD
ENDBRANCH  37  50
ENDBRANCH  26  27
ENDBRANCH   5  26
BRANCH   4  52
ATOM     52  O   UNL     1      31.284  -2.781 103.995  1.00  0.00    -0.384 OA
ATOM     53  H   UNL     1      30.932  -1.854 104.037  1.00  0.00     0.211 HD
ENDBRANCH   4  52
TORSDOF 16
ENDMDL
