MODEL 1
REMARK VINA RESULT:    -3.852      0.000      0.000
REMARK INTER + INTRA:          -6.011
REMARK INTER:                  -5.654
REMARK INTRA:                  -0.357
REMARK UNBOUND:                -0.357
REMARK SMILES O=C([O-])CCCCCCCC(=O)[O-]
REMARK SMILES IDX 7 1 6 2 5 3 4 4 2 5 1 6 3 7 8 8 9 9 10 10 11 11 12 12 13 13
REMARK H PARENT
REMARK Flexibility Score: inf
ROOT
ATOM      1  C   UNL     1     -22.085  22.233  39.530  1.00  0.00     0.000 C 
ENDROOT
BRANCH   1   2
ATOM      2  C   UNL     1     -22.009  22.157  41.062  1.00  0.00     0.000 C 
BRANCH   2   3
ATOM      3  C   UNL     1     -20.918  21.177  41.509  1.00  0.00     0.006 C 
BRANCH   3   4
ATOM      4  C   UNL     1     -19.529  21.672  41.096  1.00  0.00     0.053 C 
BRANCH   4   5
ATOM      5  C   UNL     1     -18.468  20.764  41.631  1.00  0.00     0.041 C 
ATOM      6  O   UNL     1     -18.772  19.622  42.066  1.00  0.00    -0.550 OA
ATOM      7  O   UNL     1     -17.136  21.159  41.604  1.00  0.00    -0.550 OA
ENDBRANCH   4   5
ENDBRANCH   3   4
ENDBRANCH   2   3
ENDBRANCH   1   2
BRANCH   1   8
ATOM      8  C   UNL     1     -23.274  21.448  38.955  1.00  0.00     0.000 C 
BRANCH   8   9
ATOM      9  C   UNL     1     -23.028  20.973  37.512  1.00  0.00     0.006 C 
BRANCH   9  10
ATOM     10  C   UNL     1     -21.844  21.698  36.858  1.00  0.00     0.053 C 
BRANCH  10  11
ATOM     11  C   UNL     1     -22.050  21.889  35.386  1.00  0.00     0.041 C 
ATOM     12  O   UNL     1     -23.212  21.860  34.902  1.00  0.00    -0.550 OA
ATOM     13  O   UNL     1     -20.963  22.126  34.555  1.00  0.00    -0.550 OA
ENDBRANCH  10  11
ENDBRANCH   9  10
ENDBRANCH   8   9
ENDBRANCH   1   8
TORSDOF 8
ENDMDL
MODEL 2
REMARK VINA RESULT:    -3.753     16.547     19.532
REMARK INTER + INTRA:          -5.865
REMARK INTER:                  -5.466
REMARK INTRA:                  -0.399
REMARK UNBOUND:                -0.357
REMARK SMILES O=C([O-])CCCCCCCC(=O)[O-]
REMARK SMILES IDX 7 1 6 2 5 3 4 4 2 5 1 6 3 7 8 8 9 9 10 10 11 11 12 12 13 13
REMARK H PARENT
REMARK Flexibility Score: inf
ROOT
ATOM      1  C   UNL     1      -7.954  30.587  46.890  1.00  0.00     0.000 C 
ENDROOT
BRANCH   1   2
ATOM      2  C   UNL     1      -8.454  29.682  45.755  1.00  0.00     0.000 C 
BRANCH   2   3
ATOM      3  C   UNL     1      -7.304  28.863  45.158  1.00  0.00     0.006 C 
BRANCH   3   4
ATOM      4  C   UNL     1      -7.550  27.361  45.329  1.00  0.00     0.053 C 
BRANCH   4   5
ATOM      5  C   UNL     1      -6.259  26.642  45.561  1.00  0.00     0.041 C 
ATOM      6  O   UNL     1      -5.938  25.666  44.833  1.00  0.00    -0.550 OA
ATOM      7  O   UNL     1      -5.387  27.078  46.551  1.00  0.00    -0.550 OA
ENDBRANCH   4   5
ENDBRANCH   3   4
ENDBRANCH   2   3
ENDBRANCH   1   2
BRANCH   1   8
ATOM      8  C   UNL     1      -6.491  30.310  47.269  1.00  0.00     0.000 C 
BRANCH   8   9
ATOM      9  C   UNL     1      -5.637  31.590  47.310  1.00  0.00     0.006 C 
BRANCH   9  10
ATOM     10  C   UNL     1      -6.363  32.749  48.006  1.00  0.00     0.053 C 
BRANCH  10  11
ATOM     11  C   UNL     1      -5.471  33.468  48.970  1.00  0.00     0.041 C 
ATOM     12  O   UNL     1      -4.321  33.836  48.613  1.00  0.00    -0.550 OA
ATOM     13  O   UNL     1      -5.919  33.757  50.253  1.00  0.00    -0.550 OA
ENDBRANCH  10  11
ENDBRANCH   9  10
ENDBRANCH   8   9
ENDBRANCH   1   8
TORSDOF 8
ENDMDL
MODEL 3
REMARK VINA RESULT:    -3.723     16.807     19.237
REMARK INTER + INTRA:          -5.822
REMARK INTER:                  -5.470
REMARK INTRA:                  -0.352
REMARK UNBOUND:                -0.357
REMARK SMILES O=C([O-])CCCCCCCC(=O)[O-]
REMARK SMILES IDX 7 1 6 2 5 3 4 4 2 5 1 6 3 7 8 8 9 9 10 10 11 11 12 12 13 13
REMARK H PARENT
REMARK Flexibility Score: inf
ROOT
ATOM      1  C   UNL     1      -8.141  30.280  46.633  1.00  0.00     0.000 C 
ENDROOT
BRANCH   1   2
ATOM      2  C   UNL     1      -7.398  31.610  46.436  1.00  0.00     0.000 C 
BRANCH   2   3
ATOM      3  C   UNL     1      -6.408  31.861  47.579  1.00  0.00     0.006 C 
BRANCH   3   4
ATOM      4  C   UNL     1      -6.598  33.259  48.176  1.00  0.00     0.053 C 
BRANCH   4   5
ATOM      5  C   UNL     1      -5.467  33.594  49.096  1.00  0.00     0.041 C 
ATOM      6  O   UNL     1      -5.661  33.662  50.339  1.00  0.00    -0.550 OA
ATOM      7  O   UNL     1      -4.189  33.785  48.587  1.00  0.00    -0.550 OA
ENDBRANCH   4   5
ENDBRANCH   3   4
ENDBRANCH   2   3
ENDBRANCH   1   2
BRANCH   1   8
ATOM      8  C   UNL     1      -8.506  29.602  45.303  1.00  0.00     0.000 C 
BRANCH   8   9
ATOM      9  C   UNL     1      -7.406  28.651  44.801  1.00  0.00     0.006 C 
BRANCH   9  10
ATOM     10  C   UNL     1      -7.493  27.266  45.458  1.00  0.00     0.053 C 
BRANCH  10  11
ATOM     11  C   UNL     1      -6.256  26.939  46.236  1.00  0.00     0.041 C 
ATOM     12  O   UNL     1      -5.941  25.738  46.448  1.00  0.00    -0.550 OA
ATOM     13  O   UNL     1      -5.435  27.958  46.702  1.00  0.00    -0.550 OA
ENDBRANCH  10  11
ENDBRANCH   9  10
ENDBRANCH   8   9
ENDBRANCH   1   8
TORSDOF 8
ENDMDL
MODEL 4
REMARK VINA RESULT:    -3.722      1.777      2.813
REMARK INTER + INTRA:          -5.820
REMARK INTER:                  -5.496
REMARK INTRA:                  -0.324
REMARK UNBOUND:                -0.357
REMARK SMILES O=C([O-])CCCCCCCC(=O)[O-]
REMARK SMILES IDX 7 1 6 2 5 3 4 4 2 5 1 6 3 7 8 8 9 9 10 10 11 11 12 12 13 13
REMARK H PARENT
REMARK Flexibility Score: inf
ROOT
ATOM      1  C   UNL     1     -22.717  21.095  37.441  1.00  0.00     0.000 C 
ENDROOT
BRANCH   1   2
ATOM      2  C   UNL     1     -21.808  21.893  38.389  1.00  0.00     0.000 C 
BRANCH   2   3
ATOM      3  C   UNL     1     -22.304  21.794  39.836  1.00  0.00     0.006 C 
BRANCH   3   4
ATOM      4  C   UNL     1     -21.336  22.487  40.799  1.00  0.00     0.053 C 
BRANCH   4   5
ATOM      5  C   UNL     1     -20.191  21.584  41.133  1.00  0.00     0.041 C 
ATOM      6  O   UNL     1     -19.011  21.934  40.871  1.00  0.00    -0.550 OA
ATOM      7  O   UNL     1     -20.424  20.375  41.777  1.00  0.00    -0.550 OA
ENDBRANCH   4   5
ENDBRANCH   3   4
ENDBRANCH   2   3
ENDBRANCH   1   2
BRANCH   1   8
ATOM      8  C   UNL     1     -22.285  21.209  35.971  1.00  0.00     0.000 C 
BRANCH   8   9
ATOM      9  C   UNL     1     -21.271  22.343  35.737  1.00  0.00     0.006 C 
BRANCH   9  10
ATOM     10  C   UNL     1     -20.292  22.019  34.601  1.00  0.00     0.053 C 
BRANCH  10  11
ATOM     11  C   UNL     1     -20.007  23.219  33.750  1.00  0.00     0.041 C 
ATOM     12  O   UNL     1     -20.034  24.372  34.256  1.00  0.00    -0.550 OA
ATOM     13  O   UNL     1     -19.684  23.063  32.409  1.00  0.00    -0.550 OA
ENDBRANCH  10  11
ENDBRANCH   9  10
ENDBRANCH   8   9
ENDBRANCH   1   8
TORSDOF 8
ENDMDL
MODEL 5
REMARK VINA RESULT:    -3.719      3.452      6.768
REMARK INTER + INTRA:          -5.815
REMARK INTER:                  -5.552
REMARK INTRA:                  -0.263
REMARK UNBOUND:                -0.357
REMARK SMILES O=C([O-])CCCCCCCC(=O)[O-]
REMARK SMILES IDX 7 1 6 2 5 3 4 4 2 5 1 6 3 7 8 8 9 9 10 10 11 11 12 12 13 13
REMARK H PARENT
REMARK Flexibility Score: inf
ROOT
ATOM      1  C   UNL     1     -18.072  20.329  42.567  1.00  0.00     0.000 C 
ENDROOT
BRANCH   1   2
ATOM      2  C   UNL     1     -19.340  20.237  41.705  1.00  0.00     0.000 C 
BRANCH   2   3
ATOM      3  C   UNL     1     -19.761  21.621  41.199  1.00  0.00     0.006 C 
BRANCH   3   4
ATOM      4  C   UNL     1     -21.179  21.589  40.621  1.00  0.00     0.053 C 
BRANCH   4   5
ATOM      5  C   UNL     1     -21.214  22.247  39.278  1.00  0.00     0.041 C 
ATOM      6  O   UNL     1     -20.592  23.325  39.085  1.00  0.00    -0.550 OA
ATOM      7  O   UNL     1     -21.893  21.645  38.227  1.00  0.00    -0.550 OA
ENDBRANCH   4   5
ENDBRANCH   3   4
ENDBRANCH   2   3
ENDBRANCH   1   2
BRANCH   1   8
ATOM      8  C   UNL     1     -17.342  18.982  42.694  1.00  0.00     0.000 C 
BRANCH   8   9
ATOM      9  C   UNL     1     -17.226  18.242  41.350  1.00  0.00     0.006 C 
BRANCH   9  10
ATOM     10  C   UNL     1     -16.890  16.756  41.534  1.00  0.00     0.053 C 
BRANCH  10  11
ATOM     11  C   UNL     1     -16.230  16.179  40.320  1.00  0.00     0.041 C 
ATOM     12  O   UNL     1     -16.014  14.940  40.246  1.00  0.00    -0.550 OA
ATOM     13  O   UNL     1     -15.880  17.003  39.258  1.00  0.00    -0.550 OA
ENDBRANCH  10  11
ENDBRANCH   9  10
ENDBRANCH   8   9
ENDBRANCH   1   8
TORSDOF 8
ENDMDL
MODEL 6
REMARK VINA RESULT:    -3.704      3.960      6.412
REMARK INTER + INTRA:          -5.793
REMARK INTER:                  -5.440
REMARK INTRA:                  -0.353
REMARK UNBOUND:                -0.357
REMARK SMILES O=C([O-])CCCCCCCC(=O)[O-]
REMARK SMILES IDX 7 1 6 2 5 3 4 4 2 5 1 6 3 7 8 8 9 9 10 10 11 11 12 12 13 13
REMARK H PARENT
REMARK Flexibility Score: inf
ROOT
ATOM      1  C   UNL     1     -19.205  20.926  41.850  1.00  0.00     0.000 C 
ENDROOT
BRANCH   1   2
ATOM      2  C   UNL     1     -20.734  20.786  41.891  1.00  0.00     0.000 C 
BRANCH   2   3
ATOM      3  C   UNL     1     -21.397  21.700  40.853  1.00  0.00     0.006 C 
BRANCH   3   4
ATOM      4  C   UNL     1     -22.237  22.786  41.532  1.00  0.00     0.053 C 
BRANCH   4   5
ATOM      5  C   UNL     1     -21.433  24.033  41.716  1.00  0.00     0.041 C 
ATOM      6  O   UNL     1     -21.792  24.900  42.556  1.00  0.00    -0.550 OA
ATOM      7  O   UNL     1     -20.259  24.217  40.996  1.00  0.00    -0.550 OA
ENDBRANCH   4   5
ENDBRANCH   3   4
ENDBRANCH   2   3
ENDBRANCH   1   2
BRANCH   1   8
ATOM      8  C   UNL     1     -18.523  20.346  43.099  1.00  0.00     0.000 C 
BRANCH   8   9
ATOM      9  C   UNL     1     -17.450  19.298  42.754  1.00  0.00     0.006 C 
BRANCH   9  10
ATOM     10  C   UNL     1     -17.695  18.646  41.386  1.00  0.00     0.053 C 
BRANCH  10  11
ATOM     11  C   UNL     1     -16.904  17.385  41.219  1.00  0.00     0.041 C 
ATOM     12  O   UNL     1     -16.740  16.608  42.196  1.00  0.00    -0.550 OA
ATOM     13  O   UNL     1     -16.374  17.054  39.979  1.00  0.00    -0.550 OA
ENDBRANCH  10  11
ENDBRANCH   9  10
ENDBRANCH   8   9
ENDBRANCH   1   8
TORSDOF 8
ENDMDL
MODEL 7
REMARK VINA RESULT:    -3.667      4.166      4.907
REMARK INTER + INTRA:          -5.738
REMARK INTER:                  -5.398
REMARK INTRA:                  -0.340
REMARK UNBOUND:                -0.357
REMARK SMILES O=C([O-])CCCCCCCC(=O)[O-]
REMARK SMILES IDX 7 1 6 2 5 3 4 4 2 5 1 6 3 7 8 8 9 9 10 10 11 11 12 12 13 13
REMARK H PARENT
REMARK Flexibility Score: inf
ROOT
ATOM      1  C   UNL     1     -20.421  21.567  41.046  1.00  0.00     0.000 C 
ENDROOT
BRANCH   1   2
ATOM      2  C   UNL     1     -20.407  20.430  42.079  1.00  0.00     0.000 C 
BRANCH   2   3
ATOM      3  C   UNL     1     -19.026  20.296  42.730  1.00  0.00     0.006 C 
BRANCH   3   4
ATOM      4  C   UNL     1     -17.949  20.002  41.682  1.00  0.00     0.053 C 
BRANCH   4   5
ATOM      5  C   UNL     1     -17.383  18.632  41.880  1.00  0.00     0.041 C 
ATOM      6  O   UNL     1     -17.069  18.237  43.033  1.00  0.00    -0.550 OA
ATOM      7  O   UNL     1     -17.248  17.772  40.797  1.00  0.00    -0.550 OA
ENDBRANCH   4   5
ENDBRANCH   3   4
ENDBRANCH   2   3
ENDBRANCH   1   2
BRANCH   1   8
ATOM      8  C   UNL     1     -21.843  22.001  40.660  1.00  0.00     0.000 C 
BRANCH   8   9
ATOM      9  C   UNL     1     -22.445  23.008  41.655  1.00  0.00     0.006 C 
BRANCH   9  10
ATOM     10  C   UNL     1     -22.218  24.462  41.217  1.00  0.00     0.053 C 
BRANCH  10  11
ATOM     11  C   UNL     1     -21.397  25.222  42.213  1.00  0.00     0.041 C 
ATOM     12  O   UNL     1     -21.929  26.125  42.913  1.00  0.00    -0.550 OA
ATOM     13  O   UNL     1     -20.054  24.916  42.390  1.00  0.00    -0.550 OA
ENDBRANCH  10  11
ENDBRANCH   9  10
ENDBRANCH   8   9
ENDBRANCH   1   8
TORSDOF 8
ENDMDL
MODEL 8
REMARK VINA RESULT:    -3.650      2.894      4.133
REMARK INTER + INTRA:          -5.714
REMARK INTER:                  -5.384
REMARK INTRA:                  -0.330
REMARK UNBOUND:                -0.357
REMARK SMILES O=C([O-])CCCCCCCC(=O)[O-]
REMARK SMILES IDX 7 1 6 2 5 3 4 4 2 5 1 6 3 7 8 8 9 9 10 10 11 11 12 12 13 13
REMARK H PARENT
REMARK Flexibility Score: inf
ROOT
ATOM      1  C   UNL     1     -19.325  20.486  41.604  1.00  0.00     0.000 C 
ENDROOT
BRANCH   1   2
ATOM      2  C   UNL     1     -18.471  20.223  42.853  1.00  0.00     0.000 C 
BRANCH   2   3
ATOM      3  C   UNL     1     -17.422  19.138  42.583  1.00  0.00     0.006 C 
BRANCH   3   4
ATOM      4  C   UNL     1     -17.678  18.446  41.241  1.00  0.00     0.053 C 
BRANCH   4   5
ATOM      5  C   UNL     1     -16.813  17.234  41.102  1.00  0.00     0.041 C 
ATOM      6  O   UNL     1     -16.155  17.043  40.046  1.00  0.00    -0.550 OA
ATOM      7  O   UNL     1     -16.695  16.339  42.158  1.00  0.00    -0.550 OA
ENDBRANCH   4   5
ENDBRANCH   3   4
ENDBRANCH   2   3
ENDBRANCH   1   2
BRANCH   1   8
ATOM      8  C   UNL     1     -20.775  20.864  41.946  1.00  0.00     0.000 C 
BRANCH   8   9
ATOM      9  C   UNL     1     -21.493  21.567  40.780  1.00  0.00     0.006 C 
BRANCH   9  10
ATOM     10  C   UNL     1     -20.839  22.908  40.421  1.00  0.00     0.053 C 
BRANCH  10  11
ATOM     11  C   UNL     1     -20.801  23.132  38.940  1.00  0.00     0.041 C 
ATOM     12  O   UNL     1     -20.183  24.121  38.466  1.00  0.00    -0.550 OA
ATOM     13  O   UNL     1     -21.423  22.233  38.084  1.00  0.00    -0.550 OA
ENDBRANCH  10  11
ENDBRANCH   9  10
ENDBRANCH   8   9
ENDBRANCH   1   8
TORSDOF 8
ENDMDL
MODEL 9
REMARK VINA RESULT:    -3.619     16.776     19.757
REMARK INTER + INTRA:          -5.668
REMARK INTER:                  -5.322
REMARK INTRA:                  -0.347
REMARK UNBOUND:                -0.357
REMARK SMILES O=C([O-])CCCCCCCC(=O)[O-]
REMARK SMILES IDX 7 1 6 2 5 3 4 4 2 5 1 6 3 7 8 8 9 9 10 10 11 11 12 12 13 13
REMARK H PARENT
REMARK Flexibility Score: inf
ROOT
ATOM      1  C   UNL     1      -7.245  31.041  47.251  1.00  0.00     0.000 C 
ENDROOT
BRANCH   1   2
ATOM      2  C   UNL     1      -6.863  32.526  47.342  1.00  0.00     0.000 C 
BRANCH   2   3
ATOM      3  C   UNL     1      -5.499  32.702  48.019  1.00  0.00     0.006 C 
BRANCH   3   4
ATOM      4  C   UNL     1      -5.377  34.086  48.664  1.00  0.00     0.053 C 
BRANCH   4   5
ATOM      5  C   UNL     1      -6.109  34.122  49.968  1.00  0.00     0.041 C 
ATOM      6  O   UNL     1      -5.677  33.472  50.956  1.00  0.00    -0.550 OA
ATOM      7  O   UNL     1      -7.243  34.913  50.107  1.00  0.00    -0.550 OA
ENDBRANCH   4   5
ENDBRANCH   3   4
ENDBRANCH   2   3
ENDBRANCH   1   2
BRANCH   1   8
ATOM      8  C   UNL     1      -6.021  30.112  47.253  1.00  0.00     0.000 C 
BRANCH   8   9
ATOM      9  C   UNL     1      -5.963  29.206  46.010  1.00  0.00     0.006 C 
BRANCH   9  10
ATOM     10  C   UNL     1      -7.237  28.365  45.847  1.00  0.00     0.053 C 
BRANCH  10  11
ATOM     11  C   UNL     1      -6.923  26.926  45.573  1.00  0.00     0.041 C 
ATOM     12  O   UNL     1      -6.802  26.521  44.386  1.00  0.00    -0.550 OA
ATOM     13  O   UNL     1      -6.737  26.040  46.625  1.00  0.00    -0.550 OA
ENDBRANCH  10  11
ENDBRANCH   9  10
ENDBRANCH   8   9
ENDBRANCH   1   8
TORSDOF 8
ENDMDL
