MODEL 1
REMARK VINA RESULT:    -5.450      0.000      0.000
REMARK INTER + INTRA:          -6.296
REMARK INTER:                  -6.247
REMARK INTRA:                  -0.049
REMARK UNBOUND:                -0.049
REMARK SMILES O=C([O-])c1cc(O)c(O)c(O)c1
REMARK SMILES IDX 4 1 5 2 12 3 6 4 10 5 8 6 2 7 1 8 3 9 7 10 11 12 9 14
REMARK H PARENT 7 11 11 13 9 15
REMARK Flexibility Score: inf
ROOT
ATOM      1  C   UNL     1      31.160 -91.084  37.606  1.00  0.00     0.005 A 
ATOM      2  C   UNL     1      29.938 -90.506  37.988  1.00  0.00     0.060 A 
ATOM      3  C   UNL     1      32.170 -90.259  37.081  1.00  0.00     0.060 A 
ATOM      4  C   UNL     1      29.727 -89.127  37.847  1.00  0.00     0.162 A 
ATOM      5  C   UNL     1      31.965 -88.880  36.939  1.00  0.00     0.162 A 
ATOM      6  C   UNL     1      30.738 -88.313  37.324  1.00  0.00     0.200 A 
ENDROOT
BRANCH   1   7
ATOM      7  C   UNL     1      31.377 -92.540  37.757  1.00  0.00     0.072 C 
ATOM      8  O   UNL     1      30.459 -93.357  37.479  1.00  0.00    -0.545 OA
ATOM      9  O   UNL     1      32.598 -93.027  38.208  1.00  0.00    -0.545 OA
ENDBRANCH   1   7
BRANCH   4  10
ATOM     10  O   UNL     1      28.513 -88.559  38.228  1.00  0.00    -0.504 OA
ATOM     11  H   UNL     1      28.118 -87.768  37.732  1.00  0.00     0.293 HD
ENDBRANCH   4  10
BRANCH   5  12
ATOM     12  O   UNL     1      32.973 -88.072  36.417  1.00  0.00    -0.504 OA
ATOM     13  H   UNL     1      32.780 -87.139  36.069  1.00  0.00     0.293 HD
ENDBRANCH   5  12
BRANCH   6  14
ATOM     14  O   UNL     1      30.510 -86.942  37.192  1.00  0.00    -0.502 OA
ATOM     15  H   UNL     1      30.041 -86.401  37.909  1.00  0.00     0.293 HD
ENDBRANCH   6  14
TORSDOF 4
ENDMDL
MODEL 2
REMARK VINA RESULT:    -5.433      0.027      2.421
REMARK INTER + INTRA:          -6.276
REMARK INTER:                  -6.227
REMARK INTRA:                  -0.049
REMARK UNBOUND:                -0.049
REMARK SMILES O=C([O-])c1cc(O)c(O)c(O)c1
REMARK SMILES IDX 4 1 5 2 12 3 6 4 10 5 8 6 2 7 1 8 3 9 7 10 11 12 9 14
REMARK H PARENT 7 11 11 13 9 15
REMARK Flexibility Score: inf
ROOT
ATOM      1  C   UNL     1      31.165 -91.070  37.606  1.00  0.00     0.005 A 
ATOM      2  C   UNL     1      32.174 -90.246  37.079  1.00  0.00     0.060 A 
ATOM      3  C   UNL     1      29.944 -90.490  37.993  1.00  0.00     0.060 A 
ATOM      4  C   UNL     1      31.968 -88.867  36.941  1.00  0.00     0.162 A 
ATOM      5  C   UNL     1      29.733 -89.111  37.856  1.00  0.00     0.162 A 
ATOM      6  C   UNL     1      30.749 -88.297  37.328  1.00  0.00     0.200 A 
ENDROOT
BRANCH   1   7
ATOM      7  C   UNL     1      31.388 -92.525  37.750  1.00  0.00     0.072 C 
ATOM      8  O   UNL     1      30.465 -93.344  37.495  1.00  0.00    -0.545 OA
ATOM      9  O   UNL     1      32.621 -93.011  38.169  1.00  0.00    -0.545 OA
ENDBRANCH   1   7
BRANCH   4  10
ATOM     10  O   UNL     1      32.973 -88.054  36.417  1.00  0.00    -0.504 OA
ATOM     11  H   UNL     1      33.740 -87.723  36.990  1.00  0.00     0.293 HD
ENDBRANCH   4  10
BRANCH   5  12
ATOM     12  O   UNL     1      28.519 -88.547  38.243  1.00  0.00    -0.504 OA
ATOM     13  H   UNL     1      27.643 -89.047  38.139  1.00  0.00     0.293 HD
ENDBRANCH   5  12
BRANCH   6  14
ATOM     14  O   UNL     1      30.563 -86.922  37.182  1.00  0.00    -0.502 OA
ATOM     15  H   UNL     1      30.349 -86.320  37.969  1.00  0.00     0.293 HD
ENDBRANCH   6  14
TORSDOF 4
ENDMDL
MODEL 3
REMARK VINA RESULT:    -4.817      1.016      4.059
REMARK INTER + INTRA:          -5.570
REMARK INTER:                  -5.518
REMARK INTRA:                  -0.053
REMARK UNBOUND:                -0.049
REMARK SMILES O=C([O-])c1cc(O)c(O)c(O)c1
REMARK SMILES IDX 4 1 5 2 12 3 6 4 10 5 8 6 2 7 1 8 3 9 7 10 11 12 9 14
REMARK H PARENT 7 11 11 13 9 15
REMARK Flexibility Score: inf
ROOT
ATOM      1  C   UNL     1      30.452 -89.543  37.782  1.00  0.00     0.005 A 
ATOM      2  C   UNL     1      30.095 -90.876  38.044  1.00  0.00     0.060 A 
ATOM      3  C   UNL     1      31.760 -89.260  37.350  1.00  0.00     0.060 A 
ATOM      4  C   UNL     1      31.027 -91.909  37.879  1.00  0.00     0.162 A 
ATOM      5  C   UNL     1      32.696 -90.291  37.183  1.00  0.00     0.162 A 
ATOM      6  C   UNL     1      32.327 -91.620  37.448  1.00  0.00     0.200 A 
ENDROOT
BRANCH   1   7
ATOM      7  C   UNL     1      29.464 -88.456  37.957  1.00  0.00     0.072 C 
ATOM      8  O   UNL     1      29.811 -87.250  37.844  1.00  0.00    -0.545 OA
ATOM      9  O   UNL     1      28.138 -88.750  38.251  1.00  0.00    -0.545 OA
ENDBRANCH   1   7
BRANCH   4  10
ATOM     10  O   UNL     1      30.666 -93.230  38.141  1.00  0.00    -0.504 OA
ATOM     11  H   UNL     1      30.585 -93.916  37.399  1.00  0.00     0.293 HD
ENDBRANCH   4  10
BRANCH   5  12
ATOM     12  O   UNL     1      33.990 -89.999  36.754  1.00  0.00    -0.504 OA
ATOM     13  H   UNL     1      34.588 -89.360  37.266  1.00  0.00     0.293 HD
ENDBRANCH   5  12
BRANCH   6  14
ATOM     14  O   UNL     1      33.241 -92.663  37.290  1.00  0.00    -0.502 OA
ATOM     15  H   UNL     1      34.151 -92.523  36.868  1.00  0.00     0.293 HD
ENDBRANCH   6  14
TORSDOF 4
ENDMDL
MODEL 4
REMARK VINA RESULT:    -4.787      1.012      4.607
REMARK INTER + INTRA:          -5.536
REMARK INTER:                  -5.483
REMARK INTRA:                  -0.053
REMARK UNBOUND:                -0.049
REMARK SMILES O=C([O-])c1cc(O)c(O)c(O)c1
REMARK SMILES IDX 4 1 5 2 12 3 6 4 10 5 8 6 2 7 1 8 3 9 7 10 11 12 9 14
REMARK H PARENT 7 11 11 13 9 15
REMARK Flexibility Score: inf
ROOT
ATOM      1  C   UNL     1      30.459 -89.515  37.775  1.00  0.00     0.005 A 
ATOM      2  C   UNL     1      31.767 -89.238  37.342  1.00  0.00     0.060 A 
ATOM      3  C   UNL     1      30.095 -90.848  38.034  1.00  0.00     0.060 A 
ATOM      4  C   UNL     1      32.695 -90.273  37.170  1.00  0.00     0.162 A 
ATOM      5  C   UNL     1      31.021 -91.888  37.864  1.00  0.00     0.162 A 
ATOM      6  C   UNL     1      32.326 -91.598  37.430  1.00  0.00     0.200 A 
ENDROOT
BRANCH   1   7
ATOM      7  C   UNL     1      29.483 -88.418  37.954  1.00  0.00     0.072 C 
ATOM      8  O   UNL     1      29.844 -87.215  37.849  1.00  0.00    -0.545 OA
ATOM      9  O   UNL     1      28.153 -88.699  38.243  1.00  0.00    -0.545 OA
ENDBRANCH   1   7
BRANCH   4  10
ATOM     10  O   UNL     1      33.992 -89.992  36.740  1.00  0.00    -0.504 OA
ATOM     11  H   UNL     1      34.795 -90.475  37.126  1.00  0.00     0.293 HD
ENDBRANCH   4  10
BRANCH   5  12
ATOM     12  O   UNL     1      30.649 -93.205  38.124  1.00  0.00    -0.504 OA
ATOM     13  H   UNL     1      30.556 -93.888  37.380  1.00  0.00     0.293 HD
ENDBRANCH   5  12
BRANCH   6  14
ATOM     14  O   UNL     1      33.264 -92.615  37.254  1.00  0.00    -0.502 OA
ATOM     15  H   UNL     1      33.172 -93.314  36.527  1.00  0.00     0.293 HD
ENDBRANCH   6  14
TORSDOF 4
ENDMDL
MODEL 5
REMARK VINA RESULT:    -4.713     13.525     15.648
REMARK INTER + INTRA:          -5.450
REMARK INTER:                  -5.400
REMARK INTRA:                  -0.051
REMARK UNBOUND:                -0.049
REMARK SMILES O=C([O-])c1cc(O)c(O)c(O)c1
REMARK SMILES IDX 4 1 5 2 12 3 6 4 10 5 8 6 2 7 1 8 3 9 7 10 11 12 9 14
REMARK H PARENT 7 11 11 13 9 15
REMARK Flexibility Score: inf
ROOT
ATOM      1  C   UNL     1      42.176 -78.767  40.066  1.00  0.00     0.005 A 
ATOM      2  C   UNL     1      41.207 -79.589  40.665  1.00  0.00     0.060 A 
ATOM      3  C   UNL     1      42.634 -79.084  38.775  1.00  0.00     0.060 A 
ATOM      4  C   UNL     1      40.704 -80.708  39.988  1.00  0.00     0.162 A 
ATOM      5  C   UNL     1      42.134 -80.202  38.093  1.00  0.00     0.162 A 
ATOM      6  C   UNL     1      41.164 -81.016  38.703  1.00  0.00     0.200 A 
ENDROOT
BRANCH   1   7
ATOM      7  C   UNL     1      42.704 -77.587  40.785  1.00  0.00     0.072 C 
ATOM      8  O   UNL     1      43.873 -77.172  40.565  1.00  0.00    -0.545 OA
ATOM      9  O   UNL     1      41.917 -76.920  41.717  1.00  0.00    -0.545 OA
ENDBRANCH   1   7
BRANCH   4  10
ATOM     10  O   UNL     1      39.742 -81.520  40.588  1.00  0.00    -0.504 OA
ATOM     11  H   UNL     1      39.952 -82.071  41.412  1.00  0.00     0.293 HD
ENDBRANCH   4  10
BRANCH   5  12
ATOM     12  O   UNL     1      42.595 -80.506  36.814  1.00  0.00    -0.504 OA
ATOM     13  H   UNL     1      41.976 -80.870  36.098  1.00  0.00     0.293 HD
ENDBRANCH   5  12
BRANCH   6  14
ATOM     14  O   UNL     1      40.651 -82.135  38.044  1.00  0.00    -0.502 OA
ATOM     15  H   UNL     1      40.039 -82.798  38.504  1.00  0.00     0.293 HD
ENDBRANCH   6  14
TORSDOF 4
ENDMDL
MODEL 6
REMARK VINA RESULT:    -4.646     13.688     15.966
REMARK INTER + INTRA:          -5.374
REMARK INTER:                  -5.321
REMARK INTRA:                  -0.053
REMARK UNBOUND:                -0.049
REMARK SMILES O=C([O-])c1cc(O)c(O)c(O)c1
REMARK SMILES IDX 4 1 5 2 12 3 6 4 10 5 8 6 2 7 1 8 3 9 7 10 11 12 9 14
REMARK H PARENT 7 11 11 13 9 15
REMARK Flexibility Score: inf
ROOT
ATOM      1  C   UNL     1      42.411 -78.645  39.889  1.00  0.00     0.005 A 
ATOM      2  C   UNL     1      42.828 -79.132  38.639  1.00  0.00     0.060 A 
ATOM      3  C   UNL     1      41.335 -79.271  40.540  1.00  0.00     0.060 A 
ATOM      4  C   UNL     1      42.182 -80.226  38.049  1.00  0.00     0.162 A 
ATOM      5  C   UNL     1      40.685 -80.367  39.954  1.00  0.00     0.162 A 
ATOM      6  C   UNL     1      41.111 -80.845  38.704  1.00  0.00     0.200 A 
ENDROOT
BRANCH   1   7
ATOM      7  C   UNL     1      43.098 -77.489  40.507  1.00  0.00     0.072 C 
ATOM      8  O   UNL     1      44.016 -76.884  39.891  1.00  0.00    -0.545 OA
ATOM      9  O   UNL     1      42.740 -77.054  41.778  1.00  0.00    -0.545 OA
ENDBRANCH   1   7
BRANCH   4  10
ATOM     10  O   UNL     1      42.600 -80.705  36.808  1.00  0.00    -0.504 OA
ATOM     11  H   UNL     1      43.149 -80.134  36.176  1.00  0.00     0.293 HD
ENDBRANCH   4  10
BRANCH   5  12
ATOM     12  O   UNL     1      39.619 -80.980  40.609  1.00  0.00    -0.504 OA
ATOM     13  H   UNL     1      38.661 -80.683  40.460  1.00  0.00     0.293 HD
ENDBRANCH   5  12
BRANCH   6  14
ATOM     14  O   UNL     1      40.480 -81.934  38.100  1.00  0.00    -0.502 OA
ATOM     15  H   UNL     1      39.496 -82.132  38.239  1.00  0.00     0.293 HD
ENDBRANCH   6  14
TORSDOF 4
ENDMDL
MODEL 7
REMARK VINA RESULT:    -4.603     13.285     15.298
REMARK INTER + INTRA:          -5.325
REMARK INTER:                  -5.272
REMARK INTRA:                  -0.052
REMARK UNBOUND:                -0.049
REMARK SMILES O=C([O-])c1cc(O)c(O)c(O)c1
REMARK SMILES IDX 4 1 5 2 12 3 6 4 10 5 8 6 2 7 1 8 3 9 7 10 11 12 9 14
REMARK H PARENT 7 11 11 13 9 15
REMARK Flexibility Score: inf
ROOT
ATOM      1  C   UNL     1      41.108 -79.519  40.411  1.00  0.00     0.005 A 
ATOM      2  C   UNL     1      42.142 -78.803  39.785  1.00  0.00     0.060 A 
ATOM      3  C   UNL     1      40.591 -80.664  39.778  1.00  0.00     0.060 A 
ATOM      4  C   UNL     1      42.651 -79.221  38.548  1.00  0.00     0.162 A 
ATOM      5  C   UNL     1      41.098 -81.086  38.541  1.00  0.00     0.162 A 
ATOM      6  C   UNL     1      42.132 -80.362  37.925  1.00  0.00     0.200 A 
ENDROOT
BRANCH   1   7
ATOM      7  C   UNL     1      40.574 -79.073  41.716  1.00  0.00     0.072 C 
ATOM      8  O   UNL     1      40.886 -77.945  42.185  1.00  0.00    -0.545 OA
ATOM      9  O   UNL     1      39.721 -79.892  42.446  1.00  0.00    -0.545 OA
ENDBRANCH   1   7
BRANCH   4  10
ATOM     10  O   UNL     1      43.677 -78.506  37.931  1.00  0.00    -0.504 OA
ATOM     11  H   UNL     1      43.855 -77.534  38.154  1.00  0.00     0.293 HD
ENDBRANCH   4  10
BRANCH   5  12
ATOM     12  O   UNL     1      40.578 -82.222  37.923  1.00  0.00    -0.504 OA
ATOM     13  H   UNL     1      39.814 -82.748  38.333  1.00  0.00     0.293 HD
ENDBRANCH   5  12
BRANCH   6  14
ATOM     14  O   UNL     1      42.652 -80.763  36.694  1.00  0.00    -0.502 OA
ATOM     15  H   UNL     1      42.839 -80.105  35.946  1.00  0.00     0.293 HD
ENDBRANCH   6  14
TORSDOF 4
ENDMDL
MODEL 8
REMARK VINA RESULT:    -4.595     13.356     15.225
REMARK INTER + INTRA:          -5.316
REMARK INTER:                  -5.264
REMARK INTRA:                  -0.053
REMARK UNBOUND:                -0.049
REMARK SMILES O=C([O-])c1cc(O)c(O)c(O)c1
REMARK SMILES IDX 4 1 5 2 12 3 6 4 10 5 8 6 2 7 1 8 3 9 7 10 11 12 9 14
REMARK H PARENT 7 11 11 13 9 15
REMARK Flexibility Score: inf
ROOT
ATOM      1  C   UNL     1      41.140 -79.484  40.443  1.00  0.00     0.005 A 
ATOM      2  C   UNL     1      40.618 -80.612  39.787  1.00  0.00     0.060 A 
ATOM      3  C   UNL     1      42.193 -78.772  39.841  1.00  0.00     0.060 A 
ATOM      4  C   UNL     1      41.138 -81.022  38.552  1.00  0.00     0.162 A 
ATOM      5  C   UNL     1      42.715 -79.178  38.605  1.00  0.00     0.162 A 
ATOM      6  C   UNL     1      42.185 -80.308  37.959  1.00  0.00     0.200 A 
ENDROOT
BRANCH   1   7
ATOM      7  C   UNL     1      40.588 -79.055  41.747  1.00  0.00     0.072 C 
ATOM      8  O   UNL     1      40.933 -77.956  42.259  1.00  0.00    -0.545 OA
ATOM      9  O   UNL     1      39.682 -79.860  42.427  1.00  0.00    -0.545 OA
ENDBRANCH   1   7
BRANCH   4  10
ATOM     10  O   UNL     1      40.615 -82.142  37.907  1.00  0.00    -0.504 OA
ATOM     11  H   UNL     1      41.197 -82.746  37.338  1.00  0.00     0.293 HD
ENDBRANCH   4  10
BRANCH   5  12
ATOM     12  O   UNL     1      43.759 -78.465  38.017  1.00  0.00    -0.504 OA
ATOM     13  H   UNL     1      43.817 -78.338  37.013  1.00  0.00     0.293 HD
ENDBRANCH   5  12
BRANCH   6  14
ATOM     14  O   UNL     1      42.688 -80.732  36.728  1.00  0.00    -0.502 OA
ATOM     15  H   UNL     1      42.255 -80.474  35.850  1.00  0.00     0.293 HD
ENDBRANCH   6  14
TORSDOF 4
ENDMDL
MODEL 9
REMARK VINA RESULT:    -4.475      9.887     12.327
REMARK INTER + INTRA:          -5.178
REMARK INTER:                  -5.132
REMARK INTRA:                  -0.046
REMARK UNBOUND:                -0.049
REMARK SMILES O=C([O-])c1cc(O)c(O)c(O)c1
REMARK SMILES IDX 4 1 5 2 12 3 6 4 10 5 8 6 2 7 1 8 3 9 7 10 11 12 9 14
REMARK H PARENT 7 11 11 13 9 15
REMARK Flexibility Score: inf
ROOT
ATOM      1  C   UNL     1      27.317 -79.086  41.641  1.00  0.00     0.005 A 
ATOM      2  C   UNL     1      28.408 -79.881  42.028  1.00  0.00     0.060 A 
ATOM      3  C   UNL     1      26.102 -79.710  41.309  1.00  0.00     0.060 A 
ATOM      4  C   UNL     1      28.290 -81.276  42.081  1.00  0.00     0.162 A 
ATOM      5  C   UNL     1      25.978 -81.106  41.361  1.00  0.00     0.162 A 
ATOM      6  C   UNL     1      27.077 -81.891  41.749  1.00  0.00     0.200 A 
ENDROOT
BRANCH   1   7
ATOM      7  C   UNL     1      27.448 -77.613  41.586  1.00  0.00     0.072 C 
ATOM      8  O   UNL     1      26.710 -76.877  42.295  1.00  0.00    -0.545 OA
ATOM      9  O   UNL     1      28.387 -77.020  40.751  1.00  0.00    -0.545 OA
ENDBRANCH   1   7
BRANCH   4  10
ATOM     10  O   UNL     1      29.376 -82.061  42.465  1.00  0.00    -0.504 OA
ATOM     11  H   UNL     1      29.266 -83.038  42.710  1.00  0.00     0.293 HD
ENDBRANCH   4  10
BRANCH   5  12
ATOM     12  O   UNL     1      24.769 -81.714  41.030  1.00  0.00    -0.504 OA
ATOM     13  H   UNL     1      24.713 -82.703  40.814  1.00  0.00     0.293 HD
ENDBRANCH   5  12
BRANCH   6  14
ATOM     14  O   UNL     1      26.978 -83.282  41.809  1.00  0.00    -0.502 OA
ATOM     15  H   UNL     1      27.782 -83.873  41.979  1.00  0.00     0.293 HD
ENDBRANCH   6  14
TORSDOF 4
ENDMDL
