MODEL 1
REMARK VINA RESULT:    -5.627      0.000      0.000
REMARK INTER + INTRA:          -5.627
REMARK INTER:                  -5.627
REMARK INTRA:                   0.000
REMARK UNBOUND:                 0.000
REMARK SMILES CC1=CC(=O)[C@@H]2C[C@H]1C2(C)C
REMARK SMILES IDX 1 1 2 2 3 3 4 4 5 5 6 6 7 7 8 8 9 9 10 10 11 11
REMARK H PARENT
REMARK Flexibility Score: inf
ROOT
ATOM      1  C   UNL     1     -14.002 -33.499  31.501  1.00  0.00     0.040 C 
ATOM      2  C   UNL     1     -12.877 -34.053  30.686  1.00  0.00    -0.066 C 
ATOM      3  C   UNL     1     -12.010 -34.968  31.203  1.00  0.00     0.047 C 
ATOM      4  C   UNL     1     -10.944 -35.469  30.277  1.00  0.00     0.159 C 
ATOM      5  O   UNL     1     -10.109 -36.343  30.624  1.00  0.00    -0.295 OA
ATOM      6  C   UNL     1     -10.944 -34.846  28.880  1.00  0.00     0.067 C 
ATOM      7  C   UNL     1     -11.112 -33.334  29.142  1.00  0.00     0.021 C 
ATOM      8  C   UNL     1     -12.632 -33.606  29.230  1.00  0.00     0.022 C 
ATOM      9  C   UNL     1     -12.401 -34.858  28.334  1.00  0.00    -0.019 C 
ATOM     10  C   UNL     1     -13.277 -36.116  28.592  1.00  0.00     0.012 C 
ATOM     11  C   UNL     1     -12.466 -34.521  26.822  1.00  0.00     0.012 C 
ENDROOT
TORSDOF 0
ENDMDL
MODEL 2
REMARK VINA RESULT:    -5.380      1.442      3.284
REMARK INTER + INTRA:          -5.380
REMARK INTER:                  -5.380
REMARK INTRA:                   0.000
REMARK UNBOUND:                 0.000
REMARK SMILES CC1=CC(=O)[C@@H]2C[C@H]1C2(C)C
REMARK SMILES IDX 1 1 2 2 3 3 4 4 5 5 6 6 7 7 8 8 9 9 10 10 11 11
REMARK H PARENT
REMARK Flexibility Score: inf
ROOT
ATOM      1  C   UNL     1     -11.722 -34.945  26.253  1.00  0.00     0.040 C 
ATOM      2  C   UNL     1     -11.998 -34.946  27.723  1.00  0.00    -0.066 C 
ATOM      3  C   UNL     1     -12.611 -36.000  28.329  1.00  0.00     0.047 C 
ATOM      4  C   UNL     1     -12.804 -35.894  29.811  1.00  0.00     0.159 C 
ATOM      5  O   UNL     1     -13.321 -36.819  30.489  1.00  0.00    -0.295 OA
ATOM      6  C   UNL     1     -12.324 -34.586  30.441  1.00  0.00     0.067 C 
ATOM      7  C   UNL     1     -12.867 -33.492  29.497  1.00  0.00     0.021 C 
ATOM      8  C   UNL     1     -11.619 -33.750  28.622  1.00  0.00     0.022 C 
ATOM      9  C   UNL     1     -10.900 -34.270  29.901  1.00  0.00    -0.019 C 
ATOM     10  C   UNL     1      -9.890 -35.441  29.750  1.00  0.00     0.012 C 
ATOM     11  C   UNL     1     -10.210 -33.130  30.693  1.00  0.00     0.012 C 
ENDROOT
TORSDOF 0
ENDMDL
MODEL 3
REMARK VINA RESULT:    -5.364      2.194      3.778
REMARK INTER + INTRA:          -5.364
REMARK INTER:                  -5.364
REMARK INTRA:                   0.000
REMARK UNBOUND:                 0.000
REMARK SMILES CC1=CC(=O)[C@@H]2C[C@H]1C2(C)C
REMARK SMILES IDX 1 1 2 2 3 3 4 4 5 5 6 6 7 7 8 8 9 9 10 10 11 11
REMARK H PARENT
REMARK Flexibility Score: inf
ROOT
ATOM      1  C   UNL     1     -12.560 -38.809  32.017  1.00  0.00     0.040 C 
ATOM      2  C   UNL     1     -12.349 -37.533  31.266  1.00  0.00    -0.066 C 
ATOM      3  C   UNL     1     -12.982 -37.293  30.084  1.00  0.00     0.047 C 
ATOM      4  C   UNL     1     -12.712 -35.965  29.444  1.00  0.00     0.159 C 
ATOM      5  O   UNL     1     -13.266 -35.611  28.372  1.00  0.00    -0.295 OA
ATOM      6  C   UNL     1     -11.719 -35.071  30.187  1.00  0.00     0.067 C 
ATOM      7  C   UNL     1     -10.557 -36.020  30.552  1.00  0.00     0.021 C 
ATOM      8  C   UNL     1     -11.396 -36.435  31.782  1.00  0.00     0.022 C 
ATOM      9  C   UNL     1     -12.104 -35.051  31.695  1.00  0.00    -0.019 C 
ATOM     10  C   UNL     1     -13.610 -34.972  32.072  1.00  0.00     0.012 C 
ATOM     11  C   UNL     1     -11.346 -33.951  32.482  1.00  0.00     0.012 C 
ENDROOT
TORSDOF 0
ENDMDL
MODEL 4
REMARK VINA RESULT:    -5.358      1.928      3.498
REMARK INTER + INTRA:          -5.358
REMARK INTER:                  -5.358
REMARK INTRA:                   0.000
REMARK UNBOUND:                 0.000
REMARK SMILES CC1=CC(=O)[C@@H]2C[C@H]1C2(C)C
REMARK SMILES IDX 1 1 2 2 3 3 4 4 5 5 6 6 7 7 8 8 9 9 10 10 11 11
REMARK H PARENT
REMARK Flexibility Score: inf
ROOT
ATOM      1  C   UNL     1     -11.587 -34.937  26.076  1.00  0.00     0.040 C 
ATOM      2  C   UNL     1     -11.795 -34.545  27.505  1.00  0.00    -0.066 C 
ATOM      3  C   UNL     1     -12.887 -33.830  27.893  1.00  0.00     0.047 C 
ATOM      4  C   UNL     1     -12.996 -33.527  29.356  1.00  0.00     0.159 C 
ATOM      5  O   UNL     1     -13.978 -32.908  29.842  1.00  0.00    -0.295 OA
ATOM      6  C   UNL     1     -11.835 -34.025  30.216  1.00  0.00     0.067 C 
ATOM      7  C   UNL     1     -10.575 -33.619  29.420  1.00  0.00     0.021 C 
ATOM      8  C   UNL     1     -10.778 -34.916  28.605  1.00  0.00     0.022 C 
ATOM      9  C   UNL     1     -11.533 -35.503  29.833  1.00  0.00    -0.019 C 
ATOM     10  C   UNL     1     -12.732 -36.456  29.571  1.00  0.00     0.012 C 
ATOM     11  C   UNL     1     -10.577 -36.188  30.841  1.00  0.00     0.012 C 
ENDROOT
TORSDOF 0
ENDMDL
MODEL 5
REMARK VINA RESULT:    -5.326      1.494      2.098
REMARK INTER + INTRA:          -5.326
REMARK INTER:                  -5.326
REMARK INTRA:                   0.000
REMARK UNBOUND:                 0.000
REMARK SMILES CC1=CC(=O)[C@@H]2C[C@H]1C2(C)C
REMARK SMILES IDX 1 1 2 2 3 3 4 4 5 5 6 6 7 7 8 8 9 9 10 10 11 11
REMARK H PARENT
REMARK Flexibility Score: inf
ROOT
ATOM      1  C   UNL     1     -14.474 -33.273  32.146  1.00  0.00     0.040 C 
ATOM      2  C   UNL     1     -13.302 -34.067  31.664  1.00  0.00    -0.066 C 
ATOM      3  C   UNL     1     -12.178 -34.203  32.421  1.00  0.00     0.047 C 
ATOM      4  C   UNL     1     -11.086 -35.049  31.841  1.00  0.00     0.159 C 
ATOM      5  O   UNL     1     -10.015 -35.282  32.460  1.00  0.00    -0.295 OA
ATOM      6  C   UNL     1     -11.364 -35.611  30.446  1.00  0.00     0.067 C 
ATOM      7  C   UNL     1     -11.929 -34.408  29.661  1.00  0.00     0.021 C 
ATOM      8  C   UNL     1     -13.300 -34.756  30.284  1.00  0.00     0.022 C 
ATOM      9  C   UNL     1     -12.795 -36.221  30.435  1.00  0.00    -0.019 C 
ATOM     10  C   UNL     1     -13.261 -37.033  31.676  1.00  0.00     0.012 C 
ATOM     11  C   UNL     1     -13.063 -37.071  29.168  1.00  0.00     0.012 C 
ENDROOT
TORSDOF 0
ENDMDL
MODEL 6
REMARK VINA RESULT:    -5.258      2.159      3.431
REMARK INTER + INTRA:          -5.258
REMARK INTER:                  -5.258
REMARK INTRA:                   0.000
REMARK UNBOUND:                 0.000
REMARK SMILES CC1=CC(=O)[C@@H]2C[C@H]1C2(C)C
REMARK SMILES IDX 1 1 2 2 3 3 4 4 5 5 6 6 7 7 8 8 9 9 10 10 11 11
REMARK H PARENT
REMARK Flexibility Score: inf
ROOT
ATOM      1  C   UNL     1     -12.137 -37.571  31.983  1.00  0.00     0.040 C 
ATOM      2  C   UNL     1     -12.495 -36.218  31.454  1.00  0.00    -0.066 C 
ATOM      3  C   UNL     1     -13.465 -35.462  32.038  1.00  0.00     0.047 C 
ATOM      4  C   UNL     1     -13.709 -34.113  31.433  1.00  0.00     0.159 C 
ATOM      5  O   UNL     1     -14.551 -33.307  31.907  1.00  0.00    -0.295 OA
ATOM      6  C   UNL     1     -12.863 -33.785  30.203  1.00  0.00     0.067 C 
ATOM      7  C   UNL     1     -12.943 -35.062  29.338  1.00  0.00     0.021 C 
ATOM      8  C   UNL     1     -11.798 -35.621  30.213  1.00  0.00     0.022 C 
ATOM      9  C   UNL     1     -11.382 -34.151  30.509  1.00  0.00    -0.019 C 
ATOM     10  C   UNL     1     -10.815 -33.818  31.918  1.00  0.00     0.012 C 
ATOM     11  C   UNL     1     -10.404 -33.589  29.446  1.00  0.00     0.012 C 
ENDROOT
TORSDOF 0
ENDMDL
MODEL 7
REMARK VINA RESULT:    -5.212      1.568      2.406
REMARK INTER + INTRA:          -5.212
REMARK INTER:                  -5.212
REMARK INTRA:                   0.000
REMARK UNBOUND:                 0.000
REMARK SMILES CC1=CC(=O)[C@@H]2C[C@H]1C2(C)C
REMARK SMILES IDX 1 1 2 2 3 3 4 4 5 5 6 6 7 7 8 8 9 9 10 10 11 11
REMARK H PARENT
REMARK Flexibility Score: inf
ROOT
ATOM      1  C   UNL     1     -13.986 -33.682  32.612  1.00  0.00     0.040 C 
ATOM      2  C   UNL     1     -12.998 -34.403  31.751  1.00  0.00    -0.066 C 
ATOM      3  C   UNL     1     -13.326 -35.560  31.112  1.00  0.00     0.047 C 
ATOM      4  C   UNL     1     -12.259 -36.170  30.255  1.00  0.00     0.159 C 
ATOM      5  O   UNL     1     -12.453 -37.216  29.584  1.00  0.00    -0.295 OA
ATOM      6  C   UNL     1     -10.920 -35.431  30.252  1.00  0.00     0.067 C 
ATOM      7  C   UNL     1     -10.655 -35.126  31.742  1.00  0.00     0.021 C 
ATOM      8  C   UNL     1     -11.558 -33.884  31.559  1.00  0.00     0.022 C 
ATOM      9  C   UNL     1     -11.193 -33.913  30.046  1.00  0.00    -0.019 C 
ATOM     10  C   UNL     1     -12.283 -33.491  29.021  1.00  0.00     0.012 C 
ATOM     11  C   UNL     1      -9.899 -33.119  29.736  1.00  0.00     0.012 C 
ENDROOT
TORSDOF 0
ENDMDL
MODEL 8
REMARK VINA RESULT:    -5.201      1.582      2.667
REMARK INTER + INTRA:          -5.201
REMARK INTER:                  -5.201
REMARK INTRA:                   0.000
REMARK UNBOUND:                 0.000
REMARK SMILES CC1=CC(=O)[C@@H]2C[C@H]1C2(C)C
REMARK SMILES IDX 1 1 2 2 3 3 4 4 5 5 6 6 7 7 8 8 9 9 10 10 11 11
REMARK H PARENT
REMARK Flexibility Score: inf
ROOT
ATOM      1  C   UNL     1     -13.221 -37.899  30.734  1.00  0.00     0.040 C 
ATOM      2  C   UNL     1     -12.669 -36.534  30.998  1.00  0.00    -0.066 C 
ATOM      3  C   UNL     1     -11.564 -36.354  31.774  1.00  0.00     0.047 C 
ATOM      4  C   UNL     1     -11.092 -34.942  31.938  1.00  0.00     0.159 C 
ATOM      5  O   UNL     1     -10.060 -34.650  32.597  1.00  0.00    -0.295 OA
ATOM      6  C   UNL     1     -11.947 -33.880  31.246  1.00  0.00     0.067 C 
ATOM      7  C   UNL     1     -13.397 -34.272  31.605  1.00  0.00     0.021 C 
ATOM      8  C   UNL     1     -13.330 -35.265  30.422  1.00  0.00     0.022 C 
ATOM      9  C   UNL     1     -12.239 -34.351  29.791  1.00  0.00    -0.019 C 
ATOM     10  C   UNL     1     -11.090 -35.026  28.990  1.00  0.00     0.012 C 
ATOM     11  C   UNL     1     -12.845 -33.224  28.918  1.00  0.00     0.012 C 
ENDROOT
TORSDOF 0
ENDMDL
MODEL 9
REMARK VINA RESULT:    -5.129      1.428      2.322
REMARK INTER + INTRA:          -5.129
REMARK INTER:                  -5.129
REMARK INTRA:                   0.000
REMARK UNBOUND:                 0.000
REMARK SMILES CC1=CC(=O)[C@@H]2C[C@H]1C2(C)C
REMARK SMILES IDX 1 1 2 2 3 3 4 4 5 5 6 6 7 7 8 8 9 9 10 10 11 11
REMARK H PARENT
REMARK Flexibility Score: inf
ROOT
ATOM      1  C   UNL     1      -9.875 -33.724  32.280  1.00  0.00     0.040 C 
ATOM      2  C   UNL     1     -10.718 -34.372  31.228  1.00  0.00    -0.066 C 
ATOM      3  C   UNL     1     -11.113 -35.671  31.338  1.00  0.00     0.047 C 
ATOM      4  C   UNL     1     -11.979 -36.196  30.234  1.00  0.00     0.159 C 
ATOM      5  O   UNL     1     -12.441 -37.366  30.240  1.00  0.00    -0.295 OA
ATOM      6  C   UNL     1     -12.266 -35.209  29.101  1.00  0.00     0.067 C 
ATOM      7  C   UNL     1     -10.890 -34.581  28.791  1.00  0.00     0.021 C 
ATOM      8  C   UNL     1     -11.165 -33.612  29.963  1.00  0.00     0.022 C 
ATOM      9  C   UNL     1     -12.686 -33.847  29.726  1.00  0.00    -0.019 C 
ATOM     10  C   UNL     1     -13.627 -33.861  30.963  1.00  0.00     0.012 C 
ATOM     11  C   UNL     1     -13.277 -32.874  28.675  1.00  0.00     0.012 C 
ENDROOT
TORSDOF 0
ENDMDL
