MODEL 1
REMARK VINA RESULT:    -3.477      0.000      0.000
REMARK INTER + INTRA:          -6.768
REMARK INTER:                  -4.900
REMARK INTRA:                  -1.868
REMARK UNBOUND:                -1.868
REMARK SMILES COc1c(O[C@H]2O[C@@H](C(=O)[O-])[C@@H](O)[C@@H](O)[C@@H]2O)cc(O)c2c(=O)cc(-c3ccccc3)oc12
REMARK SMILES IDX 5 1 6 2 8 3 12 4 7 5 14 6 16 7 9 8 10 9 11 10 13 11 15 13
REMARK SMILES IDX 17 15 4 17 3 18 18 19 33 20 19 21 21 22 32 23 22 24 25 25
REMARK SMILES IDX 24 26 23 27 2 28 1 29 20 30 26 32 27 33 31 34 28 35 30 36
REMARK SMILES IDX 29 37
REMARK H PARENT 13 12 15 14 17 16 20 31
REMARK Flexibility Score: inf
ROOT
ATOM      1  O   UNL     1       0.395  54.148  59.465  1.00  0.00    -0.458 OA
ENDROOT
BRANCH   1   2
ATOM      2  C   UNL     1      -0.561  55.037  58.877  1.00  0.00     0.339 C 
ATOM      3  C   UNL     1       0.392  57.007  59.816  1.00  0.00     0.199 C 
ATOM      4  C   UNL     1       0.906  57.477  58.429  1.00  0.00     0.180 C 
ATOM      5  O   UNL     1      -0.757  56.176  59.707  1.00  0.00    -0.328 OA
ATOM      6  C   UNL     1       1.090  56.313  57.430  1.00  0.00     0.181 C 
ATOM      7  C   UNL     1      -0.166  55.429  57.435  1.00  0.00     0.214 C 
BRANCH   3   8
ATOM      8  C   UNL     1       1.411  56.423  60.771  1.00  0.00     0.073 C 
ATOM      9  O   UNL     1       2.626  56.315  60.464  1.00  0.00    -0.547 OA
ATOM     10  O   UNL     1       0.985  55.958  62.010  1.00  0.00    -0.547 OA
ENDBRANCH   3   8
BRANCH   4  11
ATOM     11  O   UNL     1       2.036  58.310  58.535  1.00  0.00    -0.387 OA
ATOM     12  H   UNL     1       2.842  57.746  58.643  1.00  0.00     0.211 HD
ENDBRANCH   4  11
BRANCH   6  13
ATOM     13  O   UNL     1       2.210  55.527  57.754  1.00  0.00    -0.387 OA
ATOM     14  H   UNL     1       2.507  55.790  58.663  1.00  0.00     0.211 HD
ENDBRANCH   6  13
BRANCH   7  15
ATOM     15  O   UNL     1      -1.241  56.111  56.839  1.00  0.00    -0.384 OA
ATOM     16  H   UNL     1      -0.938  56.396  55.937  1.00  0.00     0.211 HD
ENDBRANCH   7  15
ENDBRANCH   1   2
BRANCH   1  17
ATOM     17  C   UNL     1       0.214  52.775  59.719  1.00  0.00     0.172 A 
ATOM     18  C   UNL     1       0.903  51.864  58.905  1.00  0.00     0.205 A 
ATOM     19  C   UNL     1      -0.608  52.304  60.756  1.00  0.00     0.097 A 
ATOM     20  C   UNL     1       0.756  50.471  59.126  1.00  0.00     0.188 A 
ATOM     21  C   UNL     1      -0.756  50.936  60.992  1.00  0.00     0.134 A 
ATOM     22  C   UNL     1      -0.075  50.005  60.179  1.00  0.00     0.111 A 
ATOM     23  O   UNL     1       1.400  49.594  58.356  1.00  0.00    -0.452 OA
ATOM     24  C   UNL     1      -0.177  48.611  60.374  1.00  0.00     0.197 A 
ATOM     25  C   UNL     1       1.332  48.275  58.521  1.00  0.00     0.138 A 
ATOM     26  C   UNL     1       0.533  47.747  59.542  1.00  0.00     0.100 A 
ATOM     27  O   UNL     1      -0.897  48.125  61.290  1.00  0.00    -0.289 OA
BRANCH  18  28
ATOM     28  O   UNL     1       1.725  52.414  57.901  1.00  0.00    -0.490 OA
ATOM     29  C   UNL     1       1.535  52.303  56.494  1.00  0.00     0.278 C 
ENDBRANCH  18  28
BRANCH  21  30
ATOM     30  O   UNL     1      -1.578  50.510  62.039  1.00  0.00    -0.507 OA
ATOM     31  H   UNL     1      -1.272  49.812  62.710  1.00  0.00     0.293 HD
ENDBRANCH  21  30
BRANCH  25  32
ATOM     32  C   UNL     1       2.106  47.395  57.613  1.00  0.00     0.017 A 
ATOM     33  C   UNL     1       3.076  47.919  56.736  1.00  0.00     0.012 A 
ATOM     34  C   UNL     1       1.853  46.012  57.600  1.00  0.00     0.012 A 
ATOM     35  C   UNL     1       3.781  47.072  55.876  1.00  0.00     0.001 A 
ATOM     36  C   UNL     1       2.562  45.169  56.739  1.00  0.00     0.001 A 
ATOM     37  C   UNL     1       3.526  45.699  55.879  1.00  0.00     0.000 A 
ENDBRANCH  25  32
ENDBRANCH   1  17
TORSDOF 9
ENDMDL
MODEL 2
REMARK VINA RESULT:    -3.427      2.363      5.025
REMARK INTER + INTRA:          -6.697
REMARK INTER:                  -4.813
REMARK INTRA:                  -1.884
REMARK UNBOUND:                -1.868
REMARK SMILES COc1c(O[C@H]2O[C@@H](C(=O)[O-])[C@@H](O)[C@@H](O)[C@@H]2O)cc(O)c2c(=O)cc(-c3ccccc3)oc12
REMARK SMILES IDX 5 1 6 2 8 3 12 4 7 5 14 6 16 7 9 8 10 9 11 10 13 11 15 13
REMARK SMILES IDX 17 15 4 17 3 18 18 19 33 20 19 21 21 22 32 23 22 24 25 25
REMARK SMILES IDX 24 26 23 27 2 28 1 29 20 30 26 32 27 33 31 34 28 35 30 36
REMARK SMILES IDX 29 37
REMARK H PARENT 13 12 15 14 17 16 20 31
REMARK Flexibility Score: inf
ROOT
ATOM      1  O   UNL     1       0.654  55.579  61.888  1.00  0.00    -0.458 OA
ENDROOT
BRANCH   1   2
ATOM      2  C   UNL     1       1.149  56.795  62.459  1.00  0.00     0.339 C 
ATOM      3  C   UNL     1       0.416  56.294  64.668  1.00  0.00     0.199 C 
ATOM      4  C   UNL     1       1.874  56.081  65.156  1.00  0.00     0.180 C 
ATOM      5  O   UNL     1       0.346  57.189  63.566  1.00  0.00    -0.328 OA
ATOM      6  C   UNL     1       2.843  55.712  64.011  1.00  0.00     0.181 C 
ATOM      7  C   UNL     1       2.643  56.683  62.837  1.00  0.00     0.214 C 
BRANCH   3   8
ATOM      8  C   UNL     1      -0.423  55.056  64.433  1.00  0.00     0.073 C 
ATOM      9  O   UNL     1      -1.579  55.117  63.940  1.00  0.00    -0.547 OA
ATOM     10  O   UNL     1       0.085  53.816  64.807  1.00  0.00    -0.547 OA
ENDBRANCH   3   8
BRANCH   4  11
ATOM     11  O   UNL     1       1.945  55.205  66.256  1.00  0.00    -0.387 OA
ATOM     12  H   UNL     1       2.614  55.549  66.898  1.00  0.00     0.211 HD
ENDBRANCH   4  11
BRANCH   6  13
ATOM     13  O   UNL     1       2.634  54.395  63.562  1.00  0.00    -0.387 OA
ATOM     14  H   UNL     1       3.001  53.783  64.251  1.00  0.00     0.211 HD
ENDBRANCH   6  13
BRANCH   7  15
ATOM     15  O   UNL     1       3.123  57.960  63.178  1.00  0.00    -0.384 OA
ATOM     16  H   UNL     1       2.341  58.574  63.170  1.00  0.00     0.211 HD
ENDBRANCH   7  15
ENDBRANCH   1   2
BRANCH   1  17
ATOM     17  C   UNL     1       0.996  55.047  60.630  1.00  0.00     0.172 A 
ATOM     18  C   UNL     1       1.019  53.651  60.497  1.00  0.00     0.205 A 
ATOM     19  C   UNL     1       1.291  55.861  59.525  1.00  0.00     0.097 A 
ATOM     20  C   UNL     1       1.352  53.069  59.248  1.00  0.00     0.188 A 
ATOM     21  C   UNL     1       1.613  55.303  58.286  1.00  0.00     0.134 A 
ATOM     22  C   UNL     1       1.646  53.901  58.134  1.00  0.00     0.111 A 
ATOM     23  O   UNL     1       1.384  51.744  59.108  1.00  0.00    -0.452 OA
ATOM     24  C   UNL     1       1.955  53.277  56.906  1.00  0.00     0.197 A 
ATOM     25  C   UNL     1       1.662  51.127  57.961  1.00  0.00     0.138 A 
ATOM     26  C   UNL     1       1.959  51.886  56.823  1.00  0.00     0.100 A 
ATOM     27  O   UNL     1       2.228  53.953  55.875  1.00  0.00    -0.289 OA
BRANCH  18  28
ATOM     28  O   UNL     1       0.689  52.903  61.644  1.00  0.00    -0.490 OA
ATOM     29  C   UNL     1      -0.526  52.199  61.878  1.00  0.00     0.278 C 
ENDBRANCH  18  28
BRANCH  21  30
ATOM     30  O   UNL     1       1.893  56.149  57.210  1.00  0.00    -0.507 OA
ATOM     31  H   UNL     1       1.247  56.876  56.917  1.00  0.00     0.293 HD
ENDBRANCH  21  30
BRANCH  25  32
ATOM     32  C   UNL     1       1.652  49.646  57.919  1.00  0.00     0.017 A 
ATOM     33  C   UNL     1       2.643  48.926  57.223  1.00  0.00     0.012 A 
ATOM     34  C   UNL     1       0.622  48.937  58.562  1.00  0.00     0.012 A 
ATOM     35  C   UNL     1       2.604  47.529  57.183  1.00  0.00     0.001 A 
ATOM     36  C   UNL     1       0.589  47.540  58.519  1.00  0.00     0.001 A 
ATOM     37  C   UNL     1       1.580  46.837  57.832  1.00  0.00     0.000 A 
ENDBRANCH  25  32
ENDBRANCH   1  17
TORSDOF 9
ENDMDL
MODEL 3
REMARK VINA RESULT:    -3.426      2.281      7.958
REMARK INTER + INTRA:          -6.697
REMARK INTER:                  -5.068
REMARK INTRA:                  -1.629
REMARK UNBOUND:                -1.868
REMARK SMILES COc1c(O[C@H]2O[C@@H](C(=O)[O-])[C@@H](O)[C@@H](O)[C@@H]2O)cc(O)c2c(=O)cc(-c3ccccc3)oc12
REMARK SMILES IDX 5 1 6 2 8 3 12 4 7 5 14 6 16 7 9 8 10 9 11 10 13 11 15 13
REMARK SMILES IDX 17 15 4 17 3 18 18 19 33 20 19 21 21 22 32 23 22 24 25 25
REMARK SMILES IDX 24 26 23 27 2 28 1 29 20 30 26 32 27 33 31 34 28 35 30 36
REMARK SMILES IDX 29 37
REMARK H PARENT 13 12 15 14 17 16 20 31
REMARK Flexibility Score: inf
ROOT
ATOM      1  O   UNL     1       0.565  50.266  59.025  1.00  0.00    -0.458 OA
ENDROOT
BRANCH   1   2
ATOM      2  C   UNL     1      -0.107  49.014  58.849  1.00  0.00     0.339 C 
ATOM      3  C   UNL     1       0.462  48.800  56.547  1.00  0.00     0.199 C 
ATOM      4  C   UNL     1       1.445  47.637  56.849  1.00  0.00     0.180 C 
ATOM      5  O   UNL     1      -0.578  48.884  57.512  1.00  0.00    -0.328 OA
ATOM      6  C   UNL     1       1.966  47.653  58.303  1.00  0.00     0.181 C 
ATOM      7  C   UNL     1       0.783  47.823  59.269  1.00  0.00     0.214 C 
BRANCH   3   8
ATOM      8  C   UNL     1       1.064  50.158  56.258  1.00  0.00     0.073 C 
ATOM      9  O   UNL     1       2.297  50.379  56.373  1.00  0.00    -0.547 OA
ATOM     10  O   UNL     1       0.225  51.204  55.890  1.00  0.00    -0.547 OA
ENDBRANCH   3   8
BRANCH   4  11
ATOM     11  O   UNL     1       2.470  47.544  55.887  1.00  0.00    -0.387 OA
ATOM     12  H   UNL     1       3.168  46.927  56.219  1.00  0.00     0.211 HD
ENDBRANCH   4  11
BRANCH   6  13
ATOM     13  O   UNL     1       2.887  48.695  58.511  1.00  0.00    -0.387 OA
ATOM     14  H   UNL     1       2.821  49.311  57.737  1.00  0.00     0.211 HD
ENDBRANCH   6  13
BRANCH   7  15
ATOM     15  O   UNL     1       0.001  46.655  59.289  1.00  0.00    -0.384 OA
ATOM     16  H   UNL     1       0.435  46.007  58.673  1.00  0.00     0.211 HD
ENDBRANCH   7  15
ENDBRANCH   1   2
BRANCH   1  17
ATOM     17  C   UNL     1       0.434  51.139  60.121  1.00  0.00     0.172 A 
ATOM     18  C   UNL     1       1.093  52.375  60.055  1.00  0.00     0.205 A 
ATOM     19  C   UNL     1      -0.338  50.816  61.249  1.00  0.00     0.097 A 
ATOM     20  C   UNL     1       0.985  53.289  61.133  1.00  0.00     0.188 A 
ATOM     21  C   UNL     1      -0.462  51.709  62.316  1.00  0.00     0.134 A 
ATOM     22  C   UNL     1       0.199  52.956  62.269  1.00  0.00     0.111 A 
ATOM     23  O   UNL     1       1.611  54.465  61.087  1.00  0.00    -0.452 OA
ATOM     24  C   UNL     1       0.106  53.903  63.310  1.00  0.00     0.197 A 
ATOM     25  C   UNL     1       1.535  55.383  62.048  1.00  0.00     0.138 A 
ATOM     26  C   UNL     1       0.775  55.121  63.194  1.00  0.00     0.100 A 
ATOM     27  O   UNL     1      -0.573  53.675  64.350  1.00  0.00    -0.289 OA
BRANCH  18  28
ATOM     28  O   UNL     1       1.828  52.633  58.881  1.00  0.00    -0.490 OA
ATOM     29  C   UNL     1       1.561  53.649  57.919  1.00  0.00     0.278 C 
ENDBRANCH  18  28
BRANCH  21  30
ATOM     30  O   UNL     1      -1.245  51.353  63.416  1.00  0.00    -0.507 OA
ATOM     31  H   UNL     1      -2.033  50.719  63.330  1.00  0.00     0.293 HD
ENDBRANCH  21  30
BRANCH  25  32
ATOM     32  C   UNL     1       2.261  56.663  61.880  1.00  0.00     0.017 A 
ATOM     33  C   UNL     1       2.278  57.339  60.644  1.00  0.00     0.012 A 
ATOM     34  C   UNL     1       2.975  57.208  62.962  1.00  0.00     0.012 A 
ATOM     35  C   UNL     1       2.985  58.537  60.504  1.00  0.00     0.001 A 
ATOM     36  C   UNL     1       3.679  58.407  62.817  1.00  0.00     0.001 A 
ATOM     37  C   UNL     1       3.683  59.071  61.589  1.00  0.00     0.000 A 
ENDBRANCH  25  32
ENDBRANCH   1  17
TORSDOF 9
ENDMDL
MODEL 4
REMARK VINA RESULT:    -3.250      2.343      5.196
REMARK INTER + INTRA:          -6.448
REMARK INTER:                  -4.496
REMARK INTRA:                  -1.952
REMARK UNBOUND:                -1.868
REMARK SMILES COc1c(O[C@H]2O[C@@H](C(=O)[O-])[C@@H](O)[C@@H](O)[C@@H]2O)cc(O)c2c(=O)cc(-c3ccccc3)oc12
REMARK SMILES IDX 5 1 6 2 8 3 12 4 7 5 14 6 16 7 9 8 10 9 11 10 13 11 15 13
REMARK SMILES IDX 17 15 4 17 3 18 18 19 33 20 19 21 21 22 32 23 22 24 25 25
REMARK SMILES IDX 24 26 23 27 2 28 1 29 20 30 26 32 27 33 31 34 28 35 30 36
REMARK SMILES IDX 29 37
REMARK H PARENT 13 12 15 14 17 16 20 31
REMARK Flexibility Score: inf
ROOT
ATOM      1  O   UNL     1      -0.515  52.863  61.885  1.00  0.00    -0.458 OA
ENDROOT
BRANCH   1   2
ATOM      2  C   UNL     1      -0.200  53.919  62.798  1.00  0.00     0.339 C 
ATOM      3  C   UNL     1      -1.946  53.390  64.328  1.00  0.00     0.199 C 
ATOM      4  C   UNL     1      -0.930  52.877  65.384  1.00  0.00     0.180 C 
ATOM      5  O   UNL     1      -1.374  54.366  63.467  1.00  0.00    -0.328 OA
ATOM      6  C   UNL     1       0.409  52.426  64.760  1.00  0.00     0.181 C 
ATOM      7  C   UNL     1       0.912  53.506  63.790  1.00  0.00     0.214 C 
BRANCH   3   8
ATOM      8  C   UNL     1      -2.722  52.349  63.551  1.00  0.00     0.073 C 
ATOM      9  O   UNL     1      -2.564  51.116  63.746  1.00  0.00    -0.547 OA
ATOM     10  O   UNL     1      -3.610  52.766  62.566  1.00  0.00    -0.547 OA
ENDBRANCH   3   8
BRANCH   4  11
ATOM     11  O   UNL     1      -1.498  51.919  66.247  1.00  0.00    -0.387 OA
ATOM     12  H   UNL     1      -2.469  52.090  66.322  1.00  0.00     0.211 HD
ENDBRANCH   4  11
BRANCH   6  13
ATOM     13  O   UNL     1       0.273  51.209  64.069  1.00  0.00    -0.387 OA
ATOM     14  H   UNL     1       0.235  50.484  64.744  1.00  0.00     0.211 HD
ENDBRANCH   6  13
BRANCH   7  15
ATOM     15  O   UNL     1       1.330  54.642  64.503  1.00  0.00    -0.384 OA
ATOM     16  H   UNL     1       0.803  55.411  64.157  1.00  0.00     0.211 HD
ENDBRANCH   7  15
ENDBRANCH   1   2
BRANCH   1  17
ATOM     17  C   UNL     1       0.100  52.621  60.641  1.00  0.00     0.172 A 
ATOM     18  C   UNL     1       0.434  51.296  60.324  1.00  0.00     0.205 A 
ATOM     19  C   UNL     1       0.366  53.650  59.723  1.00  0.00     0.097 A 
ATOM     20  C   UNL     1       1.050  51.005  59.081  1.00  0.00     0.188 A 
ATOM     21  C   UNL     1       0.964  53.378  58.490  1.00  0.00     0.134 A 
ATOM     22  C   UNL     1       1.312  52.051  58.157  1.00  0.00     0.111 A 
ATOM     23  O   UNL     1       1.379  49.751  58.768  1.00  0.00    -0.452 OA
ATOM     24  C   UNL     1       1.910  51.711  56.924  1.00  0.00     0.197 A 
ATOM     25  C   UNL     1       1.934  49.398  57.611  1.00  0.00     0.138 A 
ATOM     26  C   UNL     1       2.217  50.379  56.653  1.00  0.00     0.100 A 
ATOM     27  O   UNL     1       2.172  52.589  56.055  1.00  0.00    -0.289 OA
BRANCH  18  28
ATOM     28  O   UNL     1       0.115  50.319  61.287  1.00  0.00    -0.490 OA
ATOM     29  C   UNL     1      -0.959  49.387  61.226  1.00  0.00     0.278 C 
ENDBRANCH  18  28
BRANCH  21  30
ATOM     30  O   UNL     1       1.204  54.429  57.602  1.00  0.00    -0.507 OA
ATOM     31  H   UNL     1       0.461  55.046  57.289  1.00  0.00     0.293 HD
ENDBRANCH  21  30
BRANCH  25  32
ATOM     32  C   UNL     1       2.242  47.969  57.367  1.00  0.00     0.017 A 
ATOM     33  C   UNL     1       3.273  47.582  56.489  1.00  0.00     0.012 A 
ATOM     34  C   UNL     1       1.476  46.973  57.998  1.00  0.00     0.012 A 
ATOM     35  C   UNL     1       3.535  46.227  56.260  1.00  0.00     0.001 A 
ATOM     36  C   UNL     1       1.742  45.620  57.766  1.00  0.00     0.001 A 
ATOM     37  C   UNL     1       2.772  45.248  56.899  1.00  0.00     0.000 A 
ENDBRANCH  25  32
ENDBRANCH   1  17
TORSDOF 9
ENDMDL
MODEL 5
REMARK VINA RESULT:    -3.213     16.899     20.938
REMARK INTER + INTRA:          -6.396
REMARK INTER:                  -4.504
REMARK INTRA:                  -1.893
REMARK UNBOUND:                -1.868
REMARK SMILES COc1c(O[C@H]2O[C@@H](C(=O)[O-])[C@@H](O)[C@@H](O)[C@@H]2O)cc(O)c2c(=O)cc(-c3ccccc3)oc12
REMARK SMILES IDX 5 1 6 2 8 3 12 4 7 5 14 6 16 7 9 8 10 9 11 10 13 11 15 13
REMARK SMILES IDX 17 15 4 17 3 18 18 19 33 20 19 21 21 22 32 23 22 24 25 25
REMARK SMILES IDX 24 26 23 27 2 28 1 29 20 30 26 32 27 33 31 34 28 35 30 36
REMARK SMILES IDX 29 37
REMARK H PARENT 13 12 15 14 17 16 20 31
REMARK Flexibility Score: inf
ROOT
ATOM      1  O   UNL     1     -10.631  50.240  72.964  1.00  0.00    -0.458 OA
ENDROOT
BRANCH   1   2
ATOM      2  C   UNL     1     -10.047  49.011  73.408  1.00  0.00     0.339 C 
ATOM      3  C   UNL     1      -8.228  49.085  71.873  1.00  0.00     0.199 C 
ATOM      4  C   UNL     1      -7.215  49.375  73.013  1.00  0.00     0.180 C 
ATOM      5  O   UNL     1      -9.364  48.368  72.338  1.00  0.00    -0.328 OA
ATOM      6  C   UNL     1      -7.874  50.018  74.254  1.00  0.00     0.181 C 
ATOM      7  C   UNL     1      -9.132  49.223  74.636  1.00  0.00     0.214 C 
BRANCH   3   8
ATOM      8  C   UNL     1      -8.627  50.248  70.990  1.00  0.00     0.073 C 
ATOM      9  O   UNL     1      -9.500  50.133  70.092  1.00  0.00    -0.547 OA
ATOM     10  O   UNL     1      -7.983  51.469  71.151  1.00  0.00    -0.547 OA
ENDBRANCH   3   8
BRANCH   4  11
ATOM     11  O   UNL     1      -6.082  50.075  72.553  1.00  0.00    -0.387 OA
ATOM     12  H   UNL     1      -5.503  50.291  73.325  1.00  0.00     0.211 HD
ENDBRANCH   4  11
BRANCH   6  13
ATOM     13  O   UNL     1      -8.228  51.358  74.014  1.00  0.00    -0.387 OA
ATOM     14  H   UNL     1      -8.701  51.691  74.820  1.00  0.00     0.211 HD
ENDBRANCH   6  13
BRANCH   7  15
ATOM     15  O   UNL     1      -8.773  47.969  75.157  1.00  0.00    -0.384 OA
ATOM     16  H   UNL     1      -8.708  47.343  74.387  1.00  0.00     0.211 HD
ENDBRANCH   7  15
ENDBRANCH   1   2
BRANCH   1  17
ATOM     17  C   UNL     1     -11.733  50.899  73.541  1.00  0.00     0.172 A 
ATOM     18  C   UNL     1     -11.664  52.294  73.673  1.00  0.00     0.205 A 
ATOM     19  C   UNL     1     -12.883  50.211  73.963  1.00  0.00     0.097 A 
ATOM     20  C   UNL     1     -12.753  53.001  74.244  1.00  0.00     0.188 A 
ATOM     21  C   UNL     1     -13.967  50.894  74.519  1.00  0.00     0.134 A 
ATOM     22  C   UNL     1     -13.912  52.297  74.665  1.00  0.00     0.111 A 
ATOM     23  O   UNL     1     -12.699  54.326  74.382  1.00  0.00    -0.452 OA
ATOM     24  C   UNL     1     -14.978  53.044  75.211  1.00  0.00     0.197 A 
ATOM     25  C   UNL     1     -13.691  55.059  74.883  1.00  0.00     0.138 A 
ATOM     26  C   UNL     1     -14.864  54.429  75.316  1.00  0.00     0.100 A 
ATOM     27  O   UNL     1     -16.039  52.486  75.606  1.00  0.00    -0.289 OA
BRANCH  18  28
ATOM     28  O   UNL     1     -10.488  52.913  73.207  1.00  0.00    -0.490 OA
ATOM     29  C   UNL     1     -10.347  53.671  72.010  1.00  0.00     0.278 C 
ENDBRANCH  18  28
BRANCH  21  30
ATOM     30  O   UNL     1     -15.094  50.173  74.919  1.00  0.00    -0.507 OA
ATOM     31  H   UNL     1     -15.325  49.272  74.513  1.00  0.00     0.293 HD
ENDBRANCH  21  30
BRANCH  25  32
ATOM     32  C   UNL     1     -13.525  56.528  74.974  1.00  0.00     0.017 A 
ATOM     33  C   UNL     1     -14.195  57.397  74.091  1.00  0.00     0.012 A 
ATOM     34  C   UNL     1     -12.661  57.075  75.940  1.00  0.00     0.012 A 
ATOM     35  C   UNL     1     -14.010  58.780  74.183  1.00  0.00     0.001 A 
ATOM     36  C   UNL     1     -12.481  58.458  76.029  1.00  0.00     0.001 A 
ATOM     37  C   UNL     1     -13.156  59.310  75.152  1.00  0.00     0.000 A 
ENDBRANCH  25  32
ENDBRANCH   1  17
TORSDOF 9
ENDMDL
MODEL 6
REMARK VINA RESULT:    -3.173      2.999      4.759
REMARK INTER + INTRA:          -6.340
REMARK INTER:                  -4.679
REMARK INTRA:                  -1.661
REMARK UNBOUND:                -1.868
REMARK SMILES COc1c(O[C@H]2O[C@@H](C(=O)[O-])[C@@H](O)[C@@H](O)[C@@H]2O)cc(O)c2c(=O)cc(-c3ccccc3)oc12
REMARK SMILES IDX 5 1 6 2 8 3 12 4 7 5 14 6 16 7 9 8 10 9 11 10 13 11 15 13
REMARK SMILES IDX 17 15 4 17 3 18 18 19 33 20 19 21 21 22 32 23 22 24 25 25
REMARK SMILES IDX 24 26 23 27 2 28 1 29 20 30 26 32 27 33 31 34 28 35 30 36
REMARK SMILES IDX 29 37
REMARK H PARENT 13 12 15 14 17 16 20 31
REMARK Flexibility Score: inf
ROOT
ATOM      1  O   UNL     1       0.356  52.563  57.505  1.00  0.00    -0.458 OA
ENDROOT
BRANCH   1   2
ATOM      2  C   UNL     1       1.418  53.523  57.486  1.00  0.00     0.339 C 
ATOM      3  C   UNL     1      -0.022  55.416  57.387  1.00  0.00     0.199 C 
ATOM      4  C   UNL     1       0.336  55.824  58.841  1.00  0.00     0.180 C 
ATOM      5  O   UNL     1       1.026  54.685  56.764  1.00  0.00    -0.328 OA
ATOM      6  C   UNL     1       0.837  54.636  59.693  1.00  0.00     0.181 C 
ATOM      7  C   UNL     1       1.909  53.862  58.911  1.00  0.00     0.214 C 
BRANCH   3   8
ATOM      8  C   UNL     1      -1.367  54.760  57.163  1.00  0.00     0.073 C 
ATOM      9  O   UNL     1      -2.159  54.523  58.110  1.00  0.00    -0.547 OA
ATOM     10  O   UNL     1      -1.723  54.373  55.875  1.00  0.00    -0.547 OA
ENDBRANCH   3   8
BRANCH   4  11
ATOM     11  O   UNL     1      -0.696  56.559  59.456  1.00  0.00    -0.387 OA
ATOM     12  H   UNL     1      -1.568  56.230  59.124  1.00  0.00     0.211 HD
ENDBRANCH   4  11
BRANCH   6  13
ATOM     13  O   UNL     1      -0.213  53.762  60.028  1.00  0.00    -0.387 OA
ATOM     14  H   UNL     1      -1.060  54.186  59.735  1.00  0.00     0.211 HD
ENDBRANCH   6  13
BRANCH   7  15
ATOM     15  O   UNL     1       3.086  54.625  58.817  1.00  0.00    -0.384 OA
ATOM     16  H   UNL     1       3.651  54.382  59.598  1.00  0.00     0.211 HD
ENDBRANCH   7  15
ENDBRANCH   1   2
BRANCH   1  17
ATOM     17  C   UNL     1       0.483  51.181  57.741  1.00  0.00     0.172 A 
ATOM     18  C   UNL     1      -0.695  50.425  57.843  1.00  0.00     0.205 A 
ATOM     19  C   UNL     1       1.732  50.550  57.857  1.00  0.00     0.097 A 
ATOM     20  C   UNL     1      -0.617  49.029  58.075  1.00  0.00     0.188 A 
ATOM     21  C   UNL     1       1.826  49.173  58.076  1.00  0.00     0.134 A 
ATOM     22  C   UNL     1       0.651  48.399  58.187  1.00  0.00     0.111 A 
ATOM     23  O   UNL     1      -1.728  48.299  58.181  1.00  0.00    -0.452 OA
ATOM     24  C   UNL     1       0.680  47.004  58.400  1.00  0.00     0.197 A 
ATOM     25  C   UNL     1      -1.733  46.982  58.371  1.00  0.00     0.138 A 
ATOM     26  C   UNL     1      -0.517  46.296  58.488  1.00  0.00     0.100 A 
ATOM     27  O   UNL     1       1.771  46.377  58.510  1.00  0.00    -0.289 OA
BRANCH  18  28
ATOM     28  O   UNL     1      -1.907  51.127  57.694  1.00  0.00    -0.490 OA
ATOM     29  C   UNL     1      -2.758  51.117  56.552  1.00  0.00     0.278 C 
ENDBRANCH  18  28
BRANCH  21  30
ATOM     30  O   UNL     1       3.088  48.584  58.177  1.00  0.00    -0.507 OA
ATOM     31  H   UNL     1       3.609  48.580  59.048  1.00  0.00     0.293 HD
ENDBRANCH  21  30
BRANCH  25  32
ATOM     32  C   UNL     1      -3.030  46.272  58.457  1.00  0.00     0.017 A 
ATOM     33  C   UNL     1      -3.655  45.746  57.309  1.00  0.00     0.012 A 
ATOM     34  C   UNL     1      -3.672  46.139  59.701  1.00  0.00     0.012 A 
ATOM     35  C   UNL     1      -4.889  45.096  57.412  1.00  0.00     0.001 A 
ATOM     36  C   UNL     1      -4.904  45.486  59.798  1.00  0.00     0.001 A 
ATOM     37  C   UNL     1      -5.511  44.964  58.655  1.00  0.00     0.000 A 
ENDBRANCH  25  32
ENDBRANCH   1  17
TORSDOF 9
ENDMDL
MODEL 7
REMARK VINA RESULT:    -2.749      2.395      4.799
REMARK INTER + INTRA:          -5.742
REMARK INTER:                  -3.878
REMARK INTRA:                  -1.864
REMARK UNBOUND:                -1.868
REMARK SMILES COc1c(O[C@H]2O[C@@H](C(=O)[O-])[C@@H](O)[C@@H](O)[C@@H]2O)cc(O)c2c(=O)cc(-c3ccccc3)oc12
REMARK SMILES IDX 5 1 6 2 8 3 12 4 7 5 14 6 16 7 9 8 10 9 11 10 13 11 15 13
REMARK SMILES IDX 17 15 4 17 3 18 18 19 33 20 19 21 21 22 32 23 22 24 25 25
REMARK SMILES IDX 24 26 23 27 2 28 1 29 20 30 26 32 27 33 31 34 28 35 30 36
REMARK SMILES IDX 29 37
REMARK H PARENT 13 12 15 14 17 16 20 31
REMARK Flexibility Score: inf
ROOT
ATOM      1  O   UNL     1       0.565  52.385  57.389  1.00  0.00    -0.458 OA
ENDROOT
BRANCH   1   2
ATOM      2  C   UNL     1       1.513  53.457  57.421  1.00  0.00     0.339 C 
ATOM      3  C   UNL     1      -0.126  55.180  57.302  1.00  0.00     0.199 C 
ATOM      4  C   UNL     1       0.136  55.597  58.774  1.00  0.00     0.180 C 
ATOM      5  O   UNL     1       1.018  54.582  56.705  1.00  0.00    -0.328 OA
ATOM      6  C   UNL     1       0.738  54.456  59.624  1.00  0.00     0.181 C 
ATOM      7  C   UNL     1       1.916  53.822  58.868  1.00  0.00     0.214 C 
BRANCH   3   8
ATOM      8  C   UNL     1      -1.381  54.382  57.021  1.00  0.00     0.073 C 
ATOM      9  O   UNL     1      -1.644  53.935  55.875  1.00  0.00    -0.547 OA
ATOM     10  O   UNL     1      -2.289  54.168  58.052  1.00  0.00    -0.547 OA
ENDBRANCH   3   8
BRANCH   4  11
ATOM     11  O   UNL     1      -0.992  56.201  59.365  1.00  0.00    -0.387 OA
ATOM     12  H   UNL     1      -0.688  56.893  60.003  1.00  0.00     0.211 HD
ENDBRANCH   4  11
BRANCH   6  13
ATOM     13  O   UNL     1      -0.217  53.464  59.909  1.00  0.00    -0.387 OA
ATOM     14  H   UNL     1       0.100  52.618  59.501  1.00  0.00     0.211 HD
ENDBRANCH   6  13
BRANCH   7  15
ATOM     15  O   UNL     1       3.002  54.713  58.827  1.00  0.00    -0.384 OA
ATOM     16  H   UNL     1       3.553  54.460  58.039  1.00  0.00     0.211 HD
ENDBRANCH   7  15
ENDBRANCH   1   2
BRANCH   1  17
ATOM     17  C   UNL     1       0.849  51.014  57.535  1.00  0.00     0.172 A 
ATOM     18  C   UNL     1       0.047  50.271  58.414  1.00  0.00     0.205 A 
ATOM     19  C   UNL     1       1.881  50.380  56.824  1.00  0.00     0.097 A 
ATOM     20  C   UNL     1       0.291  48.885  58.589  1.00  0.00     0.188 A 
ATOM     21  C   UNL     1       2.129  49.015  56.979  1.00  0.00     0.134 A 
ATOM     22  C   UNL     1       1.336  48.253  57.864  1.00  0.00     0.111 A 
ATOM     23  O   UNL     1      -0.458  48.168  59.426  1.00  0.00    -0.452 OA
ATOM     24  C   UNL     1       1.531  46.868  58.056  1.00  0.00     0.197 A 
ATOM     25  C   UNL     1      -0.305  46.860  59.621  1.00  0.00     0.138 A 
ATOM     26  C   UNL     1       0.704  46.173  58.936  1.00  0.00     0.100 A 
ATOM     27  O   UNL     1       2.441  46.240  57.445  1.00  0.00    -0.289 OA
BRANCH  18  28
ATOM     28  O   UNL     1      -0.982  50.972  59.073  1.00  0.00    -0.490 OA
ATOM     29  C   UNL     1      -2.380  50.846  58.837  1.00  0.00     0.278 C 
ENDBRANCH  18  28
BRANCH  21  30
ATOM     30  O   UNL     1       3.161  48.422  56.247  1.00  0.00    -0.507 OA
ATOM     31  H   UNL     1       3.355  48.684  55.286  1.00  0.00     0.293 HD
ENDBRANCH  21  30
BRANCH  25  32
ATOM     32  C   UNL     1      -1.210  46.163  60.566  1.00  0.00     0.017 A 
ATOM     33  C   UNL     1      -2.504  45.762  60.180  1.00  0.00     0.012 A 
ATOM     34  C   UNL     1      -0.786  45.916  61.884  1.00  0.00     0.012 A 
ATOM     35  C   UNL     1      -3.347  45.122  61.093  1.00  0.00     0.001 A 
ATOM     36  C   UNL     1      -1.632  45.273  62.792  1.00  0.00     0.001 A 
ATOM     37  C   UNL     1      -2.911  44.875  62.397  1.00  0.00     0.000 A 
ENDBRANCH  25  32
ENDBRANCH   1  17
TORSDOF 9
ENDMDL
MODEL 8
REMARK VINA RESULT:    -1.891      2.789      8.785
REMARK INTER + INTRA:          -4.532
REMARK INTER:                  -2.938
REMARK INTRA:                  -1.594
REMARK UNBOUND:                -1.868
REMARK SMILES COc1c(O[C@H]2O[C@@H](C(=O)[O-])[C@@H](O)[C@@H](O)[C@@H]2O)cc(O)c2c(=O)cc(-c3ccccc3)oc12
REMARK SMILES IDX 5 1 6 2 8 3 12 4 7 5 14 6 16 7 9 8 10 9 11 10 13 11 15 13
REMARK SMILES IDX 17 15 4 17 3 18 18 19 33 20 19 21 21 22 32 23 22 24 25 25
REMARK SMILES IDX 24 26 23 27 2 28 1 29 20 30 26 32 27 33 31 34 28 35 30 36
REMARK SMILES IDX 29 37
REMARK H PARENT 13 12 15 14 17 16 20 31
REMARK Flexibility Score: inf
ROOT
ATOM      1  O   UNL     1       0.118  50.738  58.517  1.00  0.00    -0.458 OA
ENDROOT
BRANCH   1   2
ATOM      2  C   UNL     1       1.042  49.706  58.878  1.00  0.00     0.339 C 
ATOM      3  C   UNL     1      -0.353  47.920  58.148  1.00  0.00     0.199 C 
ATOM      4  C   UNL     1       0.581  47.618  56.946  1.00  0.00     0.180 C 
ATOM      5  O   UNL     1       0.347  48.516  59.233  1.00  0.00    -0.328 OA
ATOM      6  C   UNL     1       1.430  48.836  56.524  1.00  0.00     0.181 C 
ATOM      7  C   UNL     1       2.086  49.459  57.766  1.00  0.00     0.214 C 
BRANCH   3   8
ATOM      8  C   UNL     1      -1.647  48.650  57.854  1.00  0.00     0.073 C 
ATOM      9  O   UNL     1      -1.933  49.058  56.699  1.00  0.00    -0.547 OA
ATOM     10  O   UNL     1      -2.528  48.908  58.898  1.00  0.00    -0.547 OA
ENDBRANCH   3   8
BRANCH   4  11
ATOM     11  O   UNL     1      -0.109  47.015  55.875  1.00  0.00    -0.387 OA
ATOM     12  H   UNL     1       0.300  47.311  55.024  1.00  0.00     0.211 HD
ENDBRANCH   4  11
BRANCH   6  13
ATOM     13  O   UNL     1       0.651  49.810  55.875  1.00  0.00    -0.387 OA
ATOM     14  H   UNL     1      -0.144  49.353  55.496  1.00  0.00     0.211 HD
ENDBRANCH   6  13
BRANCH   7  15
ATOM     15  O   UNL     1       3.088  48.607  58.263  1.00  0.00    -0.384 OA
ATOM     16  H   UNL     1       3.500  48.157  57.479  1.00  0.00     0.211 HD
ENDBRANCH   7  15
ENDBRANCH   1   2
BRANCH   1  17
ATOM     17  C   UNL     1       0.299  52.122  58.696  1.00  0.00     0.172 A 
ATOM     18  C   UNL     1      -0.844  52.908  58.909  1.00  0.00     0.205 A 
ATOM     19  C   UNL     1       1.569  52.721  58.684  1.00  0.00     0.097 A 
ATOM     20  C   UNL     1      -0.710  54.307  59.100  1.00  0.00     0.188 A 
ATOM     21  C   UNL     1       1.718  54.096  58.879  1.00  0.00     0.134 A 
ATOM     22  C   UNL     1       0.579  54.903  59.089  1.00  0.00     0.111 A 
ATOM     23  O   UNL     1      -1.787  55.067  59.296  1.00  0.00    -0.452 OA
ATOM     24  C   UNL     1       0.665  56.296  59.301  1.00  0.00     0.197 A 
ATOM     25  C   UNL     1      -1.737  56.380  59.509  1.00  0.00     0.138 A 
ATOM     26  C   UNL     1      -0.498  57.033  59.514  1.00  0.00     0.100 A 
ATOM     27  O   UNL     1       1.777  56.894  59.304  1.00  0.00    -0.289 OA
BRANCH  18  28
ATOM     28  O   UNL     1      -2.078  52.231  58.929  1.00  0.00    -0.490 OA
ATOM     29  C   UNL     1      -3.059  52.223  57.896  1.00  0.00     0.278 C 
ENDBRANCH  18  28
BRANCH  21  30
ATOM     30  O   UNL     1       3.000  54.651  58.867  1.00  0.00    -0.507 OA
ATOM     31  H   UNL     1       3.247  55.441  59.455  1.00  0.00     0.293 HD
ENDBRANCH  21  30
BRANCH  25  32
ATOM     32  C   UNL     1      -3.001  57.122  59.732  1.00  0.00     0.017 A 
ATOM     33  C   UNL     1      -3.160  57.982  60.836  1.00  0.00     0.012 A 
ATOM     34  C   UNL     1      -4.078  56.947  58.846  1.00  0.00     0.012 A 
ATOM     35  C   UNL     1      -4.367  58.658  61.037  1.00  0.00     0.001 A 
ATOM     36  C   UNL     1      -5.282  57.627  59.050  1.00  0.00     0.001 A 
ATOM     37  C   UNL     1      -5.426  58.482  60.144  1.00  0.00     0.000 A 
ENDBRANCH  25  32
ENDBRANCH   1  17
TORSDOF 9
ENDMDL
MODEL 9
REMARK VINA RESULT:    -1.729     18.617     21.689
REMARK INTER + INTRA:          -4.305
REMARK INTER:                  -2.398
REMARK INTRA:                  -1.907
REMARK UNBOUND:                -1.868
REMARK SMILES COc1c(O[C@H]2O[C@@H](C(=O)[O-])[C@@H](O)[C@@H](O)[C@@H]2O)cc(O)c2c(=O)cc(-c3ccccc3)oc12
REMARK SMILES IDX 5 1 6 2 8 3 12 4 7 5 14 6 16 7 9 8 10 9 11 10 13 11 15 13
REMARK SMILES IDX 17 15 4 17 3 18 18 19 33 20 19 21 21 22 32 23 22 24 25 25
REMARK SMILES IDX 24 26 23 27 2 28 1 29 20 30 26 32 27 33 31 34 28 35 30 36
REMARK SMILES IDX 29 37
REMARK H PARENT 13 12 15 14 17 16 20 31
REMARK Flexibility Score: inf
ROOT
ATOM      1  O   UNL     1     -13.769  56.034  73.515  1.00  0.00    -0.458 OA
ENDROOT
BRANCH   1   2
ATOM      2  C   UNL     1     -14.962  55.415  74.008  1.00  0.00     0.339 C 
ATOM      3  C   UNL     1     -14.995  53.697  72.359  1.00  0.00     0.199 C 
ATOM      4  C   UNL     1     -14.622  52.616  73.408  1.00  0.00     0.180 C 
ATOM      5  O   UNL     1     -15.679  54.797  72.945  1.00  0.00    -0.328 OA
ATOM      6  C   UNL     1     -13.893  53.199  74.639  1.00  0.00     0.181 C 
ATOM      7  C   UNL     1     -14.661  54.425  75.156  1.00  0.00     0.214 C 
BRANCH   3   8
ATOM      8  C   UNL     1     -13.899  54.159  71.422  1.00  0.00     0.073 C 
ATOM      9  O   UNL     1     -14.069  55.110  70.615  1.00  0.00    -0.547 OA
ATOM     10  O   UNL     1     -12.681  53.490  71.426  1.00  0.00    -0.547 OA
ENDBRANCH   3   8
BRANCH   4  11
ATOM     11  O   UNL     1     -13.955  51.519  72.828  1.00  0.00    -0.387 OA
ATOM     12  H   UNL     1     -12.988  51.593  73.021  1.00  0.00     0.211 HD
ENDBRANCH   4  11
BRANCH   6  13
ATOM     13  O   UNL     1     -12.574  53.576  74.327  1.00  0.00    -0.387 OA
ATOM     14  H   UNL     1     -12.266  52.999  73.582  1.00  0.00     0.211 HD
ENDBRANCH   6  13
BRANCH   7  15
ATOM     15  O   UNL     1     -15.874  54.026  75.742  1.00  0.00    -0.384 OA
ATOM     16  H   UNL     1     -15.644  53.516  76.564  1.00  0.00     0.211 HD
ENDBRANCH   7  15
ENDBRANCH   1   2
BRANCH   1  17
ATOM     17  C   UNL     1     -13.122  57.157  74.064  1.00  0.00     0.172 A 
ATOM     18  C   UNL     1     -11.719  57.162  74.074  1.00  0.00     0.205 A 
ATOM     19  C   UNL     1     -13.830  58.257  74.576  1.00  0.00     0.097 A 
ATOM     20  C   UNL     1     -11.023  58.274  74.613  1.00  0.00     0.188 A 
ATOM     21  C   UNL     1     -13.159  59.363  75.101  1.00  0.00     0.134 A 
ATOM     22  C   UNL     1     -11.748  59.383  75.125  1.00  0.00     0.111 A 
ATOM     23  O   UNL     1      -9.691  58.290  74.635  1.00  0.00    -0.452 OA
ATOM     24  C   UNL     1     -11.013  60.475  75.634  1.00  0.00     0.197 A 
ATOM     25  C   UNL     1      -8.970  59.308  75.099  1.00  0.00     0.138 A 
ATOM     26  C   UNL     1      -9.620  60.435  75.616  1.00  0.00     0.100 A 
ATOM     27  O   UNL     1     -11.591  61.494  76.106  1.00  0.00    -0.289 OA
BRANCH  18  28
ATOM     28  O   UNL     1     -11.082  56.033  73.524  1.00  0.00    -0.490 OA
ATOM     29  C   UNL     1     -10.491  55.939  72.231  1.00  0.00     0.278 C 
ENDBRANCH  18  28
BRANCH  21  30
ATOM     30  O   UNL     1     -13.901  60.440  75.593  1.00  0.00    -0.507 OA
ATOM     31  H   UNL     1     -13.576  61.004  76.371  1.00  0.00     0.293 HD
ENDBRANCH  21  30
BRANCH  25  32
ATOM     32  C   UNL     1      -7.491  59.222  75.058  1.00  0.00     0.017 A 
ATOM     33  C   UNL     1      -6.823  58.607  73.982  1.00  0.00     0.012 A 
ATOM     34  C   UNL     1      -6.733  59.736  76.125  1.00  0.00     0.012 A 
ATOM     35  C   UNL     1      -5.427  58.521  73.973  1.00  0.00     0.001 A 
ATOM     36  C   UNL     1      -5.338  59.649  76.110  1.00  0.00     0.001 A 
ATOM     37  C   UNL     1      -4.686  59.043  75.035  1.00  0.00     0.000 A 
ENDBRANCH  25  32
ENDBRANCH   1  17
TORSDOF 9
ENDMDL
