MODEL 1
REMARK VINA RESULT:    -3.387      0.000      0.000
REMARK INTER + INTRA:          -7.161
REMARK INTER:                  -5.762
REMARK INTRA:                  -1.399
REMARK UNBOUND:                -1.399
REMARK SMILES CCCCCCCCCCCCCC(=O)[O-]
REMARK SMILES IDX 8 1 9 2 10 3 11 4 12 5 13 6 14 7 15 8 16 9 7 10 6 11 5 12
REMARK SMILES IDX 4 13 3 14 2 15 1 16
REMARK H PARENT
REMARK Flexibility Score: inf
ROOT
ATOM      1  C   UNL     1      16.685   3.538  43.001  1.00  0.00     0.000 C 
ENDROOT
BRANCH   1   2
ATOM      2  C   UNL     1      16.436   3.591  41.487  1.00  0.00     0.000 C 
BRANCH   2   3
ATOM      3  C   UNL     1      17.080   2.389  40.782  1.00  0.00     0.000 C 
BRANCH   3   4
ATOM      4  C   UNL     1      16.153   1.748  39.737  1.00  0.00     0.000 C 
BRANCH   4   5
ATOM      5  C   UNL     1      15.256   2.779  39.030  1.00  0.00     0.006 C 
BRANCH   5   6
ATOM      6  C   UNL     1      14.978   2.401  37.570  1.00  0.00     0.053 C 
BRANCH   6   7
ATOM      7  C   UNL     1      14.359   1.041  37.456  1.00  0.00     0.041 C 
ATOM      8  O   UNL     1      14.822   0.202  36.640  1.00  0.00    -0.550 OA
ATOM      9  O   UNL     1      13.251   0.714  38.226  1.00  0.00    -0.550 OA
ENDBRANCH   6   7
ENDBRANCH   5   6
ENDBRANCH   4   5
ENDBRANCH   3   4
ENDBRANCH   2   3
ENDBRANCH   1   2
BRANCH   1  10
ATOM     10  C   UNL     1      16.654   2.106  43.563  1.00  0.00     0.000 C 
BRANCH  10  11
ATOM     11  C   UNL     1      17.403   1.911  44.897  1.00  0.00    -0.000 C 
BRANCH  11  12
ATOM     12  C   UNL     1      18.920   2.167  44.837  1.00  0.00    -0.000 C 
BRANCH  12  13
ATOM     13  C   UNL     1      19.638   1.265  43.824  1.00  0.00    -0.000 C 
BRANCH  13  14
ATOM     14  C   UNL     1      20.348   2.099  42.751  1.00  0.00    -0.000 C 
BRANCH  14  15
ATOM     15  C   UNL     1      20.536   1.293  41.461  1.00  0.00    -0.003 C 
ATOM     16  C   UNL     1      19.792  -0.037  41.529  1.00  0.00     0.004 C 
ENDBRANCH  14  15
ENDBRANCH  13  14
ENDBRANCH  12  13
ENDBRANCH  11  12
ENDBRANCH  10  11
ENDBRANCH   1  10
TORSDOF 12
ENDMDL
MODEL 2
REMARK VINA RESULT:    -3.354      0.796      1.561
REMARK INTER + INTRA:          -7.106
REMARK INTER:                  -5.600
REMARK INTRA:                  -1.506
REMARK UNBOUND:                -1.399
REMARK SMILES CCCCCCCCCCCCCC(=O)[O-]
REMARK SMILES IDX 8 1 9 2 10 3 11 4 12 5 13 6 14 7 15 8 16 9 7 10 6 11 5 12
REMARK SMILES IDX 4 13 3 14 2 15 1 16
REMARK H PARENT
REMARK Flexibility Score: inf
ROOT
ATOM      1  C   UNL     1      16.604   1.828  43.150  1.00  0.00     0.000 C 
ENDROOT
BRANCH   1   2
ATOM      2  C   UNL     1      16.819   3.263  42.647  1.00  0.00     0.000 C 
BRANCH   2   3
ATOM      3  C   UNL     1      16.257   3.438  41.230  1.00  0.00     0.000 C 
BRANCH   3   4
ATOM      4  C   UNL     1      16.152   2.108  40.466  1.00  0.00     0.000 C 
BRANCH   4   5
ATOM      5  C   UNL     1      15.962   2.308  38.953  1.00  0.00     0.006 C 
BRANCH   5   6
ATOM      6  C   UNL     1      15.970   0.979  38.187  1.00  0.00     0.053 C 
BRANCH   6   7
ATOM      7  C   UNL     1      14.642   0.695  37.553  1.00  0.00     0.041 C 
ATOM      8  O   UNL     1      13.592   0.721  38.246  1.00  0.00    -0.550 OA
ATOM      9  O   UNL     1      14.570   0.367  36.205  1.00  0.00    -0.550 OA
ENDBRANCH   6   7
ENDBRANCH   5   6
ENDBRANCH   4   5
ENDBRANCH   3   4
ENDBRANCH   2   3
ENDBRANCH   1   2
BRANCH   1  10
ATOM     10  C   UNL     1      17.338   1.539  44.471  1.00  0.00     0.000 C 
BRANCH  10  11
ATOM     11  C   UNL     1      18.831   1.927  44.488  1.00  0.00    -0.000 C 
BRANCH  11  12
ATOM     12  C   UNL     1      19.743   1.049  43.614  1.00  0.00    -0.000 C 
BRANCH  12  13
ATOM     13  C   UNL     1      20.562   1.862  42.601  1.00  0.00    -0.000 C 
BRANCH  13  14
ATOM     14  C   UNL     1      19.915   1.823  41.212  1.00  0.00    -0.000 C 
BRANCH  14  15
ATOM     15  C   UNL     1      19.492   0.397  40.842  1.00  0.00    -0.003 C 
ATOM     16  C   UNL     1      20.685  -0.425  40.362  1.00  0.00     0.004 C 
ENDBRANCH  14  15
ENDBRANCH  13  14
ENDBRANCH  12  13
ENDBRANCH  11  12
ENDBRANCH  10  11
ENDBRANCH   1  10
TORSDOF 12
ENDMDL
MODEL 3
REMARK VINA RESULT:    -3.338      1.203      1.716
REMARK INTER + INTRA:          -7.079
REMARK INTER:                  -5.626
REMARK INTRA:                  -1.453
REMARK UNBOUND:                -1.399
REMARK SMILES CCCCCCCCCCCCCC(=O)[O-]
REMARK SMILES IDX 8 1 9 2 10 3 11 4 12 5 13 6 14 7 15 8 16 9 7 10 6 11 5 12
REMARK SMILES IDX 4 13 3 14 2 15 1 16
REMARK H PARENT
REMARK Flexibility Score: inf
ROOT
ATOM      1  C   UNL     1      16.324   2.175  44.133  1.00  0.00     0.000 C 
ENDROOT
BRANCH   1   2
ATOM      2  C   UNL     1      16.876   3.024  42.980  1.00  0.00     0.000 C 
BRANCH   2   3
ATOM      3  C   UNL     1      16.468   2.437  41.621  1.00  0.00     0.000 C 
BRANCH   3   4
ATOM      4  C   UNL     1      16.209   3.519  40.561  1.00  0.00     0.000 C 
BRANCH   4   5
ATOM      5  C   UNL     1      16.298   2.975  39.125  1.00  0.00     0.006 C 
BRANCH   5   6
ATOM      6  C   UNL     1      15.761   1.542  39.014  1.00  0.00     0.053 C 
BRANCH   6   7
ATOM      7  C   UNL     1      14.419   1.502  38.348  1.00  0.00     0.041 C 
ATOM      8  O   UNL     1      13.984   0.423  37.868  1.00  0.00    -0.550 OA
ATOM      9  O   UNL     1      13.667   2.663  38.227  1.00  0.00    -0.550 OA
ENDBRANCH   6   7
ENDBRANCH   5   6
ENDBRANCH   4   5
ENDBRANCH   3   4
ENDBRANCH   2   3
ENDBRANCH   1   2
BRANCH   1  10
ATOM     10  C   UNL     1      17.288   2.089  45.329  1.00  0.00     0.000 C 
BRANCH  10  11
ATOM     11  C   UNL     1      18.578   2.923  45.191  1.00  0.00    -0.000 C 
BRANCH  11  12
ATOM     12  C   UNL     1      19.858   2.107  44.936  1.00  0.00    -0.000 C 
BRANCH  12  13
ATOM     13  C   UNL     1      20.316   2.157  43.471  1.00  0.00    -0.000 C 
BRANCH  13  14
ATOM     14  C   UNL     1      19.851   0.912  42.706  1.00  0.00    -0.000 C 
BRANCH  14  15
ATOM     15  C   UNL     1      19.730  -0.296  43.642  1.00  0.00    -0.003 C 
ATOM     16  C   UNL     1      18.409  -1.030  43.427  1.00  0.00     0.004 C 
ENDBRANCH  14  15
ENDBRANCH  13  14
ENDBRANCH  12  13
ENDBRANCH  11  12
ENDBRANCH  10  11
ENDBRANCH   1  10
TORSDOF 12
ENDMDL
MODEL 4
REMARK VINA RESULT:    -3.321     10.431     12.163
REMARK INTER + INTRA:          -7.050
REMARK INTER:                  -5.701
REMARK INTRA:                  -1.349
REMARK UNBOUND:                -1.399
REMARK SMILES CCCCCCCCCCCCCC(=O)[O-]
REMARK SMILES IDX 8 1 9 2 10 3 11 4 12 5 13 6 14 7 15 8 16 9 7 10 6 11 5 12
REMARK SMILES IDX 4 13 3 14 2 15 1 16
REMARK H PARENT
REMARK Flexibility Score: inf
ROOT
ATOM      1  C   UNL     1      10.331  -1.043  45.810  1.00  0.00     0.000 C 
ENDROOT
BRANCH   1   2
ATOM      2  C   UNL     1      10.031  -1.971  46.996  1.00  0.00     0.000 C 
BRANCH   2   3
ATOM      3  C   UNL     1       9.055  -3.084  46.588  1.00  0.00     0.000 C 
BRANCH   3   4
ATOM      4  C   UNL     1       7.640  -2.863  47.144  1.00  0.00     0.000 C 
BRANCH   4   5
ATOM      5  C   UNL     1       6.542  -3.312  46.164  1.00  0.00     0.006 C 
BRANCH   5   6
ATOM      6  C   UNL     1       6.912  -4.609  45.434  1.00  0.00     0.053 C 
BRANCH   6   7
ATOM      7  C   UNL     1       5.820  -5.059  44.512  1.00  0.00     0.041 C 
ATOM      8  O   UNL     1       5.782  -4.641  43.325  1.00  0.00    -0.550 OA
ATOM      9  O   UNL     1       4.825  -5.910  44.974  1.00  0.00    -0.550 OA
ENDBRANCH   6   7
ENDBRANCH   5   6
ENDBRANCH   4   5
ENDBRANCH   3   4
ENDBRANCH   2   3
ENDBRANCH   1   2
BRANCH   1  10
ATOM     10  C   UNL     1       9.975   0.427  46.094  1.00  0.00     0.000 C 
BRANCH  10  11
ATOM     11  C   UNL     1       8.588   0.874  45.590  1.00  0.00    -0.000 C 
BRANCH  11  12
ATOM     12  C   UNL     1       7.455   0.782  46.628  1.00  0.00    -0.000 C 
BRANCH  12  13
ATOM     13  C   UNL     1       6.096   0.443  46.000  1.00  0.00    -0.000 C 
BRANCH  13  14
ATOM     14  C   UNL     1       6.109   0.698  44.489  1.00  0.00    -0.000 C 
BRANCH  14  15
ATOM     15  C   UNL     1       5.280   1.937  44.133  1.00  0.00    -0.003 C 
ATOM     16  C   UNL     1       6.163   3.177  44.020  1.00  0.00     0.004 C 
ENDBRANCH  14  15
ENDBRANCH  13  14
ENDBRANCH  12  13
ENDBRANCH  11  12
ENDBRANCH  10  11
ENDBRANCH   1  10
TORSDOF 12
ENDMDL
MODEL 5
REMARK VINA RESULT:    -3.282      9.610     11.659
REMARK INTER + INTRA:          -6.983
REMARK INTER:                  -5.163
REMARK INTRA:                  -1.820
REMARK UNBOUND:                -1.399
REMARK SMILES CCCCCCCCCCCCCC(=O)[O-]
REMARK SMILES IDX 8 1 9 2 10 3 11 4 12 5 13 6 14 7 15 8 16 9 7 10 6 11 5 12
REMARK SMILES IDX 4 13 3 14 2 15 1 16
REMARK H PARENT
REMARK Flexibility Score: inf
ROOT
ATOM      1  C   UNL     1       6.274   0.527  44.421  1.00  0.00     0.000 C 
ENDROOT
BRANCH   1   2
ATOM      2  C   UNL     1       6.334  -0.196  45.774  1.00  0.00     0.000 C 
BRANCH   2   3
ATOM      3  C   UNL     1       7.680   0.051  46.470  1.00  0.00     0.000 C 
BRANCH   3   4
ATOM      4  C   UNL     1       8.717   0.700  45.540  1.00  0.00     0.000 C 
BRANCH   4   5
ATOM      5  C   UNL     1      10.149   0.605  46.093  1.00  0.00     0.006 C 
BRANCH   5   6
ATOM      6  C   UNL     1      11.049  -0.284  45.226  1.00  0.00     0.053 C 
BRANCH   6   7
ATOM      7  C   UNL     1      12.065  -1.016  46.049  1.00  0.00     0.041 C 
ATOM      8  O   UNL     1      12.442  -0.546  47.154  1.00  0.00    -0.550 OA
ATOM      9  O   UNL     1      12.622  -2.198  45.577  1.00  0.00    -0.550 OA
ENDBRANCH   6   7
ENDBRANCH   5   6
ENDBRANCH   4   5
ENDBRANCH   3   4
ENDBRANCH   2   3
ENDBRANCH   1   2
BRANCH   1  10
ATOM     10  C   UNL     1       5.327   1.739  44.430  1.00  0.00     0.000 C 
BRANCH  10  11
ATOM     11  C   UNL     1       5.867   2.997  43.720  1.00  0.00    -0.000 C 
BRANCH  11  12
ATOM     12  C   UNL     1       6.951   3.768  44.494  1.00  0.00    -0.000 C 
BRANCH  12  13
ATOM     13  C   UNL     1       6.474   4.247  45.872  1.00  0.00    -0.000 C 
BRANCH  13  14
ATOM     14  C   UNL     1       7.486   3.875  46.963  1.00  0.00    -0.000 C 
BRANCH  14  15
ATOM     15  C   UNL     1       6.792   3.199  48.151  1.00  0.00    -0.003 C 
ATOM     16  C   UNL     1       5.314   2.955  47.860  1.00  0.00     0.004 C 
ENDBRANCH  14  15
ENDBRANCH  13  14
ENDBRANCH  12  13
ENDBRANCH  11  12
ENDBRANCH  10  11
ENDBRANCH   1  10
TORSDOF 12
ENDMDL
MODEL 6
REMARK VINA RESULT:    -3.272      9.277     11.384
REMARK INTER + INTRA:          -6.966
REMARK INTER:                  -5.251
REMARK INTRA:                  -1.715
REMARK UNBOUND:                -1.399
REMARK SMILES CCCCCCCCCCCCCC(=O)[O-]
REMARK SMILES IDX 8 1 9 2 10 3 11 4 12 5 13 6 14 7 15 8 16 9 7 10 6 11 5 12
REMARK SMILES IDX 4 13 3 14 2 15 1 16
REMARK H PARENT
REMARK Flexibility Score: inf
ROOT
ATOM      1  C   UNL     1       7.843   2.819  47.445  1.00  0.00     0.000 C 
ENDROOT
BRANCH   1   2
ATOM      2  C   UNL     1       8.669   1.526  47.419  1.00  0.00     0.000 C 
BRANCH   2   3
ATOM      3  C   UNL     1       9.635   1.515  46.226  1.00  0.00     0.000 C 
BRANCH   3   4
ATOM      4  C   UNL     1       9.729   0.138  45.552  1.00  0.00     0.000 C 
BRANCH   4   5
ATOM      5  C   UNL     1      11.176  -0.262  45.218  1.00  0.00     0.006 C 
BRANCH   5   6
ATOM      6  C   UNL     1      12.019  -0.493  46.478  1.00  0.00     0.053 C 
BRANCH   6   7
ATOM      7  C   UNL     1      12.053  -1.940  46.866  1.00  0.00     0.041 C 
ATOM      8  O   UNL     1      11.857  -2.279  48.062  1.00  0.00    -0.550 OA
ATOM      9  O   UNL     1      12.337  -2.909  45.913  1.00  0.00    -0.550 OA
ENDBRANCH   6   7
ENDBRANCH   5   6
ENDBRANCH   4   5
ENDBRANCH   3   4
ENDBRANCH   2   3
ENDBRANCH   1   2
BRANCH   1  10
ATOM     10  C   UNL     1       8.020   3.670  46.175  1.00  0.00     0.000 C 
BRANCH  10  11
ATOM     11  C   UNL     1       6.708   4.111  45.494  1.00  0.00    -0.000 C 
BRANCH  11  12
ATOM     12  C   UNL     1       6.444   3.479  44.116  1.00  0.00    -0.000 C 
BRANCH  12  13
ATOM     13  C   UNL     1       5.571   2.218  44.195  1.00  0.00    -0.000 C 
BRANCH  13  14
ATOM     14  C   UNL     1       6.436   0.953  44.237  1.00  0.00    -0.000 C 
BRANCH  14  15
ATOM     15  C   UNL     1       6.015   0.037  45.392  1.00  0.00    -0.003 C 
ATOM     16  C   UNL     1       4.882   0.658  46.203  1.00  0.00     0.004 C 
ENDBRANCH  14  15
ENDBRANCH  13  14
ENDBRANCH  12  13
ENDBRANCH  11  12
ENDBRANCH  10  11
ENDBRANCH   1  10
TORSDOF 12
ENDMDL
MODEL 7
REMARK VINA RESULT:    -3.254      1.064      2.956
REMARK INTER + INTRA:          -6.935
REMARK INTER:                  -5.280
REMARK INTRA:                  -1.655
REMARK UNBOUND:                -1.399
REMARK SMILES CCCCCCCCCCCCCC(=O)[O-]
REMARK SMILES IDX 8 1 9 2 10 3 11 4 12 5 13 6 14 7 15 8 16 9 7 10 6 11 5 12
REMARK SMILES IDX 4 13 3 14 2 15 1 16
REMARK H PARENT
REMARK Flexibility Score: inf
ROOT
ATOM      1  C   UNL     1      18.899   2.377  40.655  1.00  0.00     0.000 C 
ENDROOT
BRANCH   1   2
ATOM      2  C   UNL     1      17.761   1.385  40.371  1.00  0.00     0.000 C 
BRANCH   2   3
ATOM      3  C   UNL     1      16.398   2.000  40.718  1.00  0.00     0.000 C 
BRANCH   3   4
ATOM      4  C   UNL     1      16.238   3.430  40.178  1.00  0.00     0.000 C 
BRANCH   4   5
ATOM      5  C   UNL     1      15.868   3.460  38.685  1.00  0.00     0.006 C 
BRANCH   5   6
ATOM      6  C   UNL     1      14.591   2.664  38.388  1.00  0.00     0.053 C 
BRANCH   6   7
ATOM      7  C   UNL     1      14.828   1.598  37.362  1.00  0.00     0.041 C 
ATOM      8  O   UNL     1      14.341   0.448  37.520  1.00  0.00    -0.550 OA
ATOM      9  O   UNL     1      15.616   1.865  36.250  1.00  0.00    -0.550 OA
ENDBRANCH   6   7
ENDBRANCH   5   6
ENDBRANCH   4   5
ENDBRANCH   3   4
ENDBRANCH   2   3
ENDBRANCH   1   2
BRANCH   1  10
ATOM     10  C   UNL     1      20.173   1.692  41.179  1.00  0.00     0.000 C 
BRANCH  10  11
ATOM     11  C   UNL     1      20.447   1.885  42.685  1.00  0.00    -0.000 C 
BRANCH  11  12
ATOM     12  C   UNL     1      19.645   0.960  43.617  1.00  0.00    -0.000 C 
BRANCH  12  13
ATOM     13  C   UNL     1      18.788   1.732  44.631  1.00  0.00    -0.000 C 
BRANCH  13  14
ATOM     14  C   UNL     1      17.294   1.505  44.374  1.00  0.00    -0.000 C 
BRANCH  14  15
ATOM     15  C   UNL     1      16.550   2.838  44.236  1.00  0.00    -0.003 C 
ATOM     16  C   UNL     1      17.500   3.960  43.826  1.00  0.00     0.004 C 
ENDBRANCH  14  15
ENDBRANCH  13  14
ENDBRANCH  12  13
ENDBRANCH  11  12
ENDBRANCH  10  11
ENDBRANCH   1  10
TORSDOF 12
ENDMDL
MODEL 8
REMARK VINA RESULT:    -3.210      3.626      5.830
REMARK INTER + INTRA:          -6.862
REMARK INTER:                  -5.017
REMARK INTRA:                  -1.845
REMARK UNBOUND:                -1.399
REMARK SMILES CCCCCCCCCCCCCC(=O)[O-]
REMARK SMILES IDX 8 1 9 2 10 3 11 4 12 5 13 6 14 7 15 8 16 9 7 10 6 11 5 12
REMARK SMILES IDX 4 13 3 14 2 15 1 16
REMARK H PARENT
REMARK Flexibility Score: inf
ROOT
ATOM      1  C   UNL     1      20.300   1.912  41.635  1.00  0.00     0.000 C 
ENDROOT
BRANCH   1   2
ATOM      2  C   UNL     1      20.603   0.542  41.012  1.00  0.00     0.000 C 
BRANCH   2   3
ATOM      3  C   UNL     1      19.355  -0.351  41.014  1.00  0.00     0.000 C 
BRANCH   3   4
ATOM      4  C   UNL     1      19.626  -1.746  41.601  1.00  0.00     0.000 C 
BRANCH   4   5
ATOM      5  C   UNL     1      19.771  -1.726  43.132  1.00  0.00     0.006 C 
BRANCH   5   6
ATOM      6  C   UNL     1      18.524  -2.271  43.839  1.00  0.00     0.053 C 
BRANCH   6   7
ATOM      7  C   UNL     1      18.340  -3.738  43.590  1.00  0.00     0.041 C 
ATOM      8  O   UNL     1      17.348  -4.148  42.933  1.00  0.00    -0.550 OA
ATOM      9  O   UNL     1      19.245  -4.651  44.114  1.00  0.00    -0.550 OA
ENDBRANCH   6   7
ENDBRANCH   5   6
ENDBRANCH   4   5
ENDBRANCH   3   4
ENDBRANCH   2   3
ENDBRANCH   1   2
BRANCH   1  10
ATOM     10  C   UNL     1      20.220   1.866  43.171  1.00  0.00     0.000 C 
BRANCH  10  11
ATOM     11  C   UNL     1      18.922   2.440  43.776  1.00  0.00    -0.000 C 
BRANCH  11  12
ATOM     12  C   UNL     1      17.870   1.391  44.179  1.00  0.00    -0.000 C 
BRANCH  12  13
ATOM     13  C   UNL     1      16.708   1.297  43.179  1.00  0.00    -0.000 C 
BRANCH  13  14
ATOM     14  C   UNL     1      16.677   2.519  42.255  1.00  0.00    -0.000 C 
BRANCH  14  15
ATOM     15  C   UNL     1      16.551   2.097  40.787  1.00  0.00    -0.003 C 
ATOM     16  C   UNL     1      15.876   3.185  39.957  1.00  0.00     0.004 C 
ENDBRANCH  14  15
ENDBRANCH  13  14
ENDBRANCH  12  13
ENDBRANCH  11  12
ENDBRANCH  10  11
ENDBRANCH   1  10
TORSDOF 12
ENDMDL
MODEL 9
REMARK VINA RESULT:    -3.203      4.064      7.609
REMARK INTER + INTRA:          -6.848
REMARK INTER:                  -5.165
REMARK INTRA:                  -1.684
REMARK UNBOUND:                -1.399
REMARK SMILES CCCCCCCCCCCCCC(=O)[O-]
REMARK SMILES IDX 8 1 9 2 10 3 11 4 12 5 13 6 14 7 15 8 16 9 7 10 6 11 5 12
REMARK SMILES IDX 4 13 3 14 2 15 1 16
REMARK H PARENT
REMARK Flexibility Score: inf
ROOT
ATOM      1  C   UNL     1      16.330  -0.164  36.015  1.00  0.00     0.000 C 
ENDROOT
BRANCH   1   2
ATOM      2  C   UNL     1      16.180   0.383  37.441  1.00  0.00     0.000 C 
BRANCH   2   3
ATOM      3  C   UNL     1      14.749   0.878  37.692  1.00  0.00     0.000 C 
BRANCH   3   4
ATOM      4  C   UNL     1      14.705   2.155  38.546  1.00  0.00     0.000 C 
BRANCH   4   5
ATOM      5  C   UNL     1      16.014   2.397  39.317  1.00  0.00     0.006 C 
BRANCH   5   6
ATOM      6  C   UNL     1      15.898   3.567  40.302  1.00  0.00     0.053 C 
BRANCH   6   7
ATOM      7  C   UNL     1      17.070   4.495  40.202  1.00  0.00     0.041 C 
ATOM      8  O   UNL     1      17.094   5.390  39.317  1.00  0.00    -0.550 OA
ATOM      9  O   UNL     1      18.151   4.348  41.061  1.00  0.00    -0.550 OA
ENDBRANCH   6   7
ENDBRANCH   5   6
ENDBRANCH   4   5
ENDBRANCH   3   4
ENDBRANCH   2   3
ENDBRANCH   1   2
BRANCH   1  10
ATOM     10  C   UNL     1      14.982  -0.317  35.287  1.00  0.00     0.000 C 
BRANCH  10  11
ATOM     11  C   UNL     1      15.048  -0.174  33.753  1.00  0.00    -0.000 C 
BRANCH  11  12
ATOM     12  C   UNL     1      16.334   0.476  33.212  1.00  0.00    -0.000 C 
BRANCH  12  13
ATOM     13  C   UNL     1      16.161   1.968  32.894  1.00  0.00    -0.000 C 
BRANCH  13  14
ATOM     14  C   UNL     1      17.045   2.830  33.802  1.00  0.00    -0.000 C 
BRANCH  14  15
ATOM     15  C   UNL     1      16.260   3.334  35.018  1.00  0.00    -0.003 C 
ATOM     16  C   UNL     1      17.198   3.813  36.121  1.00  0.00     0.004 C 
ENDBRANCH  14  15
ENDBRANCH  13  14
ENDBRANCH  12  13
ENDBRANCH  11  12
ENDBRANCH  10  11
ENDBRANCH   1  10
TORSDOF 12
ENDMDL
