MODEL 1
REMARK VINA RESULT:    -3.498      0.000      0.000
REMARK INTER + INTRA:          -4.080
REMARK INTER:                  -4.010
REMARK INTRA:                  -0.070
REMARK UNBOUND:                -0.070
REMARK SMILES CC(C)[C@@H]([NH3+])C(=O)[O-]
REMARK SMILES IDX 4 1 5 2 6 6 7 7 8 8 2 9 1 10 3 11
REMARK H PARENT 5 3 5 4 5 5
REMARK Flexibility Score: inf
ROOT
ATOM      1  C   UNL     1      22.390  38.750   2.388  1.00  0.00     0.230 C 
ENDROOT
BRANCH   1   2
ATOM      2  N   UNL     1      22.643  39.613   1.224  1.00  0.00    -0.350 N 
ATOM      3  H   UNL     1      22.494  40.614   1.495  1.00  0.00     0.345 HD
ATOM      4  H   UNL     1      21.998  39.388   0.433  1.00  0.00     0.345 HD
ATOM      5  H   UNL     1      23.632  39.517   0.905  1.00  0.00     0.345 HD
ENDBRANCH   1   2
BRANCH   1   6
ATOM      6  C   UNL     1      22.027  37.353   1.948  1.00  0.00     0.099 C 
ATOM      7  O   UNL     1      21.882  37.100   0.722  1.00  0.00    -0.544 OA
ATOM      8  O   UNL     1      21.804  36.348   2.882  1.00  0.00    -0.544 OA
ENDBRANCH   1   6
BRANCH   1   9
ATOM      9  C   UNL     1      23.580  38.723   3.395  1.00  0.00     0.047 C 
ATOM     10  C   UNL     1      23.710  40.046   4.164  1.00  0.00     0.014 C 
ATOM     11  C   UNL     1      24.926  38.350   2.750  1.00  0.00     0.014 C 
ENDBRANCH   1   9
TORSDOF 3
ENDMDL
MODEL 2
REMARK VINA RESULT:    -3.470      2.642      3.434
REMARK INTER + INTRA:          -4.047
REMARK INTER:                  -4.032
REMARK INTRA:                  -0.015
REMARK UNBOUND:                -0.070
REMARK SMILES CC(C)[C@@H]([NH3+])C(=O)[O-]
REMARK SMILES IDX 4 1 5 2 6 6 7 7 8 8 2 9 1 10 3 11
REMARK H PARENT 5 3 5 4 5 5
REMARK Flexibility Score: inf
ROOT
ATOM      1  C   UNL     1      22.743  38.256   3.197  1.00  0.00     0.230 C 
ENDROOT
BRANCH   1   2
ATOM      2  N   UNL     1      22.838  36.817   3.486  1.00  0.00    -0.350 N 
ATOM      3  H   UNL     1      22.160  36.570   4.245  1.00  0.00     0.345 HD
ATOM      4  H   UNL     1      23.798  36.553   3.804  1.00  0.00     0.345 HD
ATOM      5  H   UNL     1      22.584  36.257   2.643  1.00  0.00     0.345 HD
ENDBRANCH   1   2
BRANCH   1   6
ATOM      6  C   UNL     1      23.934  38.994   3.758  1.00  0.00     0.099 C 
ATOM      7  O   UNL     1      25.086  38.496   3.652  1.00  0.00    -0.544 OA
ATOM      8  O   UNL     1      23.771  40.197   4.435  1.00  0.00    -0.544 OA
ENDBRANCH   1   6
BRANCH   1   9
ATOM      9  C   UNL     1      22.567  38.562   1.678  1.00  0.00     0.047 C 
ATOM     10  C   UNL     1      22.262  40.045   1.423  1.00  0.00     0.014 C 
ATOM     11  C   UNL     1      21.512  37.678   0.990  1.00  0.00     0.014 C 
ENDBRANCH   1   9
TORSDOF 3
ENDMDL
MODEL 3
REMARK VINA RESULT:    -3.422      1.480      2.235
REMARK INTER + INTRA:          -3.992
REMARK INTER:                  -3.942
REMARK INTRA:                  -0.049
REMARK UNBOUND:                -0.070
REMARK SMILES CC(C)[C@@H]([NH3+])C(=O)[O-]
REMARK SMILES IDX 4 1 5 2 6 6 7 7 8 8 2 9 1 10 3 11
REMARK H PARENT 5 3 5 4 5 5
REMARK Flexibility Score: inf
ROOT
ATOM      1  C   UNL     1      23.286  38.220   2.412  1.00  0.00     0.230 C 
ENDROOT
BRANCH   1   2
ATOM      2  N   UNL     1      24.297  37.721   3.358  1.00  0.00    -0.350 N 
ATOM      3  H   UNL     1      25.024  38.459   3.509  1.00  0.00     0.345 HD
ATOM      4  H   UNL     1      24.769  36.862   2.996  1.00  0.00     0.345 HD
ATOM      5  H   UNL     1      23.860  37.515   4.283  1.00  0.00     0.345 HD
ENDBRANCH   1   2
BRANCH   1   6
ATOM      6  C   UNL     1      22.168  37.220   2.248  1.00  0.00     0.099 C 
ATOM      7  O   UNL     1      21.827  36.496   3.221  1.00  0.00    -0.544 OA
ATOM      8  O   UNL     1      21.538  37.051   1.021  1.00  0.00    -0.544 OA
ENDBRANCH   1   6
BRANCH   1   9
ATOM      9  C   UNL     1      22.725  39.621   2.802  1.00  0.00     0.047 C 
ATOM     10  C   UNL     1      22.569  40.537   1.579  1.00  0.00     0.014 C 
ATOM     11  C   UNL     1      23.544  40.330   3.895  1.00  0.00     0.014 C 
ENDBRANCH   1   9
TORSDOF 3
ENDMDL
MODEL 4
REMARK VINA RESULT:    -3.190     16.266     16.948
REMARK INTER + INTRA:          -3.726
REMARK INTER:                  -3.680
REMARK INTRA:                  -0.047
REMARK UNBOUND:                -0.070
REMARK SMILES CC(C)[C@@H]([NH3+])C(=O)[O-]
REMARK SMILES IDX 4 1 5 2 6 6 7 7 8 8 2 9 1 10 3 11
REMARK H PARENT 5 3 5 4 5 5
REMARK Flexibility Score: inf
ROOT
ATOM      1  C   UNL     1      30.693  48.125  -7.650  1.00  0.00     0.230 C 
ENDROOT
BRANCH   1   2
ATOM      2  N   UNL     1      31.800  48.000  -6.689  1.00  0.00    -0.350 N 
ATOM      3  H   UNL     1      31.942  48.917  -6.203  1.00  0.00     0.345 HD
ATOM      4  H   UNL     1      32.693  47.738  -7.165  1.00  0.00     0.345 HD
ATOM      5  H   UNL     1      31.572  47.289  -5.960  1.00  0.00     0.345 HD
ENDBRANCH   1   2
BRANCH   1   6
ATOM      6  C   UNL     1      29.937  49.412  -7.431  1.00  0.00     0.099 C 
ATOM      7  O   UNL     1      28.987  49.448  -6.604  1.00  0.00    -0.544 OA
ATOM      8  O   UNL     1      30.245  50.552  -8.165  1.00  0.00    -0.544 OA
ENDBRANCH   1   6
BRANCH   1   9
ATOM      9  C   UNL     1      31.157  48.000  -9.133  1.00  0.00     0.047 C 
ATOM     10  C   UNL     1      29.989  47.669 -10.074  1.00  0.00     0.014 C 
ATOM     11  C   UNL     1      32.303  46.994  -9.338  1.00  0.00     0.014 C 
ENDBRANCH   1   9
TORSDOF 3
ENDMDL
MODEL 5
REMARK VINA RESULT:    -3.186      1.731      2.323
REMARK INTER + INTRA:          -3.722
REMARK INTER:                  -3.783
REMARK INTRA:                   0.062
REMARK UNBOUND:                -0.070
REMARK SMILES CC(C)[C@@H]([NH3+])C(=O)[O-]
REMARK SMILES IDX 4 1 5 2 6 6 7 7 8 8 2 9 1 10 3 11
REMARK H PARENT 5 3 5 4 5 5
REMARK Flexibility Score: inf
ROOT
ATOM      1  C   UNL     1      23.135  37.814   2.437  1.00  0.00     0.230 C 
ENDROOT
BRANCH   1   2
ATOM      2  N   UNL     1      22.519  37.081   3.554  1.00  0.00    -0.350 N 
ATOM      3  H   UNL     1      21.993  36.256   3.181  1.00  0.00     0.345 HD
ATOM      4  H   UNL     1      21.851  37.684   4.086  1.00  0.00     0.345 HD
ATOM      5  H   UNL     1      23.253  36.719   4.202  1.00  0.00     0.345 HD
ENDBRANCH   1   2
BRANCH   1   6
ATOM      6  C   UNL     1      22.077  38.425   1.551  1.00  0.00     0.099 C 
ATOM      7  O   UNL     1      21.223  37.686   0.992  1.00  0.00    -0.544 OA
ATOM      8  O   UNL     1      22.059  39.793   1.305  1.00  0.00    -0.544 OA
ENDBRANCH   1   6
BRANCH   1   9
ATOM      9  C   UNL     1      24.157  38.893   2.906  1.00  0.00     0.047 C 
ATOM     10  C   UNL     1      25.543  38.289   3.179  1.00  0.00     0.014 C 
ATOM     11  C   UNL     1      23.683  39.703   4.124  1.00  0.00     0.014 C 
ENDBRANCH   1   9
TORSDOF 3
ENDMDL
MODEL 6
REMARK VINA RESULT:    -3.148     16.305     16.907
REMARK INTER + INTRA:          -3.678
REMARK INTER:                  -3.735
REMARK INTRA:                   0.057
REMARK UNBOUND:                -0.070
REMARK SMILES CC(C)[C@@H]([NH3+])C(=O)[O-]
REMARK SMILES IDX 4 1 5 2 6 6 7 7 8 8 2 9 1 10 3 11
REMARK H PARENT 5 3 5 4 5 5
REMARK Flexibility Score: inf
ROOT
ATOM      1  C   UNL     1      29.805  50.201  -7.010  1.00  0.00     0.230 C 
ENDROOT
BRANCH   1   2
ATOM      2  N   UNL     1      28.624  49.613  -6.360  1.00  0.00    -0.350 N 
ATOM      3  H   UNL     1      28.862  48.655  -6.009  1.00  0.00     0.345 HD
ATOM      4  H   UNL     1      27.822  49.531  -7.025  1.00  0.00     0.345 HD
ATOM      5  H   UNL     1      28.336  50.187  -5.537  1.00  0.00     0.345 HD
ENDBRANCH   1   2
BRANCH   1   6
ATOM      6  C   UNL     1      30.643  50.959  -6.010  1.00  0.00     0.099 C 
ATOM      7  O   UNL     1      31.059  52.116  -6.288  1.00  0.00    -0.544 OA
ATOM      8  O   UNL     1      31.005  50.379  -4.799  1.00  0.00    -0.544 OA
ENDBRANCH   1   6
BRANCH   1   9
ATOM      9  C   UNL     1      30.667  49.150  -7.773  1.00  0.00     0.047 C 
ATOM     10  C   UNL     1      30.020  48.735  -9.103  1.00  0.00     0.014 C 
ATOM     11  C   UNL     1      31.004  47.904  -6.935  1.00  0.00     0.014 C 
ENDBRANCH   1   9
TORSDOF 3
ENDMDL
MODEL 7
REMARK VINA RESULT:    -3.132      2.145      3.168
REMARK INTER + INTRA:          -3.659
REMARK INTER:                  -3.762
REMARK INTRA:                   0.103
REMARK UNBOUND:                -0.070
REMARK SMILES CC(C)[C@@H]([NH3+])C(=O)[O-]
REMARK SMILES IDX 4 1 5 2 6 6 7 7 8 8 2 9 1 10 3 11
REMARK H PARENT 5 3 5 4 5 5
REMARK Flexibility Score: inf
ROOT
ATOM      1  C   UNL     1      22.993  38.724   1.897  1.00  0.00     0.230 C 
ENDROOT
BRANCH   1   2
ATOM      2  N   UNL     1      22.538  40.026   1.384  1.00  0.00    -0.350 N 
ATOM      3  H   UNL     1      23.327  40.497   0.882  1.00  0.00     0.345 HD
ATOM      4  H   UNL     1      22.219  40.652   2.158  1.00  0.00     0.345 HD
ATOM      5  H   UNL     1      21.762  39.897   0.698  1.00  0.00     0.345 HD
ENDBRANCH   1   2
BRANCH   1   6
ATOM      6  C   UNL     1      23.769  38.897   3.179  1.00  0.00     0.099 C 
ATOM      7  O   UNL     1      23.355  39.699   4.059  1.00  0.00    -0.544 OA
ATOM      8  O   UNL     1      24.964  38.218   3.385  1.00  0.00    -0.544 OA
ENDBRANCH   1   6
BRANCH   1   9
ATOM      9  C   UNL     1      21.830  37.703   2.085  1.00  0.00     0.047 C 
ATOM     10  C   UNL     1      22.152  36.662   3.168  1.00  0.00     0.014 C 
ATOM     11  C   UNL     1      21.409  37.001   0.782  1.00  0.00     0.014 C 
ENDBRANCH   1   9
TORSDOF 3
ENDMDL
MODEL 8
REMARK VINA RESULT:    -3.025      9.923     11.141
REMARK INTER + INTRA:          -3.537
REMARK INTER:                  -3.492
REMARK INTRA:                  -0.045
REMARK UNBOUND:                -0.070
REMARK SMILES CC(C)[C@@H]([NH3+])C(=O)[O-]
REMARK SMILES IDX 4 1 5 2 6 6 7 7 8 8 2 9 1 10 3 11
REMARK H PARENT 5 3 5 4 5 5
REMARK Flexibility Score: inf
ROOT
ATOM      1  C   UNL     1      14.359  38.055  -4.863  1.00  0.00     0.230 C 
ENDROOT
BRANCH   1   2
ATOM      2  N   UNL     1      14.098  39.482  -4.617  1.00  0.00    -0.350 N 
ATOM      3  H   UNL     1      13.216  39.583  -4.061  1.00  0.00     0.345 HD
ATOM      4  H   UNL     1      13.985  40.011  -5.511  1.00  0.00     0.345 HD
ATOM      5  H   UNL     1      14.872  39.904  -4.058  1.00  0.00     0.345 HD
ENDBRANCH   1   2
BRANCH   1   6
ATOM      6  C   UNL     1      14.545  37.793  -6.337  1.00  0.00     0.099 C 
ATOM      7  O   UNL     1      15.348  36.900  -6.719  1.00  0.00    -0.544 OA
ATOM      8  O   UNL     1      13.876  38.558  -7.286  1.00  0.00    -0.544 OA
ENDBRANCH   1   6
BRANCH   1   9
ATOM      9  C   UNL     1      15.567  37.507  -4.045  1.00  0.00     0.047 C 
ATOM     10  C   UNL     1      15.213  36.211  -3.299  1.00  0.00     0.014 C 
ATOM     11  C   UNL     1      16.167  38.533  -3.069  1.00  0.00     0.014 C 
ENDBRANCH   1   9
TORSDOF 3
ENDMDL
MODEL 9
REMARK VINA RESULT:    -3.007      8.923     10.187
REMARK INTER + INTRA:          -3.516
REMARK INTER:                  -3.470
REMARK INTRA:                  -0.046
REMARK UNBOUND:                -0.070
REMARK SMILES CC(C)[C@@H]([NH3+])C(=O)[O-]
REMARK SMILES IDX 4 1 5 2 6 6 7 7 8 8 2 9 1 10 3 11
REMARK H PARENT 5 3 5 4 5 5
REMARK Flexibility Score: inf
ROOT
ATOM      1  C   UNL     1      15.839  37.926  -3.682  1.00  0.00     0.230 C 
ENDROOT
BRANCH   1   2
ATOM      2  N   UNL     1      16.188  39.314  -3.342  1.00  0.00    -0.350 N 
ATOM      3  H   UNL     1      17.210  39.370  -3.117  1.00  0.00     0.345 HD
ATOM      4  H   UNL     1      15.650  39.653  -2.512  1.00  0.00     0.345 HD
ATOM      5  H   UNL     1      16.010  39.945  -4.154  1.00  0.00     0.345 HD
ENDBRANCH   1   2
BRANCH   1   6
ATOM      6  C   UNL     1      15.602  37.114  -2.432  1.00  0.00     0.099 C 
ATOM      7  O   UNL     1      15.354  37.697  -1.343  1.00  0.00    -0.544 OA
ATOM      8  O   UNL     1      15.701  35.727  -2.456  1.00  0.00    -0.544 OA
ENDBRANCH   1   6
BRANCH   1   9
ATOM      9  C   UNL     1      14.620  37.825  -4.649  1.00  0.00     0.047 C 
ATOM     10  C   UNL     1      15.001  37.170  -5.985  1.00  0.00     0.014 C 
ATOM     11  C   UNL     1      13.918  39.171  -4.899  1.00  0.00     0.014 C 
ENDBRANCH   1   9
TORSDOF 3
ENDMDL
