MODEL 1
REMARK VINA RESULT:    -4.912      0.000      0.000
REMARK INTER + INTRA:          -6.737
REMARK INTER:                  -6.348
REMARK INTRA:                  -0.388
REMARK UNBOUND:                -0.388
REMARK SMILES CO[C@]1(CO)O[C@@H](CO)[C@H](O)[C@@H]1O
REMARK SMILES IDX 3 1 12 2 10 3 7 4 6 5 2 6 1 7 4 8 5 9 13 11 11 13 8 15 9 16
REMARK H PARENT 5 10 13 12 11 14 9 17
REMARK Flexibility Score: inf
ROOT
ATOM      1  C   UNL     1      39.614  38.020  23.470  1.00  0.00     0.221 C 
ATOM      2  C   UNL     1      39.791  38.511  22.011  1.00  0.00     0.207 C 
ATOM      3  C   UNL     1      41.289  38.455  21.805  1.00  0.00     0.180 C 
ATOM      4  C   UNL     1      41.819  38.639  23.221  1.00  0.00     0.179 C 
ATOM      5  O   UNL     1      40.874  38.112  24.126  1.00  0.00    -0.337 OA
ENDROOT
BRANCH   1   6
ATOM      6  O   UNL     1      38.617  38.817  24.106  1.00  0.00    -0.349 OA
ATOM      7  C   UNL     1      37.365  38.168  24.200  1.00  0.00     0.198 C 
ENDBRANCH   1   6
BRANCH   1   8
ATOM      8  C   UNL     1      39.149  36.543  23.482  1.00  0.00     0.224 C 
BRANCH   8   9
ATOM      9  O   UNL     1      39.870  35.785  24.419  1.00  0.00    -0.391 OA
ATOM     10  H   UNL     1      39.478  34.873  24.412  1.00  0.00     0.210 HD
ENDBRANCH   8   9
ENDBRANCH   1   8
BRANCH   2  11
ATOM     11  O   UNL     1      39.288  39.817  21.826  1.00  0.00    -0.385 OA
ATOM     12  H   UNL     1      39.501  40.352  22.636  1.00  0.00     0.211 HD
ENDBRANCH   2  11
BRANCH   3  13
ATOM     13  O   UNL     1      41.754  39.472  20.956  1.00  0.00    -0.387 OA
ATOM     14  H   UNL     1      42.217  39.019  20.204  1.00  0.00     0.211 HD
ENDBRANCH   3  13
BRANCH   4  15
ATOM     15  C   UNL     1      43.173  37.946  23.431  1.00  0.00     0.191 C 
BRANCH  15  16
ATOM     16  O   UNL     1      43.941  37.984  22.259  1.00  0.00    -0.394 OA
ATOM     17  H   UNL     1      43.520  37.348  21.623  1.00  0.00     0.210 HD
ENDBRANCH  15  16
ENDBRANCH   4  15
TORSDOF 7
ENDMDL
MODEL 2
REMARK VINA RESULT:    -4.898      2.365      3.369
REMARK INTER + INTRA:          -6.718
REMARK INTER:                  -6.368
REMARK INTRA:                  -0.350
REMARK UNBOUND:                -0.388
REMARK SMILES CO[C@]1(CO)O[C@@H](CO)[C@H](O)[C@@H]1O
REMARK SMILES IDX 3 1 12 2 10 3 7 4 6 5 2 6 1 7 4 8 5 9 13 11 11 13 8 15 9 16
REMARK H PARENT 5 10 13 12 11 14 9 17
REMARK Flexibility Score: inf
ROOT
ATOM      1  C   UNL     1      39.815  39.680  21.600  1.00  0.00     0.221 C 
ATOM      2  C   UNL     1      41.332  39.418  21.427  1.00  0.00     0.207 C 
ATOM      3  C   UNL     1      41.958  40.287  22.495  1.00  0.00     0.180 C 
ATOM      4  C   UNL     1      40.929  41.398  22.657  1.00  0.00     0.179 C 
ATOM      5  O   UNL     1      39.654  40.875  22.359  1.00  0.00    -0.337 OA
ENDROOT
BRANCH   1   6
ATOM      6  O   UNL     1      39.215  39.779  20.310  1.00  0.00    -0.349 OA
ATOM      7  C   UNL     1      37.845  40.124  20.360  1.00  0.00     0.198 C 
ENDBRANCH   1   6
BRANCH   1   8
ATOM      8  C   UNL     1      39.154  38.507  22.365  1.00  0.00     0.224 C 
BRANCH   8   9
ATOM      9  O   UNL     1      40.030  37.417  22.490  1.00  0.00    -0.391 OA
ATOM     10  H   UNL     1      39.557  36.626  22.122  1.00  0.00     0.210 HD
ENDBRANCH   8   9
ENDBRANCH   1   8
BRANCH   2  11
ATOM     11  O   UNL     1      41.788  39.767  20.138  1.00  0.00    -0.385 OA
ATOM     12  H   UNL     1      42.723  39.444  20.039  1.00  0.00     0.211 HD
ENDBRANCH   2  11
BRANCH   3  13
ATOM     13  O   UNL     1      43.204  40.805  22.105  1.00  0.00    -0.387 OA
ATOM     14  H   UNL     1      43.304  41.675  22.572  1.00  0.00     0.211 HD
ENDBRANCH   3  13
BRANCH   4  15
ATOM     15  C   UNL     1      40.924  41.987  24.074  1.00  0.00     0.191 C 
BRANCH  15  16
ATOM     16  O   UNL     1      42.078  42.751  24.302  1.00  0.00    -0.394 OA
ATOM     17  H   UNL     1      41.810  43.703  24.210  1.00  0.00     0.210 HD
ENDBRANCH  15  16
ENDBRANCH   4  15
TORSDOF 7
ENDMDL
MODEL 3
REMARK VINA RESULT:    -4.859      1.662      3.534
REMARK INTER + INTRA:          -6.667
REMARK INTER:                  -6.482
REMARK INTRA:                  -0.185
REMARK UNBOUND:                -0.388
REMARK SMILES CO[C@]1(CO)O[C@@H](CO)[C@H](O)[C@@H]1O
REMARK SMILES IDX 3 1 12 2 10 3 7 4 6 5 2 6 1 7 4 8 5 9 13 11 11 13 8 15 9 16
REMARK H PARENT 5 10 13 12 11 14 9 17
REMARK Flexibility Score: inf
ROOT
ATOM      1  C   UNL     1      40.845  38.277  23.122  1.00  0.00     0.221 C 
ATOM      2  C   UNL     1      41.955  38.849  22.205  1.00  0.00     0.207 C 
ATOM      3  C   UNL     1      41.189  39.718  21.233  1.00  0.00     0.180 C 
ATOM      4  C   UNL     1      39.820  39.052  21.210  1.00  0.00     0.179 C 
ATOM      5  O   UNL     1      39.593  38.448  22.464  1.00  0.00    -0.337 OA
ENDROOT
BRANCH   1   6
ATOM      6  O   UNL     1      41.129  36.904  23.387  1.00  0.00    -0.349 OA
ATOM      7  C   UNL     1      40.058  36.228  24.013  1.00  0.00     0.198 C 
ENDBRANCH   1   6
BRANCH   1   8
ATOM      8  C   UNL     1      40.813  39.045  24.466  1.00  0.00     0.224 C 
BRANCH   8   9
ATOM      9  O   UNL     1      42.085  39.094  25.059  1.00  0.00    -0.391 OA
ATOM     10  H   UNL     1      42.481  38.189  24.963  1.00  0.00     0.210 HD
ENDBRANCH   8   9
ENDBRANCH   1   8
BRANCH   2  11
ATOM     11  O   UNL     1      42.672  37.831  21.541  1.00  0.00    -0.385 OA
ATOM     12  H   UNL     1      42.585  37.975  20.561  1.00  0.00     0.211 HD
ENDBRANCH   2  11
BRANCH   3  13
ATOM     13  O   UNL     1      41.766  39.731  19.953  1.00  0.00    -0.387 OA
ATOM     14  H   UNL     1      42.722  39.969  20.079  1.00  0.00     0.211 HD
ENDBRANCH   3  13
BRANCH   4  15
ATOM     15  C   UNL     1      38.692  40.049  20.909  1.00  0.00     0.191 C 
BRANCH  15  16
ATOM     16  O   UNL     1      37.635  39.420  20.235  1.00  0.00    -0.394 OA
ATOM     17  H   UNL     1      38.017  39.043  19.398  1.00  0.00     0.210 HD
ENDBRANCH  15  16
ENDBRANCH   4  15
TORSDOF 7
ENDMDL
MODEL 4
REMARK VINA RESULT:    -4.830      1.514      4.205
REMARK INTER + INTRA:          -6.630
REMARK INTER:                  -6.297
REMARK INTRA:                  -0.333
REMARK UNBOUND:                -0.388
REMARK SMILES CO[C@]1(CO)O[C@@H](CO)[C@H](O)[C@@H]1O
REMARK SMILES IDX 3 1 12 2 10 3 7 4 6 5 2 6 1 7 4 8 5 9 13 11 11 13 8 15 9 16
REMARK H PARENT 5 10 13 12 11 14 9 17
REMARK Flexibility Score: inf
ROOT
ATOM      1  C   UNL     1      40.760  39.060  23.026  1.00  0.00     0.221 C 
ATOM      2  C   UNL     1      41.260  37.637  23.379  1.00  0.00     0.207 C 
ATOM      3  C   UNL     1      39.979  36.861  23.588  1.00  0.00     0.180 C 
ATOM      4  C   UNL     1      39.006  37.948  24.024  1.00  0.00     0.179 C 
ATOM      5  O   UNL     1      39.398  39.166  23.429  1.00  0.00    -0.337 OA
ENDROOT
BRANCH   1   6
ATOM      6  O   UNL     1      41.591  40.016  23.682  1.00  0.00    -0.349 OA
ATOM      7  C   UNL     1      40.883  41.159  24.117  1.00  0.00     0.198 C 
ENDBRANCH   1   6
BRANCH   1   8
ATOM      8  C   UNL     1      40.850  39.293  21.497  1.00  0.00     0.224 C 
BRANCH   8   9
ATOM      9  O   UNL     1      42.106  39.801  21.128  1.00  0.00    -0.391 OA
ATOM     10  H   UNL     1      42.783  39.150  21.450  1.00  0.00     0.210 HD
ENDBRANCH   8   9
ENDBRANCH   1   8
BRANCH   2  11
ATOM     11  O   UNL     1      42.068  37.630  24.536  1.00  0.00    -0.385 OA
ATOM     12  H   UNL     1      42.737  38.361  24.455  1.00  0.00     0.211 HD
ENDBRANCH   2  11
BRANCH   3  13
ATOM     13  O   UNL     1      40.105  35.870  24.576  1.00  0.00    -0.387 OA
ATOM     14  H   UNL     1      40.313  35.025  24.100  1.00  0.00     0.211 HD
ENDBRANCH   3  13
BRANCH   4  15
ATOM     15  C   UNL     1      37.558  37.628  23.631  1.00  0.00     0.191 C 
BRANCH  15  16
ATOM     16  O   UNL     1      37.507  36.520  22.773  1.00  0.00    -0.394 OA
ATOM     17  H   UNL     1      36.725  36.660  22.175  1.00  0.00     0.210 HD
ENDBRANCH  15  16
ENDBRANCH   4  15
TORSDOF 7
ENDMDL
MODEL 5
REMARK VINA RESULT:    -4.762      1.605      2.116
REMARK INTER + INTRA:          -6.542
REMARK INTER:                  -6.143
REMARK INTRA:                  -0.398
REMARK UNBOUND:                -0.388
REMARK SMILES CO[C@]1(CO)O[C@@H](CO)[C@H](O)[C@@H]1O
REMARK SMILES IDX 3 1 12 2 10 3 7 4 6 5 2 6 1 7 4 8 5 9 13 11 11 13 8 15 9 16
REMARK H PARENT 5 10 13 12 11 14 9 17
REMARK Flexibility Score: inf
ROOT
ATOM      1  C   UNL     1      39.755  39.264  22.769  1.00  0.00     0.221 C 
ATOM      2  C   UNL     1      40.500  40.474  22.153  1.00  0.00     0.207 C 
ATOM      3  C   UNL     1      41.936  40.003  22.089  1.00  0.00     0.180 C 
ATOM      4  C   UNL     1      41.997  38.991  23.226  1.00  0.00     0.179 C 
ATOM      5  O   UNL     1      40.720  38.413  23.381  1.00  0.00    -0.337 OA
ENDROOT
BRANCH   1   6
ATOM      6  O   UNL     1      38.792  39.745  23.705  1.00  0.00    -0.349 OA
ATOM      7  C   UNL     1      38.403  38.769  24.650  1.00  0.00     0.198 C 
ENDBRANCH   1   6
BRANCH   1   8
ATOM      8  C   UNL     1      39.017  38.471  21.662  1.00  0.00     0.224 C 
BRANCH   8   9
ATOM      9  O   UNL     1      37.968  39.220  21.107  1.00  0.00    -0.391 OA
ATOM     10  H   UNL     1      37.636  38.710  20.323  1.00  0.00     0.210 HD
ENDBRANCH   8   9
ENDBRANCH   1   8
BRANCH   2  11
ATOM     11  O   UNL     1      40.368  41.637  22.941  1.00  0.00    -0.385 OA
ATOM     12  H   UNL     1      39.687  41.463  23.644  1.00  0.00     0.211 HD
ENDBRANCH   2  11
BRANCH   3  13
ATOM     13  O   UNL     1      42.854  41.046  22.292  1.00  0.00    -0.387 OA
ATOM     14  H   UNL     1      43.566  40.929  21.610  1.00  0.00     0.211 HD
ENDBRANCH   3  13
BRANCH   4  15
ATOM     15  C   UNL     1      43.032  37.887  22.969  1.00  0.00     0.191 C 
BRANCH  15  16
ATOM     16  O   UNL     1      44.284  38.437  22.663  1.00  0.00    -0.394 OA
ATOM     17  H   UNL     1      44.429  38.292  21.691  1.00  0.00     0.210 HD
ENDBRANCH  15  16
ENDBRANCH   4  15
TORSDOF 7
ENDMDL
MODEL 6
REMARK VINA RESULT:    -4.728      1.608      3.186
REMARK INTER + INTRA:          -6.498
REMARK INTER:                  -6.060
REMARK INTRA:                  -0.437
REMARK UNBOUND:                -0.388
REMARK SMILES CO[C@]1(CO)O[C@@H](CO)[C@H](O)[C@@H]1O
REMARK SMILES IDX 3 1 12 2 10 3 7 4 6 5 2 6 1 7 4 8 5 9 13 11 11 13 8 15 9 16
REMARK H PARENT 5 10 13 12 11 14 9 17
REMARK Flexibility Score: inf
ROOT
ATOM      1  C   UNL     1      40.137  39.571  22.183  1.00  0.00     0.221 C 
ATOM      2  C   UNL     1      41.431  39.027  21.528  1.00  0.00     0.207 C 
ATOM      3  C   UNL     1      41.605  37.671  22.176  1.00  0.00     0.180 C 
ATOM      4  C   UNL     1      40.912  37.861  23.519  1.00  0.00     0.179 C 
ATOM      5  O   UNL     1      39.883  38.814  23.362  1.00  0.00    -0.337 OA
ENDROOT
BRANCH   1   6
ATOM      6  O   UNL     1      40.312  40.959  22.463  1.00  0.00    -0.349 OA
ATOM      7  C   UNL     1      39.144  41.721  22.237  1.00  0.00     0.198 C 
ENDBRANCH   1   6
BRANCH   1   8
ATOM      8  C   UNL     1      38.939  39.409  21.215  1.00  0.00     0.224 C 
BRANCH   8   9
ATOM      9  O   UNL     1      38.147  38.302  21.559  1.00  0.00    -0.391 OA
ATOM     10  H   UNL     1      38.233  38.183  22.541  1.00  0.00     0.210 HD
ENDBRANCH   8   9
ENDBRANCH   1   8
BRANCH   2  11
ATOM     11  O   UNL     1      42.541  39.865  21.767  1.00  0.00    -0.385 OA
ATOM     12  H   UNL     1      43.063  39.940  20.924  1.00  0.00     0.211 HD
ENDBRANCH   2  11
BRANCH   3  13
ATOM     13  O   UNL     1      42.956  37.327  22.349  1.00  0.00    -0.387 OA
ATOM     14  H   UNL     1      43.404  37.509  21.483  1.00  0.00     0.211 HD
ENDBRANCH   3  13
BRANCH   4  15
ATOM     15  C   UNL     1      40.321  36.552  24.060  1.00  0.00     0.191 C 
BRANCH  15  16
ATOM     16  O   UNL     1      38.920  36.576  24.005  1.00  0.00    -0.394 OA
ATOM     17  H   UNL     1      38.676  36.738  23.055  1.00  0.00     0.210 HD
ENDBRANCH  15  16
ENDBRANCH   4  15
TORSDOF 7
ENDMDL
MODEL 7
REMARK VINA RESULT:    -4.713      1.682      3.227
REMARK INTER + INTRA:          -6.479
REMARK INTER:                  -6.000
REMARK INTRA:                  -0.479
REMARK UNBOUND:                -0.388
REMARK SMILES CO[C@]1(CO)O[C@@H](CO)[C@H](O)[C@@H]1O
REMARK SMILES IDX 3 1 12 2 10 3 7 4 6 5 2 6 1 7 4 8 5 9 13 11 11 13 8 15 9 16
REMARK H PARENT 5 10 13 12 11 14 9 17
REMARK Flexibility Score: inf
ROOT
ATOM      1  C   UNL     1      39.151  38.619  22.352  1.00  0.00     0.221 C 
ATOM      2  C   UNL     1      38.637  37.611  23.410  1.00  0.00     0.207 C 
ATOM      3  C   UNL     1      39.910  37.037  23.991  1.00  0.00     0.180 C 
ATOM      4  C   UNL     1      40.892  37.189  22.836  1.00  0.00     0.179 C 
ATOM      5  O   UNL     1      40.513  38.311  22.070  1.00  0.00    -0.337 OA
ENDROOT
BRANCH   1   6
ATOM      6  O   UNL     1      38.328  38.526  21.190  1.00  0.00    -0.349 OA
ATOM      7  C   UNL     1      38.382  39.682  20.380  1.00  0.00     0.198 C 
ENDBRANCH   1   6
BRANCH   1   8
ATOM      8  C   UNL     1      39.067  40.063  22.904  1.00  0.00     0.224 C 
BRANCH   8   9
ATOM      9  O   UNL     1      40.324  40.525  23.327  1.00  0.00    -0.391 OA
ATOM     10  H   UNL     1      40.197  40.911  24.233  1.00  0.00     0.210 HD
ENDBRANCH   8   9
ENDBRANCH   1   8
BRANCH   2  11
ATOM     11  O   UNL     1      37.826  36.608  22.839  1.00  0.00    -0.385 OA
ATOM     12  H   UNL     1      36.932  36.999  22.649  1.00  0.00     0.211 HD
ENDBRANCH   2  11
BRANCH   3  13
ATOM     13  O   UNL     1      39.773  35.689  24.362  1.00  0.00    -0.387 OA
ATOM     14  H   UNL     1      38.928  35.626  24.879  1.00  0.00     0.211 HD
ENDBRANCH   3  13
BRANCH   4  15
ATOM     15  C   UNL     1      42.338  37.363  23.320  1.00  0.00     0.191 C 
BRANCH  15  16
ATOM     16  O   UNL     1      42.476  38.538  24.071  1.00  0.00    -0.394 OA
ATOM     17  H   UNL     1      42.895  38.277  24.933  1.00  0.00     0.210 HD
ENDBRANCH  15  16
ENDBRANCH   4  15
TORSDOF 7
ENDMDL
MODEL 8
REMARK VINA RESULT:    -4.689      1.660      2.582
REMARK INTER + INTRA:          -6.448
REMARK INTER:                  -6.073
REMARK INTRA:                  -0.375
REMARK UNBOUND:                -0.388
REMARK SMILES CO[C@]1(CO)O[C@@H](CO)[C@H](O)[C@@H]1O
REMARK SMILES IDX 3 1 12 2 10 3 7 4 6 5 2 6 1 7 4 8 5 9 13 11 11 13 8 15 9 16
REMARK H PARENT 5 10 13 12 11 14 9 17
REMARK Flexibility Score: inf
ROOT
ATOM      1  C   UNL     1      40.494  38.100  23.073  1.00  0.00     0.221 C 
ATOM      2  C   UNL     1      39.547  38.533  21.925  1.00  0.00     0.207 C 
ATOM      3  C   UNL     1      40.029  39.926  21.585  1.00  0.00     0.180 C 
ATOM      4  C   UNL     1      40.631  40.394  22.903  1.00  0.00     0.179 C 
ATOM      5  O   UNL     1      41.117  39.267  23.599  1.00  0.00    -0.337 OA
ENDROOT
BRANCH   1   6
ATOM      6  O   UNL     1      39.732  37.406  24.060  1.00  0.00    -0.349 OA
ATOM      7  C   UNL     1      39.911  36.005  24.014  1.00  0.00     0.198 C 
ENDBRANCH   1   6
BRANCH   1   8
ATOM      8  C   UNL     1      41.588  37.147  22.532  1.00  0.00     0.224 C 
BRANCH   8   9
ATOM      9  O   UNL     1      42.611  37.856  21.883  1.00  0.00    -0.391 OA
ATOM     10  H   UNL     1      42.346  37.935  20.930  1.00  0.00     0.210 HD
ENDBRANCH   8   9
ENDBRANCH   1   8
BRANCH   2  11
ATOM     11  O   UNL     1      38.194  38.532  22.324  1.00  0.00    -0.385 OA
ATOM     12  H   UNL     1      37.788  39.400  22.057  1.00  0.00     0.211 HD
ENDBRANCH   2  11
BRANCH   3  13
ATOM     13  O   UNL     1      38.984  40.772  21.178  1.00  0.00    -0.387 OA
ATOM     14  H   UNL     1      39.385  41.432  20.555  1.00  0.00     0.211 HD
ENDBRANCH   3  13
BRANCH   4  15
ATOM     15  C   UNL     1      41.770  41.402  22.699  1.00  0.00     0.191 C 
BRANCH  15  16
ATOM     16  O   UNL     1      42.927  40.761  22.234  1.00  0.00    -0.394 OA
ATOM     17  H   UNL     1      43.686  41.130  22.758  1.00  0.00     0.210 HD
ENDBRANCH  15  16
ENDBRANCH   4  15
TORSDOF 7
ENDMDL
MODEL 9
REMARK VINA RESULT:    -4.625     10.725     12.646
REMARK INTER + INTRA:          -6.365
REMARK INTER:                  -5.994
REMARK INTRA:                  -0.371
REMARK UNBOUND:                -0.388
REMARK SMILES CO[C@]1(CO)O[C@@H](CO)[C@H](O)[C@@H]1O
REMARK SMILES IDX 3 1 12 2 10 3 7 4 6 5 2 6 1 7 4 8 5 9 13 11 11 13 8 15 9 16
REMARK H PARENT 5 10 13 12 11 14 9 17
REMARK Flexibility Score: inf
ROOT
ATOM      1  C   UNL     1      48.897  31.052  16.393  1.00  0.00     0.221 C 
ATOM      2  C   UNL     1      49.209  31.966  17.604  1.00  0.00     0.207 C 
ATOM      3  C   UNL     1      48.488  33.252  17.263  1.00  0.00     0.180 C 
ATOM      4  C   UNL     1      48.466  33.219  15.741  1.00  0.00     0.179 C 
ATOM      5  O   UNL     1      48.444  31.873  15.321  1.00  0.00    -0.337 OA
ENDROOT
BRANCH   1   6
ATOM      6  O   UNL     1      50.076  30.324  16.051  1.00  0.00    -0.349 OA
ATOM      7  C   UNL     1      49.991  28.951  16.372  1.00  0.00     0.198 C 
ENDBRANCH   1   6
BRANCH   1   8
ATOM      8  C   UNL     1      47.781  30.043  16.759  1.00  0.00     0.224 C 
BRANCH   8   9
ATOM      9  O   UNL     1      46.729  30.082  15.831  1.00  0.00    -0.391 OA
ATOM     10  H   UNL     1      45.895  30.225  16.350  1.00  0.00     0.210 HD
ENDBRANCH   8   9
ENDBRANCH   1   8
BRANCH   2  11
ATOM     11  O   UNL     1      50.595  32.175  17.769  1.00  0.00    -0.385 OA
ATOM     12  H   UNL     1      50.978  32.445  16.893  1.00  0.00     0.211 HD
ENDBRANCH   2  11
BRANCH   3  13
ATOM     13  O   UNL     1      49.163  34.389  17.735  1.00  0.00    -0.387 OA
ATOM     14  H   UNL     1      50.042  34.404  17.273  1.00  0.00     0.211 HD
ENDBRANCH   3  13
BRANCH   4  15
ATOM     15  C   UNL     1      47.252  33.958  15.160  1.00  0.00     0.191 C 
BRANCH  15  16
ATOM     16  O   UNL     1      46.340  34.293  16.170  1.00  0.00    -0.394 OA
ATOM     17  H   UNL     1      45.452  33.962  15.872  1.00  0.00     0.210 HD
ENDBRANCH  15  16
ENDBRANCH   4  15
TORSDOF 7
ENDMDL
