MODEL 1
REMARK VINA RESULT:    13.459      0.000      0.000
REMARK INTER + INTRA:          19.974
REMARK INTER:                  21.327
REMARK INTRA:                  -1.353
REMARK UNBOUND:                -1.353
REMARK SMILES C[C@H]1O[C@H](O[C@H]2[C@H](Oc3cc(O)c4c(c3)O[C@@H](c3ccc(O)cc3)CC4=O)O[C@H](CO)[C@H](O)[C@H]2O)[C@H](O)[C@H](O)[C@H]1O
REMARK SMILES IDX 6 1 34 2 32 3 29 4 28 5 7 6 5 7 4 8 1 9 2 10 40 11 3 12
REMARK SMILES IDX 38 13 36 14 41 15 39 17 37 19 35 21 8 23 9 24 10 25 15 26
REMARK SMILES IDX 11 27 14 28 13 29 16 30 26 31 17 32 27 33 25 34 12 35 18 37
REMARK SMILES IDX 19 38 24 39 20 40 23 41 21 42 22 43 33 45 30 47 31 48
REMARK H PARENT 41 16 39 18 37 20 35 22 12 36 22 44 33 46 31 49
REMARK Flexibility Score: inf
ROOT
ATOM      1  C   UNL     1      11.559 -34.440  13.526  1.00  0.00     0.221 C 
ATOM      2  C   UNL     1      11.598 -35.937  13.946  1.00  0.00     0.181 C 
ATOM      3  C   UNL     1      10.203 -36.304  14.474  1.00  0.00     0.177 C 
ATOM      4  C   UNL     1       9.213 -36.094  13.333  1.00  0.00     0.179 C 
ATOM      5  O   UNL     1       9.020 -34.711  13.110  1.00  0.00    -0.332 OA
ATOM      6  C   UNL     1      10.195 -33.929  12.875  1.00  0.00     0.339 C 
ENDROOT
BRANCH   1   7
ATOM      7  O   UNL     1      12.746 -33.916  12.900  1.00  0.00    -0.337 OA
BRANCH   7   8
ATOM      8  C   UNL     1      13.611 -33.117  13.715  1.00  0.00     0.282 C 
ATOM      9  C   UNL     1      16.428 -32.689  14.925  1.00  0.00     0.041 C 
ATOM     10  C   UNL     1      15.709 -31.950  13.760  1.00  0.00     0.150 C 
ATOM     11  C   UNL     1      15.005 -30.641  14.178  1.00  0.00     0.174 C 
ATOM     12  O   UNL     1      14.830 -32.808  13.035  1.00  0.00    -0.344 OA
ATOM     13  C   UNL     1      13.716 -30.944  14.950  1.00  0.00     0.179 C 
ATOM     14  C   UNL     1      12.811 -31.871  14.113  1.00  0.00     0.202 C 
BRANCH  11  15
ATOM     15  O   UNL     1      15.890 -29.872  14.943  1.00  0.00    -0.388 OA
ATOM     16  H   UNL     1      16.287 -30.459  15.629  1.00  0.00     0.211 HD
ENDBRANCH  11  15
BRANCH  13  17
ATOM     17  O   UNL     1      13.060 -29.744  15.293  1.00  0.00    -0.387 OA
ATOM     18  H   UNL     1      12.141 -29.806  14.955  1.00  0.00     0.211 HD
ENDBRANCH  13  17
BRANCH  14  19
ATOM     19  O   UNL     1      12.382 -31.205  12.954  1.00  0.00    -0.385 OA
ATOM     20  H   UNL     1      11.465 -30.857  13.150  1.00  0.00     0.211 HD
ENDBRANCH  14  19
ENDBRANCH   7   8
ENDBRANCH   1   7
BRANCH   2  21
ATOM     21  O   UNL     1      11.930 -36.765  12.876  1.00  0.00    -0.387 OA
ATOM     22  H   UNL     1      11.094 -36.914  12.354  1.00  0.00     0.211 HD
ENDBRANCH   2  21
BRANCH   6  23
ATOM     23  O   UNL     1       9.967 -32.581  13.339  1.00  0.00    -0.462 OA
BRANCH  23  24
ATOM     24  C   UNL     1       9.464 -32.238  14.594  1.00  0.00     0.130 A 
ATOM     25  C   UNL     1      10.276 -31.750  15.621  1.00  0.00     0.093 A 
ATOM     26  C   UNL     1       8.077 -32.352  14.805  1.00  0.00     0.094 A 
ATOM     27  C   UNL     1       9.735 -31.447  16.881  1.00  0.00     0.133 A 
ATOM     28  C   UNL     1       7.627 -32.409  16.126  1.00  0.00     0.138 A 
ATOM     29  C   UNL     1       8.398 -31.810  17.138  1.00  0.00     0.102 A 
ATOM     30  O   UNL     1       6.332 -32.892  16.407  1.00  0.00    -0.484 OA
ATOM     31  C   UNL     1       7.740 -31.578  18.453  1.00  0.00     0.174 C 
ATOM     32  C   UNL     1       5.986 -33.258  17.770  1.00  0.00     0.211 C 
ATOM     33  O   UNL     1       8.344 -30.976  19.401  1.00  0.00    -0.294 OA
ATOM     34  C   UNL     1       6.305 -32.030  18.657  1.00  0.00     0.131 C 
BRANCH  27  35
ATOM     35  O   UNL     1      10.553 -30.857  17.856  1.00  0.00    -0.507 OA
ATOM     36  H   UNL     1      11.412 -31.333  18.144  1.00  0.00     0.293 HD
ENDBRANCH  27  35
BRANCH  32  37
ATOM     37  C   UNL     1       6.769 -34.507  18.162  1.00  0.00    -0.007 A 
ATOM     38  C   UNL     1       6.833 -35.654  17.362  1.00  0.00     0.011 A 
ATOM     39  C   UNL     1       7.365 -34.547  19.431  1.00  0.00     0.011 A 
ATOM     40  C   UNL     1       7.375 -36.849  17.865  1.00  0.00     0.046 A 
ATOM     41  C   UNL     1       7.902 -35.730  19.931  1.00  0.00     0.046 A 
ATOM     42  C   UNL     1       7.855 -36.912  19.183  1.00  0.00     0.115 A 
BRANCH  42  43
ATOM     43  O   UNL     1       8.269 -38.122  19.744  1.00  0.00    -0.508 OA
ATOM     44  H   UNL     1       7.736 -38.971  19.683  1.00  0.00     0.293 HD
ENDBRANCH  42  43
ENDBRANCH  32  37
ENDBRANCH  23  24
ENDBRANCH   6  23
BRANCH   3  45
ATOM     45  O   UNL     1       9.857 -35.517  15.592  1.00  0.00    -0.387 OA
ATOM     46  H   UNL     1      10.441 -35.843  16.313  1.00  0.00     0.211 HD
ENDBRANCH   3  45
BRANCH   4  47
ATOM     47  C   UNL     1       7.848 -36.677  13.725  1.00  0.00     0.191 C 
BRANCH  47  48
ATOM     48  O   UNL     1       7.008 -35.648  14.175  1.00  0.00    -0.394 OA
ATOM     49  H   UNL     1       7.171 -35.561  15.148  1.00  0.00     0.210 HD
ENDBRANCH  47  48
ENDBRANCH   4  47
TORSDOF 14
ENDMDL
MODEL 2
REMARK VINA RESULT:    14.304      1.007      1.658
REMARK INTER + INTRA:          21.314
REMARK INTER:                  19.966
REMARK INTRA:                   1.347
REMARK UNBOUND:                -1.353
REMARK SMILES C[C@H]1O[C@H](O[C@H]2[C@H](Oc3cc(O)c4c(c3)O[C@@H](c3ccc(O)cc3)CC4=O)O[C@H](CO)[C@H](O)[C@H]2O)[C@H](O)[C@H](O)[C@H]1O
REMARK SMILES IDX 6 1 34 2 32 3 29 4 28 5 7 6 5 7 4 8 1 9 2 10 40 11 3 12
REMARK SMILES IDX 38 13 36 14 41 15 39 17 37 19 35 21 8 23 9 24 10 25 15 26
REMARK SMILES IDX 11 27 14 28 13 29 16 30 26 31 17 32 27 33 25 34 12 35 18 37
REMARK SMILES IDX 19 38 24 39 20 40 23 41 21 42 22 43 33 45 30 47 31 48
REMARK H PARENT 41 16 39 18 37 20 35 22 12 36 22 44 33 46 31 49
REMARK Flexibility Score: inf
ROOT
ATOM      1  C   UNL     1      12.199 -34.787  13.735  1.00  0.00     0.221 C 
ATOM      2  C   UNL     1      12.010 -36.309  13.993  1.00  0.00     0.181 C 
ATOM      3  C   UNL     1      10.514 -36.552  14.241  1.00  0.00     0.177 C 
ATOM      4  C   UNL     1       9.767 -36.127  12.981  1.00  0.00     0.179 C 
ATOM      5  O   UNL     1       9.759 -34.717  12.877  1.00  0.00    -0.332 OA
ATOM      6  C   UNL     1      11.031 -34.062  12.926  1.00  0.00     0.339 C 
ENDROOT
BRANCH   1   7
ATOM      7  O   UNL     1      13.525 -34.355  13.374  1.00  0.00    -0.337 OA
BRANCH   7   8
ATOM      8  C   UNL     1      13.780 -32.946  13.405  1.00  0.00     0.282 C 
ATOM      9  C   UNL     1      12.640 -30.069  13.463  1.00  0.00     0.041 C 
ATOM     10  C   UNL     1      13.309 -30.910  14.588  1.00  0.00     0.150 C 
ATOM     11  C   UNL     1      14.816 -30.636  14.775  1.00  0.00     0.174 C 
ATOM     12  O   UNL     1      13.044 -32.306  14.450  1.00  0.00    -0.344 OA
ATOM     13  C   UNL     1      15.626 -31.274  13.641  1.00  0.00     0.179 C 
ATOM     14  C   UNL     1      15.298 -32.778  13.547  1.00  0.00     0.202 C 
BRANCH  11  15
ATOM     15  O   UNL     1      15.023 -29.253  14.834  1.00  0.00    -0.388 OA
ATOM     16  H   UNL     1      15.913 -29.063  14.457  1.00  0.00     0.211 HD
ENDBRANCH  11  15
BRANCH  13  17
ATOM     17  O   UNL     1      17.004 -31.052  13.842  1.00  0.00    -0.387 OA
ATOM     18  H   UNL     1      17.481 -31.496  13.109  1.00  0.00     0.211 HD
ENDBRANCH  13  17
BRANCH  14  19
ATOM     19  O   UNL     1      15.731 -33.439  14.708  1.00  0.00    -0.385 OA
ATOM     20  H   UNL     1      15.269 -32.996  15.476  1.00  0.00     0.211 HD
ENDBRANCH  14  19
ENDBRANCH   7   8
ENDBRANCH   1   7
BRANCH   2  21
ATOM     21  O   UNL     1      12.440 -37.073  12.911  1.00  0.00    -0.387 OA
ATOM     22  H   UNL     1      13.120 -36.530  12.424  1.00  0.00     0.211 HD
ENDBRANCH   2  21
BRANCH   6  23
ATOM     23  O   UNL     1      10.863 -32.743  13.486  1.00  0.00    -0.462 OA
BRANCH  23  24
ATOM     24  C   UNL     1      10.027 -32.425  14.557  1.00  0.00     0.130 A 
ATOM     25  C   UNL     1      10.512 -31.903  15.758  1.00  0.00     0.093 A 
ATOM     26  C   UNL     1       8.642 -32.603  14.390  1.00  0.00     0.094 A 
ATOM     27  C   UNL     1       9.641 -31.627  16.825  1.00  0.00     0.133 A 
ATOM     28  C   UNL     1       7.857 -32.682  15.544  1.00  0.00     0.138 A 
ATOM     29  C   UNL     1       8.302 -32.051  16.718  1.00  0.00     0.102 A 
ATOM     30  O   UNL     1       6.557 -33.225  15.473  1.00  0.00    -0.484 OA
ATOM     31  C   UNL     1       7.306 -31.852  17.807  1.00  0.00     0.174 C 
ATOM     32  C   UNL     1       5.875 -33.608  16.697  1.00  0.00     0.211 C 
ATOM     33  O   UNL     1       7.606 -31.225  18.876  1.00  0.00    -0.294 OA
ATOM     34  C   UNL     1       5.890 -32.369  17.624  1.00  0.00     0.131 C 
BRANCH  27  35
ATOM     35  O   UNL     1      10.142 -31.003  17.977  1.00  0.00    -0.507 OA
ATOM     36  H   UNL     1       9.659 -31.136  18.870  1.00  0.00     0.293 HD
ENDBRANCH  27  35
BRANCH  32  37
ATOM     37  C   UNL     1       6.579 -34.822  17.296  1.00  0.00    -0.007 A 
ATOM     38  C   UNL     1       6.386 -36.128  16.830  1.00  0.00     0.011 A 
ATOM     39  C   UNL     1       7.375 -34.633  18.436  1.00  0.00     0.011 A 
ATOM     40  C   UNL     1       6.879 -37.227  17.554  1.00  0.00     0.046 A 
ATOM     41  C   UNL     1       7.863 -35.720  19.154  1.00  0.00     0.046 A 
ATOM     42  C   UNL     1       7.567 -37.031  18.762  1.00  0.00     0.115 A 
BRANCH  42  43
ATOM     43  O   UNL     1       7.943 -38.111  19.563  1.00  0.00    -0.508 OA
ATOM     44  H   UNL     1       8.111 -39.034  19.204  1.00  0.00     0.293 HD
ENDBRANCH  42  43
ENDBRANCH  32  37
ENDBRANCH  23  24
ENDBRANCH   6  23
BRANCH   3  45
ATOM     45  O   UNL     1      10.058 -35.830  15.364  1.00  0.00    -0.387 OA
ATOM     46  H   UNL     1      10.840 -35.782  15.959  1.00  0.00     0.211 HD
ENDBRANCH   3  45
BRANCH   4  47
ATOM     47  C   UNL     1       8.303 -36.575  13.077  1.00  0.00     0.191 C 
BRANCH  47  48
ATOM     48  O   UNL     1       8.218 -37.747  13.844  1.00  0.00    -0.394 OA
ATOM     49  H   UNL     1       9.147 -37.981  14.097  1.00  0.00     0.210 HD
ENDBRANCH  47  48
ENDBRANCH   4  47
TORSDOF 14
ENDMDL
MODEL 3
REMARK VINA RESULT:    14.563      1.609      5.748
REMARK INTER + INTRA:          21.723
REMARK INTER:                  19.156
REMARK INTRA:                   2.567
REMARK UNBOUND:                -1.353
REMARK SMILES C[C@H]1O[C@H](O[C@H]2[C@H](Oc3cc(O)c4c(c3)O[C@@H](c3ccc(O)cc3)CC4=O)O[C@H](CO)[C@H](O)[C@H]2O)[C@H](O)[C@H](O)[C@H]1O
REMARK SMILES IDX 6 1 34 2 32 3 29 4 28 5 7 6 5 7 4 8 1 9 2 10 40 11 3 12
REMARK SMILES IDX 38 13 36 14 41 15 39 17 37 19 35 21 8 23 9 24 10 25 15 26
REMARK SMILES IDX 11 27 14 28 13 29 16 30 26 31 17 32 27 33 25 34 12 35 18 37
REMARK SMILES IDX 19 38 24 39 20 40 23 41 21 42 22 43 33 45 30 47 31 48
REMARK H PARENT 41 16 39 18 37 20 35 22 12 36 22 44 33 46 31 49
REMARK Flexibility Score: inf
ROOT
ATOM      1  C   UNL     1      13.103 -31.427  15.006  1.00  0.00     0.221 C 
ATOM      2  C   UNL     1      14.327 -30.597  15.489  1.00  0.00     0.181 C 
ATOM      3  C   UNL     1      15.593 -31.319  15.003  1.00  0.00     0.177 C 
ATOM      4  C   UNL     1      15.540 -31.357  13.479  1.00  0.00     0.179 C 
ATOM      5  O   UNL     1      14.565 -32.288  13.053  1.00  0.00    -0.332 OA
ATOM      6  C   UNL     1      13.243 -32.117  13.575  1.00  0.00     0.339 C 
ENDROOT
BRANCH   1   7
ATOM      7  O   UNL     1      11.802 -30.866  15.268  1.00  0.00    -0.337 OA
BRANCH   7   8
ATOM      8  C   UNL     1      11.128 -31.312  16.450  1.00  0.00     0.282 C 
ATOM      9  C   UNL     1      11.058 -31.450  19.542  1.00  0.00     0.041 C 
ATOM     10  C   UNL     1      10.212 -30.598  18.552  1.00  0.00     0.150 C 
ATOM     11  C   UNL     1       8.842 -31.214  18.196  1.00  0.00     0.174 C 
ATOM     12  O   UNL     1      10.945 -30.242  17.381  1.00  0.00    -0.344 OA
ATOM     13  C   UNL     1       9.013 -32.394  17.233  1.00  0.00     0.179 C 
ATOM     14  C   UNL     1       9.809 -31.943  15.992  1.00  0.00     0.202 C 
BRANCH  11  15
ATOM     15  O   UNL     1       8.199 -31.607  19.376  1.00  0.00    -0.388 OA
ATOM     16  H   UNL     1       8.632 -32.432  19.696  1.00  0.00     0.211 HD
ENDBRANCH  11  15
BRANCH  13  17
ATOM     17  O   UNL     1       7.755 -32.924  16.883  1.00  0.00    -0.387 OA
ATOM     18  H   UNL     1       7.604 -32.719  15.936  1.00  0.00     0.211 HD
ENDBRANCH  13  17
BRANCH  14  19
ATOM     19  O   UNL     1       9.070 -30.997  15.264  1.00  0.00    -0.385 OA
ATOM     20  H   UNL     1       8.229 -31.454  14.975  1.00  0.00     0.211 HD
ENDBRANCH  14  19
ENDBRANCH   7   8
ENDBRANCH   1   7
BRANCH   2  21
ATOM     21  O   UNL     1      14.301 -29.299  14.986  1.00  0.00    -0.387 OA
ATOM     22  H   UNL     1      14.909 -28.753  15.558  1.00  0.00     0.211 HD
ENDBRANCH   2  21
BRANCH   6  23
ATOM     23  O   UNL     1      12.591 -33.402  13.643  1.00  0.00    -0.462 OA
BRANCH  23  24
ATOM     24  C   UNL     1      11.231 -33.626  13.425  1.00  0.00     0.130 A 
ATOM     25  C   UNL     1      10.294 -32.591  13.403  1.00  0.00     0.093 A 
ATOM     26  C   UNL     1      10.810 -34.946  13.179  1.00  0.00     0.094 A 
ATOM     27  C   UNL     1       8.928 -32.863  13.215  1.00  0.00     0.133 A 
ATOM     28  C   UNL     1       9.456 -35.237  13.365  1.00  0.00     0.138 A 
ATOM     29  C   UNL     1       8.509 -34.208  13.225  1.00  0.00     0.102 A 
ATOM     30  O   UNL     1       9.038 -36.577  13.505  1.00  0.00    -0.484 OA
ATOM     31  C   UNL     1       7.082 -34.606  13.080  1.00  0.00     0.174 C 
ATOM     32  C   UNL     1       7.710 -36.862  14.019  1.00  0.00     0.211 C 
ATOM     33  O   UNL     1       6.168 -33.740  12.875  1.00  0.00    -0.294 OA
ATOM     34  C   UNL     1       6.711 -36.077  13.135  1.00  0.00     0.131 C 
BRANCH  27  35
ATOM     35  O   UNL     1       8.027 -31.796  13.088  1.00  0.00    -0.507 OA
ATOM     36  H   UNL     1       7.096 -31.873  13.507  1.00  0.00     0.293 HD
ENDBRANCH  27  35
BRANCH  32  37
ATOM     37  C   UNL     1       7.653 -36.468  15.492  1.00  0.00    -0.007 A 
ATOM     38  C   UNL     1       8.641 -35.699  16.118  1.00  0.00     0.011 A 
ATOM     39  C   UNL     1       6.616 -36.989  16.279  1.00  0.00     0.011 A 
ATOM     40  C   UNL     1       8.657 -35.555  17.516  1.00  0.00     0.046 A 
ATOM     41  C   UNL     1       6.631 -36.848  17.664  1.00  0.00     0.046 A 
ATOM     42  C   UNL     1       7.684 -36.187  18.307  1.00  0.00     0.115 A 
BRANCH  42  43
ATOM     43  O   UNL     1       7.763 -36.169  19.701  1.00  0.00    -0.508 OA
ATOM     44  H   UNL     1       6.965 -36.044  20.299  1.00  0.00     0.293 HD
ENDBRANCH  42  43
ENDBRANCH  32  37
ENDBRANCH  23  24
ENDBRANCH   6  23
BRANCH   3  45
ATOM     45  O   UNL     1      15.675 -32.622  15.537  1.00  0.00    -0.387 OA
ATOM     46  H   UNL     1      15.994 -33.175  14.788  1.00  0.00     0.211 HD
ENDBRANCH   3  45
BRANCH   4  47
ATOM     47  C   UNL     1      16.889 -31.843  12.932  1.00  0.00     0.191 C 
BRANCH  47  48
ATOM     48  O   UNL     1      17.889 -31.642  13.895  1.00  0.00    -0.394 OA
ATOM     49  H   UNL     1      17.860 -32.430  14.494  1.00  0.00     0.210 HD
ENDBRANCH  47  48
ENDBRANCH   4  47
TORSDOF 14
ENDMDL
