MODEL 1
REMARK VINA RESULT:    -5.986      0.000      0.000
REMARK INTER + INTRA:          -5.986
REMARK INTER:                  -5.986
REMARK INTRA:                   0.000
REMARK UNBOUND:                 0.000
REMARK SMILES C=C1CCC[C@@]2(C)CC(=O)C(=C(C)C)C[C@H]12
REMARK SMILES IDX 13 1 12 2 11 3 15 4 16 5 2 6 1 7 3 8 4 9 5 10 6 11 8 12 9 13
REMARK SMILES IDX 10 14 7 15 14 16
REMARK H PARENT
REMARK Flexibility Score: inf
ROOT
ATOM      1  C   UNL     1      44.427  61.649  31.679  1.00  0.00     0.039 C 
ATOM      2  C   UNL     1      45.340  60.497  31.328  1.00  0.00    -0.070 C 
ATOM      3  C   UNL     1      45.126  59.719  30.225  1.00  0.00    -0.006 C 
ATOM      4  C   UNL     1      46.020  58.525  29.919  1.00  0.00     0.047 C 
ATOM      5  C   UNL     1      45.272  57.393  29.171  1.00  0.00     0.025 C 
ATOM      6  C   UNL     1      46.130  56.183  28.801  1.00  0.00    -0.073 C 
ATOM      7  C   UNL     1      47.444  56.076  29.076  1.00  0.00     0.008 C 
ATOM      8  C   UNL     1      45.413  55.038  28.123  1.00  0.00     0.031 C 
ATOM      9  C   UNL     1      44.640  55.542  26.901  1.00  0.00     0.005 C 
ATOM     10  C   UNL     1      43.734  56.734  27.254  1.00  0.00     0.008 C 
ATOM     11  C   UNL     1      44.506  57.915  27.916  1.00  0.00    -0.018 C 
ATOM     12  C   UNL     1      43.471  58.973  28.372  1.00  0.00     0.088 C 
ATOM     13  C   UNL     1      44.098  60.057  29.199  1.00  0.00     0.159 C 
ATOM     14  O   UNL     1      43.744  61.250  28.996  1.00  0.00    -0.295 OA
ATOM     15  C   UNL     1      45.469  58.553  26.875  1.00  0.00     0.012 C 
ATOM     16  C   UNL     1      46.484  60.218  32.276  1.00  0.00     0.039 C 
ENDROOT
TORSDOF 0
ENDMDL
MODEL 2
REMARK VINA RESULT:    -5.953     19.575     21.737
REMARK INTER + INTRA:          -5.953
REMARK INTER:                  -5.953
REMARK INTRA:                   0.000
REMARK UNBOUND:                 0.000
REMARK SMILES C=C1CCC[C@@]2(C)CC(=O)C(=C(C)C)C[C@H]12
REMARK SMILES IDX 13 1 12 2 11 3 15 4 16 5 2 6 1 7 3 8 4 9 5 10 6 11 8 12 9 13
REMARK SMILES IDX 10 14 7 15 14 16
REMARK H PARENT
REMARK Flexibility Score: inf
ROOT
ATOM      1  C   UNL     1      60.973  61.628  46.319  1.00  0.00     0.039 C 
ATOM      2  C   UNL     1      60.662  63.070  45.988  1.00  0.00    -0.070 C 
ATOM      3  C   UNL     1      60.220  63.446  44.751  1.00  0.00    -0.006 C 
ATOM      4  C   UNL     1      59.969  64.910  44.416  1.00  0.00     0.047 C 
ATOM      5  C   UNL     1      60.210  65.232  42.920  1.00  0.00     0.025 C 
ATOM      6  C   UNL     1      59.934  66.681  42.516  1.00  0.00    -0.073 C 
ATOM      7  C   UNL     1      59.501  67.633  43.365  1.00  0.00     0.008 C 
ATOM      8  C   UNL     1      60.218  67.038  41.075  1.00  0.00     0.031 C 
ATOM      9  C   UNL     1      59.493  66.071  40.135  1.00  0.00     0.005 C 
ATOM     10  C   UNL     1      59.788  64.604  40.491  1.00  0.00     0.008 C 
ATOM     11  C   UNL     1      59.449  64.254  41.972  1.00  0.00    -0.018 C 
ATOM     12  C   UNL     1      59.940  62.812  42.251  1.00  0.00     0.088 C 
ATOM     13  C   UNL     1      59.841  62.453  43.705  1.00  0.00     0.159 C 
ATOM     14  O   UNL     1      59.422  61.305  44.015  1.00  0.00    -0.295 OA
ATOM     15  C   UNL     1      57.911  64.323  42.183  1.00  0.00     0.012 C 
ATOM     16  C   UNL     1      60.898  64.088  47.081  1.00  0.00     0.039 C 
ENDROOT
TORSDOF 0
ENDMDL
MODEL 3
REMARK VINA RESULT:    -5.879     19.517     22.012
REMARK INTER + INTRA:          -5.879
REMARK INTER:                  -5.879
REMARK INTRA:                   0.000
REMARK UNBOUND:                 0.000
REMARK SMILES C=C1CCC[C@@]2(C)CC(=O)C(=C(C)C)C[C@H]12
REMARK SMILES IDX 13 1 12 2 11 3 15 4 16 5 2 6 1 7 3 8 4 9 5 10 6 11 8 12 9 13
REMARK SMILES IDX 10 14 7 15 14 16
REMARK H PARENT
REMARK Flexibility Score: inf
ROOT
ATOM      1  C   UNL     1      60.229  66.988  40.791  1.00  0.00     0.039 C 
ATOM      2  C   UNL     1      59.873  65.557  41.127  1.00  0.00    -0.070 C 
ATOM      3  C   UNL     1      59.873  65.100  42.414  1.00  0.00    -0.006 C 
ATOM      4  C   UNL     1      59.571  63.640  42.730  1.00  0.00     0.047 C 
ATOM      5  C   UNL     1      60.302  63.139  44.000  1.00  0.00     0.025 C 
ATOM      6  C   UNL     1      60.005  61.691  44.391  1.00  0.00    -0.073 C 
ATOM      7  C   UNL     1      59.167  60.883  43.713  1.00  0.00     0.008 C 
ATOM      8  C   UNL     1      60.751  61.157  45.592  1.00  0.00     0.031 C 
ATOM      9  C   UNL     1      60.560  62.087  46.794  1.00  0.00     0.005 C 
ATOM     10  C   UNL     1      60.895  63.546  46.441  1.00  0.00     0.008 C 
ATOM     11  C   UNL     1      60.083  64.083  45.224  1.00  0.00    -0.018 C 
ATOM     12  C   UNL     1      60.623  65.489  44.867  1.00  0.00     0.088 C 
ATOM     13  C   UNL     1      60.043  66.009  43.583  1.00  0.00     0.159 C 
ATOM     14  O   UNL     1      59.695  67.219  43.526  1.00  0.00    -0.295 OA
ATOM     15  C   UNL     1      58.581  64.191  45.608  1.00  0.00     0.012 C 
ATOM     16  C   UNL     1      59.551  64.642  39.967  1.00  0.00     0.039 C 
ENDROOT
TORSDOF 0
ENDMDL
MODEL 4
REMARK VINA RESULT:    -5.875      7.665      9.520
REMARK INTER + INTRA:          -5.875
REMARK INTER:                  -5.875
REMARK INTRA:                   0.000
REMARK UNBOUND:                 0.000
REMARK SMILES C=C1CCC[C@@]2(C)CC(=O)C(=C(C)C)C[C@H]12
REMARK SMILES IDX 13 1 12 2 11 3 15 4 16 5 2 6 1 7 3 8 4 9 5 10 6 11 8 12 9 13
REMARK SMILES IDX 10 14 7 15 14 16
REMARK H PARENT
REMARK Flexibility Score: inf
ROOT
ATOM      1  C   UNL     1      42.311  56.807  41.638  1.00  0.00     0.039 C 
ATOM      2  C   UNL     1      42.644  57.670  40.443  1.00  0.00    -0.070 C 
ATOM      3  C   UNL     1      43.197  57.147  39.309  1.00  0.00    -0.006 C 
ATOM      4  C   UNL     1      43.581  58.039  38.136  1.00  0.00     0.047 C 
ATOM      5  C   UNL     1      44.787  57.489  37.334  1.00  0.00     0.025 C 
ATOM      6  C   UNL     1      45.193  58.324  36.119  1.00  0.00    -0.073 C 
ATOM      7  C   UNL     1      44.568  59.453  35.735  1.00  0.00     0.008 C 
ATOM      8  C   UNL     1      46.405  57.842  35.354  1.00  0.00     0.031 C 
ATOM      9  C   UNL     1      46.236  56.371  34.962  1.00  0.00     0.005 C 
ATOM     10  C   UNL     1      45.870  55.500  36.175  1.00  0.00     0.008 C 
ATOM     11  C   UNL     1      44.596  55.996  36.923  1.00  0.00    -0.018 C 
ATOM     12  C   UNL     1      44.428  55.146  38.206  1.00  0.00     0.088 C 
ATOM     13  C   UNL     1      43.343  55.678  39.098  1.00  0.00     0.159 C 
ATOM     14  O   UNL     1      42.561  54.857  39.649  1.00  0.00    -0.295 OA
ATOM     15  C   UNL     1      43.351  55.803  36.012  1.00  0.00     0.012 C 
ATOM     16  C   UNL     1      42.369  59.151  40.571  1.00  0.00     0.039 C 
ENDROOT
TORSDOF 0
ENDMDL
MODEL 5
REMARK VINA RESULT:    -5.866     12.311     15.230
REMARK INTER + INTRA:          -5.866
REMARK INTER:                  -5.866
REMARK INTRA:                   0.000
REMARK UNBOUND:                 0.000
REMARK SMILES C=C1CCC[C@@]2(C)CC(=O)C(=C(C)C)C[C@H]12
REMARK SMILES IDX 13 1 12 2 11 3 15 4 16 5 2 6 1 7 3 8 4 9 5 10 6 11 8 12 9 13
REMARK SMILES IDX 10 14 7 15 14 16
REMARK H PARENT
REMARK Flexibility Score: inf
ROOT
ATOM      1  C   UNL     1      42.654  57.608  39.388  1.00  0.00     0.039 C 
ATOM      2  C   UNL     1      42.430  57.104  40.795  1.00  0.00    -0.070 C 
ATOM      3  C   UNL     1      42.641  57.898  41.886  1.00  0.00    -0.006 C 
ATOM      4  C   UNL     1      42.469  57.357  43.299  1.00  0.00     0.047 C 
ATOM      5  C   UNL     1      43.402  58.049  44.324  1.00  0.00     0.025 C 
ATOM      6  C   UNL     1      43.245  57.574  45.768  1.00  0.00    -0.073 C 
ATOM      7  C   UNL     1      42.365  56.634  46.163  1.00  0.00     0.008 C 
ATOM      8  C   UNL     1      44.185  58.189  46.780  1.00  0.00     0.031 C 
ATOM      9  C   UNL     1      44.118  59.718  46.707  1.00  0.00     0.005 C 
ATOM     10  C   UNL     1      44.317  60.227  45.269  1.00  0.00     0.008 C 
ATOM     11  C   UNL     1      43.310  59.605  44.255  1.00  0.00    -0.018 C 
ATOM     12  C   UNL     1      43.714  60.063  42.832  1.00  0.00     0.088 C 
ATOM     13  C   UNL     1      42.927  59.357  41.766  1.00  0.00     0.159 C 
ATOM     14  O   UNL     1      42.509  60.027  40.784  1.00  0.00    -0.295 OA
ATOM     15  C   UNL     1      41.875  60.114  44.570  1.00  0.00     0.012 C 
ATOM     16  C   UNL     1      41.996  55.663  40.944  1.00  0.00     0.039 C 
ENDROOT
TORSDOF 0
ENDMDL
MODEL 6
REMARK VINA RESULT:    -5.847      3.217      7.021
REMARK INTER + INTRA:          -5.847
REMARK INTER:                  -5.847
REMARK INTRA:                   0.000
REMARK UNBOUND:                 0.000
REMARK SMILES C=C1CCC[C@@]2(C)CC(=O)C(=C(C)C)C[C@H]12
REMARK SMILES IDX 13 1 12 2 11 3 15 4 16 5 2 6 1 7 3 8 4 9 5 10 6 11 8 12 9 13
REMARK SMILES IDX 10 14 7 15 14 16
REMARK H PARENT
REMARK Flexibility Score: inf
ROOT
ATOM      1  C   UNL     1      43.032  58.625  29.902  1.00  0.00     0.039 C 
ATOM      2  C   UNL     1      43.655  59.964  30.224  1.00  0.00    -0.070 C 
ATOM      3  C   UNL     1      44.100  60.267  31.480  1.00  0.00    -0.006 C 
ATOM      4  C   UNL     1      44.671  61.642  31.802  1.00  0.00     0.047 C 
ATOM      5  C   UNL     1      44.425  62.063  33.272  1.00  0.00     0.025 C 
ATOM      6  C   UNL     1      45.012  63.419  33.665  1.00  0.00    -0.073 C 
ATOM      7  C   UNL     1      45.707  64.213  32.828  1.00  0.00     0.008 C 
ATOM      8  C   UNL     1      44.736  63.883  35.077  1.00  0.00     0.031 C 
ATOM      9  C   UNL     1      45.155  62.805  36.082  1.00  0.00     0.005 C 
ATOM     10  C   UNL     1      44.542  61.438  35.735  1.00  0.00     0.008 C 
ATOM     11  C   UNL     1      44.875  60.967  34.287  1.00  0.00    -0.018 C 
ATOM     12  C   UNL     1      44.074  59.672  34.005  1.00  0.00     0.088 C 
ATOM     13  C   UNL     1      44.170  59.249  32.568  1.00  0.00     0.159 C 
ATOM     14  O   UNL     1      44.324  58.026  32.309  1.00  0.00    -0.295 OA
ATOM     15  C   UNL     1      46.396  60.665  34.176  1.00  0.00     0.012 C 
ATOM     16  C   UNL     1      43.732  60.971  29.099  1.00  0.00     0.039 C 
ENDROOT
TORSDOF 0
ENDMDL
MODEL 7
REMARK VINA RESULT:    -5.838      2.347      3.459
REMARK INTER + INTRA:          -5.838
REMARK INTER:                  -5.838
REMARK INTRA:                   0.000
REMARK UNBOUND:                 0.000
REMARK SMILES C=C1CCC[C@@]2(C)CC(=O)C(=C(C)C)C[C@H]12
REMARK SMILES IDX 13 1 12 2 11 3 15 4 16 5 2 6 1 7 3 8 4 9 5 10 6 11 8 12 9 13
REMARK SMILES IDX 10 14 7 15 14 16
REMARK H PARENT
REMARK Flexibility Score: inf
ROOT
ATOM      1  C   UNL     1      45.027  60.488  34.864  1.00  0.00     0.039 C 
ATOM      2  C   UNL     1      44.554  59.325  34.022  1.00  0.00    -0.070 C 
ATOM      3  C   UNL     1      44.484  59.405  32.660  1.00  0.00    -0.006 C 
ATOM      4  C   UNL     1      43.949  58.246  31.830  1.00  0.00     0.047 C 
ATOM      5  C   UNL     1      43.259  58.712  30.524  1.00  0.00     0.025 C 
ATOM      6  C   UNL     1      42.737  57.588  29.629  1.00  0.00    -0.073 C 
ATOM      7  C   UNL     1      42.859  56.277  29.914  1.00  0.00     0.008 C 
ATOM      8  C   UNL     1      42.007  58.016  28.377  1.00  0.00     0.031 C 
ATOM      9  C   UNL     1      42.865  58.992  27.566  1.00  0.00     0.005 C 
ATOM     10  C   UNL     1      43.368  60.159  28.433  1.00  0.00     0.008 C 
ATOM     11  C   UNL     1      44.152  59.689  29.696  1.00  0.00    -0.018 C 
ATOM     12  C   UNL     1      44.458  60.935  30.564  1.00  0.00     0.088 C 
ATOM     13  C   UNL     1      45.034  60.565  31.901  1.00  0.00     0.159 C 
ATOM     14  O   UNL     1      45.993  61.247  32.352  1.00  0.00    -0.295 OA
ATOM     15  C   UNL     1      45.488  59.024  29.262  1.00  0.00     0.012 C 
ATOM     16  C   UNL     1      44.126  58.076  34.758  1.00  0.00     0.039 C 
ENDROOT
TORSDOF 0
ENDMDL
MODEL 8
REMARK VINA RESULT:    -5.810      2.407      2.865
REMARK INTER + INTRA:          -5.810
REMARK INTER:                  -5.810
REMARK INTRA:                   0.000
REMARK UNBOUND:                 0.000
REMARK SMILES C=C1CCC[C@@]2(C)CC(=O)C(=C(C)C)C[C@H]12
REMARK SMILES IDX 13 1 12 2 11 3 15 4 16 5 2 6 1 7 3 8 4 9 5 10 6 11 8 12 9 13
REMARK SMILES IDX 10 14 7 15 14 16
REMARK H PARENT
REMARK Flexibility Score: inf
ROOT
ATOM      1  C   UNL     1      43.664  61.252  29.196  1.00  0.00     0.039 C 
ATOM      2  C   UNL     1      44.247  60.057  29.916  1.00  0.00    -0.070 C 
ATOM      3  C   UNL     1      43.882  58.779  29.600  1.00  0.00    -0.006 C 
ATOM      4  C   UNL     1      44.433  57.589  30.375  1.00  0.00     0.047 C 
ATOM      5  C   UNL     1      43.443  56.399  30.430  1.00  0.00     0.025 C 
ATOM      6  C   UNL     1      43.958  55.160  31.161  1.00  0.00    -0.073 C 
ATOM      7  C   UNL     1      45.179  55.066  31.721  1.00  0.00     0.008 C 
ATOM      8  C   UNL     1      42.990  54.005  31.282  1.00  0.00     0.031 C 
ATOM      9  C   UNL     1      42.441  53.625  29.903  1.00  0.00     0.005 C 
ATOM     10  C   UNL     1      41.875  54.848  29.161  1.00  0.00     0.008 C 
ATOM     11  C   UNL     1      42.907  56.007  29.017  1.00  0.00    -0.018 C 
ATOM     12  C   UNL     1      42.176  57.229  28.409  1.00  0.00     0.088 C 
ATOM     13  C   UNL     1      43.033  58.462  28.416  1.00  0.00     0.159 C 
ATOM     14  O   UNL     1      43.026  59.207  27.399  1.00  0.00    -0.295 OA
ATOM     15  C   UNL     1      44.054  55.567  28.065  1.00  0.00     0.012 C 
ATOM     16  C   UNL     1      45.227  60.342  31.031  1.00  0.00     0.039 C 
ENDROOT
TORSDOF 0
ENDMDL
MODEL 9
REMARK VINA RESULT:    -5.779      8.392     10.978
REMARK INTER + INTRA:          -5.779
REMARK INTER:                  -5.779
REMARK INTRA:                   0.000
REMARK UNBOUND:                 0.000
REMARK SMILES C=C1CCC[C@@]2(C)CC(=O)C(=C(C)C)C[C@H]12
REMARK SMILES IDX 13 1 12 2 11 3 15 4 16 5 2 6 1 7 3 8 4 9 5 10 6 11 8 12 9 13
REMARK SMILES IDX 10 14 7 15 14 16
REMARK H PARENT
REMARK Flexibility Score: inf
ROOT
ATOM      1  C   UNL     1      44.513  58.613  35.034  1.00  0.00     0.039 C 
ATOM      2  C   UNL     1      44.395  59.172  36.434  1.00  0.00    -0.070 C 
ATOM      3  C   UNL     1      44.152  58.368  37.511  1.00  0.00    -0.006 C 
ATOM      4  C   UNL     1      43.976  58.953  38.907  1.00  0.00     0.047 C 
ATOM      5  C   UNL     1      43.026  58.110  39.794  1.00  0.00     0.025 C 
ATOM      6  C   UNL     1      42.843  58.628  41.221  1.00  0.00    -0.073 C 
ATOM      7  C   UNL     1      43.453  59.724  41.712  1.00  0.00     0.008 C 
ATOM      8  C   UNL     1      41.875  57.859  42.091  1.00  0.00     0.031 C 
ATOM      9  C   UNL     1      42.236  56.371  42.102  1.00  0.00     0.005 C 
ATOM     10  C   UNL     1      42.383  55.812  40.677  1.00  0.00     0.008 C 
ATOM     11  C   UNL     1      43.416  56.600  39.815  1.00  0.00    -0.018 C 
ATOM     12  C   UNL     1      43.353  56.052  38.368  1.00  0.00     0.088 C 
ATOM     13  C   UNL     1      44.166  56.880  37.414  1.00  0.00     0.159 C 
ATOM     14  O   UNL     1      44.864  56.288  36.547  1.00  0.00    -0.295 OA
ATOM     15  C   UNL     1      44.845  56.379  40.386  1.00  0.00     0.012 C 
ATOM     16  C   UNL     1      44.523  60.671  36.586  1.00  0.00     0.039 C 
ENDROOT
TORSDOF 0
ENDMDL
