MODEL 1
REMARK VINA RESULT:    -2.377      0.000      0.000
REMARK INTER + INTRA:          -2.788
REMARK INTER:                  -3.349
REMARK INTRA:                   0.561
REMARK UNBOUND:                 0.561
REMARK SMILES CC1=CCC(=C(C)C)C(=O)CC(C)=CCC1
REMARK SMILES IDX 12 1 14 2 13 3 15 4 16 5 2 6 1 7 3 8 11 10 9 11 10 12 5 13
REMARK SMILES IDX 6 14 7 15 8 16 4 17
REMARK H PARENT
REMARK Flexibility Score: 60.00
ROOT
ATOM      1  C   UNL     1      12.467   7.784   2.410  1.00  0.00    -0.070 C 
ATOM      2  C   UNL     1      12.550   8.948   3.107  1.00  0.00    -0.027 C 
ATOM      3  C   UNL     1      11.768   6.633   3.091  1.00  0.00     0.039 C 
ENDROOT
BRANCH   2   4
ATOM      4  C   UNL     1      13.086  10.273   2.620  1.00  0.00     0.032 C 
BRANCH   4   5
ATOM      5  C   UNL     1      12.456  10.779   1.310  1.00  0.00     0.034 C 
BRANCH   5   6
ATOM      6  C   UNL     1      10.939  10.844   1.293  1.00  0.00    -0.077 C 
ATOM      7  C   UNL     1      10.243  11.781   2.248  1.00  0.00     0.039 C 
ATOM      8  C   UNL     1      10.166  10.038   0.526  1.00  0.00    -0.023 CG0
ATOM      9  G   UNL     1      10.663   9.149  -0.583  1.00  0.00     0.000 G0
ENDBRANCH   5   6
ENDBRANCH   4   5
ENDBRANCH   2   4
BRANCH   1  10
ATOM     10  C   UNL     1      13.122   7.509   1.059  1.00  0.00     0.111 C 
BRANCH  10  11
ATOM     11  C   UNL     1      12.186   7.136  -0.056  1.00  0.00     0.163 C 
ATOM     12  O   UNL     1      12.599   6.417  -1.006  1.00  0.00    -0.294 OA
BRANCH  11  13
ATOM     13  C   UNL     1      10.814   7.704  -0.109  1.00  0.00    -0.002 C 
ATOM     14  C   UNL     1       9.744   6.926   0.213  1.00  0.00    -0.069 C 
ATOM     15  C   UNL     1       9.940   5.489   0.642  1.00  0.00     0.039 C 
ATOM     16  C   UNL     1       8.330   7.449   0.132  1.00  0.00     0.039 C 
BRANCH  13  17
ATOM     17  C   UNL     1      10.672   9.142  -0.590  1.00  0.00     0.066 CG0
ATOM     18  G   UNL     1      10.168  10.013   0.531  1.00  0.00     0.000 G0
ENDBRANCH  13  17
ENDBRANCH  11  13
ENDBRANCH  10  11
ENDBRANCH   1  10
TORSDOF 0
ENDMDL
MODEL 2
REMARK VINA RESULT:    -2.186      2.334      4.895
REMARK INTER + INTRA:          -2.520
REMARK INTER:                  -2.743
REMARK INTRA:                   0.223
REMARK UNBOUND:                 0.561
REMARK SMILES CC1=CCC(=C(C)C)C(=O)CC(C)=CCC1
REMARK SMILES IDX 12 1 14 2 13 3 15 4 16 5 2 6 1 7 3 8 11 10 9 11 10 12 5 13
REMARK SMILES IDX 6 14 7 15 8 16 4 17
REMARK H PARENT
REMARK Flexibility Score: 60.00
ROOT
ATOM      1  C   UNL     1      11.274  10.716  -0.215  1.00  0.00    -0.070 C 
ATOM      2  C   UNL     1      11.491   9.730  -1.125  1.00  0.00    -0.027 C 
ATOM      3  C   UNL     1      11.626  12.122  -0.640  1.00  0.00     0.039 C 
ENDROOT
BRANCH   2   4
ATOM      4  C   UNL     1      11.121   8.271  -1.001  1.00  0.00     0.032 C 
BRANCH   4   5
ATOM      5  C   UNL     1      12.024   7.457  -0.058  1.00  0.00     0.034 C 
BRANCH   5   6
ATOM      6  C   UNL     1      11.316   6.765   1.093  1.00  0.00    -0.077 C 
ATOM      7  C   UNL     1      10.282   5.712   0.781  1.00  0.00     0.039 C 
ATOM      8  C   UNL     1      11.496   7.103   2.393  1.00  0.00    -0.023 CG0
ATOM      9  G   UNL     1      12.575   8.015   2.915  1.00  0.00     0.000 G0
ENDBRANCH   5   6
ENDBRANCH   4   5
ENDBRANCH   2   4
BRANCH   1  10
ATOM     10  C   UNL     1      10.825  10.510   1.229  1.00  0.00     0.111 C 
BRANCH  10  11
ATOM     11  C   UNL     1      11.925  10.448   2.252  1.00  0.00     0.163 C 
ATOM     12  O   UNL     1      12.902  11.241   2.168  1.00  0.00    -0.294 OA
BRANCH  11  13
ATOM     13  C   UNL     1      11.931   9.384   3.288  1.00  0.00    -0.002 C 
ATOM     14  C   UNL     1      11.433   9.642   4.529  1.00  0.00    -0.069 C 
ATOM     15  C   UNL     1      10.858  11.001   4.859  1.00  0.00     0.039 C 
ATOM     16  C   UNL     1      11.457   8.605   5.625  1.00  0.00     0.039 C 
BRANCH  13  17
ATOM     17  C   UNL     1      12.561   8.049   2.915  1.00  0.00     0.066 CG0
ATOM     18  G   UNL     1      11.506   7.105   2.402  1.00  0.00     0.000 G0
ENDBRANCH  13  17
ENDBRANCH  11  13
ENDBRANCH  10  11
ENDBRANCH   1  10
TORSDOF 0
ENDMDL
MODEL 3
REMARK VINA RESULT:    -1.867      1.890      3.855
REMARK INTER + INTRA:          -2.070
REMARK INTER:                  -3.091
REMARK INTRA:                   1.021
REMARK UNBOUND:                 0.561
REMARK SMILES CC1=CCC(=C(C)C)C(=O)CC(C)=CCC1
REMARK SMILES IDX 12 1 14 2 13 3 15 4 16 5 2 6 1 7 3 8 11 10 9 11 10 12 5 13
REMARK SMILES IDX 6 14 7 15 8 16 4 17
REMARK H PARENT
REMARK Flexibility Score: 60.00
ROOT
ATOM      1  C   UNL     1      10.791   7.211   0.394  1.00  0.00    -0.070 C 
ATOM      2  C   UNL     1      10.248   8.112  -0.466  1.00  0.00    -0.027 C 
ATOM      3  C   UNL     1      11.356   5.949  -0.213  1.00  0.00     0.039 C 
ENDROOT
BRANCH   2   4
ATOM      4  C   UNL     1       9.726   9.491  -0.139  1.00  0.00     0.032 C 
BRANCH   4   5
ATOM      5  C   UNL     1      10.490  10.645  -0.811  1.00  0.00     0.034 C 
BRANCH   5   6
ATOM      6  C   UNL     1      11.752  11.099  -0.099  1.00  0.00    -0.077 C 
ATOM      7  C   UNL     1      12.894  11.641  -0.924  1.00  0.00     0.039 C 
ATOM      8  C   UNL     1      11.949  10.963   1.234  1.00  0.00    -0.023 CG0
ATOM      9  G   UNL     1      10.891  10.585   2.238  1.00  0.00     0.000 G0
ENDBRANCH   5   6
ENDBRANCH   4   5
ENDBRANCH   2   4
BRANCH   1  10
ATOM     10  C   UNL     1      10.766   7.308   1.917  1.00  0.00     0.111 C 
BRANCH  10  11
ATOM     11  C   UNL     1      11.804   8.207   2.530  1.00  0.00     0.163 C 
ATOM     12  O   UNL     1      13.004   7.825   2.591  1.00  0.00    -0.294 OA
BRANCH  11  13
ATOM     13  C   UNL     1      11.408   9.488   3.168  1.00  0.00    -0.002 C 
ATOM     14  C   UNL     1      11.472   9.620   4.522  1.00  0.00    -0.069 C 
ATOM     15  C   UNL     1      11.960   8.478   5.383  1.00  0.00     0.039 C 
ATOM     16  C   UNL     1      11.039  10.889   5.216  1.00  0.00     0.039 C 
BRANCH  13  17
ATOM     17  C   UNL     1      10.883  10.589   2.256  1.00  0.00     0.066 CG0
ATOM     18  G   UNL     1      11.931  10.964   1.243  1.00  0.00     0.000 G0
ENDBRANCH  13  17
ENDBRANCH  11  13
ENDBRANCH  10  11
ENDBRANCH   1  10
TORSDOF 0
ENDMDL
MODEL 4
REMARK VINA RESULT:    -1.649      1.777      4.037
REMARK INTER + INTRA:          -1.763
REMARK INTER:                  -2.919
REMARK INTRA:                   1.156
REMARK UNBOUND:                 0.561
REMARK SMILES CC1=CCC(=C(C)C)C(=O)CC(C)=CCC1
REMARK SMILES IDX 12 1 14 2 13 3 15 4 16 5 2 6 1 7 3 8 11 10 9 11 10 12 5 13
REMARK SMILES IDX 6 14 7 15 8 16 4 17
REMARK H PARENT
REMARK Flexibility Score: 60.00
ROOT
ATOM      1  C   UNL     1       9.393   7.243   1.115  1.00  0.00    -0.070 C 
ATOM      2  C   UNL     1      10.366   6.374   1.496  1.00  0.00    -0.027 C 
ATOM      3  C   UNL     1       8.022   6.660   0.865  1.00  0.00     0.039 C 
ENDROOT
BRANCH   2   4
ATOM      4  C   UNL     1      11.777   6.706   1.918  1.00  0.00     0.032 C 
BRANCH   4   5
ATOM      5  C   UNL     1      11.949   6.991   3.421  1.00  0.00     0.034 C 
BRANCH   5   6
ATOM      6  C   UNL     1      11.797   8.444   3.836  1.00  0.00    -0.077 C 
ATOM      7  C   UNL     1      11.245   8.752   5.205  1.00  0.00     0.039 C 
ATOM      8  C   UNL     1      12.048   9.487   3.008  1.00  0.00    -0.023 CG0
ATOM      9  G   UNL     1      12.735   9.395   1.672  1.00  0.00     0.000 G0
ENDBRANCH   5   6
ENDBRANCH   4   5
ENDBRANCH   2   4
BRANCH   1  10
ATOM     10  C   UNL     1       9.595   8.723   0.802  1.00  0.00     0.111 C 
BRANCH  10  11
ATOM     11  C   UNL     1      10.815   9.057  -0.011  1.00  0.00     0.163 C 
ATOM     12  O   UNL     1      10.997   8.496  -1.125  1.00  0.00    -0.294 OA
BRANCH  11  13
ATOM     13  C   UNL     1      11.864   9.952   0.540  1.00  0.00    -0.002 C 
ATOM     14  C   UNL     1      12.037  11.198   0.019  1.00  0.00    -0.069 C 
ATOM     15  C   UNL     1      11.156  11.688  -1.108  1.00  0.00     0.039 C 
ATOM     16  C   UNL     1      13.118  12.125   0.519  1.00  0.00     0.039 C 
BRANCH  13  17
ATOM     17  C   UNL     1      12.750   9.391   1.645  1.00  0.00     0.066 CG0
ATOM     18  G   UNL     1      12.056   9.514   2.976  1.00  0.00     0.000 G0
ENDBRANCH  13  17
ENDBRANCH  11  13
ENDBRANCH  10  11
ENDBRANCH   1  10
TORSDOF 0
ENDMDL
MODEL 5
REMARK VINA RESULT:    -1.529      1.731      4.734
REMARK INTER + INTRA:          -1.593
REMARK INTER:                  -2.336
REMARK INTRA:                   0.743
REMARK UNBOUND:                 0.561
REMARK SMILES CC1=CCC(=C(C)C)C(=O)CC(C)=CCC1
REMARK SMILES IDX 12 1 14 2 13 3 15 4 16 5 2 6 1 7 3 8 11 10 9 11 10 12 5 13
REMARK SMILES IDX 6 14 7 15 8 16 4 17
REMARK H PARENT
REMARK Flexibility Score: 60.00
ROOT
ATOM      1  C   UNL     1       9.710   9.163   0.434  1.00  0.00    -0.070 C 
ATOM      2  C   UNL     1       8.995   8.036   0.690  1.00  0.00    -0.027 C 
ATOM      3  C   UNL     1       9.338  10.397   1.220  1.00  0.00     0.039 C 
ENDROOT
BRANCH   2   4
ATOM      4  C   UNL     1       9.235   6.652   0.136  1.00  0.00     0.032 C 
BRANCH   4   5
ATOM      5  C   UNL     1      10.346   5.860   0.847  1.00  0.00     0.034 C 
BRANCH   5   6
ATOM      6  C   UNL     1      11.722   5.942   0.209  1.00  0.00    -0.077 C 
ATOM      7  C   UNL     1      12.016   5.082  -0.995  1.00  0.00     0.039 C 
ATOM      8  C   UNL     1      12.737   6.682   0.716  1.00  0.00    -0.023 CG0
ATOM      9  G   UNL     1      12.607   7.708   1.811  1.00  0.00     0.000 G0
ENDBRANCH   5   6
ENDBRANCH   4   5
ENDBRANCH   2   4
BRANCH   1  10
ATOM     10  C   UNL     1      10.765   9.318  -0.658  1.00  0.00     0.111 C 
BRANCH  10  11
ATOM     11  C   UNL     1      12.195   9.260  -0.197  1.00  0.00     0.163 C 
ATOM     12  O   UNL     1      13.125   9.222  -1.048  1.00  0.00    -0.294 OA
BRANCH  11  13
ATOM     13  C   UNL     1      12.515   9.127   1.247  1.00  0.00    -0.002 C 
ATOM     14  C   UNL     1      12.753  10.240   1.994  1.00  0.00    -0.069 C 
ATOM     15  C   UNL     1      12.676  11.615   1.371  1.00  0.00     0.039 C 
ATOM     16  C   UNL     1      13.124  10.150   3.455  1.00  0.00     0.039 C 
BRANCH  13  17
ATOM     17  C   UNL     1      12.622   7.717   1.811  1.00  0.00     0.066 CG0
ATOM     18  G   UNL     1      12.730   6.718   0.690  1.00  0.00     0.000 G0
ENDBRANCH  13  17
ENDBRANCH  11  13
ENDBRANCH  10  11
ENDBRANCH   1  10
TORSDOF 0
ENDMDL
MODEL 6
REMARK VINA RESULT:     0.292     12.843     14.909
REMARK INTER + INTRA:           0.973
REMARK INTER:                  -0.718
REMARK INTRA:                   1.691
REMARK UNBOUND:                 0.561
REMARK SMILES CC1=CCC(=C(C)C)C(=O)CC(C)=CCC1
REMARK SMILES IDX 12 1 14 2 13 3 15 4 16 5 2 6 1 7 3 8 11 10 9 11 10 12 5 13
REMARK SMILES IDX 6 14 7 15 8 16 4 17
REMARK H PARENT
REMARK Flexibility Score: 60.00
ROOT
ATOM      1  C   UNL     1      10.677  -5.069   2.760  1.00  0.00    -0.070 C 
ATOM      2  C   UNL     1      11.953  -4.983   2.300  1.00  0.00    -0.027 C 
ATOM      3  C   UNL     1      10.138  -3.864   3.494  1.00  0.00     0.039 C 
ENDROOT
BRANCH   2   4
ATOM      4  C   UNL     1      12.688  -5.985   1.442  1.00  0.00     0.032 C 
BRANCH   4   5
ATOM      5  C   UNL     1      12.905  -5.546  -0.016  1.00  0.00     0.034 C 
BRANCH   5   6
ATOM      6  C   UNL     1      11.736  -4.827  -0.667  1.00  0.00    -0.077 C 
ATOM      7  C   UNL     1      11.849  -3.346  -0.926  1.00  0.00     0.039 C 
ATOM      8  C   UNL     1      10.554  -5.427  -0.950  1.00  0.00    -0.023 CG0
ATOM      9  G   UNL     1      10.294  -6.909  -0.903  1.00  0.00     0.000 G0
ENDBRANCH   5   6
ENDBRANCH   4   5
ENDBRANCH   2   4
BRANCH   1  10
ATOM     10  C   UNL     1       9.794  -6.312   2.705  1.00  0.00     0.111 C 
BRANCH  10  11
ATOM     11  C   UNL     1      10.138  -7.310   1.635  1.00  0.00     0.163 C 
ATOM     12  O   UNL     1      11.086  -8.121   1.818  1.00  0.00    -0.294 OA
BRANCH  11  13
ATOM     13  C   UNL     1       9.450  -7.270   0.319  1.00  0.00    -0.002 C 
ATOM     14  C   UNL     1       8.132  -7.598   0.232  1.00  0.00    -0.069 C 
ATOM     15  C   UNL     1       7.353  -7.988   1.468  1.00  0.00     0.039 C 
ATOM     16  C   UNL     1       7.403  -7.613  -1.090  1.00  0.00     0.039 C 
BRANCH  13  17
ATOM     17  C   UNL     1      10.293  -6.913  -0.899  1.00  0.00     0.066 CG0
ATOM     18  G   UNL     1      10.544  -5.429  -0.935  1.00  0.00     0.000 G0
ENDBRANCH  13  17
ENDBRANCH  11  13
ENDBRANCH  10  11
ENDBRANCH   1  10
TORSDOF 0
ENDMDL
