MODEL 1
REMARK VINA RESULT:    -3.637      0.000      0.000
REMARK INTER + INTRA:          -4.760
REMARK INTER:                  -5.125
REMARK INTRA:                   0.365
REMARK UNBOUND:                 0.365
REMARK SMILES CC1=CCC(=C(C)C)C(=O)CC(C)=CCC1
REMARK SMILES IDX 12 1 14 2 13 3 15 4 16 5 2 6 1 7 3 8 11 10 9 11 10 12 5 13
REMARK SMILES IDX 6 14 7 15 8 16 4 17
REMARK H PARENT
REMARK Flexibility Score: 60.00
ROOT
ATOM      1  C   UNL     1       9.917  28.400  14.780  1.00  0.00    -0.070 C 
ATOM      2  C   UNL     1       9.970  29.539  15.519  1.00  0.00    -0.027 C 
ATOM      3  C   UNL     1      11.230  27.751  14.415  1.00  0.00     0.039 C 
ENDROOT
BRANCH   2   4
ATOM      4  C   UNL     1       8.797  30.405  15.908  1.00  0.00     0.032 C 
BRANCH   4   5
ATOM      5  C   UNL     1       8.265  30.108  17.317  1.00  0.00     0.034 C 
BRANCH   5   6
ATOM      6  C   UNL     1       6.790  29.762  17.257  1.00  0.00    -0.077 C 
ATOM      7  C   UNL     1       5.796  30.889  17.134  1.00  0.00     0.039 C 
ATOM      8  C   UNL     1       6.322  28.491  17.231  1.00  0.00    -0.023 CG0
ATOM      9  G   UNL     1       7.159  27.241  17.359  1.00  0.00     0.000 G0
ENDBRANCH   5   6
ENDBRANCH   4   5
ENDBRANCH   2   4
BRANCH   1  10
ATOM     10  C   UNL     1       8.626  27.700  14.366  1.00  0.00     0.111 C 
BRANCH  10  11
ATOM     11  C   UNL     1       8.318  26.460  15.166  1.00  0.00     0.163 C 
ATOM     12  O   UNL     1       9.118  25.488  15.069  1.00  0.00    -0.294 OA
BRANCH  11  13
ATOM     13  C   UNL     1       7.149  26.368  16.102  1.00  0.00    -0.002 C 
ATOM     14  C   UNL     1       6.072  25.577  15.801  1.00  0.00    -0.069 C 
ATOM     15  C   UNL     1       6.071  24.655  14.602  1.00  0.00     0.039 C 
ATOM     16  C   UNL     1       4.840  25.543  16.680  1.00  0.00     0.039 C 
BRANCH  13  17
ATOM     17  C   UNL     1       7.156  27.218  17.372  1.00  0.00     0.066 CG0
ATOM     18  G   UNL     1       6.336  28.476  17.221  1.00  0.00     0.000 G0
ENDBRANCH  13  17
ENDBRANCH  11  13
ENDBRANCH  10  11
ENDBRANCH   1  10
TORSDOF 0
ENDMDL
MODEL 2
REMARK VINA RESULT:    -3.506      3.729      6.382
REMARK INTER + INTRA:          -4.576
REMARK INTER:                  -4.766
REMARK INTRA:                   0.190
REMARK UNBOUND:                 0.365
REMARK SMILES CC1=CCC(=C(C)C)C(=O)CC(C)=CCC1
REMARK SMILES IDX 12 1 14 2 13 3 15 4 16 5 2 6 1 7 3 8 11 10 9 11 10 12 5 13
REMARK SMILES IDX 6 14 7 15 8 16 4 17
REMARK H PARENT
REMARK Flexibility Score: 60.00
ROOT
ATOM      1  C   UNL     1      15.203  27.596  15.202  1.00  0.00    -0.070 C 
ATOM      2  C   UNL     1      15.521  26.287  15.381  1.00  0.00    -0.027 C 
ATOM      3  C   UNL     1      16.296  28.509  14.702  1.00  0.00     0.039 C 
ENDROOT
BRANCH   2   4
ATOM      4  C   UNL     1      14.622  25.224  15.964  1.00  0.00     0.032 C 
BRANCH   4   5
ATOM      5  C   UNL     1      13.722  24.550  14.919  1.00  0.00     0.034 C 
BRANCH   5   6
ATOM      6  C   UNL     1      12.312  24.406  15.458  1.00  0.00    -0.077 C 
ATOM      7  C   UNL     1      12.086  23.488  16.632  1.00  0.00     0.039 C 
ATOM      8  C   UNL     1      11.258  25.116  14.989  1.00  0.00    -0.023 CG0
ATOM      9  G   UNL     1      11.287  26.067  13.817  1.00  0.00     0.000 G0
ENDBRANCH   5   6
ENDBRANCH   4   5
ENDBRANCH   2   4
BRANCH   1  10
ATOM     10  C   UNL     1      13.807  28.179  15.396  1.00  0.00     0.111 C 
BRANCH  10  11
ATOM     11  C   UNL     1      12.922  28.067  14.180  1.00  0.00     0.163 C 
ATOM     12  O   UNL     1      13.412  28.406  13.067  1.00  0.00    -0.294 OA
BRANCH  11  13
ATOM     13  C   UNL     1      11.527  27.519  14.240  1.00  0.00    -0.002 C 
ATOM     14  C   UNL     1      10.494  28.282  14.719  1.00  0.00    -0.069 C 
ATOM     15  C   UNL     1      10.678  29.743  15.065  1.00  0.00     0.039 C 
ATOM     16  C   UNL     1       9.099  27.720  14.881  1.00  0.00     0.039 C 
BRANCH  13  17
ATOM     17  C   UNL     1      11.287  26.072  13.811  1.00  0.00     0.066 CG0
ATOM     18  G   UNL     1      11.254  25.126  14.986  1.00  0.00     0.000 G0
ENDBRANCH  13  17
ENDBRANCH  11  13
ENDBRANCH  10  11
ENDBRANCH   1  10
TORSDOF 0
ENDMDL
MODEL 3
REMARK VINA RESULT:    -3.439      1.942      3.857
REMARK INTER + INTRA:          -4.482
REMARK INTER:                  -4.746
REMARK INTRA:                   0.265
REMARK UNBOUND:                 0.365
REMARK SMILES CC1=CCC(=C(C)C)C(=O)CC(C)=CCC1
REMARK SMILES IDX 12 1 14 2 13 3 15 4 16 5 2 6 1 7 3 8 11 10 9 11 10 12 5 13
REMARK SMILES IDX 6 14 7 15 8 16 4 17
REMARK H PARENT
REMARK Flexibility Score: 60.00
ROOT
ATOM      1  C   UNL     1       7.412  29.910  17.242  1.00  0.00    -0.070 C 
ATOM      2  C   UNL     1       8.563  30.354  16.674  1.00  0.00    -0.027 C 
ATOM      3  C   UNL     1       6.571  30.924  17.980  1.00  0.00     0.039 C 
ENDROOT
BRANCH   2   4
ATOM      4  C   UNL     1       9.600  29.503  15.981  1.00  0.00     0.032 C 
BRANCH   4   5
ATOM      5  C   UNL     1       9.204  29.108  14.552  1.00  0.00     0.034 C 
BRANCH   5   6
ATOM      6  C   UNL     1       9.528  27.648  14.303  1.00  0.00    -0.077 C 
ATOM      7  C   UNL     1      10.954  27.192  14.483  1.00  0.00     0.039 C 
ATOM      8  C   UNL     1       8.592  26.716  14.003  1.00  0.00    -0.023 CG0
ATOM      9  G   UNL     1       7.125  26.984  13.771  1.00  0.00     0.000 G0
ENDBRANCH   5   6
ENDBRANCH   4   5
ENDBRANCH   2   4
BRANCH   1  10
ATOM     10  C   UNL     1       6.880  28.486  17.116  1.00  0.00     0.111 C 
BRANCH  10  11
ATOM     11  C   UNL     1       6.134  28.222  15.832  1.00  0.00     0.163 C 
ATOM     12  O   UNL     1       5.388  29.139  15.390  1.00  0.00    -0.294 OA
BRANCH  11  13
ATOM     13  C   UNL     1       6.294  26.954  15.047  1.00  0.00    -0.002 C 
ATOM     14  C   UNL     1       5.759  25.777  15.501  1.00  0.00    -0.069 C 
ATOM     15  C   UNL     1       4.865  25.727  16.721  1.00  0.00     0.039 C 
ATOM     16  C   UNL     1       5.989  24.467  14.779  1.00  0.00     0.039 C 
BRANCH  13  17
ATOM     17  C   UNL     1       7.115  26.986  13.759  1.00  0.00     0.066 CG0
ATOM     18  G   UNL     1       8.579  26.712  14.009  1.00  0.00     0.000 G0
ENDBRANCH  13  17
ENDBRANCH  11  13
ENDBRANCH  10  11
ENDBRANCH   1  10
TORSDOF 0
ENDMDL
MODEL 4
REMARK VINA RESULT:    -3.439      2.046      4.694
REMARK INTER + INTRA:          -4.481
REMARK INTER:                  -4.601
REMARK INTRA:                   0.119
REMARK UNBOUND:                 0.365
REMARK SMILES CC1=CCC(=C(C)C)C(=O)CC(C)=CCC1
REMARK SMILES IDX 12 1 14 2 13 3 15 4 16 5 2 6 1 7 3 8 11 10 9 11 10 12 5 13
REMARK SMILES IDX 6 14 7 15 8 16 4 17
REMARK H PARENT
REMARK Flexibility Score: 60.00
ROOT
ATOM      1  C   UNL     1       3.952  25.976  16.416  1.00  0.00    -0.070 C 
ATOM      2  C   UNL     1       2.756  26.617  16.486  1.00  0.00    -0.027 C 
ATOM      3  C   UNL     1       3.990  24.534  16.859  1.00  0.00     0.039 C 
ENDROOT
BRANCH   2   4
ATOM      4  C   UNL     1       2.509  28.077  16.194  1.00  0.00     0.032 C 
BRANCH   4   5
ATOM      5  C   UNL     1       3.069  29.015  17.271  1.00  0.00     0.034 C 
BRANCH   5   6
ATOM      6  C   UNL     1       3.841  30.149  16.627  1.00  0.00    -0.077 C 
ATOM      7  C   UNL     1       3.093  31.109  15.738  1.00  0.00     0.039 C 
ATOM      8  C   UNL     1       5.152  30.391  16.869  1.00  0.00    -0.023 CG0
ATOM      9  G   UNL     1       6.065  29.535  17.714  1.00  0.00     0.000 G0
ENDBRANCH   5   6
ENDBRANCH   4   5
ENDBRANCH   2   4
BRANCH   1  10
ATOM     10  C   UNL     1       5.228  26.591  15.848  1.00  0.00     0.111 C 
BRANCH  10  11
ATOM     11  C   UNL     1       6.201  27.062  16.899  1.00  0.00     0.163 C 
ATOM     12  O   UNL     1       6.566  26.229  17.774  1.00  0.00    -0.294 OA
BRANCH  11  13
ATOM     13  C   UNL     1       6.785  28.444  16.902  1.00  0.00    -0.002 C 
ATOM     14  C   UNL     1       7.953  28.712  16.237  1.00  0.00    -0.069 C 
ATOM     15  C   UNL     1       8.622  27.680  15.357  1.00  0.00     0.039 C 
ATOM     16  C   UNL     1       8.613  30.072  16.306  1.00  0.00     0.039 C 
BRANCH  13  17
ATOM     17  C   UNL     1       6.084  29.537  17.708  1.00  0.00     0.066 CG0
ATOM     18  G   UNL     1       5.151  30.364  16.857  1.00  0.00     0.000 G0
ENDBRANCH  13  17
ENDBRANCH  11  13
ENDBRANCH  10  11
ENDBRANCH   1  10
TORSDOF 0
ENDMDL
MODEL 5
REMARK VINA RESULT:    -3.427      1.610      3.996
REMARK INTER + INTRA:          -4.464
REMARK INTER:                  -4.950
REMARK INTRA:                   0.486
REMARK UNBOUND:                 0.365
REMARK SMILES CC1=CCC(=C(C)C)C(=O)CC(C)=CCC1
REMARK SMILES IDX 12 1 14 2 13 3 15 4 16 5 2 6 1 7 3 8 11 10 9 11 10 12 5 13
REMARK SMILES IDX 6 14 7 15 8 16 4 17
REMARK H PARENT
REMARK Flexibility Score: 60.00
ROOT
ATOM      1  C   UNL     1       5.988  27.049  16.898  1.00  0.00    -0.070 C 
ATOM      2  C   UNL     1       5.541  28.280  17.261  1.00  0.00    -0.027 C 
ATOM      3  C   UNL     1       4.948  26.008  16.562  1.00  0.00     0.039 C 
ENDROOT
BRANCH   2   4
ATOM      4  C   UNL     1       6.392  29.434  17.733  1.00  0.00     0.032 C 
BRANCH   4   5
ATOM      5  C   UNL     1       6.184  30.715  16.915  1.00  0.00     0.034 C 
BRANCH   5   6
ATOM      6  C   UNL     1       6.247  30.405  15.432  1.00  0.00    -0.077 C 
ATOM      7  C   UNL     1       5.033  30.699  14.589  1.00  0.00     0.039 C 
ATOM      8  C   UNL     1       7.362  29.949  14.812  1.00  0.00    -0.023 CG0
ATOM      9  G   UNL     1       8.661  29.586  15.489  1.00  0.00     0.000 G0
ENDBRANCH   5   6
ENDBRANCH   4   5
ENDBRANCH   2   4
BRANCH   1  10
ATOM     10  C   UNL     1       7.459  26.680  16.732  1.00  0.00     0.111 C 
BRANCH  10  11
ATOM     11  C   UNL     1       8.038  27.057  15.392  1.00  0.00     0.163 C 
ATOM     12  O   UNL     1       7.582  26.469  14.372  1.00  0.00    -0.294 OA
BRANCH  11  13
ATOM     13  C   UNL     1       9.074  28.130  15.228  1.00  0.00    -0.002 C 
ATOM     14  C   UNL     1      10.369  27.811  14.914  1.00  0.00    -0.069 C 
ATOM     15  C   UNL     1      10.780  26.396  14.573  1.00  0.00     0.039 C 
ATOM     16  C   UNL     1      11.452  28.865  14.840  1.00  0.00     0.039 C 
BRANCH  13  17
ATOM     17  C   UNL     1       8.672  29.583  15.476  1.00  0.00     0.066 CG0
ATOM     18  G   UNL     1       7.367  29.937  14.804  1.00  0.00     0.000 G0
ENDBRANCH  13  17
ENDBRANCH  11  13
ENDBRANCH  10  11
ENDBRANCH   1  10
TORSDOF 0
ENDMDL
MODEL 6
REMARK VINA RESULT:    -3.333      4.500      7.310
REMARK INTER + INTRA:          -4.332
REMARK INTER:                  -4.641
REMARK INTRA:                   0.308
REMARK UNBOUND:                 0.365
REMARK SMILES CC1=CCC(=C(C)C)C(=O)CC(C)=CCC1
REMARK SMILES IDX 12 1 14 2 13 3 15 4 16 5 2 6 1 7 3 8 11 10 9 11 10 12 5 13
REMARK SMILES IDX 6 14 7 15 8 16 4 17
REMARK H PARENT
REMARK Flexibility Score: 60.00
ROOT
ATOM      1  C   UNL     1      11.900  24.719  15.708  1.00  0.00    -0.070 C 
ATOM      2  C   UNL     1      10.756  25.143  15.109  1.00  0.00    -0.027 C 
ATOM      3  C   UNL     1      11.998  23.250  16.044  1.00  0.00     0.039 C 
ENDROOT
BRANCH   2   4
ATOM      4  C   UNL     1      10.402  26.573  14.779  1.00  0.00     0.032 C 
BRANCH   4   5
ATOM      5  C   UNL     1      11.266  27.169  13.660  1.00  0.00     0.034 C 
BRANCH   5   6
ATOM      6  C   UNL     1      11.888  28.474  14.118  1.00  0.00    -0.077 C 
ATOM      7  C   UNL     1      10.991  29.515  14.737  1.00  0.00     0.039 C 
ATOM      8  C   UNL     1      13.219  28.723  14.071  1.00  0.00    -0.023 CG0
ATOM      9  G   UNL     1      14.266  27.812  13.477  1.00  0.00     0.000 G0
ENDBRANCH   5   6
ENDBRANCH   4   5
ENDBRANCH   2   4
BRANCH   1  10
ATOM     10  C   UNL     1      13.109  25.606  15.986  1.00  0.00     0.111 C 
BRANCH  10  11
ATOM     11  C   UNL     1      14.131  25.615  14.877  1.00  0.00     0.163 C 
ATOM     12  O   UNL     1      14.303  24.544  14.232  1.00  0.00    -0.294 OA
BRANCH  11  13
ATOM     13  C   UNL     1      14.889  26.848  14.483  1.00  0.00    -0.002 C 
ATOM     14  C   UNL     1      16.097  27.141  15.059  1.00  0.00    -0.069 C 
ATOM     15  C   UNL     1      16.788  26.175  15.995  1.00  0.00     0.039 C 
ATOM     16  C   UNL     1      16.834  28.426  14.750  1.00  0.00     0.039 C 
BRANCH  13  17
ATOM     17  C   UNL     1      14.262  27.803  13.468  1.00  0.00     0.066 CG0
ATOM     18  G   UNL     1      13.220  28.698  14.095  1.00  0.00     0.000 G0
ENDBRANCH  13  17
ENDBRANCH  11  13
ENDBRANCH  10  11
ENDBRANCH   1  10
TORSDOF 0
ENDMDL
MODEL 7
REMARK VINA RESULT:    -3.128      2.057      3.214
REMARK INTER + INTRA:          -4.043
REMARK INTER:                  -4.350
REMARK INTRA:                   0.307
REMARK UNBOUND:                 0.365
REMARK SMILES CC1=CCC(=C(C)C)C(=O)CC(C)=CCC1
REMARK SMILES IDX 12 1 14 2 13 3 15 4 16 5 2 6 1 7 3 8 11 10 9 11 10 12 5 13
REMARK SMILES IDX 6 14 7 15 8 16 4 17
REMARK H PARENT
REMARK Flexibility Score: 60.00
ROOT
ATOM      1  C   UNL     1       7.746  30.379  15.974  1.00  0.00    -0.070 C 
ATOM      2  C   UNL     1       6.965  30.458  17.083  1.00  0.00    -0.027 C 
ATOM      3  C   UNL     1       9.241  30.372  16.182  1.00  0.00     0.039 C 
ENDROOT
BRANCH   2   4
ATOM      4  C   UNL     1       5.460  30.581  17.107  1.00  0.00     0.032 C 
BRANCH   4   5
ATOM      5  C   UNL     1       4.764  29.377  17.757  1.00  0.00     0.034 C 
BRANCH   5   6
ATOM      6  C   UNL     1       4.097  28.524  16.696  1.00  0.00    -0.077 C 
ATOM      7  C   UNL     1       2.649  28.788  16.371  1.00  0.00     0.039 C 
ATOM      8  C   UNL     1       4.754  27.587  15.970  1.00  0.00    -0.023 CG0
ATOM      9  G   UNL     1       6.194  27.175  16.160  1.00  0.00     0.000 G0
ENDBRANCH   5   6
ENDBRANCH   4   5
ENDBRANCH   2   4
BRANCH   1  10
ATOM     10  C   UNL     1       7.213  30.220  14.553  1.00  0.00     0.111 C 
BRANCH  10  11
ATOM     11  C   UNL     1       6.727  28.829  14.234  1.00  0.00     0.163 C 
ATOM     12  O   UNL     1       6.001  28.683  13.212  1.00  0.00    -0.294 OA
BRANCH  11  13
ATOM     13  C   UNL     1       7.122  27.626  15.040  1.00  0.00    -0.002 C 
ATOM     14  C   UNL     1       8.264  26.929  14.745  1.00  0.00    -0.069 C 
ATOM     15  C   UNL     1       9.247  27.416  13.703  1.00  0.00     0.039 C 
ATOM     16  C   UNL     1       8.632  25.658  15.479  1.00  0.00     0.039 C 
BRANCH  13  17
ATOM     17  C   UNL     1       6.196  27.158  16.162  1.00  0.00     0.066 CG0
ATOM     18  G   UNL     1       4.768  27.595  15.943  1.00  0.00     0.000 G0
ENDBRANCH  13  17
ENDBRANCH  11  13
ENDBRANCH  10  11
ENDBRANCH   1  10
TORSDOF 0
ENDMDL
MODEL 8
REMARK VINA RESULT:    -3.099      4.362      7.255
REMARK INTER + INTRA:          -4.002
REMARK INTER:                  -4.266
REMARK INTRA:                   0.264
REMARK UNBOUND:                 0.365
REMARK SMILES CC1=CCC(=C(C)C)C(=O)CC(C)=CCC1
REMARK SMILES IDX 12 1 14 2 13 3 15 4 16 5 2 6 1 7 3 8 11 10 9 11 10 12 5 13
REMARK SMILES IDX 6 14 7 15 8 16 4 17
REMARK H PARENT
REMARK Flexibility Score: 60.00
ROOT
ATOM      1  C   UNL     1      13.381  24.751  15.877  1.00  0.00    -0.070 C 
ATOM      2  C   UNL     1      14.724  24.585  15.753  1.00  0.00    -0.027 C 
ATOM      3  C   UNL     1      12.553  23.513  16.120  1.00  0.00     0.039 C 
ENDROOT
BRANCH   2   4
ATOM      4  C   UNL     1      15.726  25.660  15.409  1.00  0.00     0.032 C 
BRANCH   4   5
ATOM      5  C   UNL     1      15.487  26.295  14.032  1.00  0.00     0.034 C 
BRANCH   5   6
ATOM      6  C   UNL     1      15.467  27.806  14.149  1.00  0.00    -0.077 C 
ATOM      7  C   UNL     1      16.641  28.488  14.805  1.00  0.00     0.039 C 
ATOM      8  C   UNL     1      14.487  28.582  13.627  1.00  0.00    -0.023 CG0
ATOM      9  G   UNL     1      13.233  28.082  12.950  1.00  0.00     0.000 G0
ENDBRANCH   5   6
ENDBRANCH   4   5
ENDBRANCH   2   4
BRANCH   1  10
ATOM     10  C   UNL     1      12.674  26.103  15.867  1.00  0.00     0.111 C 
BRANCH  10  11
ATOM     11  C   UNL     1      12.006  26.434  14.557  1.00  0.00     0.163 C 
ATOM     12  O   UNL     1      11.310  25.534  14.011  1.00  0.00    -0.294 OA
BRANCH  11  13
ATOM     13  C   UNL     1      12.088  27.793  13.925  1.00  0.00    -0.002 C 
ATOM     14  C   UNL     1      11.137  28.744  14.185  1.00  0.00    -0.069 C 
ATOM     15  C   UNL     1      10.057  28.528  15.222  1.00  0.00     0.039 C 
ATOM     16  C   UNL     1      11.143  30.086  13.486  1.00  0.00     0.039 C 
BRANCH  13  17
ATOM     17  C   UNL     1      13.220  28.077  12.940  1.00  0.00     0.066 CG0
ATOM     18  G   UNL     1      14.467  28.573  13.631  1.00  0.00     0.000 G0
ENDBRANCH  13  17
ENDBRANCH  11  13
ENDBRANCH  10  11
ENDBRANCH   1  10
TORSDOF 0
ENDMDL
MODEL 9
REMARK VINA RESULT:    -3.005      2.564      4.691
REMARK INTER + INTRA:          -3.869
REMARK INTER:                  -4.329
REMARK INTRA:                   0.460
REMARK UNBOUND:                 0.365
REMARK SMILES CC1=CCC(=C(C)C)C(=O)CC(C)=CCC1
REMARK SMILES IDX 12 1 14 2 13 3 15 4 16 5 2 6 1 7 3 8 11 10 9 11 10 12 5 13
REMARK SMILES IDX 6 14 7 15 8 16 4 17
REMARK H PARENT
REMARK Flexibility Score: 60.00
ROOT
ATOM      1  C   UNL     1       6.737  26.411  16.325  1.00  0.00    -0.070 C 
ATOM      2  C   UNL     1       5.522  25.938  15.943  1.00  0.00    -0.027 C 
ATOM      3  C   UNL     1       7.942  25.916  15.562  1.00  0.00     0.039 C 
ENDROOT
BRANCH   2   4
ATOM      4  C   UNL     1       4.204  26.216  16.624  1.00  0.00     0.032 C 
BRANCH   4   5
ATOM      5  C   UNL     1       3.175  26.885  15.703  1.00  0.00     0.034 C 
BRANCH   5   6
ATOM      6  C   UNL     1       3.003  28.343  16.083  1.00  0.00    -0.077 C 
ATOM      7  C   UNL     1       1.844  28.719  16.971  1.00  0.00     0.039 C 
ATOM      8  C   UNL     1       3.879  29.314  15.730  1.00  0.00    -0.023 CG0
ATOM      9  G   UNL     1       5.084  29.133  14.838  1.00  0.00     0.000 G0
ENDBRANCH   5   6
ENDBRANCH   4   5
ENDBRANCH   2   4
BRANCH   1  10
ATOM     10  C   UNL     1       6.952  27.460  17.412  1.00  0.00     0.111 C 
BRANCH  10  11
ATOM     11  C   UNL     1       6.465  28.837  17.039  1.00  0.00     0.163 C 
ATOM     12  O   UNL     1       6.153  29.622  17.978  1.00  0.00    -0.294 OA
BRANCH  11  13
ATOM     13  C   UNL     1       6.400  29.318  15.619  1.00  0.00    -0.002 C 
ATOM     14  C   UNL     1       7.472  29.944  15.042  1.00  0.00    -0.069 C 
ATOM     15  C   UNL     1       8.807  30.048  15.746  1.00  0.00     0.039 C 
ATOM     16  C   UNL     1       7.398  30.524  13.646  1.00  0.00     0.039 C 
BRANCH  13  17
ATOM     17  C   UNL     1       5.093  29.147  14.845  1.00  0.00     0.066 CG0
ATOM     18  G   UNL     1       3.881  29.313  15.729  1.00  0.00     0.000 G0
ENDBRANCH  13  17
ENDBRANCH  11  13
ENDBRANCH  10  11
ENDBRANCH   1  10
TORSDOF 0
ENDMDL
