MODEL 1
REMARK VINA RESULT:    -5.806      0.000      0.000
REMARK INTER + INTRA:          -5.806
REMARK INTER:                  -5.806
REMARK INTRA:                   0.000
REMARK UNBOUND:                 0.000
REMARK SMILES CC(C)=C1CC[C@H](C)CC1=O
REMARK SMILES IDX 8 1 7 2 6 3 5 4 4 5 2 6 1 7 3 8 10 9 11 10 9 11
REMARK H PARENT
REMARK Flexibility Score: inf
ROOT
ATOM      1  C   UNL     1      -3.669 -17.423  -6.096  1.00  0.00     0.008 C 
ATOM      2  C   UNL     1      -3.691 -15.898  -6.239  1.00  0.00    -0.006 C 
ATOM      3  C   UNL     1      -3.085 -15.472  -7.587  1.00  0.00     0.008 C 
ATOM      4  C   UNL     1      -3.005 -13.943  -7.703  1.00  0.00     0.039 C 
ATOM      5  C   UNL     1      -4.339 -13.265  -7.420  1.00  0.00    -0.006 C 
ATOM      6  C   UNL     1      -4.688 -12.101  -8.042  1.00  0.00    -0.070 C 
ATOM      7  C   UNL     1      -3.758 -11.427  -9.025  1.00  0.00     0.039 C 
ATOM      8  C   UNL     1      -6.032 -11.448  -7.812  1.00  0.00     0.039 C 
ATOM      9  C   UNL     1      -5.174 -13.883  -6.348  1.00  0.00     0.159 C 
ATOM     10  O   UNL     1      -5.925 -13.183  -5.617  1.00  0.00    -0.295 OA
ATOM     11  C   UNL     1      -5.126 -15.366  -6.117  1.00  0.00     0.084 C 
ENDROOT
TORSDOF 0
ENDMDL
MODEL 2
REMARK VINA RESULT:    -5.266      1.615      2.462
REMARK INTER + INTRA:          -5.266
REMARK INTER:                  -5.266
REMARK INTRA:                   0.000
REMARK UNBOUND:                 0.000
REMARK SMILES CC(C)=C1CC[C@H](C)CC1=O
REMARK SMILES IDX 8 1 7 2 6 3 5 4 4 5 2 6 1 7 3 8 10 9 11 10 9 11
REMARK H PARENT
REMARK Flexibility Score: inf
ROOT
ATOM      1  C   UNL     1      -3.750 -17.385  -5.746  1.00  0.00     0.008 C 
ATOM      2  C   UNL     1      -4.063 -16.274  -6.754  1.00  0.00    -0.006 C 
ATOM      3  C   UNL     1      -5.107 -15.302  -6.181  1.00  0.00     0.008 C 
ATOM      4  C   UNL     1      -5.508 -14.241  -7.216  1.00  0.00     0.039 C 
ATOM      5  C   UNL     1      -4.306 -13.523  -7.812  1.00  0.00    -0.006 C 
ATOM      6  C   UNL     1      -4.383 -12.219  -8.208  1.00  0.00    -0.070 C 
ATOM      7  C   UNL     1      -5.671 -11.437  -8.086  1.00  0.00     0.039 C 
ATOM      8  C   UNL     1      -3.182 -11.478  -8.749  1.00  0.00     0.039 C 
ATOM      9  C   UNL     1      -3.090 -14.359  -8.042  1.00  0.00     0.159 C 
ATOM     10  O   UNL     1      -2.306 -14.126  -9.001  1.00  0.00    -0.295 OA
ATOM     11  C   UNL     1      -2.785 -15.510  -7.127  1.00  0.00     0.084 C 
ENDROOT
TORSDOF 0
ENDMDL
MODEL 3
REMARK VINA RESULT:    -5.106      1.094      4.063
REMARK INTER + INTRA:          -5.106
REMARK INTER:                  -5.106
REMARK INTRA:                   0.000
REMARK UNBOUND:                 0.000
REMARK SMILES CC(C)=C1CC[C@H](C)CC1=O
REMARK SMILES IDX 8 1 7 2 6 3 5 4 4 5 2 6 1 7 3 8 10 9 11 10 9 11
REMARK H PARENT
REMARK Flexibility Score: inf
ROOT
ATOM      1  C   UNL     1      -3.040 -11.601  -9.125  1.00  0.00     0.008 C 
ATOM      2  C   UNL     1      -3.688 -12.869  -8.558  1.00  0.00    -0.006 C 
ATOM      3  C   UNL     1      -2.731 -14.067  -8.679  1.00  0.00     0.008 C 
ATOM      4  C   UNL     1      -3.402 -15.366  -8.210  1.00  0.00     0.039 C 
ATOM      5  C   UNL     1      -4.009 -15.240  -6.820  1.00  0.00    -0.006 C 
ATOM      6  C   UNL     1      -4.067 -16.309  -5.972  1.00  0.00    -0.070 C 
ATOM      7  C   UNL     1      -3.544 -17.666  -6.384  1.00  0.00     0.039 C 
ATOM      8  C   UNL     1      -4.616 -16.183  -4.569  1.00  0.00     0.039 C 
ATOM      9  C   UNL     1      -4.636 -13.924  -6.494  1.00  0.00     0.159 C 
ATOM     10  O   UNL     1      -5.632 -13.845  -5.727  1.00  0.00    -0.295 OA
ATOM     11  C   UNL     1      -4.084 -12.661  -7.090  1.00  0.00     0.084 C 
ENDROOT
TORSDOF 0
ENDMDL
MODEL 4
REMARK VINA RESULT:    -4.708      1.659      1.890
REMARK INTER + INTRA:          -4.708
REMARK INTER:                  -4.708
REMARK INTRA:                   0.000
REMARK UNBOUND:                 0.000
REMARK SMILES CC(C)=C1CC[C@H](C)CC1=O
REMARK SMILES IDX 8 1 7 2 6 3 5 4 4 5 2 6 1 7 3 8 10 9 11 10 9 11
REMARK H PARENT
REMARK Flexibility Score: inf
ROOT
ATOM      1  C   UNL     1      -3.586 -18.149  -5.857  1.00  0.00     0.008 C 
ATOM      2  C   UNL     1      -3.982 -16.684  -6.074  1.00  0.00    -0.006 C 
ATOM      3  C   UNL     1      -2.818 -15.749  -5.706  1.00  0.00     0.008 C 
ATOM      4  C   UNL     1      -3.231 -14.274  -5.821  1.00  0.00     0.039 C 
ATOM      5  C   UNL     1      -3.843 -13.943  -7.174  1.00  0.00    -0.006 C 
ATOM      6  C   UNL     1      -3.694 -12.707  -7.736  1.00  0.00    -0.070 C 
ATOM      7  C   UNL     1      -2.929 -11.612  -7.030  1.00  0.00     0.039 C 
ATOM      8  C   UNL     1      -4.249 -12.383  -9.104  1.00  0.00     0.039 C 
ATOM      9  C   UNL     1      -4.703 -15.001  -7.783  1.00  0.00     0.159 C 
ATOM     10  O   UNL     1      -5.692 -14.706  -8.506  1.00  0.00    -0.295 OA
ATOM     11  C   UNL     1      -4.402 -16.451  -7.532  1.00  0.00     0.084 C 
ENDROOT
TORSDOF 0
ENDMDL
MODEL 5
REMARK VINA RESULT:    -4.676      1.848      4.393
REMARK INTER + INTRA:          -4.676
REMARK INTER:                  -4.676
REMARK INTRA:                   0.000
REMARK UNBOUND:                 0.000
REMARK SMILES CC(C)=C1CC[C@H](C)CC1=O
REMARK SMILES IDX 8 1 7 2 6 3 5 4 4 5 2 6 1 7 3 8 10 9 11 10 9 11
REMARK H PARENT
REMARK Flexibility Score: inf
ROOT
ATOM      1  C   UNL     1      -4.791 -11.360  -9.040  1.00  0.00     0.008 C 
ATOM      2  C   UNL     1      -4.050 -12.646  -8.659  1.00  0.00    -0.006 C 
ATOM      3  C   UNL     1      -3.289 -12.460  -7.335  1.00  0.00     0.008 C 
ATOM      4  C   UNL     1      -2.459 -13.704  -6.990  1.00  0.00     0.039 C 
ATOM      5  C   UNL     1      -3.285 -14.982  -7.015  1.00  0.00    -0.006 C 
ATOM      6  C   UNL     1      -3.000 -16.028  -6.184  1.00  0.00    -0.070 C 
ATOM      7  C   UNL     1      -1.842 -15.965  -5.215  1.00  0.00     0.039 C 
ATOM      8  C   UNL     1      -3.847 -17.280  -6.160  1.00  0.00     0.039 C 
ATOM      9  C   UNL     1      -4.336 -15.064  -8.073  1.00  0.00     0.159 C 
ATOM     10  O   UNL     1      -4.653 -16.164  -8.599  1.00  0.00    -0.295 OA
ATOM     11  C   UNL     1      -5.034 -13.818  -8.537  1.00  0.00     0.084 C 
ENDROOT
TORSDOF 0
ENDMDL
MODEL 6
REMARK VINA RESULT:    -4.603      1.751      2.187
REMARK INTER + INTRA:          -4.603
REMARK INTER:                  -4.603
REMARK INTRA:                   0.000
REMARK UNBOUND:                 0.000
REMARK SMILES CC(C)=C1CC[C@H](C)CC1=O
REMARK SMILES IDX 8 1 7 2 6 3 5 4 4 5 2 6 1 7 3 8 10 9 11 10 9 11
REMARK H PARENT
REMARK Flexibility Score: inf
ROOT
ATOM      1  C   UNL     1      -1.948 -16.204  -5.350  1.00  0.00     0.008 C 
ATOM      2  C   UNL     1      -2.597 -15.373  -6.462  1.00  0.00    -0.006 C 
ATOM      3  C   UNL     1      -3.987 -15.931  -6.812  1.00  0.00     0.008 C 
ATOM      4  C   UNL     1      -4.609 -15.173  -7.994  1.00  0.00     0.039 C 
ATOM      5  C   UNL     1      -4.621 -13.666  -7.780  1.00  0.00    -0.006 C 
ATOM      6  C   UNL     1      -5.611 -12.883  -8.300  1.00  0.00    -0.070 C 
ATOM      7  C   UNL     1      -6.729 -13.479  -9.125  1.00  0.00     0.039 C 
ATOM      8  C   UNL     1      -5.664 -11.394  -8.048  1.00  0.00     0.039 C 
ATOM      9  C   UNL     1      -3.434 -13.094  -7.076  1.00  0.00     0.159 C 
ATOM     10  O   UNL     1      -3.010 -11.937  -7.341  1.00  0.00    -0.295 OA
ATOM     11  C   UNL     1      -2.715 -13.903  -6.035  1.00  0.00     0.084 C 
ENDROOT
TORSDOF 0
ENDMDL
MODEL 7
REMARK VINA RESULT:    -3.914      1.835      2.374
REMARK INTER + INTRA:          -3.914
REMARK INTER:                  -3.914
REMARK INTRA:                   0.000
REMARK UNBOUND:                 0.000
REMARK SMILES CC(C)=C1CC[C@H](C)CC1=O
REMARK SMILES IDX 8 1 7 2 6 3 5 4 4 5 2 6 1 7 3 8 10 9 11 10 9 11
REMARK H PARENT
REMARK Flexibility Score: inf
ROOT
ATOM      1  C   UNL     1      -1.881 -16.482  -5.783  1.00  0.00     0.008 C 
ATOM      2  C   UNL     1      -3.224 -15.830  -6.128  1.00  0.00    -0.006 C 
ATOM      3  C   UNL     1      -3.376 -14.486  -5.397  1.00  0.00     0.008 C 
ATOM      4  C   UNL     1      -4.759 -13.867  -5.650  1.00  0.00     0.039 C 
ATOM      5  C   UNL     1      -5.091 -13.768  -7.132  1.00  0.00    -0.006 C 
ATOM      6  C   UNL     1      -5.870 -12.757  -7.618  1.00  0.00    -0.070 C 
ATOM      7  C   UNL     1      -6.447 -11.703  -6.701  1.00  0.00     0.039 C 
ATOM      8  C   UNL     1      -6.161 -12.616  -9.094  1.00  0.00     0.039 C 
ATOM      9  C   UNL     1      -4.618 -14.896  -7.988  1.00  0.00     0.159 C 
ATOM     10  O   UNL     1      -5.268 -15.268  -9.001  1.00  0.00    -0.295 OA
ATOM     11  C   UNL     1      -3.347 -15.619  -7.643  1.00  0.00     0.084 C 
ENDROOT
TORSDOF 0
ENDMDL
MODEL 8
REMARK VINA RESULT:    -2.901      1.512      3.776
REMARK INTER + INTRA:          -2.901
REMARK INTER:                  -2.901
REMARK INTRA:                   0.000
REMARK UNBOUND:                 0.000
REMARK SMILES CC(C)=C1CC[C@H](C)CC1=O
REMARK SMILES IDX 8 1 7 2 6 3 5 4 4 5 2 6 1 7 3 8 10 9 11 10 9 11
REMARK H PARENT
REMARK Flexibility Score: inf
ROOT
ATOM      1  C   UNL     1      -7.096 -11.391  -5.640  1.00  0.00     0.008 C 
ATOM      2  C   UNL     1      -6.331 -12.493  -6.382  1.00  0.00    -0.006 C 
ATOM      3  C   UNL     1      -5.370 -11.882  -7.416  1.00  0.00     0.008 C 
ATOM      4  C   UNL     1      -4.671 -12.973  -8.239  1.00  0.00     0.039 C 
ATOM      5  C   UNL     1      -4.000 -14.024  -7.366  1.00  0.00    -0.006 C 
ATOM      6  C   UNL     1      -2.863 -14.662  -7.771  1.00  0.00    -0.070 C 
ATOM      7  C   UNL     1      -2.231 -14.363  -9.111  1.00  0.00     0.039 C 
ATOM      8  C   UNL     1      -2.156 -15.666  -6.889  1.00  0.00     0.039 C 
ATOM      9  C   UNL     1      -4.721 -14.392  -6.110  1.00  0.00     0.159 C 
ATOM     10  O   UNL     1      -4.658 -15.558  -5.636  1.00  0.00    -0.295 OA
ATOM     11  C   UNL     1      -5.549 -13.367  -5.391  1.00  0.00     0.084 C 
ENDROOT
TORSDOF 0
ENDMDL
