MODEL 1
REMARK VINA RESULT:     5.655      0.000      0.000
REMARK INTER + INTRA:           8.289
REMARK INTER:                   8.630
REMARK INTRA:                  -0.341
REMARK UNBOUND:                -0.341
REMARK SMILES O=C([O-])CCCCCCCCC(=O)[O-]
REMARK SMILES IDX 7 1 6 2 5 3 4 4 2 5 1 6 3 7 8 8 9 9 10 10 11 11 12 12 13 13
REMARK SMILES IDX 14 14
REMARK H PARENT
REMARK Flexibility Score: inf
ROOT
ATOM      1  C   UNL     1      26.982 -18.649  14.074  1.00  0.00     0.000 C 
ENDROOT
BRANCH   1   2
ATOM      2  C   UNL     1      26.423 -19.976  13.535  1.00  0.00     0.000 C 
BRANCH   2   3
ATOM      3  C   UNL     1      25.163 -20.438  14.288  1.00  0.00     0.006 C 
BRANCH   3   4
ATOM      4  C   UNL     1      25.499 -21.363  15.466  1.00  0.00     0.053 C 
BRANCH   4   5
ATOM      5  C   UNL     1      25.488 -22.805  15.064  1.00  0.00     0.041 C 
ATOM      6  O   UNL     1      26.560 -23.380  14.737  1.00  0.00    -0.550 OA
ATOM      7  O   UNL     1      24.300 -23.524  15.079  1.00  0.00    -0.550 OA
ENDBRANCH   4   5
ENDBRANCH   3   4
ENDBRANCH   2   3
ENDBRANCH   1   2
BRANCH   1   8
ATOM      8  C   UNL     1      27.913 -17.948  13.069  1.00  0.00     0.000 C 
BRANCH   8   9
ATOM      9  C   UNL     1      28.690 -16.782  13.700  1.00  0.00     0.000 C 
BRANCH   9  10
ATOM     10  C   UNL     1      27.927 -16.120  14.862  1.00  0.00     0.006 C 
BRANCH  10  11
ATOM     11  C   UNL     1      28.786 -15.086  15.602  1.00  0.00     0.053 C 
BRANCH  11  12
ATOM     12  C   UNL     1      29.027 -15.484  17.026  1.00  0.00     0.041 C 
ATOM     13  O   UNL     1      28.690 -16.628  17.431  1.00  0.00    -0.550 OA
ATOM     14  O   UNL     1      29.594 -14.579  17.914  1.00  0.00    -0.550 OA
ENDBRANCH  11  12
ENDBRANCH  10  11
ENDBRANCH   9  10
ENDBRANCH   8   9
ENDBRANCH   1   8
TORSDOF 9
ENDMDL
MODEL 2
REMARK VINA RESULT:     5.679      0.133      6.990
REMARK INTER + INTRA:           8.326
REMARK INTER:                   8.657
REMARK INTRA:                  -0.331
REMARK UNBOUND:                -0.341
REMARK SMILES O=C([O-])CCCCCCCCC(=O)[O-]
REMARK SMILES IDX 7 1 6 2 5 3 4 4 2 5 1 6 3 7 8 8 9 9 10 10 11 11 12 12 13 13
REMARK SMILES IDX 14 14
REMARK H PARENT
REMARK Flexibility Score: inf
ROOT
ATOM      1  C   UNL     1      27.844 -17.984  13.029  1.00  0.00     0.000 C 
ENDROOT
BRANCH   1   2
ATOM      2  C   UNL     1      28.652 -16.829  13.642  1.00  0.00     0.000 C 
BRANCH   2   3
ATOM      3  C   UNL     1      27.917 -16.144  14.808  1.00  0.00     0.006 C 
BRANCH   3   4
ATOM      4  C   UNL     1      28.799 -15.108  15.520  1.00  0.00     0.053 C 
BRANCH   4   5
ATOM      5  C   UNL     1      28.996 -15.442  16.966  1.00  0.00     0.041 C 
ATOM      6  O   UNL     1      28.727 -16.596  17.392  1.00  0.00    -0.550 OA
ATOM      7  O   UNL     1      29.505 -14.489  17.838  1.00  0.00    -0.550 OA
ENDBRANCH   4   5
ENDBRANCH   3   4
ENDBRANCH   2   3
ENDBRANCH   1   2
BRANCH   1   8
ATOM      8  C   UNL     1      26.928 -18.674  14.055  1.00  0.00     0.000 C 
BRANCH   8   9
ATOM      9  C   UNL     1      26.399 -20.027  13.555  1.00  0.00     0.000 C 
BRANCH   9  10
ATOM     10  C   UNL     1      25.227 -20.557  14.401  1.00  0.00     0.006 C 
BRANCH  10  11
ATOM     11  C   UNL     1      25.694 -21.528  15.492  1.00  0.00     0.053 C 
BRANCH  11  12
ATOM     12  C   UNL     1      25.536 -22.956  15.068  1.00  0.00     0.041 C 
ATOM     13  O   UNL     1      26.535 -23.618  14.683  1.00  0.00    -0.550 OA
ATOM     14  O   UNL     1      24.278 -23.545  15.065  1.00  0.00    -0.550 OA
ENDBRANCH  11  12
ENDBRANCH  10  11
ENDBRANCH   9  10
ENDBRANCH   8   9
ENDBRANCH   1   8
TORSDOF 9
ENDMDL
MODEL 3
REMARK VINA RESULT:     6.039     10.944     13.094
REMARK INTER + INTRA:           8.876
REMARK INTER:                   9.300
REMARK INTRA:                  -0.424
REMARK UNBOUND:                -0.341
REMARK SMILES O=C([O-])CCCCCCCCC(=O)[O-]
REMARK SMILES IDX 7 1 6 2 5 3 4 4 2 5 1 6 3 7 8 8 9 9 10 10 11 11 12 12 13 13
REMARK SMILES IDX 14 14
REMARK H PARENT
REMARK Flexibility Score: inf
ROOT
ATOM      1  C   UNL     1      20.259 -19.315  26.382  1.00  0.00     0.000 C 
ENDROOT
BRANCH   1   2
ATOM      2  C   UNL     1      21.129 -20.580  26.448  1.00  0.00     0.000 C 
BRANCH   2   3
ATOM      3  C   UNL     1      21.633 -21.027  25.064  1.00  0.00     0.006 C 
BRANCH   3   4
ATOM      4  C   UNL     1      23.125 -21.385  25.078  1.00  0.00     0.053 C 
BRANCH   4   5
ATOM      5  C   UNL     1      23.792 -21.052  23.779  1.00  0.00     0.041 C 
ATOM      6  O   UNL     1      23.741 -19.880  23.323  1.00  0.00    -0.550 OA
ATOM      7  O   UNL     1      24.495 -22.030  23.087  1.00  0.00    -0.550 OA
ENDBRANCH   4   5
ENDBRANCH   3   4
ENDBRANCH   2   3
ENDBRANCH   1   2
BRANCH   1   8
ATOM      8  C   UNL     1      18.821 -19.560  26.874  1.00  0.00     0.000 C 
BRANCH   8   9
ATOM      9  C   UNL     1      17.772 -18.850  26.003  1.00  0.00     0.000 C 
BRANCH   9  10
ATOM     10  C   UNL     1      18.117 -18.891  24.504  1.00  0.00     0.006 C 
BRANCH  10  11
ATOM     11  C   UNL     1      16.919 -19.317  23.646  1.00  0.00     0.053 C 
BRANCH  11  12
ATOM     12  C   UNL     1      17.316 -20.304  22.591  1.00  0.00     0.041 C 
ATOM     13  O   UNL     1      18.203 -20.010  21.748  1.00  0.00    -0.550 OA
ATOM     14  O   UNL     1      16.680 -21.537  22.518  1.00  0.00    -0.550 OA
ENDBRANCH  11  12
ENDBRANCH  10  11
ENDBRANCH   9  10
ENDBRANCH   8   9
ENDBRANCH   1   8
TORSDOF 9
ENDMDL
MODEL 4
REMARK VINA RESULT:     6.076     10.921     12.578
REMARK INTER + INTRA:           8.932
REMARK INTER:                   9.368
REMARK INTRA:                  -0.435
REMARK UNBOUND:                -0.341
REMARK SMILES O=C([O-])CCCCCCCCC(=O)[O-]
REMARK SMILES IDX 7 1 6 2 5 3 4 4 2 5 1 6 3 7 8 8 9 9 10 10 11 11 12 12 13 13
REMARK SMILES IDX 14 14
REMARK H PARENT
REMARK Flexibility Score: inf
ROOT
ATOM      1  C   UNL     1      18.854 -19.538  26.853  1.00  0.00     0.000 C 
ENDROOT
BRANCH   1   2
ATOM      2  C   UNL     1      17.811 -18.872  25.942  1.00  0.00     0.000 C 
BRANCH   2   3
ATOM      3  C   UNL     1      18.143 -19.028  24.447  1.00  0.00     0.006 C 
BRANCH   3   4
ATOM      4  C   UNL     1      16.917 -19.440  23.621  1.00  0.00     0.053 C 
BRANCH   4   5
ATOM      5  C   UNL     1      17.278 -20.392  22.523  1.00  0.00     0.041 C 
ATOM      6  O   UNL     1      18.185 -20.097  21.701  1.00  0.00    -0.550 OA
ATOM      7  O   UNL     1      16.635 -21.620  22.426  1.00  0.00    -0.550 OA
ENDBRANCH   4   5
ENDBRANCH   3   4
ENDBRANCH   2   3
ENDBRANCH   1   2
BRANCH   1   8
ATOM      8  C   UNL     1      20.298 -19.265  26.399  1.00  0.00     0.000 C 
BRANCH   8   9
ATOM      9  C   UNL     1      21.183 -20.520  26.461  1.00  0.00     0.000 C 
BRANCH   9  10
ATOM     10  C   UNL     1      21.635 -20.999  25.070  1.00  0.00     0.006 C 
BRANCH  10  11
ATOM     11  C   UNL     1      23.100 -21.453  25.062  1.00  0.00     0.053 C 
BRANCH  11  12
ATOM     12  C   UNL     1      23.802 -21.039  23.805  1.00  0.00     0.041 C 
ATOM     13  O   UNL     1      23.724 -19.851  23.397  1.00  0.00    -0.550 OA
ATOM     14  O   UNL     1      24.514 -21.976  23.066  1.00  0.00    -0.550 OA
ENDBRANCH  11  12
ENDBRANCH  10  11
ENDBRANCH   9  10
ENDBRANCH   8   9
ENDBRANCH   1   8
TORSDOF 9
ENDMDL
