MODEL 1
REMARK VINA RESULT:     0.068      0.000      0.000
REMARK INTER + INTRA:          -0.052
REMARK INTER:                   0.072
REMARK INTRA:                  -0.124
REMARK UNBOUND:                -0.124
REMARK SMILES C=C(C)[C@@H]1CC[C@@H](C)[C@]12CC=C(C)CC2
REMARK SMILES IDX 8 1 7 2 6 3 5 4 4 5 9 6 15 7 14 8 12 9 11 10 10 11 13 12
REMARK SMILES IDX 2 13 1 14 3 15
REMARK H PARENT
REMARK Flexibility Score: inf
ROOT
ATOM      1  C   UNL     1       3.624   5.322  11.924  1.00  0.00     0.008 C 
ATOM      2  C   UNL     1       4.994   5.915  12.290  1.00  0.00    -0.007 C 
ATOM      3  C   UNL     1       5.931   4.877  12.887  1.00  0.00     0.004 C 
ATOM      4  C   UNL     1       7.042   5.709  13.487  1.00  0.00     0.009 C 
ATOM      5  C   UNL     1       6.318   6.896  14.128  1.00  0.00     0.021 C 
ATOM      6  C   UNL     1       5.025   7.154  13.259  1.00  0.00    -0.017 C 
ATOM      7  C   UNL     1       3.771   7.232  14.224  1.00  0.00     0.012 C 
ATOM      8  C   UNL     1       2.743   8.296  13.811  1.00  0.00     0.031 C 
ATOM      9  C   UNL     1       3.444   9.628  13.707  1.00  0.00    -0.077 C 
ATOM     10  C   UNL     1       4.612   9.682  13.049  1.00  0.00    -0.027 C 
ATOM     11  C   UNL     1       5.133   8.446  12.365  1.00  0.00     0.035 C 
ATOM     12  C   UNL     1       2.915  10.848  14.408  1.00  0.00     0.039 C 
ENDROOT
BRANCH   5  13
ATOM     13  C   UNL     1       7.204   8.114  14.410  1.00  0.00    -0.077 C 
ATOM     14  C   UNL     1       6.784   9.044  15.284  1.00  0.00     0.008 C 
ATOM     15  C   UNL     1       8.579   8.254  13.798  1.00  0.00     0.039 C 
ENDBRANCH   5  13
TORSDOF 1
ENDMDL
MODEL 2
REMARK VINA RESULT:     1.174      1.193      3.693
REMARK INTER + INTRA:           1.119
REMARK INTER:                   1.269
REMARK INTRA:                  -0.151
REMARK UNBOUND:                -0.124
REMARK SMILES C=C(C)[C@@H]1CC[C@@H](C)[C@]12CC=C(C)CC2
REMARK SMILES IDX 8 1 7 2 6 3 5 4 4 5 9 6 15 7 14 8 12 9 11 10 10 11 13 12
REMARK SMILES IDX 2 13 1 14 3 15
REMARK H PARENT
REMARK Flexibility Score: inf
ROOT
ATOM      1  C   UNL     1       8.586   6.269  12.604  1.00  0.00     0.008 C 
ATOM      2  C   UNL     1       7.734   7.465  13.059  1.00  0.00    -0.007 C 
ATOM      3  C   UNL     1       8.323   8.164  14.274  1.00  0.00     0.004 C 
ATOM      4  C   UNL     1       7.192   9.042  14.759  1.00  0.00     0.009 C 
ATOM      5  C   UNL     1       5.945   8.167  14.609  1.00  0.00     0.021 C 
ATOM      6  C   UNL     1       6.216   7.207  13.385  1.00  0.00    -0.017 C 
ATOM      7  C   UNL     1       5.912   5.717  13.830  1.00  0.00     0.012 C 
ATOM      8  C   UNL     1       5.236   4.875  12.736  1.00  0.00     0.031 C 
ATOM      9  C   UNL     1       3.982   5.586  12.287  1.00  0.00    -0.077 C 
ATOM     10  C   UNL     1       4.056   6.900  12.028  1.00  0.00    -0.027 C 
ATOM     11  C   UNL     1       5.388   7.596  12.103  1.00  0.00     0.035 C 
ATOM     12  C   UNL     1       2.659   4.877  12.231  1.00  0.00     0.039 C 
ENDROOT
BRANCH   5  13
ATOM     13  C   UNL     1       4.618   8.933  14.593  1.00  0.00    -0.077 C 
ATOM     14  C   UNL     1       3.662   8.611  15.480  1.00  0.00     0.008 C 
ATOM     15  C   UNL     1       4.389  10.103  13.664  1.00  0.00     0.039 C 
ENDBRANCH   5  13
TORSDOF 1
ENDMDL
MODEL 3
REMARK VINA RESULT:     2.269      1.011      3.480
REMARK INTER + INTRA:           2.277
REMARK INTER:                   2.687
REMARK INTRA:                  -0.409
REMARK UNBOUND:                -0.124
REMARK SMILES C=C(C)[C@@H]1CC[C@@H](C)[C@]12CC=C(C)CC2
REMARK SMILES IDX 8 1 7 2 6 3 5 4 4 5 9 6 15 7 14 8 12 9 11 10 10 11 13 12
REMARK SMILES IDX 2 13 1 14 3 15
REMARK H PARENT
REMARK Flexibility Score: inf
ROOT
ATOM      1  C   UNL     1       6.990   9.243  15.279  1.00  0.00     0.008 C 
ATOM      2  C   UNL     1       6.459   7.958  14.623  1.00  0.00    -0.007 C 
ATOM      3  C   UNL     1       7.544   7.202  13.873  1.00  0.00     0.004 C 
ATOM      4  C   UNL     1       6.769   6.212  13.033  1.00  0.00     0.009 C 
ATOM      5  C   UNL     1       5.565   7.011  12.525  1.00  0.00     0.021 C 
ATOM      6  C   UNL     1       5.240   8.085  13.636  1.00  0.00    -0.017 C 
ATOM      7  C   UNL     1       5.130   9.509  12.949  1.00  0.00     0.012 C 
ATOM      8  C   UNL     1       4.018  10.390  13.538  1.00  0.00     0.031 C 
ATOM      9  C   UNL     1       2.713   9.636  13.459  1.00  0.00    -0.077 C 
ATOM     10  C   UNL     1       2.694   8.356  13.860  1.00  0.00    -0.027 C 
ATOM     11  C   UNL     1       3.937   7.748  14.454  1.00  0.00     0.035 C 
ATOM     12  C   UNL     1       1.486  10.256  12.851  1.00  0.00     0.039 C 
ENDROOT
BRANCH   5  13
ATOM     13  C   UNL     1       4.389   6.160  12.034  1.00  0.00    -0.077 C 
ATOM     14  C   UNL     1       3.739   6.520  10.915  1.00  0.00     0.008 C 
ATOM     15  C   UNL     1       3.995   4.875  12.726  1.00  0.00     0.039 C 
ENDBRANCH   5  13
TORSDOF 1
ENDMDL
