MODEL 1
REMARK VINA RESULT:    -7.928      0.000      0.000
REMARK INTER + INTRA:          -9.696
REMARK INTER:                  -9.550
REMARK INTRA:                  -0.146
REMARK UNBOUND:                -0.146
REMARK SMILES Oc1cc(O)c2c(c1)O[C@@H](c1ccc(O)c(O)c1)[C@@H](O)C2
REMARK SMILES IDX 21 1 19 2 10 3 9 4 7 5 8 6 2 7 3 8 4 9 6 10 20 11 11 13
REMARK SMILES IDX 18 14 12 15 16 16 13 17 14 18 17 19 15 21 5 23 1 25
REMARK H PARENT 20 12 17 20 15 22 5 24 1 26
REMARK Flexibility Score: inf
ROOT
ATOM      1  C   UNL     1      -1.330  -4.866  -9.474  1.00  0.00     0.079 C 
ATOM      2  C   UNL     1       0.036  -5.510  -9.164  1.00  0.00     0.164 C 
ATOM      3  C   UNL     1       1.045  -4.413  -8.782  1.00  0.00     0.232 C 
ATOM      4  O   UNL     1       0.553  -3.668  -7.667  1.00  0.00    -0.482 OA
ATOM      5  C   UNL     1      -0.797  -3.325  -7.541  1.00  0.00     0.131 A 
ATOM      6  C   UNL     1      -1.180  -2.436  -6.533  1.00  0.00     0.093 A 
ATOM      7  C   UNL     1      -2.521  -2.062  -6.394  1.00  0.00     0.122 A 
ATOM      8  C   UNL     1      -3.478  -2.574  -7.273  1.00  0.00     0.092 A 
ATOM      9  C   UNL     1      -3.113  -3.465  -8.288  1.00  0.00     0.126 A 
ATOM     10  C   UNL     1      -1.765  -3.882  -8.406  1.00  0.00     0.039 A 
ENDROOT
BRANCH   2  11
ATOM     11  O   UNL     1      -0.097  -6.426  -8.105  1.00  0.00    -0.389 OA
ATOM     12  H   UNL     1       0.554  -7.156  -8.274  1.00  0.00     0.211 HD
ENDBRANCH   2  11
BRANCH   3  13
ATOM     13  C   UNL     1       2.405  -4.995  -8.475  1.00  0.00    -0.001 A 
ATOM     14  C   UNL     1       2.838  -6.186  -9.088  1.00  0.00     0.057 A 
ATOM     15  C   UNL     1       3.280  -4.313  -7.615  1.00  0.00     0.012 A 
ATOM     16  C   UNL     1       4.116  -6.699  -8.823  1.00  0.00     0.157 A 
ATOM     17  C   UNL     1       4.554  -4.823  -7.350  1.00  0.00     0.050 A 
ATOM     18  C   UNL     1       4.974  -6.017  -7.951  1.00  0.00     0.157 A 
BRANCH  16  19
ATOM     19  O   UNL     1       4.540  -7.882  -9.424  1.00  0.00    -0.504 OA
ATOM     20  H   UNL     1       4.181  -8.178 -10.324  1.00  0.00     0.293 HD
ENDBRANCH  16  19
BRANCH  18  21
ATOM     21  O   UNL     1       6.243  -6.530  -7.688  1.00  0.00    -0.504 OA
ATOM     22  H   UNL     1       7.082  -5.995  -7.881  1.00  0.00     0.293 HD
ENDBRANCH  18  21
ENDBRANCH   3  13
BRANCH   9  23
ATOM     23  O   UNL     1      -4.108  -3.907  -9.164  1.00  0.00    -0.507 OA
ATOM     24  H   UNL     1      -3.971  -4.657  -9.828  1.00  0.00     0.293 HD
ENDBRANCH   9  23
BRANCH   7  25
ATOM     25  O   UNL     1      -2.911  -1.178  -5.391  1.00  0.00    -0.508 OA
ATOM     26  H   UNL     1      -3.139  -0.212  -5.597  1.00  0.00     0.293 HD
ENDBRANCH   7  25
TORSDOF 6
ENDMDL
MODEL 2
REMARK VINA RESULT:    -7.763      8.755     13.517
REMARK INTER + INTRA:          -9.498
REMARK INTER:                  -9.114
REMARK INTRA:                  -0.384
REMARK UNBOUND:                -0.146
REMARK SMILES Oc1cc(O)c2c(c1)O[C@@H](c1ccc(O)c(O)c1)[C@@H](O)C2
REMARK SMILES IDX 21 1 19 2 10 3 9 4 7 5 8 6 2 7 3 8 4 9 6 10 20 11 11 13
REMARK SMILES IDX 18 14 12 15 16 16 13 17 14 18 17 19 15 21 5 23 1 25
REMARK H PARENT 20 12 17 20 15 22 5 24 1 26
REMARK Flexibility Score: inf
ROOT
ATOM      1  C   UNL     1      12.985  -6.932 -14.336  1.00  0.00     0.079 C 
ATOM      2  C   UNL     1      11.610  -7.007 -13.644  1.00  0.00     0.164 C 
ATOM      3  C   UNL     1      11.736  -6.499 -12.197  1.00  0.00     0.232 C 
ATOM      4  O   UNL     1      12.250  -5.166 -12.194  1.00  0.00    -0.482 OA
ATOM      5  C   UNL     1      13.258  -4.758 -13.073  1.00  0.00     0.131 A 
ATOM      6  C   UNL     1      13.851  -3.505 -12.892  1.00  0.00     0.093 A 
ATOM      7  C   UNL     1      14.872  -3.077 -13.746  1.00  0.00     0.122 A 
ATOM      8  C   UNL     1      15.307  -3.911 -14.778  1.00  0.00     0.092 A 
ATOM      9  C   UNL     1      14.727  -5.169 -14.975  1.00  0.00     0.126 A 
ATOM     10  C   UNL     1      13.662  -5.589 -14.142  1.00  0.00     0.039 A 
ENDROOT
BRANCH   2  11
ATOM     11  O   UNL     1      10.678  -6.222 -14.346  1.00  0.00    -0.389 OA
ATOM     12  H   UNL     1      11.171  -5.430 -14.686  1.00  0.00     0.211 HD
ENDBRANCH   2  11
BRANCH   3  13
ATOM     13  C   UNL     1      10.411  -6.560 -11.472  1.00  0.00    -0.001 A 
ATOM     14  C   UNL     1       9.802  -7.794 -11.180  1.00  0.00     0.057 A 
ATOM     15  C   UNL     1       9.804  -5.376 -11.025  1.00  0.00     0.012 A 
ATOM     16  C   UNL     1       8.590  -7.841 -10.476  1.00  0.00     0.157 A 
ATOM     17  C   UNL     1       8.595  -5.421 -10.323  1.00  0.00     0.050 A 
ATOM     18  C   UNL     1       7.985  -6.652 -10.049  1.00  0.00     0.157 A 
BRANCH  16  19
ATOM     19  O   UNL     1       7.984  -9.064 -10.196  1.00  0.00    -0.504 OA
ATOM     20  H   UNL     1       7.000  -9.223 -10.378  1.00  0.00     0.293 HD
ENDBRANCH  16  19
BRANCH  18  21
ATOM     21  O   UNL     1       6.779  -6.702  -9.351  1.00  0.00    -0.504 OA
ATOM     22  H   UNL     1       6.470  -5.930  -8.773  1.00  0.00     0.293 HD
ENDBRANCH  18  21
ENDBRANCH   3  13
BRANCH   9  23
ATOM     23  O   UNL     1      15.236  -5.976 -15.995  1.00  0.00    -0.507 OA
ATOM     24  H   UNL     1      16.177  -6.347 -15.993  1.00  0.00     0.293 HD
ENDBRANCH   9  23
BRANCH   7  25
ATOM     25  O   UNL     1      15.467  -1.830 -13.573  1.00  0.00    -0.508 OA
ATOM     26  H   UNL     1      15.600  -1.430 -12.651  1.00  0.00     0.293 HD
ENDBRANCH   7  25
TORSDOF 6
ENDMDL
MODEL 3
REMARK VINA RESULT:    -7.381      4.252      9.689
REMARK INTER + INTRA:          -9.037
REMARK INTER:                  -9.185
REMARK INTRA:                   0.148
REMARK UNBOUND:                -0.146
REMARK SMILES Oc1cc(O)c2c(c1)O[C@@H](c1ccc(O)c(O)c1)[C@@H](O)C2
REMARK SMILES IDX 21 1 19 2 10 3 9 4 7 5 8 6 2 7 3 8 4 9 6 10 20 11 11 13
REMARK SMILES IDX 18 14 12 15 16 16 13 17 14 18 17 19 15 21 5 23 1 25
REMARK H PARENT 20 12 17 20 15 22 5 24 1 26
REMARK Flexibility Score: inf
ROOT
ATOM      1  C   UNL     1       8.222  -8.569 -10.423  1.00  0.00     0.079 C 
ATOM      2  C   UNL     1       6.767  -8.132 -10.163  1.00  0.00     0.164 C 
ATOM      3  C   UNL     1       6.755  -6.955  -9.172  1.00  0.00     0.232 C 
ATOM      4  O   UNL     1       7.540  -5.879  -9.686  1.00  0.00    -0.482 OA
ATOM      5  C   UNL     1       8.747  -6.097 -10.359  1.00  0.00     0.131 A 
ATOM      6  C   UNL     1       9.561  -5.002 -10.665  1.00  0.00     0.093 A 
ATOM      7  C   UNL     1      10.780  -5.191 -11.323  1.00  0.00     0.122 A 
ATOM      8  C   UNL     1      11.190  -6.482 -11.665  1.00  0.00     0.092 A 
ATOM      9  C   UNL     1      10.390  -7.590 -11.365  1.00  0.00     0.126 A 
ATOM     10  C   UNL     1       9.134  -7.400 -10.741  1.00  0.00     0.039 A 
ENDROOT
BRANCH   2  11
ATOM     11  O   UNL     1       6.163  -7.744 -11.373  1.00  0.00    -0.389 OA
ATOM     12  H   UNL     1       6.764  -7.073 -11.790  1.00  0.00     0.211 HD
ENDBRANCH   2  11
BRANCH   3  13
ATOM     13  C   UNL     1       5.346  -6.493  -8.879  1.00  0.00    -0.001 A 
ATOM     14  C   UNL     1       5.107  -5.284  -8.199  1.00  0.00     0.057 A 
ATOM     15  C   UNL     1       4.253  -7.243  -9.342  1.00  0.00     0.012 A 
ATOM     16  C   UNL     1       3.796  -4.847  -7.963  1.00  0.00     0.157 A 
ATOM     17  C   UNL     1       2.946  -6.809  -9.107  1.00  0.00     0.050 A 
ATOM     18  C   UNL     1       2.713  -5.612  -8.416  1.00  0.00     0.157 A 
BRANCH  16  19
ATOM     19  O   UNL     1       3.561  -3.654  -7.283  1.00  0.00    -0.504 OA
ATOM     20  H   UNL     1       4.300  -3.174  -6.783  1.00  0.00     0.293 HD
ENDBRANCH  16  19
BRANCH  18  21
ATOM     21  O   UNL     1       1.411  -5.176  -8.179  1.00  0.00    -0.504 OA
ATOM     22  H   UNL     1       1.212  -4.442  -7.510  1.00  0.00     0.293 HD
ENDBRANCH  18  21
ENDBRANCH   3  13
BRANCH   9  23
ATOM     23  O   UNL     1      10.875  -8.859 -11.692  1.00  0.00    -0.507 OA
ATOM     24  H   UNL     1      10.413  -9.717 -11.422  1.00  0.00     0.293 HD
ENDBRANCH   9  23
BRANCH   7  25
ATOM     25  O   UNL     1      11.596  -4.106 -11.633  1.00  0.00    -0.508 OA
ATOM     26  H   UNL     1      11.230  -3.287 -12.104  1.00  0.00     0.293 HD
ENDBRANCH   7  25
TORSDOF 6
ENDMDL
MODEL 4
REMARK VINA RESULT:    -7.323      8.717     11.996
REMARK INTER + INTRA:          -8.967
REMARK INTER:                  -8.593
REMARK INTRA:                  -0.374
REMARK UNBOUND:                -0.146
REMARK SMILES Oc1cc(O)c2c(c1)O[C@@H](c1ccc(O)c(O)c1)[C@@H](O)C2
REMARK SMILES IDX 21 1 19 2 10 3 9 4 7 5 8 6 2 7 3 8 4 9 6 10 20 11 11 13
REMARK SMILES IDX 18 14 12 15 16 16 13 17 14 18 17 19 15 21 5 23 1 25
REMARK H PARENT 20 12 17 20 15 22 5 24 1 26
REMARK Flexibility Score: inf
ROOT
ATOM      1  C   UNL     1       9.136  -5.474 -10.409  1.00  0.00     0.079 C 
ATOM      2  C   UNL     1      10.138  -4.802 -11.369  1.00  0.00     0.164 C 
ATOM      3  C   UNL     1      11.463  -5.584 -11.355  1.00  0.00     0.232 C 
ATOM      4  O   UNL     1      11.227  -6.946 -11.717  1.00  0.00    -0.482 OA
ATOM      5  C   UNL     1      10.101  -7.647 -11.271  1.00  0.00     0.131 A 
ATOM      6  C   UNL     1      10.025  -9.024 -11.497  1.00  0.00     0.093 A 
ATOM      7  C   UNL     1       8.919  -9.753 -11.049  1.00  0.00     0.122 A 
ATOM      8  C   UNL     1       7.891  -9.101 -10.364  1.00  0.00     0.092 A 
ATOM      9  C   UNL     1       7.949  -7.723 -10.128  1.00  0.00     0.126 A 
ATOM     10  C   UNL     1       9.045  -6.973 -10.618  1.00  0.00     0.039 A 
ENDROOT
BRANCH   2  11
ATOM     11  O   UNL     1       9.610  -4.780 -12.672  1.00  0.00    -0.389 OA
ATOM     12  H   UNL     1       9.254  -3.865 -12.820  1.00  0.00     0.211 HD
ENDBRANCH   2  11
BRANCH   3  13
ATOM     13  C   UNL     1      12.484  -4.959 -12.278  1.00  0.00    -0.001 A 
ATOM     14  C   UNL     1      13.084  -5.708 -13.308  1.00  0.00     0.057 A 
ATOM     15  C   UNL     1      12.799  -3.597 -12.152  1.00  0.00     0.012 A 
ATOM     16  C   UNL     1      14.004  -5.109 -14.180  1.00  0.00     0.157 A 
ATOM     17  C   UNL     1      13.716  -2.998 -13.021  1.00  0.00     0.050 A 
ATOM     18  C   UNL     1      14.322  -3.752 -14.035  1.00  0.00     0.157 A 
BRANCH  16  19
ATOM     19  O   UNL     1      14.602  -5.853 -15.194  1.00  0.00    -0.504 OA
ATOM     20  H   UNL     1      14.174  -5.948 -16.107  1.00  0.00     0.293 HD
ENDBRANCH  16  19
BRANCH  18  21
ATOM     21  O   UNL     1      15.238  -3.160 -14.902  1.00  0.00    -0.504 OA
ATOM     22  H   UNL     1      16.105  -2.760 -14.564  1.00  0.00     0.293 HD
ENDBRANCH  18  21
ENDBRANCH   3  13
BRANCH   9  23
ATOM     23  O   UNL     1       6.913  -7.137  -9.397  1.00  0.00    -0.507 OA
ATOM     24  H   UNL     1       6.070  -6.773  -9.822  1.00  0.00     0.293 HD
ENDBRANCH   9  23
BRANCH   7  25
ATOM     25  O   UNL     1       8.835 -11.125 -11.272  1.00  0.00    -0.508 OA
ATOM     26  H   UNL     1       9.358 -11.785 -10.708  1.00  0.00     0.293 HD
ENDBRANCH   7  25
TORSDOF 6
ENDMDL
MODEL 5
REMARK VINA RESULT:    -7.050      2.029      2.826
REMARK INTER + INTRA:          -8.639
REMARK INTER:                  -8.899
REMARK INTRA:                   0.260
REMARK UNBOUND:                -0.146
REMARK SMILES Oc1cc(O)c2c(c1)O[C@@H](c1ccc(O)c(O)c1)[C@@H](O)C2
REMARK SMILES IDX 21 1 19 2 10 3 9 4 7 5 8 6 2 7 3 8 4 9 6 10 20 11 11 13
REMARK SMILES IDX 18 14 12 15 16 16 13 17 14 18 17 19 15 21 5 23 1 25
REMARK H PARENT 20 12 17 20 15 22 5 24 1 26
REMARK Flexibility Score: inf
ROOT
ATOM      1  C   UNL     1       0.044  -7.439  -7.652  1.00  0.00     0.079 C 
ATOM      2  C   UNL     1       1.545  -7.580  -7.973  1.00  0.00     0.164 C 
ATOM      3  C   UNL     1       1.944  -6.531  -9.026  1.00  0.00     0.232 C 
ATOM      4  O   UNL     1       1.632  -5.222  -8.549  1.00  0.00    -0.482 OA
ATOM      5  C   UNL     1       0.461  -4.952  -7.834  1.00  0.00     0.131 A 
ATOM      6  C   UNL     1       0.120  -3.624  -7.565  1.00  0.00     0.093 A 
ATOM      7  C   UNL     1      -1.053  -3.323  -6.865  1.00  0.00     0.122 A 
ATOM      8  C   UNL     1      -1.892  -4.357  -6.444  1.00  0.00     0.092 A 
ATOM      9  C   UNL     1      -1.568  -5.693  -6.705  1.00  0.00     0.126 A 
ATOM     10  C   UNL     1      -0.360  -6.005  -7.372  1.00  0.00     0.039 A 
ENDROOT
BRANCH   2  11
ATOM     11  O   UNL     1       2.303  -7.394  -6.803  1.00  0.00    -0.389 OA
ATOM     12  H   UNL     1       1.691  -7.006  -6.125  1.00  0.00     0.211 HD
ENDBRANCH   2  11
BRANCH   3  13
ATOM     13  C   UNL     1       3.409  -6.633  -9.381  1.00  0.00    -0.001 A 
ATOM     14  C   UNL     1       4.403  -6.534  -8.390  1.00  0.00     0.057 A 
ATOM     15  C   UNL     1       3.791  -6.892 -10.707  1.00  0.00     0.012 A 
ATOM     16  C   UNL     1       5.759  -6.665  -8.725  1.00  0.00     0.157 A 
ATOM     17  C   UNL     1       5.142  -7.023 -11.042  1.00  0.00     0.050 A 
ATOM     18  C   UNL     1       6.129  -6.908 -10.053  1.00  0.00     0.157 A 
BRANCH  16  19
ATOM     19  O   UNL     1       6.741  -6.558  -7.743  1.00  0.00    -0.504 OA
ATOM     20  H   UNL     1       6.746  -5.794  -7.077  1.00  0.00     0.293 HD
ENDBRANCH  16  19
BRANCH  18  21
ATOM     21  O   UNL     1       7.477  -7.035 -10.384  1.00  0.00    -0.504 OA
ATOM     22  H   UNL     1       8.091  -7.658  -9.872  1.00  0.00     0.293 HD
ENDBRANCH  18  21
ENDBRANCH   3  13
BRANCH   9  23
ATOM     23  O   UNL     1      -2.470  -6.680  -6.298  1.00  0.00    -0.507 OA
ATOM     24  H   UNL     1      -2.185  -7.560  -5.890  1.00  0.00     0.293 HD
ENDBRANCH   9  23
BRANCH   7  25
ATOM     25  O   UNL     1      -1.398  -2.002  -6.592  1.00  0.00    -0.508 OA
ATOM     26  H   UNL     1      -1.689  -1.712  -5.665  1.00  0.00     0.293 HD
ENDBRANCH   7  25
TORSDOF 6
ENDMDL
MODEL 6
REMARK VINA RESULT:    -6.918      7.458     12.542
REMARK INTER + INTRA:          -8.479
REMARK INTER:                  -8.397
REMARK INTRA:                  -0.082
REMARK UNBOUND:                -0.146
REMARK SMILES Oc1cc(O)c2c(c1)O[C@@H](c1ccc(O)c(O)c1)[C@@H](O)C2
REMARK SMILES IDX 21 1 19 2 10 3 9 4 7 5 8 6 2 7 3 8 4 9 6 10 20 11 11 13
REMARK SMILES IDX 18 14 12 15 16 16 13 17 14 18 17 19 15 21 5 23 1 25
REMARK H PARENT 20 12 17 20 15 22 5 24 1 26
REMARK Flexibility Score: inf
ROOT
ATOM      1  C   UNL     1      12.000  -3.674 -11.470  1.00  0.00     0.079 C 
ATOM      2  C   UNL     1      10.829  -4.377 -10.754  1.00  0.00     0.164 C 
ATOM      3  C   UNL     1       9.814  -4.872 -11.799  1.00  0.00     0.232 C 
ATOM      4  O   UNL     1      10.459  -5.746 -12.727  1.00  0.00    -0.482 OA
ATOM      5  C   UNL     1      11.752  -5.499 -13.203  1.00  0.00     0.131 A 
ATOM      6  C   UNL     1      12.250  -6.279 -14.249  1.00  0.00     0.093 A 
ATOM      7  C   UNL     1      13.532  -6.045 -14.756  1.00  0.00     0.122 A 
ATOM      8  C   UNL     1      14.313  -5.020 -14.218  1.00  0.00     0.092 A 
ATOM      9  C   UNL     1      13.831  -4.228 -13.170  1.00  0.00     0.126 A 
ATOM     10  C   UNL     1      12.552  -4.489 -12.623  1.00  0.00     0.039 A 
ENDROOT
BRANCH   2  11
ATOM     11  O   UNL     1      11.312  -5.464 -10.005  1.00  0.00    -0.389 OA
ATOM     12  H   UNL     1      10.527  -5.868  -9.549  1.00  0.00     0.211 HD
ENDBRANCH   2  11
BRANCH   3  13
ATOM     13  C   UNL     1       8.641  -5.564 -11.145  1.00  0.00    -0.001 A 
ATOM     14  C   UNL     1       8.729  -6.907 -10.733  1.00  0.00     0.057 A 
ATOM     15  C   UNL     1       7.462  -4.847 -10.886  1.00  0.00     0.012 A 
ATOM     16  C   UNL     1       7.647  -7.529 -10.095  1.00  0.00     0.157 A 
ATOM     17  C   UNL     1       6.381  -5.466 -10.251  1.00  0.00     0.050 A 
ATOM     18  C   UNL     1       6.470  -6.808  -9.856  1.00  0.00     0.157 A 
BRANCH  16  19
ATOM     19  O   UNL     1       7.734  -8.861  -9.694  1.00  0.00    -0.504 OA
ATOM     20  H   UNL     1       8.009  -9.115  -8.753  1.00  0.00     0.293 HD
ENDBRANCH  16  19
BRANCH  18  21
ATOM     21  O   UNL     1       5.394  -7.430  -9.224  1.00  0.00    -0.504 OA
ATOM     22  H   UNL     1       4.905  -6.988  -8.454  1.00  0.00     0.293 HD
ENDBRANCH  18  21
ENDBRANCH   3  13
BRANCH   9  23
ATOM     23  O   UNL     1      14.641  -3.188 -12.705  1.00  0.00    -0.507 OA
ATOM     24  H   UNL     1      14.589  -2.242 -13.059  1.00  0.00     0.293 HD
ENDBRANCH   9  23
BRANCH   7  25
ATOM     25  O   UNL     1      14.037  -6.819 -15.798  1.00  0.00    -0.508 OA
ATOM     26  H   UNL     1      14.497  -6.397 -16.596  1.00  0.00     0.293 HD
ENDBRANCH   7  25
TORSDOF 6
ENDMDL
MODEL 7
REMARK VINA RESULT:    -6.868      1.861      2.721
REMARK INTER + INTRA:          -8.419
REMARK INTER:                  -8.750
REMARK INTRA:                   0.331
REMARK UNBOUND:                -0.146
REMARK SMILES Oc1cc(O)c2c(c1)O[C@@H](c1ccc(O)c(O)c1)[C@@H](O)C2
REMARK SMILES IDX 21 1 19 2 10 3 9 4 7 5 8 6 2 7 3 8 4 9 6 10 20 11 11 13
REMARK SMILES IDX 18 14 12 15 16 16 13 17 14 18 17 19 15 21 5 23 1 25
REMARK H PARENT 20 12 17 20 15 22 5 24 1 26
REMARK Flexibility Score: inf
ROOT
ATOM      1  C   UNL     1      -0.349  -3.356  -8.599  1.00  0.00     0.079 C 
ATOM      2  C   UNL     1       0.868  -4.079  -9.208  1.00  0.00     0.164 C 
ATOM      3  C   UNL     1       1.486  -5.017  -8.156  1.00  0.00     0.232 C 
ATOM      4  O   UNL     1       0.503  -5.946  -7.697  1.00  0.00    -0.482 OA
ATOM      5  C   UNL     1      -0.826  -5.569  -7.472  1.00  0.00     0.131 A 
ATOM      6  C   UNL     1      -1.689  -6.469  -6.842  1.00  0.00     0.093 A 
ATOM      7  C   UNL     1      -3.018  -6.114  -6.591  1.00  0.00     0.122 A 
ATOM      8  C   UNL     1      -3.480  -4.849  -6.963  1.00  0.00     0.092 A 
ATOM      9  C   UNL     1      -2.630  -3.934  -7.594  1.00  0.00     0.126 A 
ATOM     10  C   UNL     1      -1.297  -4.305  -7.892  1.00  0.00     0.039 A 
ENDROOT
BRANCH   2  11
ATOM     11  O   UNL     1       0.469  -4.821 -10.334  1.00  0.00    -0.389 OA
ATOM     12  H   UNL     1       1.077  -4.565 -11.076  1.00  0.00     0.211 HD
ENDBRANCH   2  11
BRANCH   3  13
ATOM     13  C   UNL     1       2.691  -5.746  -8.704  1.00  0.00    -0.001 A 
ATOM     14  C   UNL     1       3.910  -5.760  -8.002  1.00  0.00     0.057 A 
ATOM     15  C   UNL     1       2.584  -6.473  -9.901  1.00  0.00     0.012 A 
ATOM     16  C   UNL     1       5.012  -6.469  -8.502  1.00  0.00     0.157 A 
ATOM     17  C   UNL     1       3.681  -7.179 -10.401  1.00  0.00     0.050 A 
ATOM     18  C   UNL     1       4.898  -7.178  -9.705  1.00  0.00     0.157 A 
BRANCH  16  19
ATOM     19  O   UNL     1       6.220  -6.476  -7.809  1.00  0.00    -0.504 OA
ATOM     20  H   UNL     1       6.251  -6.465  -6.796  1.00  0.00     0.293 HD
ENDBRANCH  16  19
BRANCH  18  21
ATOM     21  O   UNL     1       5.995  -7.880 -10.201  1.00  0.00    -0.504 OA
ATOM     22  H   UNL     1       6.818  -8.046  -9.634  1.00  0.00     0.293 HD
ENDBRANCH  18  21
ENDBRANCH   3  13
BRANCH   9  23
ATOM     23  O   UNL     1      -3.138  -2.669  -7.901  1.00  0.00    -0.507 OA
ATOM     24  H   UNL     1      -3.491  -2.028  -7.203  1.00  0.00     0.293 HD
ENDBRANCH   9  23
BRANCH   7  25
ATOM     25  O   UNL     1      -3.886  -7.006  -5.964  1.00  0.00    -0.508 OA
ATOM     26  H   UNL     1      -4.167  -6.880  -4.999  1.00  0.00     0.293 HD
ENDBRANCH   7  25
TORSDOF 6
ENDMDL
MODEL 8
REMARK VINA RESULT:    -6.750      2.324      3.461
REMARK INTER + INTRA:          -8.277
REMARK INTER:                  -7.889
REMARK INTRA:                  -0.388
REMARK UNBOUND:                -0.146
REMARK SMILES Oc1cc(O)c2c(c1)O[C@@H](c1ccc(O)c(O)c1)[C@@H](O)C2
REMARK SMILES IDX 21 1 19 2 10 3 9 4 7 5 8 6 2 7 3 8 4 9 6 10 20 11 11 13
REMARK SMILES IDX 18 14 12 15 16 16 13 17 14 18 17 19 15 21 5 23 1 25
REMARK H PARENT 20 12 17 20 15 22 5 24 1 26
REMARK Flexibility Score: inf
ROOT
ATOM      1  C   UNL     1       1.288  -7.520  -7.862  1.00  0.00     0.079 C 
ATOM      2  C   UNL     1       2.801  -7.373  -8.118  1.00  0.00     0.164 C 
ATOM      3  C   UNL     1       3.026  -6.718  -9.492  1.00  0.00     0.232 C 
ATOM      4  O   UNL     1       2.362  -5.455  -9.543  1.00  0.00    -0.482 OA
ATOM      5  C   UNL     1       1.099  -5.257  -8.974  1.00  0.00     0.131 A 
ATOM      6  C   UNL     1       0.422  -4.061  -9.224  1.00  0.00     0.093 A 
ATOM      7  C   UNL     1      -0.848  -3.842  -8.681  1.00  0.00     0.122 A 
ATOM      8  C   UNL     1      -1.445  -4.829  -7.893  1.00  0.00     0.092 A 
ATOM      9  C   UNL     1      -0.782  -6.033  -7.632  1.00  0.00     0.126 A 
ATOM     10  C   UNL     1       0.522  -6.242  -8.142  1.00  0.00     0.039 A 
ENDROOT
BRANCH   2  11
ATOM     11  O   UNL     1       3.380  -6.580  -7.111  1.00  0.00    -0.389 OA
ATOM     12  H   UNL     1       3.867  -7.198  -6.505  1.00  0.00     0.211 HD
ENDBRANCH   2  11
BRANCH   3  13
ATOM     13  C   UNL     1       4.498  -6.558  -9.794  1.00  0.00    -0.001 A 
ATOM     14  C   UNL     1       5.338  -7.680  -9.920  1.00  0.00     0.057 A 
ATOM     15  C   UNL     1       5.031  -5.278 -10.013  1.00  0.00     0.012 A 
ATOM     16  C   UNL     1       6.695  -7.522 -10.235  1.00  0.00     0.157 A 
ATOM     17  C   UNL     1       6.384  -5.119 -10.327  1.00  0.00     0.050 A 
ATOM     18  C   UNL     1       7.219  -6.239 -10.436  1.00  0.00     0.157 A 
BRANCH  16  19
ATOM     19  O   UNL     1       7.527  -8.633 -10.351  1.00  0.00    -0.504 OA
ATOM     20  H   UNL     1       7.151  -9.571 -10.436  1.00  0.00     0.293 HD
ENDBRANCH  16  19
BRANCH  18  21
ATOM     21  O   UNL     1       8.569  -6.084 -10.747  1.00  0.00    -0.504 OA
ATOM     22  H   UNL     1       9.287  -6.622 -10.275  1.00  0.00     0.293 HD
ENDBRANCH  18  21
ENDBRANCH   3  13
BRANCH   9  23
ATOM     23  O   UNL     1      -1.449  -7.000  -6.876  1.00  0.00    -0.507 OA
ATOM     24  H   UNL     1      -1.867  -7.829  -7.277  1.00  0.00     0.293 HD
ENDBRANCH   9  23
BRANCH   7  25
ATOM     25  O   UNL     1      -1.529  -2.651  -8.924  1.00  0.00    -0.508 OA
ATOM     26  H   UNL     1      -2.146  -2.548  -9.722  1.00  0.00     0.293 HD
ENDBRANCH   7  25
TORSDOF 6
ENDMDL
MODEL 9
REMARK VINA RESULT:    -6.652      1.357      3.038
REMARK INTER + INTRA:          -8.159
REMARK INTER:                  -7.777
REMARK INTRA:                  -0.382
REMARK UNBOUND:                -0.146
REMARK SMILES Oc1cc(O)c2c(c1)O[C@@H](c1ccc(O)c(O)c1)[C@@H](O)C2
REMARK SMILES IDX 21 1 19 2 10 3 9 4 7 5 8 6 2 7 3 8 4 9 6 10 20 11 11 13
REMARK SMILES IDX 18 14 12 15 16 16 13 17 14 18 17 19 15 21 5 23 1 25
REMARK H PARENT 20 12 17 20 15 22 5 24 1 26
REMARK Flexibility Score: inf
ROOT
ATOM      1  C   UNL     1       0.375  -3.632  -7.099  1.00  0.00     0.079 C 
ATOM      2  C   UNL     1       1.700  -4.143  -7.698  1.00  0.00     0.164 C 
ATOM      3  C   UNL     1       1.558  -5.633  -8.057  1.00  0.00     0.232 C 
ATOM      4  O   UNL     1       0.471  -5.812  -8.966  1.00  0.00    -0.482 OA
ATOM      5  C   UNL     1      -0.726  -5.099  -8.840  1.00  0.00     0.131 A 
ATOM      6  C   UNL     1      -1.816  -5.457  -9.638  1.00  0.00     0.093 A 
ATOM      7  C   UNL     1      -3.030  -4.772  -9.522  1.00  0.00     0.122 A 
ATOM      8  C   UNL     1      -3.155  -3.733  -8.597  1.00  0.00     0.092 A 
ATOM      9  C   UNL     1      -2.074  -3.361  -7.790  1.00  0.00     0.126 A 
ATOM     10  C   UNL     1      -0.830  -4.020  -7.934  1.00  0.00     0.039 A 
ENDROOT
BRANCH   2  11
ATOM     11  O   UNL     1       2.021  -3.403  -8.850  1.00  0.00    -0.389 OA
ATOM     12  H   UNL     1       1.161  -3.164  -9.284  1.00  0.00     0.211 HD
ENDBRANCH   2  11
BRANCH   3  13
ATOM     13  C   UNL     1       2.837  -6.184  -8.643  1.00  0.00    -0.001 A 
ATOM     14  C   UNL     1       4.045  -6.134  -7.923  1.00  0.00     0.057 A 
ATOM     15  C   UNL     1       2.818  -6.813  -9.899  1.00  0.00     0.012 A 
ATOM     16  C   UNL     1       5.219  -6.680  -8.461  1.00  0.00     0.157 A 
ATOM     17  C   UNL     1       3.987  -7.357 -10.437  1.00  0.00     0.050 A 
ATOM     18  C   UNL     1       5.190  -7.291  -9.721  1.00  0.00     0.157 A 
BRANCH  16  19
ATOM     19  O   UNL     1       6.415  -6.622  -7.749  1.00  0.00    -0.504 OA
ATOM     20  H   UNL     1       7.175  -7.267  -7.934  1.00  0.00     0.293 HD
ENDBRANCH  16  19
BRANCH  18  21
ATOM     21  O   UNL     1       6.359  -7.831 -10.255  1.00  0.00    -0.504 OA
ATOM     22  H   UNL     1       6.721  -7.529 -11.152  1.00  0.00     0.293 HD
ENDBRANCH  18  21
ENDBRANCH   3  13
BRANCH   9  23
ATOM     23  O   UNL     1      -2.274  -2.344  -6.852  1.00  0.00    -0.507 OA
ATOM     24  H   UNL     1      -2.712  -1.461  -7.075  1.00  0.00     0.293 HD
ENDBRANCH   9  23
BRANCH   7  25
ATOM     25  O   UNL     1      -4.121  -5.122 -10.314  1.00  0.00    -0.508 OA
ATOM     26  H   UNL     1      -4.326  -6.089 -10.536  1.00  0.00     0.293 HD
ENDBRANCH   7  25
TORSDOF 6
ENDMDL
