MODEL 1
REMARK VINA RESULT:    -4.653      0.000      0.000
REMARK INTER + INTRA:          -5.197
REMARK INTER:                  -5.197
REMARK INTRA:                   0.000
REMARK UNBOUND:                 0.000
REMARK SMILES Oc1cc(O)c2c(ccc3ccc(O)c(O)c32)c1
REMARK SMILES IDX 9 1 8 2 7 3 18 4 2 5 3 6 4 7 6 8 17 9 10 10 11 11 12 12
REMARK SMILES IDX 13 13 15 14 16 15 1 17 5 19 14 21
REMARK H PARENT 16 16 1 18 5 20 14 22
REMARK Flexibility Score: inf
ROOT
ATOM      1  C   UNL     1     131.909 134.746 107.877  1.00  0.00     0.009 A 
ATOM      2  C   UNL     1     130.617 135.058 108.277  1.00  0.00     0.009 A 
ATOM      3  C   UNL     1     129.592 134.113 108.160  1.00  0.00    -0.010 A 
ATOM      4  C   UNL     1     128.312 134.429 108.641  1.00  0.00     0.055 A 
ATOM      5  C   UNL     1     127.307 133.465 108.658  1.00  0.00     0.119 A 
ATOM      6  C   UNL     1     127.592 132.162 108.248  1.00  0.00     0.093 A 
ATOM      7  C   UNL     1     128.870 131.821 107.783  1.00  0.00     0.127 A 
ATOM      8  C   UNL     1     129.856 132.831 107.602  1.00  0.00     0.035 A 
ATOM      9  C   UNL     1     131.131 132.601 106.986  1.00  0.00     0.039 A 
ATOM     10  C   UNL     1     132.177 133.535 107.227  1.00  0.00    -0.014 A 
ATOM     11  C   UNL     1     133.477 133.275 106.777  1.00  0.00     0.013 A 
ATOM     12  C   UNL     1     133.747 132.127 106.041  1.00  0.00     0.051 A 
ATOM     13  C   UNL     1     132.714 131.270 105.663  1.00  0.00     0.158 A 
ATOM     14  C   UNL     1     131.385 131.554 106.055  1.00  0.00     0.166 A 
ENDROOT
BRANCH  14  15
ATOM     15  O   UNL     1     130.317 130.896 105.439  1.00  0.00    -0.504 OA
ATOM     16  H   UNL     1     130.255 130.733 104.444  1.00  0.00     0.293 HD
ENDBRANCH  14  15
BRANCH   5  17
ATOM     17  O   UNL     1     126.037 133.804 109.119  1.00  0.00    -0.508 OA
ATOM     18  H   UNL     1     125.909 134.370 109.950  1.00  0.00     0.293 HD
ENDBRANCH   5  17
BRANCH   7  19
ATOM     19  O   UNL     1     129.170 130.470 107.605  1.00  0.00    -0.507 OA
ATOM     20  H   UNL     1     129.902 130.010 108.131  1.00  0.00     0.293 HD
ENDBRANCH   7  19
BRANCH  13  21
ATOM     21  O   UNL     1     133.042 130.154 104.891  1.00  0.00    -0.504 OA
ATOM     22  H   UNL     1     133.791 130.145 104.213  1.00  0.00     0.293 HD
ENDBRANCH  13  21
TORSDOF 4
ENDMDL
MODEL 2
REMARK VINA RESULT:    -4.614     13.273     14.699
REMARK INTER + INTRA:          -5.153
REMARK INTER:                  -5.153
REMARK INTRA:                   0.000
REMARK UNBOUND:                 0.000
REMARK SMILES Oc1cc(O)c2c(ccc3ccc(O)c(O)c32)c1
REMARK SMILES IDX 9 1 8 2 7 3 18 4 2 5 3 6 4 7 6 8 17 9 10 10 11 11 12 12
REMARK SMILES IDX 13 13 15 14 16 15 1 17 5 19 14 21
REMARK H PARENT 16 16 1 18 5 20 14 22
REMARK Flexibility Score: inf
ROOT
ATOM      1  C   UNL     1     114.129 130.468 108.464  1.00  0.00     0.009 A 
ATOM      2  C   UNL     1     114.259 131.754 107.956  1.00  0.00     0.009 A 
ATOM      3  C   UNL     1     115.344 132.086 107.139  1.00  0.00    -0.010 A 
ATOM      4  C   UNL     1     115.411 133.370 106.578  1.00  0.00     0.055 A 
ATOM      5  C   UNL     1     116.408 133.688 105.658  1.00  0.00     0.119 A 
ATOM      6  C   UNL     1     117.310 132.704 105.248  1.00  0.00     0.093 A 
ATOM      7  C   UNL     1     117.247 131.409 105.782  1.00  0.00     0.127 A 
ATOM      8  C   UNL     1     116.344 131.117 106.843  1.00  0.00     0.035 A 
ATOM      9  C   UNL     1     116.322 129.871 107.553  1.00  0.00     0.039 A 
ATOM     10  C   UNL     1     115.148 129.527 108.280  1.00  0.00    -0.014 A 
ATOM     11  C   UNL     1     115.019 128.258 108.859  1.00  0.00     0.013 A 
ATOM     12  C   UNL     1     116.060 127.341 108.776  1.00  0.00     0.051 A 
ATOM     13  C   UNL     1     117.277 127.703 108.200  1.00  0.00     0.158 A 
ATOM     14  C   UNL     1     117.446 129.003 107.668  1.00  0.00     0.166 A 
ENDROOT
BRANCH  14  15
ATOM     15  O   UNL     1     118.726 129.479 107.374  1.00  0.00    -0.504 OA
ATOM     16  H   UNL     1     119.198 129.321 106.495  1.00  0.00     0.293 HD
ENDBRANCH  14  15
BRANCH   5  17
ATOM     17  O   UNL     1     116.471 134.974 105.129  1.00  0.00    -0.508 OA
ATOM     18  H   UNL     1     117.315 135.532 105.188  1.00  0.00     0.293 HD
ENDBRANCH   5  17
BRANCH   7  19
ATOM     19  O   UNL     1     118.011 130.409 105.180  1.00  0.00    -0.507 OA
ATOM     20  H   UNL     1     117.591 129.569 104.801  1.00  0.00     0.293 HD
ENDBRANCH   7  19
BRANCH  13  21
ATOM     21  O   UNL     1     118.299 126.752 108.181  1.00  0.00    -0.504 OA
ATOM     22  H   UNL     1     119.278 126.983 108.276  1.00  0.00     0.293 HD
ENDBRANCH  13  21
TORSDOF 4
ENDMDL
MODEL 3
REMARK VINA RESULT:    -4.449      7.731      9.762
REMARK INTER + INTRA:          -4.969
REMARK INTER:                  -4.969
REMARK INTRA:                   0.000
REMARK UNBOUND:                 0.000
REMARK SMILES Oc1cc(O)c2c(ccc3ccc(O)c(O)c32)c1
REMARK SMILES IDX 9 1 8 2 7 3 18 4 2 5 3 6 4 7 6 8 17 9 10 10 11 11 12 12
REMARK SMILES IDX 13 13 15 14 16 15 1 17 5 19 14 21
REMARK H PARENT 16 16 1 18 5 20 14 22
REMARK Flexibility Score: inf
ROOT
ATOM      1  C   UNL     1     123.292 124.739 105.624  1.00  0.00     0.009 A 
ATOM      2  C   UNL     1     123.255 126.056 106.063  1.00  0.00     0.009 A 
ATOM      3  C   UNL     1     124.325 126.591 106.787  1.00  0.00    -0.010 A 
ATOM      4  C   UNL     1     124.294 127.946 107.152  1.00  0.00     0.055 A 
ATOM      5  C   UNL     1     125.400 128.538 107.757  1.00  0.00     0.119 A 
ATOM      6  C   UNL     1     126.566 127.795 107.946  1.00  0.00     0.093 A 
ATOM      7  C   UNL     1     126.624 126.446 107.568  1.00  0.00     0.127 A 
ATOM      8  C   UNL     1     125.453 125.783 107.106  1.00  0.00     0.035 A 
ATOM      9  C   UNL     1     125.381 124.374 106.850  1.00  0.00     0.039 A 
ATOM     10  C   UNL     1     124.335 123.891 106.014  1.00  0.00    -0.014 A 
ATOM     11  C   UNL     1     124.313 122.550 105.610  1.00  0.00     0.013 A 
ATOM     12  C   UNL     1     125.282 121.665 106.067  1.00  0.00     0.051 A 
ATOM     13  C   UNL     1     126.231 122.075 107.003  1.00  0.00     0.158 A 
ATOM     14  C   UNL     1     126.226 123.411 107.471  1.00  0.00     0.166 A 
ENDROOT
BRANCH  14  15
ATOM     15  O   UNL     1     126.951 123.754 108.615  1.00  0.00    -0.504 OA
ATOM     16  H   UNL     1     127.706 123.199 108.991  1.00  0.00     0.293 HD
ENDBRANCH  14  15
BRANCH   5  17
ATOM     17  O   UNL     1     125.342 129.878 108.133  1.00  0.00    -0.508 OA
ATOM     18  H   UNL     1     126.052 130.541 107.843  1.00  0.00     0.293 HD
ENDBRANCH   5  17
BRANCH   7  19
ATOM     19  O   UNL     1     127.868 125.815 107.563  1.00  0.00    -0.507 OA
ATOM     20  H   UNL     1     128.167 125.213 108.320  1.00  0.00     0.293 HD
ENDBRANCH   7  19
BRANCH  13  21
ATOM     21  O   UNL     1     127.154 121.131 107.454  1.00  0.00    -0.504 OA
ATOM     22  H   UNL     1     127.466 120.346 106.898  1.00  0.00     0.293 HD
ENDBRANCH  13  21
TORSDOF 4
ENDMDL
MODEL 4
REMARK VINA RESULT:    -4.447      9.580     11.961
REMARK INTER + INTRA:          -4.967
REMARK INTER:                  -4.967
REMARK INTRA:                   0.000
REMARK UNBOUND:                 0.000
REMARK SMILES Oc1cc(O)c2c(ccc3ccc(O)c(O)c32)c1
REMARK SMILES IDX 9 1 8 2 7 3 18 4 2 5 3 6 4 7 6 8 17 9 10 10 11 11 12 12
REMARK SMILES IDX 13 13 15 14 16 15 1 17 5 19 14 21
REMARK H PARENT 16 16 1 18 5 20 14 22
REMARK Flexibility Score: inf
ROOT
ATOM      1  C   UNL     1     125.660 124.486 105.633  1.00  0.00     0.009 A 
ATOM      2  C   UNL     1     125.760 123.161 106.037  1.00  0.00     0.009 A 
ATOM      3  C   UNL     1     124.721 122.560 106.756  1.00  0.00    -0.010 A 
ATOM      4  C   UNL     1     124.815 121.200 107.086  1.00  0.00     0.055 A 
ATOM      5  C   UNL     1     123.742 120.543 107.686  1.00  0.00     0.119 A 
ATOM      6  C   UNL     1     122.547 121.229 107.904  1.00  0.00     0.093 A 
ATOM      7  C   UNL     1     122.426 122.584 107.562  1.00  0.00     0.127 A 
ATOM      8  C   UNL     1     123.563 123.309 107.107  1.00  0.00     0.035 A 
ATOM      9  C   UNL     1     123.570 124.726 106.887  1.00  0.00     0.039 A 
ATOM     10  C   UNL     1     124.585 125.276 106.054  1.00  0.00    -0.014 A 
ATOM     11  C   UNL     1     124.544 126.627 105.685  1.00  0.00     0.013 A 
ATOM     12  C   UNL     1     123.542 127.457 106.174  1.00  0.00     0.051 A 
ATOM     13  C   UNL     1     122.622 126.981 107.108  1.00  0.00     0.158 A 
ATOM     14  C   UNL     1     122.690 125.635 107.540  1.00  0.00     0.166 A 
ENDROOT
BRANCH  14  15
ATOM     15  O   UNL     1     121.992 125.231 108.681  1.00  0.00    -0.504 OA
ATOM     16  H   UNL     1     122.269 124.453 109.264  1.00  0.00     0.293 HD
ENDBRANCH  14  15
BRANCH   5  17
ATOM     17  O   UNL     1     123.863 119.198 108.025  1.00  0.00    -0.508 OA
ATOM     18  H   UNL     1     124.093 118.908 108.969  1.00  0.00     0.293 HD
ENDBRANCH   5  17
BRANCH   7  19
ATOM     19  O   UNL     1     121.155 123.160 107.585  1.00  0.00    -0.507 OA
ATOM     20  H   UNL     1     120.313 122.600 107.551  1.00  0.00     0.293 HD
ENDBRANCH   7  19
BRANCH  13  21
ATOM     21  O   UNL     1     121.663 127.872 107.591  1.00  0.00    -0.504 OA
ATOM     22  H   UNL     1     121.648 128.213 108.543  1.00  0.00     0.293 HD
ENDBRANCH  13  21
TORSDOF 4
ENDMDL
MODEL 5
REMARK VINA RESULT:    -4.438      7.375      9.743
REMARK INTER + INTRA:          -4.957
REMARK INTER:                  -4.957
REMARK INTRA:                   0.000
REMARK UNBOUND:                 0.000
REMARK SMILES Oc1cc(O)c2c(ccc3ccc(O)c(O)c32)c1
REMARK SMILES IDX 9 1 8 2 7 3 18 4 2 5 3 6 4 7 6 8 17 9 10 10 11 11 12 12
REMARK SMILES IDX 13 13 15 14 16 15 1 17 5 19 14 21
REMARK H PARENT 16 16 1 18 5 20 14 22
REMARK Flexibility Score: inf
ROOT
ATOM      1  C   UNL     1     123.537 126.694 106.194  1.00  0.00     0.009 A 
ATOM      2  C   UNL     1     123.474 125.391 105.718  1.00  0.00     0.009 A 
ATOM      3  C   UNL     1     124.428 124.447 106.113  1.00  0.00    -0.010 A 
ATOM      4  C   UNL     1     124.297 123.120 105.675  1.00  0.00     0.055 A 
ATOM      5  C   UNL     1     125.154 122.131 106.156  1.00  0.00     0.119 A 
ATOM      6  C   UNL     1     126.108 122.453 107.122  1.00  0.00     0.093 A 
ATOM      7  C   UNL     1     126.240 123.770 107.587  1.00  0.00     0.127 A 
ATOM      8  C   UNL     1     125.489 124.818 106.985  1.00  0.00     0.035 A 
ATOM      9  C   UNL     1     125.675 126.208 107.286  1.00  0.00     0.039 A 
ATOM     10  C   UNL     1     124.626 127.115 106.965  1.00  0.00    -0.014 A 
ATOM     11  C   UNL     1     124.695 128.452 107.378  1.00  0.00     0.013 A 
ATOM     12  C   UNL     1     125.814 128.919 108.057  1.00  0.00     0.051 A 
ATOM     13  C   UNL     1     126.919 128.091 108.254  1.00  0.00     0.158 A 
ATOM     14  C   UNL     1     126.891 126.756 107.785  1.00  0.00     0.166 A 
ENDROOT
BRANCH  14  15
ATOM     15  O   UNL     1     128.075 126.021 107.694  1.00  0.00    -0.504 OA
ATOM     16  H   UNL     1     128.899 126.338 107.202  1.00  0.00     0.293 HD
ENDBRANCH  14  15
BRANCH   5  17
ATOM     17  O   UNL     1     125.023 120.824 105.693  1.00  0.00    -0.508 OA
ATOM     18  H   UNL     1     125.343 120.034 106.241  1.00  0.00     0.293 HD
ENDBRANCH   5  17
BRANCH   7  19
ATOM     19  O   UNL     1     127.040 123.997 108.707  1.00  0.00    -0.507 OA
ATOM     20  H   UNL     1     127.626 123.273 109.103  1.00  0.00     0.293 HD
ENDBRANCH   7  19
BRANCH  13  21
ATOM     21  O   UNL     1     128.029 128.628 108.908  1.00  0.00    -0.504 OA
ATOM     22  H   UNL     1     128.983 128.420 108.649  1.00  0.00     0.293 HD
ENDBRANCH  13  21
TORSDOF 4
ENDMDL
MODEL 6
REMARK VINA RESULT:    -4.433      8.154     11.337
REMARK INTER + INTRA:          -4.951
REMARK INTER:                  -4.951
REMARK INTRA:                   0.000
REMARK UNBOUND:                 0.000
REMARK SMILES Oc1cc(O)c2c(ccc3ccc(O)c(O)c32)c1
REMARK SMILES IDX 9 1 8 2 7 3 18 4 2 5 3 6 4 7 6 8 17 9 10 10 11 11 12 12
REMARK SMILES IDX 13 13 15 14 16 15 1 17 5 19 14 21
REMARK H PARENT 16 16 1 18 5 20 14 22
REMARK Flexibility Score: inf
ROOT
ATOM      1  C   UNL     1     122.304 123.534 106.209  1.00  0.00     0.009 A 
ATOM      2  C   UNL     1     123.608 123.458 105.737  1.00  0.00     0.009 A 
ATOM      3  C   UNL     1     124.553 124.417 106.114  1.00  0.00    -0.010 A 
ATOM      4  C   UNL     1     125.881 124.275 105.683  1.00  0.00     0.055 A 
ATOM      5  C   UNL     1     126.871 125.139 106.148  1.00  0.00     0.119 A 
ATOM      6  C   UNL     1     126.549 126.113 107.094  1.00  0.00     0.093 A 
ATOM      7  C   UNL     1     125.232 126.258 107.554  1.00  0.00     0.127 A 
ATOM      8  C   UNL     1     124.183 125.497 106.965  1.00  0.00     0.035 A 
ATOM      9  C   UNL     1     122.793 125.692 107.258  1.00  0.00     0.039 A 
ATOM     10  C   UNL     1     121.884 124.639 106.957  1.00  0.00    -0.014 A 
ATOM     11  C   UNL     1     120.546 124.720 107.366  1.00  0.00     0.013 A 
ATOM     12  C   UNL     1     120.081 125.854 108.021  1.00  0.00     0.051 A 
ATOM     13  C   UNL     1     120.911 126.960 108.197  1.00  0.00     0.158 A 
ATOM     14  C   UNL     1     122.247 126.919 107.731  1.00  0.00     0.166 A 
ENDROOT
BRANCH  14  15
ATOM     15  O   UNL     1     122.985 128.100 107.618  1.00  0.00    -0.504 OA
ATOM     16  H   UNL     1     122.780 128.831 106.952  1.00  0.00     0.293 HD
ENDBRANCH  14  15
BRANCH   5  17
ATOM     17  O   UNL     1     128.179 124.995 105.691  1.00  0.00    -0.508 OA
ATOM     18  H   UNL     1     128.427 125.181 104.727  1.00  0.00     0.293 HD
ENDBRANCH   5  17
BRANCH   7  19
ATOM     19  O   UNL     1     125.004 127.081 108.657  1.00  0.00    -0.507 OA
ATOM     20  H   UNL     1     124.667 126.714 109.538  1.00  0.00     0.293 HD
ENDBRANCH   7  19
BRANCH  13  21
ATOM     21  O   UNL     1     120.375 128.085 108.827  1.00  0.00    -0.504 OA
ATOM     22  H   UNL     1     120.800 129.001 108.790  1.00  0.00     0.293 HD
ENDBRANCH  13  21
TORSDOF 4
ENDMDL
MODEL 7
REMARK VINA RESULT:    -4.426      8.246     10.281
REMARK INTER + INTRA:          -4.943
REMARK INTER:                  -4.943
REMARK INTRA:                   0.000
REMARK UNBOUND:                 0.000
REMARK SMILES Oc1cc(O)c2c(ccc3ccc(O)c(O)c32)c1
REMARK SMILES IDX 9 1 8 2 7 3 18 4 2 5 3 6 4 7 6 8 17 9 10 10 11 11 12 12
REMARK SMILES IDX 13 13 15 14 16 15 1 17 5 19 14 21
REMARK H PARENT 16 16 1 18 5 20 14 22
REMARK Flexibility Score: inf
ROOT
ATOM      1  C   UNL     1     124.256 123.310 105.622  1.00  0.00     0.009 A 
ATOM      2  C   UNL     1     122.933 123.247 106.039  1.00  0.00     0.009 A 
ATOM      3  C   UNL     1     122.367 124.305 106.757  1.00  0.00    -0.010 A 
ATOM      4  C   UNL     1     121.007 124.248 107.101  1.00  0.00     0.055 A 
ATOM      5  C   UNL     1     120.384 125.341 107.700  1.00  0.00     0.119 A 
ATOM      6  C   UNL     1     121.103 126.520 107.904  1.00  0.00     0.093 A 
ATOM      7  C   UNL     1     122.457 126.604 107.548  1.00  0.00     0.127 A 
ATOM      8  C   UNL     1     123.148 125.446 107.093  1.00  0.00     0.035 A 
ATOM      9  C   UNL     1     124.562 125.400 106.860  1.00  0.00     0.039 A 
ATOM     10  C   UNL     1     125.078 124.367 106.028  1.00  0.00    -0.014 A 
ATOM     11  C   UNL     1     126.425 124.371 105.646  1.00  0.00     0.013 A 
ATOM     12  C   UNL     1     127.285 125.354 106.120  1.00  0.00     0.051 A 
ATOM     13  C   UNL     1     126.842 126.292 107.052  1.00  0.00     0.158 A 
ATOM     14  C   UNL     1     125.500 126.261 107.499  1.00  0.00     0.166 A 
ENDROOT
BRANCH  14  15
ATOM     15  O   UNL     1     125.125 126.976 108.639  1.00  0.00    -0.504 OA
ATOM     16  H   UNL     1     124.251 127.476 108.728  1.00  0.00     0.293 HD
ENDBRANCH  14  15
BRANCH   5  17
ATOM     17  O   UNL     1     119.040 125.257 108.053  1.00  0.00    -0.508 OA
ATOM     18  H   UNL     1     118.382 125.989 107.813  1.00  0.00     0.293 HD
ENDBRANCH   5  17
BRANCH   7  19
ATOM     19  O   UNL     1     123.065 127.859 107.557  1.00  0.00    -0.507 OA
ATOM     20  H   UNL     1     123.201 128.383 108.412  1.00  0.00     0.293 HD
ENDBRANCH   7  19
BRANCH  13  21
ATOM     21  O   UNL     1     127.763 127.231 107.521  1.00  0.00    -0.504 OA
ATOM     22  H   UNL     1     127.707 127.659 108.435  1.00  0.00     0.293 HD
ENDBRANCH  13  21
TORSDOF 4
ENDMDL
MODEL 8
REMARK VINA RESULT:    -4.424      9.850     12.073
REMARK INTER + INTRA:          -4.941
REMARK INTER:                  -4.941
REMARK INTRA:                   0.000
REMARK UNBOUND:                 0.000
REMARK SMILES Oc1cc(O)c2c(ccc3ccc(O)c(O)c32)c1
REMARK SMILES IDX 9 1 8 2 7 3 18 4 2 5 3 6 4 7 6 8 17 9 10 10 11 11 12 12
REMARK SMILES IDX 13 13 15 14 16 15 1 17 5 19 14 21
REMARK H PARENT 16 16 1 18 5 20 14 22
REMARK Flexibility Score: inf
ROOT
ATOM      1  C   UNL     1     125.541 122.519 106.099  1.00  0.00     0.009 A 
ATOM      2  C   UNL     1     125.592 123.831 105.646  1.00  0.00     0.009 A 
ATOM      3  C   UNL     1     124.626 124.757 106.053  1.00  0.00    -0.010 A 
ATOM      4  C   UNL     1     124.744 126.093 105.640  1.00  0.00     0.055 A 
ATOM      5  C   UNL     1     123.874 127.064 106.134  1.00  0.00     0.119 A 
ATOM      6  C   UNL     1     122.920 126.714 107.090  1.00  0.00     0.093 A 
ATOM      7  C   UNL     1     122.800 125.388 107.531  1.00  0.00     0.127 A 
ATOM      8  C   UNL     1     123.565 124.359 106.914  1.00  0.00     0.035 A 
ATOM      9  C   UNL     1     123.393 122.962 107.188  1.00  0.00     0.039 A 
ATOM     10  C   UNL     1     124.453 122.072 106.857  1.00  0.00    -0.014 A 
ATOM     11  C   UNL     1     124.397 120.728 107.246  1.00  0.00     0.013 A 
ATOM     12  C   UNL     1     123.280 120.236 107.911  1.00  0.00     0.051 A 
ATOM     13  C   UNL     1     122.165 121.049 108.117  1.00  0.00     0.158 A 
ATOM     14  C   UNL     1     122.181 122.392 107.672  1.00  0.00     0.166 A 
ENDROOT
BRANCH  14  15
ATOM     15  O   UNL     1     120.989 123.116 107.589  1.00  0.00    -0.504 OA
ATOM     16  H   UNL     1     120.698 123.629 106.768  1.00  0.00     0.293 HD
ENDBRANCH  14  15
BRANCH   5  17
ATOM     17  O   UNL     1     123.993 128.380 105.695  1.00  0.00    -0.508 OA
ATOM     18  H   UNL     1     123.769 129.162 106.299  1.00  0.00     0.293 HD
ENDBRANCH   5  17
BRANCH   7  19
ATOM     19  O   UNL     1     121.997 125.132 108.643  1.00  0.00    -0.507 OA
ATOM     20  H   UNL     1     121.428 125.852 109.070  1.00  0.00     0.293 HD
ENDBRANCH   7  19
BRANCH  13  21
ATOM     21  O   UNL     1     121.058 120.488 108.756  1.00  0.00    -0.504 OA
ATOM     22  H   UNL     1     120.214 121.003 108.964  1.00  0.00     0.293 HD
ENDBRANCH  13  21
TORSDOF 4
ENDMDL
