MODEL 1
REMARK VINA RESULT:    -3.931      0.000      0.000
REMARK INTER + INTRA:          -7.551
REMARK INTER:                  -6.114
REMARK INTRA:                  -1.437
REMARK UNBOUND:                -1.437
REMARK SMILES COc1cc(CNC(=O)CCCCC=CC(C)C)ccc1O
REMARK SMILES IDX 11 1 12 2 13 3 14 4 15 5 16 6 17 7 18 8 10 9 8 10 9 11 7 12
REMARK SMILES IDX 6 14 5 15 4 16 19 17 3 18 20 19 21 20 2 21 1 22 22 23
REMARK H PARENT 7 13 22 24
REMARK Flexibility Score: inf
ROOT
ATOM      1  C   UNL     1     141.054 144.806 142.004  1.00  0.00     0.010 C 
ENDROOT
BRANCH   1   2
ATOM      2  C   UNL     1     141.720 144.678 140.630  1.00  0.00     0.005 C 
BRANCH   2   3
ATOM      3  C   UNL     1     142.685 145.845 140.379  1.00  0.00     0.027 C 
BRANCH   3   4
ATOM      4  C   UNL     1     142.192 146.726 139.260  1.00  0.00    -0.031 C 
ATOM      5  C   UNL     1     141.545 147.896 139.428  1.00  0.00    -0.028 C 
BRANCH   5   6
ATOM      6  C   UNL     1     141.263 148.550 140.764  1.00  0.00     0.005 C 
ATOM      7  C   UNL     1     141.484 150.061 140.656  1.00  0.00     0.012 C 
ATOM      8  C   UNL     1     139.825 148.244 141.195  1.00  0.00     0.012 C 
ENDBRANCH   5   6
ENDBRANCH   3   4
ENDBRANCH   2   3
ENDBRANCH   1   2
BRANCH   1   9
ATOM      9  C   UNL     1     141.949 145.573 142.981  1.00  0.00     0.100 C 
BRANCH   9  10
ATOM     10  C   UNL     1     142.360 144.683 144.115  1.00  0.00     0.220 C 
ATOM     11  O   UNL     1     142.985 145.175 145.094  1.00  0.00    -0.275 OA
ATOM     12  N   UNL     1     142.093 143.276 144.054  1.00  0.00    -0.352 N 
ATOM     13  H   UNL     1     141.581 142.895 143.228  1.00  0.00     0.163 HD
BRANCH  12  14
ATOM     14  C   UNL     1     142.683 142.325 144.994  1.00  0.00     0.151 C 
BRANCH  14  15
ATOM     15  C   UNL     1     143.603 141.389 144.257  1.00  0.00    -0.025 A 
ATOM     16  C   UNL     1     143.622 141.369 142.853  1.00  0.00     0.056 A 
ATOM     17  C   UNL     1     144.404 140.488 144.972  1.00  0.00     0.009 A 
ATOM     18  C   UNL     1     144.457 140.467 142.164  1.00  0.00     0.160 A 
ATOM     19  C   UNL     1     145.234 139.595 144.294  1.00  0.00     0.050 A 
ATOM     20  C   UNL     1     145.265 139.582 142.894  1.00  0.00     0.157 A 
BRANCH  18  21
ATOM     21  O   UNL     1     144.509 140.416 140.762  1.00  0.00    -0.493 OA
ATOM     22  C   UNL     1     145.192 141.364 139.947  1.00  0.00     0.278 C 
ENDBRANCH  18  21
BRANCH  20  23
ATOM     23  O   UNL     1     146.095 138.690 142.217  1.00  0.00    -0.504 OA
ATOM     24  H   UNL     1     145.744 137.814 141.848  1.00  0.00     0.293 HD
ENDBRANCH  20  23
ENDBRANCH  14  15
ENDBRANCH  12  14
ENDBRANCH   9  10
ENDBRANCH   1   9
TORSDOF 10
ENDMDL
MODEL 2
REMARK VINA RESULT:    -3.930      5.789      7.596
REMARK INTER + INTRA:          -7.550
REMARK INTER:                  -6.404
REMARK INTRA:                  -1.146
REMARK UNBOUND:                -1.437
REMARK SMILES COc1cc(CNC(=O)CCCCC=CC(C)C)ccc1O
REMARK SMILES IDX 11 1 12 2 13 3 14 4 15 5 16 6 17 7 18 8 10 9 8 10 9 11 7 12
REMARK SMILES IDX 6 14 5 15 4 16 19 17 3 18 20 19 21 20 2 21 1 22 22 23
REMARK H PARENT 7 13 22 24
REMARK Flexibility Score: inf
ROOT
ATOM      1  C   UNL     1     136.400 141.997 141.574  1.00  0.00     0.010 C 
ENDROOT
BRANCH   1   2
ATOM      2  C   UNL     1     136.328 140.548 141.082  1.00  0.00     0.005 C 
BRANCH   2   3
ATOM      3  C   UNL     1     135.148 140.353 140.121  1.00  0.00     0.027 C 
BRANCH   3   4
ATOM      4  C   UNL     1     133.914 139.904 140.861  1.00  0.00    -0.031 C 
ATOM      5  C   UNL     1     132.771 140.610 140.952  1.00  0.00    -0.028 C 
BRANCH   5   6
ATOM      6  C   UNL     1     132.513 141.941 140.277  1.00  0.00     0.005 C 
ATOM      7  C   UNL     1     131.053 142.015 139.821  1.00  0.00     0.012 C 
ATOM      8  C   UNL     1     132.834 143.082 141.247  1.00  0.00     0.012 C 
ENDBRANCH   5   6
ENDBRANCH   3   4
ENDBRANCH   2   3
ENDBRANCH   1   2
BRANCH   1   9
ATOM      9  C   UNL     1     135.977 142.102 143.042  1.00  0.00     0.100 C 
BRANCH   9  10
ATOM     10  C   UNL     1     137.175 141.993 143.935  1.00  0.00     0.220 C 
ATOM     11  O   UNL     1     137.034 141.562 145.112  1.00  0.00    -0.275 OA
ATOM     12  N   UNL     1     138.459 142.430 143.470  1.00  0.00    -0.352 N 
ATOM     13  H   UNL     1     138.545 142.789 142.493  1.00  0.00     0.163 HD
BRANCH  12  14
ATOM     14  C   UNL     1     139.605 142.587 144.363  1.00  0.00     0.151 C 
BRANCH  14  15
ATOM     15  C   UNL     1     140.479 143.709 143.873  1.00  0.00    -0.025 A 
ATOM     16  C   UNL     1     140.534 144.023 142.505  1.00  0.00     0.056 A 
ATOM     17  C   UNL     1     141.292 144.408 144.776  1.00  0.00     0.009 A 
ATOM     18  C   UNL     1     141.381 145.050 142.043  1.00  0.00     0.160 A 
ATOM     19  C   UNL     1     142.130 145.427 144.323  1.00  0.00     0.050 A 
ATOM     20  C   UNL     1     142.176 145.753 142.961  1.00  0.00     0.157 A 
BRANCH  18  21
ATOM     21  O   UNL     1     141.463 145.399 140.686  1.00  0.00    -0.493 OA
ATOM     22  C   UNL     1     140.369 145.878 139.909  1.00  0.00     0.278 C 
ENDBRANCH  18  21
BRANCH  20  23
ATOM     23  O   UNL     1     143.013 146.771 142.510  1.00  0.00    -0.504 OA
ATOM     24  H   UNL     1     142.725 147.743 142.530  1.00  0.00     0.293 HD
ENDBRANCH  20  23
ENDBRANCH  14  15
ENDBRANCH  12  14
ENDBRANCH   9  10
ENDBRANCH   1   9
TORSDOF 10
ENDMDL
MODEL 3
REMARK VINA RESULT:    -3.894      5.394      7.636
REMARK INTER + INTRA:          -7.493
REMARK INTER:                  -6.450
REMARK INTRA:                  -1.043
REMARK UNBOUND:                -1.437
REMARK SMILES COc1cc(CNC(=O)CCCCC=CC(C)C)ccc1O
REMARK SMILES IDX 11 1 12 2 13 3 14 4 15 5 16 6 17 7 18 8 10 9 8 10 9 11 7 12
REMARK SMILES IDX 6 14 5 15 4 16 19 17 3 18 20 19 21 20 2 21 1 22 22 23
REMARK H PARENT 7 13 22 24
REMARK Flexibility Score: inf
ROOT
ATOM      1  C   UNL     1     145.566 139.511 141.809  1.00  0.00     0.010 C 
ENDROOT
BRANCH   1   2
ATOM      2  C   UNL     1     145.469 140.939 141.261  1.00  0.00     0.005 C 
BRANCH   2   3
ATOM      3  C   UNL     1     146.608 141.224 140.272  1.00  0.00     0.027 C 
BRANCH   3   4
ATOM      4  C   UNL     1     147.854 141.669 140.994  1.00  0.00    -0.031 C 
ATOM      5  C   UNL     1     149.024 141.001 140.994  1.00  0.00    -0.028 C 
BRANCH   5   6
ATOM      6  C   UNL     1     149.301 139.729 140.220  1.00  0.00     0.005 C 
ATOM      7  C   UNL     1     150.748 139.733 139.721  1.00  0.00     0.012 C 
ATOM      8  C   UNL     1     149.041 138.514 141.116  1.00  0.00     0.012 C 
ENDBRANCH   5   6
ENDBRANCH   3   4
ENDBRANCH   2   3
ENDBRANCH   1   2
BRANCH   1   9
ATOM      9  C   UNL     1     145.789 139.517 143.324  1.00  0.00     0.100 C 
BRANCH   9  10
ATOM     10  C   UNL     1     144.490 139.737 144.038  1.00  0.00     0.220 C 
ATOM     11  O   UNL     1     144.470 140.434 145.089  1.00  0.00    -0.275 OA
ATOM     12  N   UNL     1     143.293 139.110 143.558  1.00  0.00    -0.352 N 
ATOM     13  H   UNL     1     143.340 138.532 142.690  1.00  0.00     0.163 HD
BRANCH  12  14
ATOM     14  C   UNL     1     142.059 139.075 144.340  1.00  0.00     0.151 C 
BRANCH  14  15
ATOM     15  C   UNL     1     141.187 137.946 143.861  1.00  0.00    -0.025 A 
ATOM     16  C   UNL     1     141.116 137.632 142.494  1.00  0.00     0.056 A 
ATOM     17  C   UNL     1     140.392 137.240 144.774  1.00  0.00     0.009 A 
ATOM     18  C   UNL     1     140.272 136.599 142.042  1.00  0.00     0.160 A 
ATOM     19  C   UNL     1     139.556 136.215 144.332  1.00  0.00     0.050 A 
ATOM     20  C   UNL     1     139.495 135.889 142.971  1.00  0.00     0.157 A 
BRANCH  18  21
ATOM     21  O   UNL     1     140.175 136.250 140.686  1.00  0.00    -0.493 OA
ATOM     22  C   UNL     1     139.201 136.772 139.787  1.00  0.00     0.278 C 
ENDBRANCH  18  21
BRANCH  20  23
ATOM     23  O   UNL     1     138.660 134.864 142.530  1.00  0.00    -0.504 OA
ATOM     24  H   UNL     1     138.182 134.252 143.181  1.00  0.00     0.293 HD
ENDBRANCH  20  23
ENDBRANCH  14  15
ENDBRANCH  12  14
ENDBRANCH   9  10
ENDBRANCH   1   9
TORSDOF 10
ENDMDL
MODEL 4
REMARK VINA RESULT:    -3.891      5.919      8.556
REMARK INTER + INTRA:          -7.489
REMARK INTER:                  -6.026
REMARK INTRA:                  -1.463
REMARK UNBOUND:                -1.437
REMARK SMILES COc1cc(CNC(=O)CCCCC=CC(C)C)ccc1O
REMARK SMILES IDX 11 1 12 2 13 3 14 4 15 5 16 6 17 7 18 8 10 9 8 10 9 11 7 12
REMARK SMILES IDX 6 14 5 15 4 16 19 17 3 18 20 19 21 20 2 21 1 22 22 23
REMARK H PARENT 7 13 22 24
REMARK Flexibility Score: inf
ROOT
ATOM      1  C   UNL     1     142.310 136.838 138.776  1.00  0.00     0.010 C 
ENDROOT
BRANCH   1   2
ATOM      2  C   UNL     1     142.718 135.376 138.986  1.00  0.00     0.005 C 
BRANCH   2   3
ATOM      3  C   UNL     1     141.503 134.516 139.360  1.00  0.00     0.027 C 
BRANCH   3   4
ATOM      4  C   UNL     1     141.753 133.750 140.634  1.00  0.00    -0.031 C 
ATOM      5  C   UNL     1     141.017 133.861 141.756  1.00  0.00    -0.028 C 
BRANCH   5   6
ATOM      6  C   UNL     1     139.782 134.725 141.906  1.00  0.00     0.005 C 
ATOM      7  C   UNL     1     138.527 133.861 141.759  1.00  0.00     0.012 C 
ATOM      8  C   UNL     1     139.802 135.422 143.270  1.00  0.00     0.012 C 
ENDBRANCH   5   6
ENDBRANCH   3   4
ENDBRANCH   2   3
ENDBRANCH   1   2
BRANCH   1   9
ATOM      9  C   UNL     1     140.886 137.089 139.280  1.00  0.00     0.100 C 
BRANCH   9  10
ATOM     10  C   UNL     1     140.907 138.030 140.446  1.00  0.00     0.220 C 
ATOM     11  O   UNL     1     140.160 139.045 140.439  1.00  0.00    -0.275 OA
ATOM     12  N   UNL     1     141.815 137.804 141.533  1.00  0.00    -0.352 N 
ATOM     13  H   UNL     1     142.429 136.959 141.510  1.00  0.00     0.163 HD
BRANCH  12  14
ATOM     14  C   UNL     1     142.066 138.805 142.567  1.00  0.00     0.151 C 
BRANCH  14  15
ATOM     15  C   UNL     1     143.518 139.199 142.550  1.00  0.00    -0.025 A 
ATOM     16  C   UNL     1     144.164 139.483 141.336  1.00  0.00     0.056 A 
ATOM     17  C   UNL     1     144.250 139.224 143.745  1.00  0.00     0.009 A 
ATOM     18  C   UNL     1     145.534 139.816 141.318  1.00  0.00     0.160 A 
ATOM     19  C   UNL     1     145.606 139.554 143.732  1.00  0.00     0.050 A 
ATOM     20  C   UNL     1     146.249 139.853 142.524  1.00  0.00     0.157 A 
BRANCH  18  21
ATOM     21  O   UNL     1     146.216 140.111 140.127  1.00  0.00    -0.493 OA
ATOM     22  C   UNL     1     146.584 139.145 139.148  1.00  0.00     0.278 C 
ENDBRANCH  18  21
BRANCH  20  23
ATOM     23  O   UNL     1     147.603 140.184 142.512  1.00  0.00    -0.504 OA
ATOM     24  H   UNL     1     147.922 141.102 142.226  1.00  0.00     0.293 HD
ENDBRANCH  20  23
ENDBRANCH  14  15
ENDBRANCH  12  14
ENDBRANCH   9  10
ENDBRANCH   1   9
TORSDOF 10
ENDMDL
MODEL 5
REMARK VINA RESULT:    -3.870      2.329      6.866
REMARK INTER + INTRA:          -7.457
REMARK INTER:                  -6.386
REMARK INTRA:                  -1.071
REMARK UNBOUND:                -1.437
REMARK SMILES COc1cc(CNC(=O)CCCCC=CC(C)C)ccc1O
REMARK SMILES IDX 11 1 12 2 13 3 14 4 15 5 16 6 17 7 18 8 10 9 8 10 9 11 7 12
REMARK SMILES IDX 6 14 5 15 4 16 19 17 3 18 20 19 21 20 2 21 1 22 22 23
REMARK H PARENT 7 13 22 24
REMARK Flexibility Score: inf
ROOT
ATOM      1  C   UNL     1     146.583 139.770 142.874  1.00  0.00     0.010 C 
ENDROOT
BRANCH   1   2
ATOM      2  C   UNL     1     147.331 138.823 141.929  1.00  0.00     0.005 C 
BRANCH   2   3
ATOM      3  C   UNL     1     148.383 139.584 141.110  1.00  0.00     0.027 C 
BRANCH   3   4
ATOM      4  C   UNL     1     148.226 141.074 141.278  1.00  0.00    -0.031 C 
ATOM      5  C   UNL     1     147.517 141.871 140.455  1.00  0.00    -0.028 C 
BRANCH   5   6
ATOM      6  C   UNL     1     146.712 141.397 139.263  1.00  0.00     0.005 C 
ATOM      7  C   UNL     1     145.217 141.506 139.574  1.00  0.00     0.012 C 
ATOM      8  C   UNL     1     147.070 142.234 138.032  1.00  0.00     0.012 C 
ENDBRANCH   5   6
ENDBRANCH   3   4
ENDBRANCH   2   3
ENDBRANCH   1   2
BRANCH   1   9
ATOM      9  C   UNL     1     145.069 139.564 142.774  1.00  0.00     0.100 C 
BRANCH   9  10
ATOM     10  C   UNL     1     144.371 140.316 143.867  1.00  0.00     0.220 C 
ATOM     11  O   UNL     1     144.390 139.861 145.043  1.00  0.00    -0.275 OA
ATOM     12  N   UNL     1     143.639 141.511 143.561  1.00  0.00    -0.352 N 
ATOM     13  H   UNL     1     143.634 141.860 142.576  1.00  0.00     0.163 HD
BRANCH  12  14
ATOM     14  C   UNL     1     142.737 142.144 144.519  1.00  0.00     0.151 C 
BRANCH  14  15
ATOM     15  C   UNL     1     142.356 143.514 144.027  1.00  0.00    -0.025 A 
ATOM     16  C   UNL     1     142.217 143.763 142.652  1.00  0.00     0.056 A 
ATOM     17  C   UNL     1     142.196 144.566 144.939  1.00  0.00     0.009 A 
ATOM     18  C   UNL     1     141.896 145.055 142.190  1.00  0.00     0.160 A 
ATOM     19  C   UNL     1     141.876 145.846 144.487  1.00  0.00     0.050 A 
ATOM     20  C   UNL     1     141.722 146.094 143.116  1.00  0.00     0.157 A 
BRANCH  18  21
ATOM     21  O   UNL     1     141.743 145.346 140.825  1.00  0.00    -0.493 OA
ATOM     22  C   UNL     1     142.817 145.422 139.892  1.00  0.00     0.278 C 
ENDBRANCH  18  21
BRANCH  20  23
ATOM     23  O   UNL     1     141.401 147.373 142.665  1.00  0.00    -0.504 OA
ATOM     24  H   UNL     1     140.466 147.750 142.760  1.00  0.00     0.293 HD
ENDBRANCH  20  23
ENDBRANCH  14  15
ENDBRANCH  12  14
ENDBRANCH   9  10
ENDBRANCH   1   9
TORSDOF 10
ENDMDL
MODEL 6
REMARK VINA RESULT:    -3.863      6.857      7.821
REMARK INTER + INTRA:          -7.446
REMARK INTER:                  -6.447
REMARK INTRA:                  -0.999
REMARK UNBOUND:                -1.437
REMARK SMILES COc1cc(CNC(=O)CCCCC=CC(C)C)ccc1O
REMARK SMILES IDX 11 1 12 2 13 3 14 4 15 5 16 6 17 7 18 8 10 9 8 10 9 11 7 12
REMARK SMILES IDX 6 14 5 15 4 16 19 17 3 18 20 19 21 20 2 21 1 22 22 23
REMARK H PARENT 7 13 22 24
REMARK Flexibility Score: inf
ROOT
ATOM      1  C   UNL     1     135.528 141.426 143.946  1.00  0.00     0.010 C 
ENDROOT
BRANCH   1   2
ATOM      2  C   UNL     1     135.643 142.165 142.608  1.00  0.00     0.005 C 
BRANCH   2   3
ATOM      3  C   UNL     1     134.326 142.087 141.824  1.00  0.00     0.027 C 
BRANCH   3   4
ATOM      4  C   UNL     1     133.807 140.673 141.776  1.00  0.00    -0.031 C 
ATOM      5  C   UNL     1     133.791 139.895 140.676  1.00  0.00    -0.028 C 
BRANCH   5   6
ATOM      6  C   UNL     1     134.347 140.289 139.324  1.00  0.00     0.005 C 
ATOM      7  C   UNL     1     135.174 139.135 138.750  1.00  0.00     0.012 C 
ATOM      8  C   UNL     1     133.197 140.651 138.379  1.00  0.00     0.012 C 
ENDBRANCH   5   6
ENDBRANCH   3   4
ENDBRANCH   2   3
ENDBRANCH   1   2
BRANCH   1   9
ATOM      9  C   UNL     1     136.492 142.011 144.983  1.00  0.00     0.100 C 
BRANCH   9  10
ATOM     10  C   UNL     1     137.905 141.657 144.634  1.00  0.00     0.220 C 
ATOM     11  O   UNL     1     138.753 142.576 144.471  1.00  0.00    -0.275 OA
ATOM     12  N   UNL     1     138.272 140.285 144.431  1.00  0.00    -0.352 N 
ATOM     13  H   UNL     1     137.547 139.545 144.565  1.00  0.00     0.163 HD
BRANCH  12  14
ATOM     14  C   UNL     1     139.553 139.894 143.848  1.00  0.00     0.151 C 
BRANCH  14  15
ATOM     15  C   UNL     1     139.529 138.429 143.507  1.00  0.00    -0.025 A 
ATOM     16  C   UNL     1     139.546 138.010 142.166  1.00  0.00     0.056 A 
ATOM     17  C   UNL     1     139.427 137.474 144.528  1.00  0.00     0.009 A 
ATOM     18  C   UNL     1     139.486 136.639 141.847  1.00  0.00     0.160 A 
ATOM     19  C   UNL     1     139.370 136.116 144.216  1.00  0.00     0.050 A 
ATOM     20  C   UNL     1     139.402 135.694 142.880  1.00  0.00     0.157 A 
BRANCH  18  21
ATOM     21  O   UNL     1     139.505 136.178 140.521  1.00  0.00    -0.493 OA
ATOM     22  C   UNL     1     138.690 136.697 139.475  1.00  0.00     0.278 C 
ENDBRANCH  18  21
BRANCH  20  23
ATOM     23  O   UNL     1     139.345 134.337 142.570  1.00  0.00    -0.504 OA
ATOM     24  H   UNL     1     139.986 133.917 141.906  1.00  0.00     0.293 HD
ENDBRANCH  20  23
ENDBRANCH  14  15
ENDBRANCH  12  14
ENDBRANCH   9  10
ENDBRANCH   1   9
TORSDOF 10
ENDMDL
MODEL 7
REMARK VINA RESULT:    -3.844      4.453      4.846
REMARK INTER + INTRA:          -7.415
REMARK INTER:                  -6.223
REMARK INTRA:                  -1.192
REMARK UNBOUND:                -1.437
REMARK SMILES COc1cc(CNC(=O)CCCCC=CC(C)C)ccc1O
REMARK SMILES IDX 11 1 12 2 13 3 14 4 15 5 16 6 17 7 18 8 10 9 8 10 9 11 7 12
REMARK SMILES IDX 6 14 5 15 4 16 19 17 3 18 20 19 21 20 2 21 1 22 22 23
REMARK H PARENT 7 13 22 24
REMARK Flexibility Score: inf
ROOT
ATOM      1  C   UNL     1     141.166 142.796 142.442  1.00  0.00     0.010 C 
ENDROOT
BRANCH   1   2
ATOM      2  C   UNL     1     142.144 143.662 143.243  1.00  0.00     0.005 C 
BRANCH   2   3
ATOM      3  C   UNL     1     141.474 144.965 143.700  1.00  0.00     0.027 C 
BRANCH   3   4
ATOM      4  C   UNL     1     142.203 146.168 143.159  1.00  0.00    -0.031 C 
ATOM      5  C   UNL     1     141.842 146.858 142.060  1.00  0.00    -0.028 C 
BRANCH   5   6
ATOM      6  C   UNL     1     140.611 146.579 141.222  1.00  0.00     0.005 C 
ATOM      7  C   UNL     1     139.860 147.887 140.957  1.00  0.00     0.012 C 
ATOM      8  C   UNL     1     141.024 145.915 139.905  1.00  0.00     0.012 C 
ENDBRANCH   5   6
ENDBRANCH   3   4
ENDBRANCH   2   3
ENDBRANCH   1   2
BRANCH   1   9
ATOM      9  C   UNL     1     139.721 143.254 142.657  1.00  0.00     0.100 C 
BRANCH   9  10
ATOM     10  C   UNL     1     139.049 142.387 143.679  1.00  0.00     0.220 C 
ATOM     11  O   UNL     1     138.622 142.904 144.747  1.00  0.00    -0.275 OA
ATOM     12  N   UNL     1     138.949 140.973 143.464  1.00  0.00    -0.352 N 
ATOM     13  H   UNL     1     139.318 140.571 142.573  1.00  0.00     0.163 HD
BRANCH  12  14
ATOM     14  C   UNL     1     138.541 140.047 144.518  1.00  0.00     0.151 C 
BRANCH  14  15
ATOM     15  C   UNL     1     138.958 138.648 144.153  1.00  0.00    -0.025 A 
ATOM     16  C   UNL     1     139.520 138.378 142.894  1.00  0.00     0.056 A 
ATOM     17  C   UNL     1     138.731 137.594 145.048  1.00  0.00     0.009 A 
ATOM     18  C   UNL     1     139.876 137.062 142.540  1.00  0.00     0.160 A 
ATOM     19  C   UNL     1     139.084 136.290 144.702  1.00  0.00     0.050 A 
ATOM     20  C   UNL     1     139.658 136.020 143.453  1.00  0.00     0.157 A 
BRANCH  18  21
ATOM     21  O   UNL     1     140.445 136.750 141.295  1.00  0.00    -0.493 OA
ATOM     22  C   UNL     1     139.711 136.640 140.079  1.00  0.00     0.278 C 
ENDBRANCH  18  21
BRANCH  20  23
ATOM     23  O   UNL     1     140.012 134.717 143.109  1.00  0.00    -0.504 OA
ATOM     24  H   UNL     1     140.570 134.518 142.287  1.00  0.00     0.293 HD
ENDBRANCH  20  23
ENDBRANCH  14  15
ENDBRANCH  12  14
ENDBRANCH   9  10
ENDBRANCH   1   9
TORSDOF 10
ENDMDL
MODEL 8
REMARK VINA RESULT:    -3.803      4.531      5.734
REMARK INTER + INTRA:          -7.352
REMARK INTER:                  -6.527
REMARK INTRA:                  -0.825
REMARK UNBOUND:                -1.437
REMARK SMILES COc1cc(CNC(=O)CCCCC=CC(C)C)ccc1O
REMARK SMILES IDX 11 1 12 2 13 3 14 4 15 5 16 6 17 7 18 8 10 9 8 10 9 11 7 12
REMARK SMILES IDX 6 14 5 15 4 16 19 17 3 18 20 19 21 20 2 21 1 22 22 23
REMARK H PARENT 7 13 22 24
REMARK Flexibility Score: inf
ROOT
ATOM      1  C   UNL     1     138.629 142.524 144.294  1.00  0.00     0.010 C 
ENDROOT
BRANCH   1   2
ATOM      2  C   UNL     1     137.341 142.657 145.115  1.00  0.00     0.005 C 
BRANCH   2   3
ATOM      3  C   UNL     1     136.157 142.009 144.384  1.00  0.00     0.027 C 
BRANCH   3   4
ATOM      4  C   UNL     1     136.531 141.633 142.973  1.00  0.00    -0.031 C 
ATOM      5  C   UNL     1     135.651 141.379 141.985  1.00  0.00    -0.028 C 
BRANCH   5   6
ATOM      6  C   UNL     1     134.146 141.489 142.110  1.00  0.00     0.005 C 
ATOM      7  C   UNL     1     133.675 142.821 141.518  1.00  0.00     0.012 C 
ATOM      8  C   UNL     1     133.481 140.313 141.388  1.00  0.00     0.012 C 
ENDBRANCH   5   6
ENDBRANCH   3   4
ENDBRANCH   2   3
ENDBRANCH   1   2
BRANCH   1   9
ATOM      9  C   UNL     1     139.748 141.888 145.125  1.00  0.00     0.100 C 
BRANCH   9  10
ATOM     10  C   UNL     1     140.485 140.870 144.308  1.00  0.00     0.220 C 
ATOM     11  O   UNL     1     140.196 140.727 143.089  1.00  0.00    -0.275 OA
ATOM     12  N   UNL     1     141.468 140.030 144.927  1.00  0.00    -0.352 N 
ATOM     13  H   UNL     1     141.681 140.165 145.940  1.00  0.00     0.163 HD
BRANCH  12  14
ATOM     14  C   UNL     1     142.033 138.861 144.257  1.00  0.00     0.151 C 
BRANCH  14  15
ATOM     15  C   UNL     1     143.434 139.167 143.800  1.00  0.00    -0.025 A 
ATOM     16  C   UNL     1     143.701 139.419 142.444  1.00  0.00     0.056 A 
ATOM     17  C   UNL     1     144.491 139.141 144.719  1.00  0.00     0.009 A 
ATOM     18  C   UNL     1     145.018 139.669 142.011  1.00  0.00     0.160 A 
ATOM     19  C   UNL     1     145.797 139.390 144.295  1.00  0.00     0.050 A 
ATOM     20  C   UNL     1     146.064 139.657 142.946  1.00  0.00     0.157 A 
BRANCH  18  21
ATOM     21  O   UNL     1     145.327 139.930 140.667  1.00  0.00    -0.493 OA
ATOM     22  C   UNL     1     144.661 140.895 139.859  1.00  0.00     0.278 C 
ENDBRANCH  18  21
BRANCH  20  23
ATOM     23  O   UNL     1     147.368 139.906 142.524  1.00  0.00    -0.504 OA
ATOM     24  H   UNL     1     147.783 139.397 141.752  1.00  0.00     0.293 HD
ENDBRANCH  20  23
ENDBRANCH  14  15
ENDBRANCH  12  14
ENDBRANCH   9  10
ENDBRANCH   1   9
TORSDOF 10
ENDMDL
MODEL 9
REMARK VINA RESULT:    -3.800      3.559      6.588
REMARK INTER + INTRA:          -7.348
REMARK INTER:                  -6.069
REMARK INTRA:                  -1.279
REMARK UNBOUND:                -1.437
REMARK SMILES COc1cc(CNC(=O)CCCCC=CC(C)C)ccc1O
REMARK SMILES IDX 11 1 12 2 13 3 14 4 15 5 16 6 17 7 18 8 10 9 8 10 9 11 7 12
REMARK SMILES IDX 6 14 5 15 4 16 19 17 3 18 20 19 21 20 2 21 1 22 22 23
REMARK H PARENT 7 13 22 24
REMARK Flexibility Score: inf
ROOT
ATOM      1  C   UNL     1     140.647 139.102 142.242  1.00  0.00     0.010 C 
ENDROOT
BRANCH   1   2
ATOM      2  C   UNL     1     139.709 138.472 143.276  1.00  0.00     0.005 C 
BRANCH   2   3
ATOM      3  C   UNL     1     138.855 139.545 143.966  1.00  0.00     0.027 C 
BRANCH   3   4
ATOM      4  C   UNL     1     138.967 140.868 143.254  1.00  0.00    -0.031 C 
ATOM      5  C   UNL     1     137.986 141.788 143.179  1.00  0.00    -0.028 C 
BRANCH   5   6
ATOM      6  C   UNL     1     136.632 141.674 143.848  1.00  0.00     0.005 C 
ATOM      7  C   UNL     1     136.615 142.519 145.125  1.00  0.00     0.012 C 
ATOM      8  C   UNL     1     135.537 142.135 142.881  1.00  0.00     0.012 C 
ENDBRANCH   5   6
ENDBRANCH   3   4
ENDBRANCH   2   3
ENDBRANCH   1   2
BRANCH   1   9
ATOM      9  C   UNL     1     142.098 138.675 142.482  1.00  0.00     0.100 C 
BRANCH   9  10
ATOM     10  C   UNL     1     142.772 139.634 143.416  1.00  0.00     0.220 C 
ATOM     11  O   UNL     1     143.518 139.190 144.330  1.00  0.00    -0.275 OA
ATOM     12  N   UNL     1     142.520 141.042 143.303  1.00  0.00    -0.352 N 
ATOM     13  H   UNL     1     141.891 141.382 142.542  1.00  0.00     0.163 HD
BRANCH  12  14
ATOM     14  C   UNL     1     142.937 141.997 144.327  1.00  0.00     0.151 C 
BRANCH  14  15
ATOM     15  C   UNL     1     142.506 143.383 143.932  1.00  0.00    -0.025 A 
ATOM     16  C   UNL     1     142.206 143.681 142.593  1.00  0.00     0.056 A 
ATOM     17  C   UNL     1     142.462 144.403 144.893  1.00  0.00     0.009 A 
ATOM     18  C   UNL     1     141.838 144.988 142.217  1.00  0.00     0.160 A 
ATOM     19  C   UNL     1     142.096 145.698 144.526  1.00  0.00     0.050 A 
ATOM     20  C   UNL     1     141.781 145.994 143.194  1.00  0.00     0.157 A 
BRANCH  18  21
ATOM     21  O   UNL     1     141.525 145.327 140.892  1.00  0.00    -0.493 OA
ATOM     22  C   UNL     1     140.293 145.014 140.249  1.00  0.00     0.278 C 
ENDBRANCH  18  21
BRANCH  20  23
ATOM     23  O   UNL     1     141.414 147.288 142.829  1.00  0.00    -0.504 OA
ATOM     24  H   UNL     1     140.731 147.816 143.360  1.00  0.00     0.293 HD
ENDBRANCH  20  23
ENDBRANCH  14  15
ENDBRANCH  12  14
ENDBRANCH   9  10
ENDBRANCH   1   9
TORSDOF 10
ENDMDL
