MODEL 1
REMARK VINA RESULT:    -3.463      0.000      0.000
REMARK INTER + INTRA:          -4.069
REMARK INTER:                  -3.970
REMARK INTRA:                  -0.099
REMARK UNBOUND:                -0.099
REMARK SMILES COc1cc(C(=O)[O-])ccc1O
REMARK SMILES IDX 5 1 9 2 4 3 10 4 3 5 11 6 6 7 7 8 8 9 2 10 1 11 12 12
REMARK H PARENT 12 13
REMARK Flexibility Score: inf
ROOT
ATOM      1  C   UNL     1     107.386 -76.134  23.928  1.00  0.00     0.001 A 
ATOM      2  C   UNL     1     106.122 -76.219  23.323  1.00  0.00     0.014 A 
ATOM      3  C   UNL     1     108.016 -74.881  24.022  1.00  0.00     0.060 A 
ATOM      4  C   UNL     1     105.499 -75.074  22.821  1.00  0.00     0.051 A 
ATOM      5  C   UNL     1     107.393 -73.721  23.518  1.00  0.00     0.161 A 
ATOM      6  C   UNL     1     106.126 -73.829  22.916  1.00  0.00     0.157 A 
ENDROOT
BRANCH   1   7
ATOM      7  C   UNL     1     108.048 -77.346  24.461  1.00  0.00     0.072 C 
ATOM      8  O   UNL     1     107.686 -78.493  24.083  1.00  0.00    -0.545 OA
ATOM      9  O   UNL     1     109.080 -77.237  25.387  1.00  0.00    -0.545 OA
ENDBRANCH   1   7
BRANCH   5  10
ATOM     10  O   UNL     1     107.998 -72.456  23.598  1.00  0.00    -0.493 OA
ATOM     11  C   UNL     1     108.912 -71.936  22.638  1.00  0.00     0.278 C 
ENDBRANCH   5  10
BRANCH   6  12
ATOM     12  O   UNL     1     105.474 -72.707  22.403  1.00  0.00    -0.504 OA
ATOM     13  H   UNL     1     104.479 -72.701  22.214  1.00  0.00     0.293 HD
ENDBRANCH   6  12
TORSDOF 3
ENDMDL
MODEL 2
REMARK VINA RESULT:    -2.950      1.405      4.308
REMARK INTER + INTRA:          -3.480
REMARK INTER:                  -3.396
REMARK INTRA:                  -0.084
REMARK UNBOUND:                -0.099
REMARK SMILES COc1cc(C(=O)[O-])ccc1O
REMARK SMILES IDX 5 1 9 2 4 3 10 4 3 5 11 6 6 7 7 8 8 9 2 10 1 11 12 12
REMARK H PARENT 12 13
REMARK Flexibility Score: inf
ROOT
ATOM      1  C   UNL     1     106.668 -74.125  23.245  1.00  0.00     0.001 A 
ATOM      2  C   UNL     1     106.220 -74.472  21.960  1.00  0.00     0.014 A 
ATOM      3  C   UNL     1     107.276 -75.109  24.046  1.00  0.00     0.060 A 
ATOM      4  C   UNL     1     106.375 -75.776  21.485  1.00  0.00     0.051 A 
ATOM      5  C   UNL     1     107.436 -76.427  23.571  1.00  0.00     0.161 A 
ATOM      6  C   UNL     1     106.980 -76.752  22.281  1.00  0.00     0.157 A 
ENDROOT
BRANCH   1   7
ATOM      7  C   UNL     1     106.505 -72.744  23.752  1.00  0.00     0.072 C 
ATOM      8  O   UNL     1     106.093 -71.827  22.991  1.00  0.00    -0.545 OA
ATOM      9  O   UNL     1     106.804 -72.438  25.074  1.00  0.00    -0.545 OA
ENDBRANCH   1   7
BRANCH   5  10
ATOM     10  O   UNL     1     108.039 -77.429  24.348  1.00  0.00    -0.493 OA
ATOM     11  C   UNL     1     109.122 -77.214  25.247  1.00  0.00     0.278 C 
ENDBRANCH   5  10
BRANCH   6  12
ATOM     12  O   UNL     1     107.117 -78.044  21.772  1.00  0.00    -0.504 OA
ATOM     13  H   UNL     1     107.459 -78.221  20.836  1.00  0.00     0.293 HD
ENDBRANCH   6  12
TORSDOF 3
ENDMDL
MODEL 3
REMARK VINA RESULT:    -2.470      1.577      4.154
REMARK INTER + INTRA:          -2.930
REMARK INTER:                  -2.856
REMARK INTRA:                  -0.074
REMARK UNBOUND:                -0.099
REMARK SMILES COc1cc(C(=O)[O-])ccc1O
REMARK SMILES IDX 5 1 9 2 4 3 10 4 3 5 11 6 6 7 7 8 8 9 2 10 1 11 12 12
REMARK H PARENT 12 13
REMARK Flexibility Score: inf
ROOT
ATOM      1  C   UNL     1     107.476 -73.356  23.640  1.00  0.00     0.001 A 
ATOM      2  C   UNL     1     106.207 -73.010  23.149  1.00  0.00     0.014 A 
ATOM      3  C   UNL     1     107.764 -74.709  23.895  1.00  0.00     0.060 A 
ATOM      4  C   UNL     1     105.245 -73.995  22.917  1.00  0.00     0.051 A 
ATOM      5  C   UNL     1     106.798 -75.709  23.663  1.00  0.00     0.161 A 
ATOM      6  C   UNL     1     105.532 -75.339  23.170  1.00  0.00     0.157 A 
ENDROOT
BRANCH   1   7
ATOM      7  C   UNL     1     108.497 -72.314  23.886  1.00  0.00     0.072 C 
ATOM      8  O   UNL     1     108.828 -72.006  25.063  1.00  0.00    -0.545 OA
ATOM      9  O   UNL     1     109.108 -71.659  22.823  1.00  0.00    -0.545 OA
ENDBRANCH   1   7
BRANCH   5  10
ATOM     10  O   UNL     1     107.057 -77.066  23.908  1.00  0.00    -0.493 OA
ATOM     11  C   UNL     1     108.129 -77.552  24.710  1.00  0.00     0.278 C 
ENDBRANCH   5  10
BRANCH   6  12
ATOM     12  O   UNL     1     104.547 -76.295  22.927  1.00  0.00    -0.504 OA
ATOM     13  H   UNL     1     104.252 -76.958  23.634  1.00  0.00     0.293 HD
ENDBRANCH   6  12
TORSDOF 3
ENDMDL
MODEL 4
REMARK VINA RESULT:    -0.697      1.162      2.843
REMARK INTER + INTRA:          -0.897
REMARK INTER:                  -0.809
REMARK INTRA:                  -0.089
REMARK UNBOUND:                -0.099
REMARK SMILES COc1cc(C(=O)[O-])ccc1O
REMARK SMILES IDX 5 1 9 2 4 3 10 4 3 5 11 6 6 7 7 8 8 9 2 10 1 11 12 12
REMARK H PARENT 12 13
REMARK Flexibility Score: inf
ROOT
ATOM      1  C   UNL     1     107.649 -76.059  24.236  1.00  0.00     0.001 A 
ATOM      2  C   UNL     1     108.485 -74.932  24.186  1.00  0.00     0.014 A 
ATOM      3  C   UNL     1     106.279 -75.907  23.953  1.00  0.00     0.060 A 
ATOM      4  C   UNL     1     107.963 -73.678  23.861  1.00  0.00     0.051 A 
ATOM      5  C   UNL     1     105.747 -74.644  23.624  1.00  0.00     0.161 A 
ATOM      6  C   UNL     1     106.603 -73.528  23.579  1.00  0.00     0.157 A 
ENDROOT
BRANCH   1   7
ATOM      7  C   UNL     1     108.199 -77.389  24.580  1.00  0.00     0.072 C 
ATOM      8  O   UNL     1     109.125 -77.500  25.427  1.00  0.00    -0.545 OA
ATOM      9  O   UNL     1     107.701 -78.537  23.973  1.00  0.00    -0.545 OA
ENDBRANCH   1   7
BRANCH   5  10
ATOM     10  O   UNL     1     104.384 -74.462  23.337  1.00  0.00    -0.493 OA
ATOM     11  C   UNL     1     103.318 -74.885  24.180  1.00  0.00     0.278 C 
ENDBRANCH   5  10
BRANCH   6  12
ATOM     12  O   UNL     1     106.118 -72.260  23.259  1.00  0.00    -0.504 OA
ATOM     13  H   UNL     1     105.145 -72.096  23.030  1.00  0.00     0.293 HD
ENDBRANCH   6  12
TORSDOF 3
ENDMDL
