MODEL 1
REMARK VINA RESULT:    -7.695      0.000      0.000
REMARK INTER + INTRA:          -8.373
REMARK INTER:                  -8.145
REMARK INTRA:                  -0.228
REMARK UNBOUND:                -0.228
REMARK SMILES O=c1cc(-c2ccccc2)oc2ccccc12
REMARK SMILES IDX 4 1 3 2 2 3 1 4 17 5 16 6 15 7 14 8 13 9 12 10 11 11 5 12
REMARK SMILES IDX 8 13 7 14 9 15 6 16 10 17
REMARK H PARENT
REMARK Flexibility Score: inf
ROOT
ATOM      1  C   UNL     1     -35.058  -5.252 -16.407  1.00  0.00     0.138 A 
ATOM      2  C   UNL     1     -35.729  -4.464 -17.366  1.00  0.00     0.100 A 
ATOM      3  C   UNL     1     -35.007  -3.541 -18.125  1.00  0.00     0.193 A 
ATOM      4  O   UNL     1     -35.607  -2.838 -18.984  1.00  0.00    -0.289 OA
ATOM      5  C   UNL     1     -33.626  -3.410 -17.923  1.00  0.00     0.065 A 
ATOM      6  C   UNL     1     -32.839  -2.500 -18.655  1.00  0.00     0.016 A 
ATOM      7  C   UNL     1     -31.466  -2.411 -18.413  1.00  0.00     0.001 A 
ATOM      8  C   UNL     1     -30.867  -3.224 -17.445  1.00  0.00     0.004 A 
ATOM      9  C   UNL     1     -31.641  -4.130 -16.714  1.00  0.00     0.048 A 
ATOM     10  C   UNL     1     -33.016  -4.229 -16.948  1.00  0.00     0.138 A 
ATOM     11  O   UNL     1     -33.743  -5.093 -16.249  1.00  0.00    -0.456 OA
ENDROOT
BRANCH   1  12
ATOM     12  C   UNL     1     -35.754  -6.263 -15.553  1.00  0.00     0.017 A 
ATOM     13  C   UNL     1     -37.084  -8.226 -14.022  1.00  0.00     0.000 A 
ATOM     14  C   UNL     1     -36.932  -8.398 -15.397  1.00  0.00     0.001 A 
ATOM     15  C   UNL     1     -36.578  -7.083 -13.403  1.00  0.00     0.001 A 
ATOM     16  C   UNL     1     -36.274  -7.428 -16.157  1.00  0.00     0.012 A 
ATOM     17  C   UNL     1     -35.919  -6.108 -14.157  1.00  0.00     0.012 A 
ENDBRANCH   1  12
TORSDOF 1
ENDMDL
MODEL 2
REMARK VINA RESULT:    -7.321      1.626      6.016
REMARK INTER + INTRA:          -7.977
REMARK INTER:                  -7.734
REMARK INTRA:                  -0.242
REMARK UNBOUND:                -0.228
REMARK SMILES O=c1cc(-c2ccccc2)oc2ccccc12
REMARK SMILES IDX 4 1 3 2 2 3 1 4 17 5 16 6 15 7 14 8 13 9 12 10 11 11 5 12
REMARK SMILES IDX 8 13 7 14 9 15 6 16 10 17
REMARK H PARENT
REMARK Flexibility Score: inf
ROOT
ATOM      1  C   UNL     1     -34.282  -3.577 -18.428  1.00  0.00     0.138 A 
ATOM      2  C   UNL     1     -35.406  -2.769 -18.699  1.00  0.00     0.100 A 
ATOM      3  C   UNL     1     -36.670  -3.182 -18.273  1.00  0.00     0.193 A 
ATOM      4  O   UNL     1     -37.675  -2.459 -18.515  1.00  0.00    -0.289 OA
ATOM      5  C   UNL     1     -36.804  -4.395 -17.582  1.00  0.00     0.065 A 
ATOM      6  C   UNL     1     -38.047  -4.869 -17.125  1.00  0.00     0.016 A 
ATOM      7  C   UNL     1     -38.123  -6.086 -16.441  1.00  0.00     0.001 A 
ATOM      8  C   UNL     1     -36.966  -6.835 -16.207  1.00  0.00     0.004 A 
ATOM      9  C   UNL     1     -35.726  -6.371 -16.658  1.00  0.00     0.048 A 
ATOM     10  C   UNL     1     -35.639  -5.156 -17.343  1.00  0.00     0.138 A 
ATOM     11  O   UNL     1     -34.456  -4.723 -17.768  1.00  0.00    -0.456 OA
ENDROOT
BRANCH   1  12
ATOM     12  C   UNL     1     -32.895  -3.209 -18.848  1.00  0.00     0.017 A 
ATOM     13  C   UNL     1     -30.312  -2.491 -19.731  1.00  0.00     0.000 A 
ATOM     14  C   UNL     1     -31.394  -2.417 -20.607  1.00  0.00     0.001 A 
ATOM     15  C   UNL     1     -30.507  -2.919 -18.418  1.00  0.00     0.001 A 
ATOM     16  C   UNL     1     -32.674  -2.772 -20.172  1.00  0.00     0.012 A 
ATOM     17  C   UNL     1     -31.784  -3.276 -17.976  1.00  0.00     0.012 A 
ENDBRANCH   1  12
TORSDOF 1
ENDMDL
MODEL 3
REMARK VINA RESULT:    -7.176      1.321      6.158
REMARK INTER + INTRA:          -7.824
REMARK INTER:                  -7.600
REMARK INTRA:                  -0.224
REMARK UNBOUND:                -0.228
REMARK SMILES O=c1cc(-c2ccccc2)oc2ccccc12
REMARK SMILES IDX 4 1 3 2 2 3 1 4 17 5 16 6 15 7 14 8 13 9 12 10 11 11 5 12
REMARK SMILES IDX 8 13 7 14 9 15 6 16 10 17
REMARK H PARENT
REMARK Flexibility Score: inf
ROOT
ATOM      1  C   UNL     1     -34.484  -4.592 -16.150  1.00  0.00     0.138 A 
ATOM      2  C   UNL     1     -34.755  -4.027 -14.885  1.00  0.00     0.100 A 
ATOM      3  C   UNL     1     -35.605  -4.694 -14.001  1.00  0.00     0.193 A 
ATOM      4  O   UNL     1     -35.847  -4.189 -12.871  1.00  0.00    -0.289 OA
ATOM      5  C   UNL     1     -36.177  -5.916 -14.383  1.00  0.00     0.065 A 
ATOM      6  C   UNL     1     -37.041  -6.640 -13.540  1.00  0.00     0.016 A 
ATOM      7  C   UNL     1     -37.584  -7.854 -13.971  1.00  0.00     0.001 A 
ATOM      8  C   UNL     1     -37.271  -8.354 -15.238  1.00  0.00     0.004 A 
ATOM      9  C   UNL     1     -36.414  -7.641 -16.082  1.00  0.00     0.048 A 
ATOM     10  C   UNL     1     -35.865  -6.426 -15.661  1.00  0.00     0.138 A 
ATOM     11  O   UNL     1     -35.051  -5.756 -16.470  1.00  0.00    -0.456 OA
ENDROOT
BRANCH   1  12
ATOM     12  C   UNL     1     -33.586  -3.944 -17.155  1.00  0.00     0.017 A 
ATOM     13  C   UNL     1     -31.813  -2.743 -18.994  1.00  0.00     0.000 A 
ATOM     14  C   UNL     1     -31.321  -3.318 -17.824  1.00  0.00     0.001 A 
ATOM     15  C   UNL     1     -33.184  -2.763 -19.256  1.00  0.00     0.001 A 
ATOM     16  C   UNL     1     -32.196  -3.913 -16.912  1.00  0.00     0.012 A 
ATOM     17  C   UNL     1     -34.066  -3.356 -18.348  1.00  0.00     0.012 A 
ENDBRANCH   1  12
TORSDOF 1
ENDMDL
MODEL 4
REMARK VINA RESULT:    -7.030      2.570      3.998
REMARK INTER + INTRA:          -7.669
REMARK INTER:                  -7.418
REMARK INTRA:                  -0.251
REMARK UNBOUND:                -0.228
REMARK SMILES O=c1cc(-c2ccccc2)oc2ccccc12
REMARK SMILES IDX 4 1 3 2 2 3 1 4 17 5 16 6 15 7 14 8 13 9 12 10 11 11 5 12
REMARK SMILES IDX 8 13 7 14 9 15 6 16 10 17
REMARK H PARENT
REMARK Flexibility Score: inf
ROOT
ATOM      1  C   UNL     1     -34.567  -3.483 -18.161  1.00  0.00     0.138 A 
ATOM      2  C   UNL     1     -33.712  -3.962 -17.145  1.00  0.00     0.100 A 
ATOM      3  C   UNL     1     -32.329  -3.848 -17.299  1.00  0.00     0.193 A 
ATOM      4  O   UNL     1     -31.565  -4.275 -16.391  1.00  0.00    -0.289 OA
ATOM      5  C   UNL     1     -31.810  -3.261 -18.462  1.00  0.00     0.065 A 
ATOM      6  C   UNL     1     -30.427  -3.117 -18.680  1.00  0.00     0.016 A 
ATOM      7  C   UNL     1     -29.963  -2.524 -19.858  1.00  0.00     0.001 A 
ATOM      8  C   UNL     1     -30.869  -2.072 -20.822  1.00  0.00     0.004 A 
ATOM      9  C   UNL     1     -32.244  -2.212 -20.614  1.00  0.00     0.048 A 
ATOM     10  C   UNL     1     -32.720  -2.804 -19.439  1.00  0.00     0.138 A 
ATOM     11  O   UNL     1     -34.028  -2.932 -19.249  1.00  0.00    -0.456 OA
ENDROOT
BRANCH   1  12
ATOM     12  C   UNL     1     -36.058  -3.565 -18.075  1.00  0.00     0.017 A 
ATOM     13  C   UNL     1     -38.862  -3.806 -17.865  1.00  0.00     0.000 A 
ATOM     14  C   UNL     1     -38.036  -4.808 -17.357  1.00  0.00     0.001 A 
ATOM     15  C   UNL     1     -38.301  -2.684 -18.476  1.00  0.00     0.001 A 
ATOM     16  C   UNL     1     -36.647  -4.691 -17.460  1.00  0.00     0.012 A 
ATOM     17  C   UNL     1     -36.913  -2.560 -18.582  1.00  0.00     0.012 A 
ENDBRANCH   1  12
TORSDOF 1
ENDMDL
MODEL 5
REMARK VINA RESULT:    -7.023      2.523      6.814
REMARK INTER + INTRA:          -7.661
REMARK INTER:                  -7.401
REMARK INTRA:                  -0.261
REMARK UNBOUND:                -0.228
REMARK SMILES O=c1cc(-c2ccccc2)oc2ccccc12
REMARK SMILES IDX 4 1 3 2 2 3 1 4 17 5 16 6 15 7 14 8 13 9 12 10 11 11 5 12
REMARK SMILES IDX 8 13 7 14 9 15 6 16 10 17
REMARK H PARENT
REMARK Flexibility Score: inf
ROOT
ATOM      1  C   UNL     1     -36.716  -5.691 -16.267  1.00  0.00     0.138 A 
ATOM      2  C   UNL     1     -36.314  -7.015 -15.987  1.00  0.00     0.100 A 
ATOM      3  C   UNL     1     -37.093  -7.806 -15.140  1.00  0.00     0.193 A 
ATOM      4  O   UNL     1     -36.734  -8.989 -14.891  1.00  0.00    -0.289 OA
ATOM      5  C   UNL     1     -38.263  -7.274 -14.580  1.00  0.00     0.065 A 
ATOM      6  C   UNL     1     -39.093  -8.017 -13.720  1.00  0.00     0.016 A 
ATOM      7  C   UNL     1     -40.249  -7.437 -13.189  1.00  0.00     0.001 A 
ATOM      8  C   UNL     1     -40.585  -6.118 -13.511  1.00  0.00     0.004 A 
ATOM      9  C   UNL     1     -39.767  -5.373 -14.364  1.00  0.00     0.048 A 
ATOM     10  C   UNL     1     -38.608  -5.943 -14.901  1.00  0.00     0.138 A 
ATOM     11  O   UNL     1     -37.837  -5.227 -15.712  1.00  0.00    -0.456 OA
ENDROOT
BRANCH   1  12
ATOM     12  C   UNL     1     -35.941  -4.778 -17.163  1.00  0.00     0.017 A 
ATOM     13  C   UNL     1     -34.398  -3.111 -18.838  1.00  0.00     0.000 A 
ATOM     14  C   UNL     1     -33.814  -4.221 -18.229  1.00  0.00     0.001 A 
ATOM     15  C   UNL     1     -35.746  -2.826 -18.620  1.00  0.00     0.001 A 
ATOM     16  C   UNL     1     -34.576  -5.047 -17.399  1.00  0.00     0.012 A 
ATOM     17  C   UNL     1     -36.515  -3.649 -17.791  1.00  0.00     0.012 A 
ENDBRANCH   1  12
TORSDOF 1
ENDMDL
MODEL 6
REMARK VINA RESULT:    -7.010      4.779      7.375
REMARK INTER + INTRA:          -7.649
REMARK INTER:                  -7.401
REMARK INTRA:                  -0.247
REMARK UNBOUND:                -0.228
REMARK SMILES O=c1cc(-c2ccccc2)oc2ccccc12
REMARK SMILES IDX 4 1 3 2 2 3 1 4 17 5 16 6 15 7 14 8 13 9 12 10 11 11 5 12
REMARK SMILES IDX 8 13 7 14 9 15 6 16 10 17
REMARK H PARENT
REMARK Flexibility Score: inf
ROOT
ATOM      1  C   UNL     1     -39.811  -5.539 -12.568  1.00  0.00     0.138 A 
ATOM      2  C   UNL     1     -40.529  -6.743 -12.730  1.00  0.00     0.100 A 
ATOM      3  C   UNL     1     -40.018  -7.742 -13.561  1.00  0.00     0.193 A 
ATOM      4  O   UNL     1     -40.659  -8.819 -13.705  1.00  0.00    -0.289 OA
ATOM      5  C   UNL     1     -38.799  -7.535 -14.222  1.00  0.00     0.065 A 
ATOM      6  C   UNL     1     -38.229  -8.500 -15.073  1.00  0.00     0.016 A 
ATOM      7  C   UNL     1     -37.011  -8.240 -15.708  1.00  0.00     0.001 A 
ATOM      8  C   UNL     1     -36.355  -7.023 -15.501  1.00  0.00     0.004 A 
ATOM      9  C   UNL     1     -36.915  -6.059 -14.658  1.00  0.00     0.048 A 
ATOM     10  C   UNL     1     -38.133  -6.308 -14.017  1.00  0.00     0.138 A 
ATOM     11  O   UNL     1     -38.657  -5.385 -13.217  1.00  0.00    -0.456 OA
ENDROOT
BRANCH   1  12
ATOM     12  C   UNL     1     -40.287  -4.419 -11.698  1.00  0.00     0.017 A 
ATOM     13  C   UNL     1     -41.211  -2.374  -9.988  1.00  0.00     0.000 A 
ATOM     14  C   UNL     1     -41.316  -3.708  -9.599  1.00  0.00     0.001 A 
ATOM     15  C   UNL     1     -40.649  -2.050 -11.223  1.00  0.00     0.001 A 
ATOM     16  C   UNL     1     -40.858  -4.723 -10.444  1.00  0.00     0.012 A 
ATOM     17  C   UNL     1     -40.189  -3.060 -12.074  1.00  0.00     0.012 A 
ENDBRANCH   1  12
TORSDOF 1
ENDMDL
MODEL 7
REMARK VINA RESULT:    -6.968      1.430      5.798
REMARK INTER + INTRA:          -7.604
REMARK INTER:                  -7.346
REMARK INTRA:                  -0.258
REMARK UNBOUND:                -0.228
REMARK SMILES O=c1cc(-c2ccccc2)oc2ccccc12
REMARK SMILES IDX 4 1 3 2 2 3 1 4 17 5 16 6 15 7 14 8 13 9 12 10 11 11 5 12
REMARK SMILES IDX 8 13 7 14 9 15 6 16 10 17
REMARK H PARENT
REMARK Flexibility Score: inf
ROOT
ATOM      1  C   UNL     1     -34.697  -4.585 -17.243  1.00  0.00     0.138 A 
ATOM      2  C   UNL     1     -35.878  -3.843 -17.460  1.00  0.00     0.100 A 
ATOM      3  C   UNL     1     -37.116  -4.423 -17.179  1.00  0.00     0.193 A 
ATOM      4  O   UNL     1     -38.171  -3.758 -17.372  1.00  0.00    -0.289 OA
ATOM      5  C   UNL     1     -37.170  -5.734 -16.687  1.00  0.00     0.065 A 
ATOM      6  C   UNL     1     -38.384  -6.377 -16.384  1.00  0.00     0.016 A 
ATOM      7  C   UNL     1     -38.380  -7.686 -15.895  1.00  0.00     0.001 A 
ATOM      8  C   UNL     1     -37.171  -8.362 -15.704  1.00  0.00     0.004 A 
ATOM      9  C   UNL     1     -35.959  -7.731 -16.003  1.00  0.00     0.048 A 
ATOM     10  C   UNL     1     -35.952  -6.421 -16.493  1.00  0.00     0.138 A 
ATOM     11  O   UNL     1     -34.796  -5.830 -16.774  1.00  0.00    -0.456 OA
ENDROOT
BRANCH   1  12
ATOM     12  C   UNL     1     -33.332  -4.040 -17.517  1.00  0.00     0.017 A 
ATOM     13  C   UNL     1     -30.795  -2.949 -18.099  1.00  0.00     0.000 A 
ATOM     14  C   UNL     1     -31.929  -2.466 -18.751  1.00  0.00     0.001 A 
ATOM     15  C   UNL     1     -30.916  -3.971 -17.158  1.00  0.00     0.001 A 
ATOM     16  C   UNL     1     -33.186  -3.005 -18.465  1.00  0.00     0.012 A 
ATOM     17  C   UNL     1     -32.170  -4.515 -16.866  1.00  0.00     0.012 A 
ENDBRANCH   1  12
TORSDOF 1
ENDMDL
MODEL 8
REMARK VINA RESULT:    -6.938      5.024      7.815
REMARK INTER + INTRA:          -7.572
REMARK INTER:                  -7.345
REMARK INTRA:                  -0.227
REMARK UNBOUND:                -0.228
REMARK SMILES O=c1cc(-c2ccccc2)oc2ccccc12
REMARK SMILES IDX 4 1 3 2 2 3 1 4 17 5 16 6 15 7 14 8 13 9 12 10 11 11 5 12
REMARK SMILES IDX 8 13 7 14 9 15 6 16 10 17
REMARK H PARENT
REMARK Flexibility Score: inf
ROOT
ATOM      1  C   UNL     1     -38.010  -4.613 -12.728  1.00  0.00     0.138 A 
ATOM      2  C   UNL     1     -36.993  -5.374 -13.344  1.00  0.00     0.100 A 
ATOM      3  C   UNL     1     -37.283  -6.656 -13.815  1.00  0.00     0.193 A 
ATOM      4  O   UNL     1     -36.375  -7.336 -14.367  1.00  0.00    -0.289 OA
ATOM      5  C   UNL     1     -38.580  -7.169 -13.670  1.00  0.00     0.065 A 
ATOM      6  C   UNL     1     -38.939  -8.452 -14.123  1.00  0.00     0.016 A 
ATOM      7  C   UNL     1     -40.247  -8.914 -13.952  1.00  0.00     0.001 A 
ATOM      8  C   UNL     1     -41.203  -8.104 -13.332  1.00  0.00     0.004 A 
ATOM      9  C   UNL     1     -40.856  -6.828 -12.879  1.00  0.00     0.048 A 
ATOM     10  C   UNL     1     -39.550  -6.356 -13.045  1.00  0.00     0.138 A 
ATOM     11  O   UNL     1     -39.229  -5.142 -12.611  1.00  0.00    -0.456 OA
ENDROOT
BRANCH   1  12
ATOM     12  C   UNL     1     -37.784  -3.234 -12.196  1.00  0.00     0.017 A 
ATOM     13  C   UNL     1     -37.367  -0.666 -11.100  1.00  0.00     0.000 A 
ATOM     14  C   UNL     1     -37.584  -1.757 -10.260  1.00  0.00     0.001 A 
ATOM     15  C   UNL     1     -37.355  -0.846 -12.484  1.00  0.00     0.001 A 
ATOM     16  C   UNL     1     -37.791  -3.029 -10.799  1.00  0.00     0.012 A 
ATOM     17  C   UNL     1     -37.561  -2.116 -13.031  1.00  0.00     0.012 A 
ENDBRANCH   1  12
TORSDOF 1
ENDMDL
MODEL 9
REMARK VINA RESULT:    -6.871      2.277      6.375
REMARK INTER + INTRA:          -7.501
REMARK INTER:                  -7.259
REMARK INTRA:                  -0.242
REMARK UNBOUND:                -0.228
REMARK SMILES O=c1cc(-c2ccccc2)oc2ccccc12
REMARK SMILES IDX 4 1 3 2 2 3 1 4 17 5 16 6 15 7 14 8 13 9 12 10 11 11 5 12
REMARK SMILES IDX 8 13 7 14 9 15 6 16 10 17
REMARK H PARENT
REMARK Flexibility Score: inf
ROOT
ATOM      1  C   UNL     1     -34.397  -3.816 -18.330  1.00  0.00     0.138 A 
ATOM      2  C   UNL     1     -34.559  -5.032 -17.633  1.00  0.00     0.100 A 
ATOM      3  C   UNL     1     -35.835  -5.425 -17.223  1.00  0.00     0.193 A 
ATOM      4  O   UNL     1     -35.980  -6.513 -16.601  1.00  0.00    -0.289 OA
ATOM      5  C   UNL     1     -36.936  -4.605 -17.508  1.00  0.00     0.065 A 
ATOM      6  C   UNL     1     -38.247  -4.941 -17.123  1.00  0.00     0.016 A 
ATOM      7  C   UNL     1     -39.308  -4.087 -17.433  1.00  0.00     0.001 A 
ATOM      8  C   UNL     1     -39.073  -2.896 -18.127  1.00  0.00     0.004 A 
ATOM      9  C   UNL     1     -37.773  -2.553 -18.513  1.00  0.00     0.048 A 
ATOM     10  C   UNL     1     -36.704  -3.401 -18.208  1.00  0.00     0.138 A 
ATOM     11  O   UNL     1     -35.472  -3.068 -18.580  1.00  0.00    -0.456 OA
ENDROOT
BRANCH   1  12
ATOM     12  C   UNL     1     -33.068  -3.322 -18.806  1.00  0.00     0.017 A 
ATOM     13  C   UNL     1     -30.521  -2.411 -19.613  1.00  0.00     0.000 A 
ATOM     14  C   UNL     1     -30.714  -2.885 -18.316  1.00  0.00     0.001 A 
ATOM     15  C   UNL     1     -31.588  -2.389 -20.512  1.00  0.00     0.001 A 
ATOM     16  C   UNL     1     -31.973  -3.337 -17.914  1.00  0.00     0.012 A 
ATOM     17  C   UNL     1     -32.852  -2.839 -20.116  1.00  0.00     0.012 A 
ENDBRANCH   1  12
TORSDOF 1
ENDMDL
