MODEL 1
REMARK VINA RESULT:    -3.607      0.000      0.000
REMARK INTER + INTRA:          -4.218
REMARK INTER:                  -4.134
REMARK INTRA:                  -0.084
REMARK UNBOUND:                -0.084
REMARK SMILES COc1cc(C(=O)[O-])ccc1O
REMARK SMILES IDX 5 1 9 2 4 3 10 4 3 5 11 6 6 7 7 8 8 9 2 10 1 11 12 12
REMARK H PARENT 12 13
REMARK Flexibility Score: inf
ROOT
ATOM      1  C   UNL     1      -8.860   0.850  37.469  1.00  0.00     0.001 A 
ATOM      2  C   UNL     1      -8.443   0.755  36.131  1.00  0.00     0.014 A 
ATOM      3  C   UNL     1      -9.662   1.938  37.859  1.00  0.00     0.060 A 
ATOM      4  C   UNL     1      -8.820   1.726  35.202  1.00  0.00     0.051 A 
ATOM      5  C   UNL     1     -10.044   2.921  36.925  1.00  0.00     0.161 A 
ATOM      6  C   UNL     1      -9.617   2.808  35.594  1.00  0.00     0.157 A 
ENDROOT
BRANCH   1   7
ATOM      7  C   UNL     1      -8.462  -0.178  38.456  1.00  0.00     0.072 C 
ATOM      8  O   UNL     1      -7.264  -0.271  38.837  1.00  0.00    -0.545 OA
ATOM      9  O   UNL     1      -9.404  -1.057  38.978  1.00  0.00    -0.545 OA
ENDBRANCH   1   7
BRANCH   5  10
ATOM     10  O   UNL     1     -10.843   4.020  37.278  1.00  0.00    -0.493 OA
ATOM     11  C   UNL     1     -10.641   4.827  38.435  1.00  0.00     0.278 C 
ENDBRANCH   5  10
BRANCH   6  12
ATOM     12  O   UNL     1      -9.993   3.777  34.665  1.00  0.00    -0.504 OA
ATOM     13  H   UNL     1     -10.165   3.543  33.694  1.00  0.00     0.293 HD
ENDBRANCH   6  12
TORSDOF 3
ENDMDL
MODEL 2
REMARK VINA RESULT:    -3.582     23.587     25.020
REMARK INTER + INTRA:          -4.190
REMARK INTER:                  -4.097
REMARK INTRA:                  -0.093
REMARK UNBOUND:                -0.084
REMARK SMILES COc1cc(C(=O)[O-])ccc1O
REMARK SMILES IDX 5 1 9 2 4 3 10 4 3 5 11 6 6 7 7 8 8 9 2 10 1 11 12 12
REMARK H PARENT 12 13
REMARK Flexibility Score: inf
ROOT
ATOM      1  C   UNL     1       3.042  15.701  20.542  1.00  0.00     0.001 A 
ATOM      2  C   UNL     1       4.183  15.620  19.728  1.00  0.00     0.014 A 
ATOM      3  C   UNL     1       3.193  15.634  21.940  1.00  0.00     0.060 A 
ATOM      4  C   UNL     1       5.449  15.475  20.298  1.00  0.00     0.051 A 
ATOM      5  C   UNL     1       4.469  15.488  22.519  1.00  0.00     0.161 A 
ATOM      6  C   UNL     1       5.596  15.409  21.688  1.00  0.00     0.157 A 
ENDROOT
BRANCH   1   7
ATOM      7  C   UNL     1       1.698  15.854  19.942  1.00  0.00     0.072 C 
ATOM      8  O   UNL     1       1.401  15.253  18.875  1.00  0.00    -0.545 OA
ATOM      9  O   UNL     1       0.743  16.664  20.546  1.00  0.00    -0.545 OA
ENDBRANCH   1   7
BRANCH   5  10
ATOM     10  O   UNL     1       4.658  15.418  23.908  1.00  0.00    -0.493 OA
ATOM     11  C   UNL     1       4.214  16.405  24.834  1.00  0.00     0.278 C 
ENDBRANCH   5  10
BRANCH   6  12
ATOM     12  O   UNL     1       6.861  15.264  22.256  1.00  0.00    -0.504 OA
ATOM     13  H   UNL     1       7.645  14.906  21.721  1.00  0.00     0.293 HD
ENDBRANCH   6  12
TORSDOF 3
ENDMDL
MODEL 3
REMARK VINA RESULT:    -3.415      2.126      2.934
REMARK INTER + INTRA:          -3.998
REMARK INTER:                  -3.895
REMARK INTRA:                  -0.103
REMARK UNBOUND:                -0.084
REMARK SMILES COc1cc(C(=O)[O-])ccc1O
REMARK SMILES IDX 5 1 9 2 4 3 10 4 3 5 11 6 6 7 7 8 8 9 2 10 1 11 12 12
REMARK H PARENT 12 13
REMARK Flexibility Score: inf
ROOT
ATOM      1  C   UNL     1      -9.845  -0.412  37.432  1.00  0.00     0.001 A 
ATOM      2  C   UNL     1      -9.053   0.021  38.509  1.00  0.00     0.014 A 
ATOM      3  C   UNL     1      -9.966   0.411  36.298  1.00  0.00     0.060 A 
ATOM      4  C   UNL     1      -8.396   1.251  38.452  1.00  0.00     0.051 A 
ATOM      5  C   UNL     1      -9.305   1.654  36.237  1.00  0.00     0.161 A 
ATOM      6  C   UNL     1      -8.519   2.068  37.322  1.00  0.00     0.157 A 
ENDROOT
BRANCH   1   7
ATOM      7  C   UNL     1     -10.543  -1.715  37.488  1.00  0.00     0.072 C 
ATOM      8  O   UNL     1     -10.993  -2.247  36.438  1.00  0.00    -0.545 OA
ATOM      9  O   UNL     1     -10.715  -2.372  38.702  1.00  0.00    -0.545 OA
ENDBRANCH   1   7
BRANCH   5  10
ATOM     10  O   UNL     1      -9.402   2.501  35.122  1.00  0.00    -0.493 OA
ATOM     11  C   UNL     1     -10.554   3.271  34.792  1.00  0.00     0.278 C 
ENDBRANCH   5  10
BRANCH   6  12
ATOM     12  O   UNL     1      -7.862   3.296  37.268  1.00  0.00    -0.504 OA
ATOM     13  H   UNL     1      -7.354   3.662  38.065  1.00  0.00     0.293 HD
ENDBRANCH   6  12
TORSDOF 3
ENDMDL
MODEL 4
REMARK VINA RESULT:    -3.411     11.024     13.557
REMARK INTER + INTRA:          -3.994
REMARK INTER:                  -3.909
REMARK INTRA:                  -0.084
REMARK UNBOUND:                -0.084
REMARK SMILES COc1cc(C(=O)[O-])ccc1O
REMARK SMILES IDX 5 1 9 2 4 3 10 4 3 5 11 6 6 7 7 8 8 9 2 10 1 11 12 12
REMARK H PARENT 12 13
REMARK Flexibility Score: inf
ROOT
ATOM      1  C   UNL     1     -10.024  13.909  30.903  1.00  0.00     0.001 A 
ATOM      2  C   UNL     1     -10.440  12.580  30.715  1.00  0.00     0.014 A 
ATOM      3  C   UNL     1      -8.995  14.179  31.824  1.00  0.00     0.060 A 
ATOM      4  C   UNL     1      -9.841  11.543  31.432  1.00  0.00     0.051 A 
ATOM      5  C   UNL     1      -8.387  13.135  32.549  1.00  0.00     0.161 A 
ATOM      6  C   UNL     1      -8.817  11.816  32.347  1.00  0.00     0.157 A 
ENDROOT
BRANCH   1   7
ATOM      7  C   UNL     1     -10.658  15.011  30.145  1.00  0.00     0.072 C 
ATOM      8  O   UNL     1     -11.067  16.044  30.739  1.00  0.00    -0.545 OA
ATOM      9  O   UNL     1     -10.812  14.921  28.766  1.00  0.00    -0.545 OA
ENDBRANCH   1   7
BRANCH   5  10
ATOM     10  O   UNL     1      -7.358  13.367  33.476  1.00  0.00    -0.493 OA
ATOM     11  C   UNL     1      -7.346  14.434  34.419  1.00  0.00     0.278 C 
ENDBRANCH   5  10
BRANCH   6  12
ATOM     12  O   UNL     1      -8.219  10.780  33.062  1.00  0.00    -0.504 OA
ATOM     13  H   UNL     1      -8.366   9.808  32.811  1.00  0.00     0.293 HD
ENDBRANCH   6  12
TORSDOF 3
ENDMDL
MODEL 5
REMARK VINA RESULT:    -3.394     24.062     25.810
REMARK INTER + INTRA:          -3.974
REMARK INTER:                  -3.898
REMARK INTRA:                  -0.077
REMARK UNBOUND:                -0.084
REMARK SMILES COc1cc(C(=O)[O-])ccc1O
REMARK SMILES IDX 5 1 9 2 4 3 10 4 3 5 11 6 6 7 7 8 8 9 2 10 1 11 12 12
REMARK H PARENT 12 13
REMARK Flexibility Score: inf
ROOT
ATOM      1  C   UNL     1       3.358  15.831  21.153  1.00  0.00     0.001 A 
ATOM      2  C   UNL     1       3.510  15.607  22.532  1.00  0.00     0.014 A 
ATOM      3  C   UNL     1       4.484  16.193  20.391  1.00  0.00     0.060 A 
ATOM      4  C   UNL     1       4.761  15.742  23.136  1.00  0.00     0.051 A 
ATOM      5  C   UNL     1       5.748  16.330  20.997  1.00  0.00     0.161 A 
ATOM      6  C   UNL     1       5.879  16.102  22.374  1.00  0.00     0.157 A 
ENDROOT
BRANCH   1   7
ATOM      7  C   UNL     1       2.033  15.690  20.509  1.00  0.00     0.072 C 
ATOM      8  O   UNL     1       1.870  14.896  19.545  1.00  0.00    -0.545 OA
ATOM      9  O   UNL     1       0.947  16.434  20.959  1.00  0.00    -0.545 OA
ENDBRANCH   1   7
BRANCH   5  10
ATOM     10  O   UNL     1       6.893  16.689  20.268  1.00  0.00    -0.493 OA
ATOM     11  C   UNL     1       6.884  17.122  18.912  1.00  0.00     0.278 C 
ENDBRANCH   5  10
BRANCH   6  12
ATOM     12  O   UNL     1       7.128  16.236  22.979  1.00  0.00    -0.504 OA
ATOM     13  H   UNL     1       7.405  17.096  23.439  1.00  0.00     0.293 HD
ENDBRANCH   6  12
TORSDOF 3
ENDMDL
MODEL 6
REMARK VINA RESULT:    -3.373     10.760     13.400
REMARK INTER + INTRA:          -3.950
REMARK INTER:                  -3.869
REMARK INTRA:                  -0.081
REMARK UNBOUND:                -0.084
REMARK SMILES COc1cc(C(=O)[O-])ccc1O
REMARK SMILES IDX 5 1 9 2 4 3 10 4 3 5 11 6 6 7 7 8 8 9 2 10 1 11 12 12
REMARK H PARENT 12 13
REMARK Flexibility Score: inf
ROOT
ATOM      1  C   UNL     1      -9.711  14.037  30.941  1.00  0.00     0.001 A 
ATOM      2  C   UNL     1      -8.500  14.201  31.634  1.00  0.00     0.014 A 
ATOM      3  C   UNL     1     -10.366  12.793  30.994  1.00  0.00     0.060 A 
ATOM      4  C   UNL     1      -7.956  13.145  32.366  1.00  0.00     0.051 A 
ATOM      5  C   UNL     1      -9.820  11.724  31.732  1.00  0.00     0.161 A 
ATOM      6  C   UNL     1      -8.610  11.908  32.417  1.00  0.00     0.157 A 
ENDROOT
BRANCH   1   7
ATOM      7  C   UNL     1     -10.290  15.154  30.163  1.00  0.00     0.072 C 
ATOM      8  O   UNL     1     -10.365  15.090  28.907  1.00  0.00    -0.545 OA
ATOM      9  O   UNL     1     -10.761  16.293  30.807  1.00  0.00    -0.545 OA
ENDBRANCH   1   7
BRANCH   5  10
ATOM     10  O   UNL     1     -10.445  10.470  31.809  1.00  0.00    -0.493 OA
ATOM     11  C   UNL     1     -11.101   9.827  30.720  1.00  0.00     0.278 C 
ENDBRANCH   5  10
BRANCH   6  12
ATOM     12  O   UNL     1      -8.065  10.855  33.149  1.00  0.00    -0.504 OA
ATOM     13  H   UNL     1      -8.144  10.813  34.159  1.00  0.00     0.293 HD
ENDBRANCH   6  12
TORSDOF 3
ENDMDL
MODEL 7
REMARK VINA RESULT:    -3.363      1.534      4.402
REMARK INTER + INTRA:          -3.938
REMARK INTER:                  -3.845
REMARK INTRA:                  -0.093
REMARK UNBOUND:                -0.084
REMARK SMILES COc1cc(C(=O)[O-])ccc1O
REMARK SMILES IDX 5 1 9 2 4 3 10 4 3 5 11 6 6 7 7 8 8 9 2 10 1 11 12 12
REMARK H PARENT 12 13
REMARK Flexibility Score: inf
ROOT
ATOM      1  C   UNL     1      -9.919   2.319  35.460  1.00  0.00     0.001 A 
ATOM      2  C   UNL     1      -8.709   1.787  34.986  1.00  0.00     0.014 A 
ATOM      3  C   UNL     1     -10.377   1.945  36.737  1.00  0.00     0.060 A 
ATOM      4  C   UNL     1      -7.971   0.899  35.771  1.00  0.00     0.051 A 
ATOM      5  C   UNL     1      -9.635   1.048  37.532  1.00  0.00     0.161 A 
ATOM      6  C   UNL     1      -8.430   0.528  37.040  1.00  0.00     0.157 A 
ENDROOT
BRANCH   1   7
ATOM      7  C   UNL     1     -10.704   3.260  34.631  1.00  0.00     0.072 C 
ATOM      8  O   UNL     1     -11.072   4.371  35.097  1.00  0.00    -0.545 OA
ATOM      9  O   UNL     1     -11.048   2.931  33.324  1.00  0.00    -0.545 OA
ENDBRANCH   1   7
BRANCH   5  10
ATOM     10  O   UNL     1     -10.061   0.652  38.810  1.00  0.00    -0.493 OA
ATOM     11  C   UNL     1     -10.990  -0.397  39.062  1.00  0.00     0.278 C 
ENDBRANCH   5  10
BRANCH   6  12
ATOM     12  O   UNL     1      -7.692  -0.359  37.823  1.00  0.00    -0.504 OA
ATOM     13  H   UNL     1      -6.679  -0.326  37.850  1.00  0.00     0.293 HD
ENDBRANCH   6  12
TORSDOF 3
ENDMDL
MODEL 8
REMARK VINA RESULT:    -3.344     24.433     26.193
REMARK INTER + INTRA:          -3.916
REMARK INTER:                  -3.816
REMARK INTRA:                  -0.100
REMARK UNBOUND:                -0.084
REMARK SMILES COc1cc(C(=O)[O-])ccc1O
REMARK SMILES IDX 5 1 9 2 4 3 10 4 3 5 11 6 6 7 7 8 8 9 2 10 1 11 12 12
REMARK H PARENT 12 13
REMARK Flexibility Score: inf
ROOT
ATOM      1  C   UNL     1       6.482  16.434  21.287  1.00  0.00     0.001 A 
ATOM      2  C   UNL     1       6.434  15.842  22.560  1.00  0.00     0.014 A 
ATOM      3  C   UNL     1       5.291  16.569  20.550  1.00  0.00     0.060 A 
ATOM      4  C   UNL     1       5.220  15.395  23.086  1.00  0.00     0.051 A 
ATOM      5  C   UNL     1       4.064  16.119  21.078  1.00  0.00     0.161 A 
ATOM      6  C   UNL     1       4.037  15.531  22.350  1.00  0.00     0.157 A 
ENDROOT
BRANCH   1   7
ATOM      7  C   UNL     1       7.766  16.909  20.726  1.00  0.00     0.072 C 
ATOM      8  O   UNL     1       8.753  17.125  21.478  1.00  0.00    -0.545 OA
ATOM      9  O   UNL     1       7.902  17.125  19.359  1.00  0.00    -0.545 OA
ENDBRANCH   1   7
BRANCH   5  10
ATOM     10  O   UNL     1       2.857  16.238  20.372  1.00  0.00    -0.493 OA
ATOM     11  C   UNL     1       2.417  15.331  19.365  1.00  0.00     0.278 C 
ENDBRANCH   5  10
BRANCH   6  12
ATOM     12  O   UNL     1       2.827  15.084  22.877  1.00  0.00    -0.504 OA
ATOM     13  H   UNL     1       2.777  14.626  23.780  1.00  0.00     0.293 HD
ENDBRANCH   6  12
TORSDOF 3
ENDMDL
MODEL 9
REMARK VINA RESULT:    -3.259     12.632     14.242
REMARK INTER + INTRA:          -3.820
REMARK INTER:                  -3.743
REMARK INTRA:                  -0.077
REMARK UNBOUND:                -0.084
REMARK SMILES COc1cc(C(=O)[O-])ccc1O
REMARK SMILES IDX 5 1 9 2 4 3 10 4 3 5 11 6 6 7 7 8 8 9 2 10 1 11 12 12
REMARK H PARENT 12 13
REMARK Flexibility Score: inf
ROOT
ATOM      1  C   UNL     1      -8.218  14.666  34.825  1.00  0.00     0.001 A 
ATOM      2  C   UNL     1      -9.097  14.534  35.913  1.00  0.00     0.014 A 
ATOM      3  C   UNL     1      -7.114  15.530  34.939  1.00  0.00     0.060 A 
ATOM      4  C   UNL     1      -8.876  15.250  37.091  1.00  0.00     0.051 A 
ATOM      5  C   UNL     1      -6.888  16.254  36.126  1.00  0.00     0.161 A 
ATOM      6  C   UNL     1      -7.776  16.109  37.201  1.00  0.00     0.157 A 
ENDROOT
BRANCH   1   7
ATOM      7  C   UNL     1      -8.450  13.908  33.575  1.00  0.00     0.072 C 
ATOM      8  O   UNL     1      -9.506  14.077  32.910  1.00  0.00    -0.545 OA
ATOM      9  O   UNL     1      -7.503  12.998  33.116  1.00  0.00    -0.545 OA
ENDBRANCH   1   7
BRANCH   5  10
ATOM     10  O   UNL     1      -5.796  17.125  36.276  1.00  0.00    -0.493 OA
ATOM     11  C   UNL     1      -4.642  17.124  35.441  1.00  0.00     0.278 C 
ENDBRANCH   5  10
BRANCH   6  12
ATOM     12  O   UNL     1      -7.557  16.823  38.377  1.00  0.00    -0.504 OA
ATOM     13  H   UNL     1      -7.658  17.832  38.413  1.00  0.00     0.293 HD
ENDBRANCH   6  12
TORSDOF 3
ENDMDL
