MODEL 1
REMARK VINA RESULT:    -5.330      0.000      0.000
REMARK INTER + INTRA:          -8.131
REMARK INTER:                  -6.576
REMARK INTRA:                  -1.555
REMARK UNBOUND:                -1.555
REMARK SMILES CC(C)=CCC[C@@H](C)c1ccc(C)cc1
REMARK SMILES IDX 6 1 7 2 8 3 9 4 13 5 12 6 11 7 14 8 10 9 15 10 5 11 4 12
REMARK SMILES IDX 2 13 1 14 3 15
REMARK H PARENT
REMARK Flexibility Score: inf
ROOT
ATOM      1  C   UNL     1     -97.643 198.214 -14.173  1.00  0.00     0.012 C 
ENDROOT
BRANCH   1   2
ATOM      2  C   UNL     1     -98.532 197.753 -15.351  1.00  0.00     0.016 C 
ATOM      3  C   UNL     1     -98.403 198.674 -16.574  1.00  0.00     0.013 C 
BRANCH   2   4
ATOM      4  C   UNL     1     -98.206 196.320 -15.729  1.00  0.00    -0.045 A 
ATOM      5  C   UNL     1     -97.325 192.240 -16.843  1.00  0.00     0.044 C 
ATOM      6  C   UNL     1     -97.600 193.662 -16.453  1.00  0.00    -0.051 A 
ATOM      7  C   UNL     1     -97.802 193.999 -15.108  1.00  0.00     0.004 A 
ATOM      8  C   UNL     1     -97.727 194.652 -17.437  1.00  0.00     0.004 A 
ATOM      9  C   UNL     1     -98.097 195.317 -14.747  1.00  0.00     0.004 A 
ATOM     10  C   UNL     1     -98.022 195.970 -17.078  1.00  0.00     0.004 A 
ENDBRANCH   2   4
ENDBRANCH   1   2
BRANCH   1  11
ATOM     11  C   UNL     1     -96.182 198.440 -14.588  1.00  0.00     0.028 C 
BRANCH  11  12
ATOM     12  C   UNL     1     -95.288 197.382 -13.990  1.00  0.00    -0.028 C 
ATOM     13  C   UNL     1     -94.530 196.527 -14.710  1.00  0.00    -0.080 C 
ATOM     14  C   UNL     1     -93.653 195.548 -13.972  1.00  0.00     0.039 C 
ATOM     15  C   UNL     1     -94.550 196.517 -16.221  1.00  0.00     0.039 C 
ENDBRANCH  11  12
ENDBRANCH   1  11
TORSDOF 4
ENDMDL
MODEL 2
REMARK VINA RESULT:    -4.734      1.642      4.704
REMARK INTER + INTRA:          -7.396
REMARK INTER:                  -6.511
REMARK INTRA:                  -0.885
REMARK UNBOUND:                -1.555
REMARK SMILES CC(C)=CCC[C@@H](C)c1ccc(C)cc1
REMARK SMILES IDX 6 1 7 2 8 3 9 4 13 5 12 6 11 7 14 8 10 9 15 10 5 11 4 12
REMARK SMILES IDX 2 13 1 14 3 15
REMARK H PARENT
REMARK Flexibility Score: inf
ROOT
ATOM      1  C   UNL     1     -97.930 195.587 -14.747  1.00  0.00     0.012 C 
ENDROOT
BRANCH   1   2
ATOM      2  C   UNL     1     -97.714 196.907 -15.524  1.00  0.00     0.016 C 
ATOM      3  C   UNL     1     -98.969 197.340 -16.298  1.00  0.00     0.013 C 
BRANCH   2   4
ATOM      4  C   UNL     1     -97.267 198.008 -14.580  1.00  0.00    -0.045 A 
ATOM      5  C   UNL     1     -95.977 201.102 -11.855  1.00  0.00     0.044 C 
ATOM      6  C   UNL     1     -96.418 200.046 -12.824  1.00  0.00    -0.051 A 
ATOM      7  C   UNL     1     -97.748 200.001 -13.265  1.00  0.00     0.004 A 
ATOM      8  C   UNL     1     -95.520 199.054 -13.245  1.00  0.00     0.004 A 
ATOM      9  C   UNL     1     -98.169 198.995 -14.139  1.00  0.00     0.004 A 
ATOM     10  C   UNL     1     -95.940 198.047 -14.118  1.00  0.00     0.004 A 
ENDBRANCH   2   4
ENDBRANCH   1   2
BRANCH   1  11
ATOM     11  C   UNL     1     -97.057 194.440 -15.276  1.00  0.00     0.028 C 
BRANCH  11  12
ATOM     12  C   UNL     1     -95.864 194.980 -16.026  1.00  0.00    -0.028 C 
ATOM     13  C   UNL     1     -94.651 195.201 -15.473  1.00  0.00    -0.080 C 
ATOM     14  C   UNL     1     -93.540 195.705 -16.357  1.00  0.00     0.039 C 
ATOM     15  C   UNL     1     -94.387 194.971 -14.003  1.00  0.00     0.039 C 
ENDBRANCH  11  12
ENDBRANCH   1  11
TORSDOF 4
ENDMDL
MODEL 3
REMARK VINA RESULT:    -4.610      2.298      3.226
REMARK INTER + INTRA:          -7.243
REMARK INTER:                  -6.215
REMARK INTRA:                  -1.027
REMARK UNBOUND:                -1.555
REMARK SMILES CC(C)=CCC[C@@H](C)c1ccc(C)cc1
REMARK SMILES IDX 6 1 7 2 8 3 9 4 13 5 12 6 11 7 14 8 10 9 15 10 5 11 4 12
REMARK SMILES IDX 2 13 1 14 3 15
REMARK H PARENT
REMARK Flexibility Score: inf
ROOT
ATOM      1  C   UNL     1     -97.421 200.281 -12.925  1.00  0.00     0.012 C 
ENDROOT
BRANCH   1   2
ATOM      2  C   UNL     1     -97.641 199.917 -14.411  1.00  0.00     0.016 C 
ATOM      3  C   UNL     1     -96.615 200.592 -15.335  1.00  0.00     0.013 C 
BRANCH   2   4
ATOM      4  C   UNL     1     -97.609 198.410 -14.596  1.00  0.00    -0.045 A 
ATOM      5  C   UNL     1     -97.556 194.118 -15.077  1.00  0.00     0.044 C 
ATOM      6  C   UNL     1     -97.569 195.611 -14.940  1.00  0.00    -0.051 A 
ATOM      7  C   UNL     1     -96.381 196.308 -14.680  1.00  0.00     0.004 A 
ATOM      8  C   UNL     1     -98.780 196.315 -15.002  1.00  0.00     0.004 A 
ATOM      9  C   UNL     1     -96.398 197.696 -14.515  1.00  0.00     0.004 A 
ATOM     10  C   UNL     1     -98.799 197.703 -14.836  1.00  0.00     0.004 A 
ENDBRANCH   2   4
ENDBRANCH   1   2
BRANCH   1  11
ATOM     11  C   UNL     1     -96.098 201.025 -12.688  1.00  0.00     0.028 C 
BRANCH  11  12
ATOM     12  C   UNL     1     -95.075 200.107 -12.066  1.00  0.00    -0.028 C 
ATOM     13  C   UNL     1     -93.803 199.976 -12.501  1.00  0.00    -0.080 C 
ATOM     14  C   UNL     1     -92.879 199.049 -11.754  1.00  0.00     0.039 C 
ATOM     15  C   UNL     1     -93.291 200.718 -13.715  1.00  0.00     0.039 C 
ENDBRANCH  11  12
ENDBRANCH   1  11
TORSDOF 4
ENDMDL
MODEL 4
REMARK VINA RESULT:    -4.417      1.910      2.825
REMARK INTER + INTRA:          -7.004
REMARK INTER:                  -5.649
REMARK INTRA:                  -1.355
REMARK UNBOUND:                -1.555
REMARK SMILES CC(C)=CCC[C@@H](C)c1ccc(C)cc1
REMARK SMILES IDX 6 1 7 2 8 3 9 4 13 5 12 6 11 7 14 8 10 9 15 10 5 11 4 12
REMARK SMILES IDX 2 13 1 14 3 15
REMARK H PARENT
REMARK Flexibility Score: inf
ROOT
ATOM      1  C   UNL     1     -98.652 197.931 -14.359  1.00  0.00     0.012 C 
ENDROOT
BRANCH   1   2
ATOM      2  C   UNL     1     -98.653 196.936 -15.542  1.00  0.00     0.016 C 
ATOM      3  C   UNL     1     -99.245 197.552 -16.821  1.00  0.00     0.013 C 
BRANCH   2   4
ATOM      4  C   UNL     1     -97.249 196.422 -15.803  1.00  0.00    -0.045 A 
ATOM      5  C   UNL     1     -93.272 194.935 -16.594  1.00  0.00     0.044 C 
ATOM      6  C   UNL     1     -94.640 195.476 -16.305  1.00  0.00    -0.051 A 
ATOM      7  C   UNL     1     -95.295 195.143 -15.112  1.00  0.00     0.004 A 
ATOM      8  C   UNL     1     -95.304 196.263 -17.258  1.00  0.00     0.004 A 
ATOM      9  C   UNL     1     -96.586 195.616 -14.859  1.00  0.00     0.004 A 
ATOM     10  C   UNL     1     -96.595 196.736 -17.006  1.00  0.00     0.004 A 
ENDBRANCH   2   4
ENDBRANCH   1   2
BRANCH   1  11
ATOM     11  C   UNL     1     -97.867 199.215 -14.666  1.00  0.00     0.028 C 
BRANCH  11  12
ATOM     12  C   UNL     1     -97.047 199.637 -13.472  1.00  0.00    -0.028 C 
ATOM     13  C   UNL     1     -95.703 199.524 -13.391  1.00  0.00    -0.080 C 
ATOM     14  C   UNL     1     -95.014 200.027 -12.149  1.00  0.00     0.039 C 
ATOM     15  C   UNL     1     -94.884 198.900 -14.497  1.00  0.00     0.039 C 
ENDBRANCH  11  12
ENDBRANCH   1  11
TORSDOF 4
ENDMDL
MODEL 5
REMARK VINA RESULT:    -4.063     16.409     18.104
REMARK INTER + INTRA:          -6.567
REMARK INTER:                  -5.054
REMARK INTRA:                  -1.513
REMARK UNBOUND:                -1.555
REMARK SMILES CC(C)=CCC[C@@H](C)c1ccc(C)cc1
REMARK SMILES IDX 6 1 7 2 8 3 9 4 13 5 12 6 11 7 14 8 10 9 15 10 5 11 4 12
REMARK SMILES IDX 2 13 1 14 3 15
REMARK H PARENT
REMARK Flexibility Score: inf
ROOT
ATOM      1  C   UNL     1    -104.517 197.384   1.285  1.00  0.00     0.012 C 
ENDROOT
BRANCH   1   2
ATOM      2  C   UNL     1    -104.018 197.512  -0.173  1.00  0.00     0.016 C 
ATOM      3  C   UNL     1    -102.725 196.718  -0.419  1.00  0.00     0.013 C 
BRANCH   2   4
ATOM      4  C   UNL     1    -105.101 197.074  -1.142  1.00  0.00    -0.045 A 
ATOM      5  C   UNL     1    -108.149 195.781  -3.916  1.00  0.00     0.044 C 
ATOM      6  C   UNL     1    -107.113 196.241  -2.935  1.00  0.00    -0.051 A 
ATOM      7  C   UNL     1    -106.560 197.525  -3.040  1.00  0.00     0.004 A 
ATOM      8  C   UNL     1    -106.638 195.366  -1.947  1.00  0.00     0.004 A 
ATOM      9  C   UNL     1    -105.567 197.941  -2.148  1.00  0.00     0.004 A 
ATOM     10  C   UNL     1    -105.644 195.780  -1.056  1.00  0.00     0.004 A 
ENDBRANCH   2   4
ENDBRANCH   1   2
BRANCH   1  11
ATOM     11  C   UNL     1    -105.720 198.292   1.580  1.00  0.00     0.028 C 
BRANCH  11  12
ATOM     12  C   UNL     1    -106.882 197.484   2.100  1.00  0.00    -0.028 C 
ATOM     13  C   UNL     1    -108.085 197.396   1.490  1.00  0.00    -0.080 C 
ATOM     14  C   UNL     1    -109.140 196.515   2.106  1.00  0.00     0.039 C 
ATOM     15  C   UNL     1    -108.400 198.164   0.227  1.00  0.00     0.039 C 
ENDBRANCH  11  12
ENDBRANCH   1  11
TORSDOF 4
ENDMDL
MODEL 6
REMARK VINA RESULT:    -4.053     18.580     19.855
REMARK INTER + INTRA:          -6.556
REMARK INTER:                  -5.834
REMARK INTRA:                  -0.722
REMARK UNBOUND:                -1.555
REMARK SMILES CC(C)=CCC[C@@H](C)c1ccc(C)cc1
REMARK SMILES IDX 6 1 7 2 8 3 9 4 13 5 12 6 11 7 14 8 10 9 15 10 5 11 4 12
REMARK SMILES IDX 2 13 1 14 3 15
REMARK H PARENT
REMARK Flexibility Score: inf
ROOT
ATOM      1  C   UNL     1    -103.938 184.009  -2.304  1.00  0.00     0.012 C 
ENDROOT
BRANCH   1   2
ATOM      2  C   UNL     1    -103.303 182.997  -3.284  1.00  0.00     0.016 C 
ATOM      3  C   UNL     1    -102.885 181.693  -2.587  1.00  0.00     0.013 C 
BRANCH   2   4
ATOM      4  C   UNL     1    -104.256 182.703  -4.430  1.00  0.00    -0.045 A 
ATOM      5  C   UNL     1    -107.011 181.875  -7.651  1.00  0.00     0.044 C 
ATOM      6  C   UNL     1    -106.035 182.174  -6.553  1.00  0.00    -0.051 A 
ATOM      7  C   UNL     1    -105.066 181.228  -6.191  1.00  0.00     0.004 A 
ATOM      8  C   UNL     1    -106.128 183.374  -5.833  1.00  0.00     0.004 A 
ATOM      9  C   UNL     1    -104.180 181.491  -5.142  1.00  0.00     0.004 A 
ATOM     10  C   UNL     1    -105.243 183.638  -4.784  1.00  0.00     0.004 A 
ENDBRANCH   2   4
ENDBRANCH   1   2
BRANCH   1  11
ATOM     11  C   UNL     1    -104.499 183.338  -1.042  1.00  0.00     0.028 C 
BRANCH  11  12
ATOM     12  C   UNL     1    -104.504 184.304   0.118  1.00  0.00    -0.028 C 
ATOM     13  C   UNL     1    -103.520 184.395   1.039  1.00  0.00    -0.080 C 
ATOM     14  C   UNL     1    -103.642 185.438   2.120  1.00  0.00     0.039 C 
ATOM     15  C   UNL     1    -102.320 183.477   1.022  1.00  0.00     0.039 C 
ENDBRANCH  11  12
ENDBRANCH   1  11
TORSDOF 4
ENDMDL
MODEL 7
REMARK VINA RESULT:    -4.041     15.428     16.853
REMARK INTER + INTRA:          -6.540
REMARK INTER:                  -5.427
REMARK INTRA:                  -1.113
REMARK UNBOUND:                -1.555
REMARK SMILES CC(C)=CCC[C@@H](C)c1ccc(C)cc1
REMARK SMILES IDX 6 1 7 2 8 3 9 4 13 5 12 6 11 7 14 8 10 9 15 10 5 11 4 12
REMARK SMILES IDX 2 13 1 14 3 15
REMARK H PARENT
REMARK Flexibility Score: inf
ROOT
ATOM      1  C   UNL     1    -107.134 199.178  -1.845  1.00  0.00     0.012 C 
ENDROOT
BRANCH   1   2
ATOM      2  C   UNL     1    -106.503 198.451  -3.055  1.00  0.00     0.016 C 
ATOM      3  C   UNL     1    -104.995 198.720  -3.175  1.00  0.00     0.013 C 
BRANCH   2   4
ATOM      4  C   UNL     1    -106.771 196.959  -2.973  1.00  0.00    -0.045 A 
ATOM      5  C   UNL     1    -107.590 192.725  -2.732  1.00  0.00     0.044 C 
ATOM      6  C   UNL     1    -107.282 194.189  -2.836  1.00  0.00    -0.051 A 
ATOM      7  C   UNL     1    -106.355 194.780  -1.966  1.00  0.00     0.004 A 
ATOM      8  C   UNL     1    -107.971 194.992  -3.757  1.00  0.00     0.004 A 
ATOM      9  C   UNL     1    -106.097 196.152  -2.037  1.00  0.00     0.004 A 
ATOM     10  C   UNL     1    -107.714 196.363  -3.828  1.00  0.00     0.004 A 
ENDBRANCH   2   4
ENDBRANCH   1   2
BRANCH   1  11
ATOM     11  C   UNL     1    -106.091 199.605  -0.802  1.00  0.00     0.028 C 
BRANCH  11  12
ATOM     12  C   UNL     1    -106.133 198.690   0.398  1.00  0.00    -0.028 C 
ATOM     13  C   UNL     1    -105.070 198.006   0.873  1.00  0.00    -0.080 C 
ATOM     14  C   UNL     1    -105.253 197.161   2.108  1.00  0.00     0.039 C 
ATOM     15  C   UNL     1    -103.720 198.053   0.197  1.00  0.00     0.039 C 
ENDBRANCH  11  12
ENDBRANCH   1  11
TORSDOF 4
ENDMDL
MODEL 8
REMARK VINA RESULT:    -3.925     15.934     17.254
REMARK INTER + INTRA:          -6.397
REMARK INTER:                  -5.119
REMARK INTRA:                  -1.278
REMARK UNBOUND:                -1.555
REMARK SMILES CC(C)=CCC[C@@H](C)c1ccc(C)cc1
REMARK SMILES IDX 6 1 7 2 8 3 9 4 13 5 12 6 11 7 14 8 10 9 15 10 5 11 4 12
REMARK SMILES IDX 2 13 1 14 3 15
REMARK H PARENT
REMARK Flexibility Score: inf
ROOT
ATOM      1  C   UNL     1    -107.095 198.781  -1.513  1.00  0.00     0.012 C 
ENDROOT
BRANCH   1   2
ATOM      2  C   UNL     1    -107.945 197.611  -0.968  1.00  0.00     0.016 C 
ATOM      3  C   UNL     1    -109.424 197.727  -1.371  1.00  0.00     0.013 C 
BRANCH   2   4
ATOM      4  C   UNL     1    -107.373 196.283  -1.429  1.00  0.00    -0.045 A 
ATOM      5  C   UNL     1    -105.698 192.512  -2.706  1.00  0.00     0.044 C 
ATOM      6  C   UNL     1    -106.308 193.809  -2.266  1.00  0.00    -0.051 A 
ATOM      7  C   UNL     1    -106.630 194.795  -3.209  1.00  0.00     0.004 A 
ATOM      8  C   UNL     1    -106.496 194.074  -0.902  1.00  0.00     0.004 A 
ATOM      9  C   UNL     1    -107.163 196.019  -2.796  1.00  0.00     0.004 A 
ATOM     10  C   UNL     1    -107.029 195.297  -0.487  1.00  0.00     0.004 A 
ENDBRANCH   2   4
ENDBRANCH   1   2
BRANCH   1  11
ATOM     11  C   UNL     1    -105.964 199.187  -0.557  1.00  0.00     0.028 C 
BRANCH  11  12
ATOM     12  C   UNL     1    -104.753 198.311  -0.762  1.00  0.00    -0.028 C 
ATOM     13  C   UNL     1    -104.240 197.486   0.177  1.00  0.00    -0.080 C 
ATOM     14  C   UNL     1    -103.048 196.637  -0.186  1.00  0.00     0.039 C 
ATOM     15  C   UNL     1    -104.815 197.404   1.572  1.00  0.00     0.039 C 
ENDBRANCH  11  12
ENDBRANCH   1  11
TORSDOF 4
ENDMDL
MODEL 9
REMARK VINA RESULT:    -2.962      1.261      4.412
REMARK INTER + INTRA:          -5.210
REMARK INTER:                  -3.783
REMARK INTRA:                  -1.427
REMARK UNBOUND:                -1.555
REMARK SMILES CC(C)=CCC[C@@H](C)c1ccc(C)cc1
REMARK SMILES IDX 6 1 7 2 8 3 9 4 13 5 12 6 11 7 14 8 10 9 15 10 5 11 4 12
REMARK SMILES IDX 2 13 1 14 3 15
REMARK H PARENT
REMARK Flexibility Score: inf
ROOT
ATOM      1  C   UNL     1     -98.173 195.032 -14.732  1.00  0.00     0.012 C 
ENDROOT
BRANCH   1   2
ATOM      2  C   UNL     1     -97.056 194.319 -15.528  1.00  0.00     0.016 C 
ATOM      3  C   UNL     1     -97.595 193.613 -16.783  1.00  0.00     0.013 C 
BRANCH   2   4
ATOM      4  C   UNL     1     -95.962 195.303 -15.902  1.00  0.00    -0.045 A 
ATOM      5  C   UNL     1     -92.875 198.143 -16.931  1.00  0.00     0.044 C 
ATOM      6  C   UNL     1     -93.926 197.134 -16.576  1.00  0.00    -0.051 A 
ATOM      7  C   UNL     1     -94.703 196.540 -17.581  1.00  0.00     0.004 A 
ATOM      8  C   UNL     1     -94.187 196.828 -15.233  1.00  0.00     0.004 A 
ATOM      9  C   UNL     1     -95.709 195.628 -17.248  1.00  0.00     0.004 A 
ATOM     10  C   UNL     1     -95.193 195.917 -14.899  1.00  0.00     0.004 A 
ENDBRANCH   2   4
ENDBRANCH   1   2
BRANCH   1  11
ATOM     11  C   UNL     1     -98.628 196.341 -15.395  1.00  0.00     0.028 C 
BRANCH  11  12
ATOM     12  C   UNL     1     -98.468 197.503 -14.446  1.00  0.00    -0.028 C 
ATOM     13  C   UNL     1     -97.876 198.674 -14.767  1.00  0.00    -0.080 C 
ATOM     14  C   UNL     1     -97.825 199.762 -13.726  1.00  0.00     0.039 C 
ATOM     15  C   UNL     1     -97.257 198.913 -16.125  1.00  0.00     0.039 C 
ENDBRANCH  11  12
ENDBRANCH   1  11
TORSDOF 4
ENDMDL
