MODEL 1
REMARK VINA RESULT:    -4.860      0.000      0.000
REMARK INTER + INTRA:          -6.160
REMARK INTER:                  -5.854
REMARK INTRA:                  -0.306
REMARK UNBOUND:                -0.306
REMARK SMILES O=c1c(O)c(-c2ccc(O)c(O)c2)oc2cc(O)cc(O)c12
REMARK SMILES IDX 5 1 3 2 2 3 1 4 22 5 20 6 19 7 17 8 16 9 15 10 14 11 6 12
REMARK SMILES IDX 7 13 8 14 9 15 13 16 11 17 10 18 12 20 4 22 21 24 18 26
REMARK H PARENT 10 19 12 21 4 23 21 25 18 27
REMARK Flexibility Score: inf
ROOT
ATOM      1  C   UNL     1       4.514  25.168  71.665  1.00  0.00     0.180 A 
ATOM      2  C   UNL     1       4.672  26.527  72.001  1.00  0.00     0.208 A 
ATOM      3  C   UNL     1       3.561  27.380  71.918  1.00  0.00     0.238 A 
ATOM      4  O   UNL     1       3.693  28.601  72.206  1.00  0.00    -0.285 OA
ATOM      5  C   UNL     1       2.311  26.860  71.524  1.00  0.00     0.111 A 
ATOM      6  C   UNL     1       1.141  27.650  71.421  1.00  0.00     0.134 A 
ATOM      7  C   UNL     1      -0.068  27.056  71.030  1.00  0.00     0.093 A 
ATOM      8  C   UNL     1      -0.129  25.687  70.743  1.00  0.00     0.123 A 
ATOM      9  C   UNL     1       1.022  24.904  70.844  1.00  0.00     0.094 A 
ATOM     10  C   UNL     1       2.236  25.478  71.229  1.00  0.00     0.146 A 
ATOM     11  O   UNL     1       3.316  24.710  71.312  1.00  0.00    -0.452 OA
ENDROOT
BRANCH   1  12
ATOM     12  C   UNL     1       5.642  24.211  71.708  1.00  0.00     0.025 A 
ATOM     13  C   UNL     1       5.989  23.607  72.926  1.00  0.00     0.016 A 
ATOM     14  C   UNL     1       7.037  22.684  72.987  1.00  0.00     0.051 A 
ATOM     15  C   UNL     1       7.743  22.339  71.830  1.00  0.00     0.157 A 
ATOM     16  C   UNL     1       6.340  23.847  70.542  1.00  0.00     0.062 A 
ATOM     17  C   UNL     1       7.391  22.919  70.601  1.00  0.00     0.158 A 
BRANCH  15  18
ATOM     18  O   UNL     1       8.785  21.418  71.922  1.00  0.00    -0.504 OA
ATOM     19  H   UNL     1       8.923  20.842  72.744  1.00  0.00     0.293 HD
ENDBRANCH  15  18
BRANCH  17  20
ATOM     20  O   UNL     1       8.081  22.569  69.441  1.00  0.00    -0.504 OA
ATOM     21  H   UNL     1       8.383  21.618  69.269  1.00  0.00     0.293 HD
ENDBRANCH  17  20
ENDBRANCH   1  12
BRANCH   2  22
ATOM     22  O   UNL     1       5.910  27.007  72.435  1.00  0.00    -0.502 OA
ATOM     23  H   UNL     1       6.183  27.001  73.411  1.00  0.00     0.293 HD
ENDBRANCH   2  22
BRANCH   6  24
ATOM     24  O   UNL     1       1.171  29.018  71.701  1.00  0.00    -0.507 OA
ATOM     25  H   UNL     1       2.038  29.500  71.907  1.00  0.00     0.293 HD
ENDBRANCH   6  24
BRANCH   8  26
ATOM     26  O   UNL     1      -1.331  25.097  70.357  1.00  0.00    -0.508 OA
ATOM     27  H   UNL     1      -1.483  24.099  70.443  1.00  0.00     0.293 HD
ENDBRANCH   8  26
TORSDOF 6
ENDMDL
MODEL 2
REMARK VINA RESULT:    -4.699     12.159     14.963
REMARK INTER + INTRA:          -5.966
REMARK INTER:                  -5.681
REMARK INTRA:                  -0.285
REMARK UNBOUND:                -0.306
REMARK SMILES O=c1c(O)c(-c2ccc(O)c(O)c2)oc2cc(O)cc(O)c12
REMARK SMILES IDX 5 1 3 2 2 3 1 4 22 5 20 6 19 7 17 8 16 9 15 10 14 11 6 12
REMARK SMILES IDX 7 13 8 14 9 15 13 16 11 17 10 18 12 20 4 22 21 24 18 26
REMARK H PARENT 10 19 12 21 4 23 21 25 18 27
REMARK Flexibility Score: inf
ROOT
ATOM      1  C   UNL     1      13.343  25.340  81.685  1.00  0.00     0.180 A 
ATOM      2  C   UNL     1      14.533  24.897  82.295  1.00  0.00     0.208 A 
ATOM      3  C   UNL     1      15.184  23.768  81.773  1.00  0.00     0.238 A 
ATOM      4  O   UNL     1      16.244  23.356  82.318  1.00  0.00    -0.285 OA
ATOM      5  C   UNL     1      14.651  23.118  80.641  1.00  0.00     0.111 A 
ATOM      6  C   UNL     1      15.248  21.978  80.050  1.00  0.00     0.134 A 
ATOM      7  C   UNL     1      14.660  21.393  78.919  1.00  0.00     0.093 A 
ATOM      8  C   UNL     1      13.489  21.925  78.368  1.00  0.00     0.123 A 
ATOM      9  C   UNL     1      12.897  23.049  78.948  1.00  0.00     0.094 A 
ATOM     10  C   UNL     1      13.466  23.645  80.076  1.00  0.00     0.146 A 
ATOM     11  O   UNL     1      12.878  24.710  80.610  1.00  0.00    -0.452 OA
ENDROOT
BRANCH   1  12
ATOM     12  C   UNL     1      12.589  26.509  82.189  1.00  0.00     0.025 A 
ATOM     13  C   UNL     1      11.783  26.371  83.329  1.00  0.00     0.016 A 
ATOM     14  C   UNL     1      11.078  27.467  83.836  1.00  0.00     0.051 A 
ATOM     15  C   UNL     1      11.181  28.719  83.222  1.00  0.00     0.157 A 
ATOM     16  C   UNL     1      12.708  27.774  81.585  1.00  0.00     0.062 A 
ATOM     17  C   UNL     1      12.003  28.876  82.094  1.00  0.00     0.158 A 
BRANCH  15  18
ATOM     18  O   UNL     1      10.465  29.792  83.748  1.00  0.00    -0.504 OA
ATOM     19  H   UNL     1      10.318  30.648  83.226  1.00  0.00     0.293 HD
ENDBRANCH  15  18
BRANCH  17  20
ATOM     20  O   UNL     1      12.122  30.124  81.485  1.00  0.00    -0.504 OA
ATOM     21  H   UNL     1      11.613  30.931  81.824  1.00  0.00     0.293 HD
ENDBRANCH  17  20
ENDBRANCH   1  12
BRANCH   2  22
ATOM     22  O   UNL     1      15.067  25.588  83.385  1.00  0.00    -0.502 OA
ATOM     23  H   UNL     1      14.484  26.040  84.080  1.00  0.00     0.293 HD
ENDBRANCH   2  22
BRANCH   6  24
ATOM     24  O   UNL     1      16.417  21.425  80.576  1.00  0.00    -0.507 OA
ATOM     25  H   UNL     1      16.764  20.523  80.271  1.00  0.00     0.293 HD
ENDBRANCH   6  24
BRANCH   8  26
ATOM     26  O   UNL     1      12.907  21.345  77.244  1.00  0.00    -0.508 OA
ATOM     27  H   UNL     1      12.343  20.505  77.312  1.00  0.00     0.293 HD
ENDBRANCH   8  26
TORSDOF 6
ENDMDL
MODEL 3
REMARK VINA RESULT:    -4.660     11.603     14.154
REMARK INTER + INTRA:          -5.919
REMARK INTER:                  -5.634
REMARK INTRA:                  -0.285
REMARK UNBOUND:                -0.306
REMARK SMILES O=c1c(O)c(-c2ccc(O)c(O)c2)oc2cc(O)cc(O)c12
REMARK SMILES IDX 5 1 3 2 2 3 1 4 22 5 20 6 19 7 17 8 16 9 15 10 14 11 6 12
REMARK SMILES IDX 7 13 8 14 9 15 13 16 11 17 10 18 12 20 4 22 21 24 18 26
REMARK H PARENT 10 19 12 21 4 23 21 25 18 27
REMARK Flexibility Score: inf
ROOT
ATOM      1  C   UNL     1      13.842  22.506  79.617  1.00  0.00     0.180 A 
ATOM      2  C   UNL     1      13.450  22.996  78.356  1.00  0.00     0.208 A 
ATOM      3  C   UNL     1      13.250  22.085  77.306  1.00  0.00     0.238 A 
ATOM      4  O   UNL     1      12.910  22.513  76.169  1.00  0.00    -0.285 OA
ATOM      5  C   UNL     1      13.422  20.705  77.539  1.00  0.00     0.111 A 
ATOM      6  C   UNL     1      13.236  19.722  76.538  1.00  0.00     0.134 A 
ATOM      7  C   UNL     1      13.418  18.367  76.851  1.00  0.00     0.093 A 
ATOM      8  C   UNL     1      13.781  17.977  78.146  1.00  0.00     0.123 A 
ATOM      9  C   UNL     1      13.967  18.944  79.135  1.00  0.00     0.094 A 
ATOM     10  C   UNL     1      13.792  20.299  78.843  1.00  0.00     0.146 A 
ATOM     11  O   UNL     1      13.980  21.197  79.803  1.00  0.00    -0.452 OA
ENDROOT
BRANCH   1  12
ATOM     12  C   UNL     1      14.091  23.404  80.766  1.00  0.00     0.025 A 
ATOM     13  C   UNL     1      15.409  23.755  81.096  1.00  0.00     0.016 A 
ATOM     14  C   UNL     1      15.667  24.619  82.164  1.00  0.00     0.051 A 
ATOM     15  C   UNL     1      14.613  25.158  82.908  1.00  0.00     0.157 A 
ATOM     16  C   UNL     1      13.031  23.964  81.502  1.00  0.00     0.062 A 
ATOM     17  C   UNL     1      13.288  24.833  82.574  1.00  0.00     0.158 A 
BRANCH  15  18
ATOM     18  O   UNL     1      14.901  26.014  83.969  1.00  0.00    -0.504 OA
ATOM     19  H   UNL     1      14.663  25.783  84.926  1.00  0.00     0.293 HD
ENDBRANCH  15  18
BRANCH  17  20
ATOM     20  O   UNL     1      12.231  25.378  83.302  1.00  0.00    -0.504 OA
ATOM     21  H   UNL     1      11.466  24.805  83.638  1.00  0.00     0.293 HD
ENDBRANCH  17  20
ENDBRANCH   1  12
BRANCH   2  22
ATOM     22  O   UNL     1      13.239  24.363  78.164  1.00  0.00    -0.502 OA
ATOM     23  H   UNL     1      12.485  24.865  78.617  1.00  0.00     0.293 HD
ENDBRANCH   2  22
BRANCH   6  24
ATOM     24  O   UNL     1      12.872  20.080  75.238  1.00  0.00    -0.507 OA
ATOM     25  H   UNL     1      13.046  21.009  74.873  1.00  0.00     0.293 HD
ENDBRANCH   6  24
BRANCH   8  26
ATOM     26  O   UNL     1      13.961  16.631  78.456  1.00  0.00    -0.508 OA
ATOM     27  H   UNL     1      14.884  16.231  78.571  1.00  0.00     0.293 HD
ENDBRANCH   8  26
TORSDOF 6
ENDMDL
MODEL 4
REMARK VINA RESULT:    -4.643      1.331      6.672
REMARK INTER + INTRA:          -5.899
REMARK INTER:                  -5.721
REMARK INTRA:                  -0.178
REMARK UNBOUND:                -0.306
REMARK SMILES O=c1c(O)c(-c2ccc(O)c(O)c2)oc2cc(O)cc(O)c12
REMARK SMILES IDX 5 1 3 2 2 3 1 4 22 5 20 6 19 7 17 8 16 9 15 10 14 11 6 12
REMARK SMILES IDX 7 13 8 14 9 15 13 16 11 17 10 18 12 20 4 22 21 24 18 26
REMARK H PARENT 10 19 12 21 4 23 21 25 18 27
REMARK Flexibility Score: inf
ROOT
ATOM      1  C   UNL     1       3.104  25.639  71.356  1.00  0.00     0.180 A 
ATOM      2  C   UNL     1       3.841  26.729  71.859  1.00  0.00     0.208 A 
ATOM      3  C   UNL     1       5.190  26.538  72.197  1.00  0.00     0.238 A 
ATOM      4  O   UNL     1       5.857  27.503  72.659  1.00  0.00    -0.285 OA
ATOM      5  C   UNL     1       5.783  25.273  72.007  1.00  0.00     0.111 A 
ATOM      6  C   UNL     1       7.137  24.998  72.317  1.00  0.00     0.134 A 
ATOM      7  C   UNL     1       7.656  23.715  72.091  1.00  0.00     0.093 A 
ATOM      8  C   UNL     1       6.848  22.702  71.560  1.00  0.00     0.123 A 
ATOM      9  C   UNL     1       5.513  22.969  71.253  1.00  0.00     0.094 A 
ATOM     10  C   UNL     1       4.976  24.241  71.473  1.00  0.00     0.146 A 
ATOM     11  O   UNL     1       3.702  24.464  71.176  1.00  0.00    -0.452 OA
ENDROOT
BRANCH   1  12
ATOM     12  C   UNL     1       1.674  25.756  70.996  1.00  0.00     0.025 A 
ATOM     13  C   UNL     1       1.301  26.544  69.896  1.00  0.00     0.016 A 
ATOM     14  C   UNL     1      -0.042  26.652  69.524  1.00  0.00     0.051 A 
ATOM     15  C   UNL     1      -1.030  25.964  70.235  1.00  0.00     0.157 A 
ATOM     16  C   UNL     1       0.680  25.048  71.697  1.00  0.00     0.062 A 
ATOM     17  C   UNL     1      -0.668  25.154  71.324  1.00  0.00     0.158 A 
BRANCH  15  18
ATOM     18  O   UNL     1      -2.362  26.094  69.843  1.00  0.00    -0.504 OA
ATOM     19  H   UNL     1      -2.990  26.755  70.284  1.00  0.00     0.293 HD
ENDBRANCH  15  18
BRANCH  17  20
ATOM     20  O   UNL     1      -1.646  24.454  72.029  1.00  0.00    -0.504 OA
ATOM     21  H   UNL     1      -1.913  23.511  71.773  1.00  0.00     0.293 HD
ENDBRANCH  17  20
ENDBRANCH   1  12
BRANCH   2  22
ATOM     22  O   UNL     1       3.243  27.984  71.991  1.00  0.00    -0.502 OA
ATOM     23  H   UNL     1       2.670  28.393  71.263  1.00  0.00     0.293 HD
ENDBRANCH   2  22
BRANCH   6  24
ATOM     24  O   UNL     1       7.968  25.987  72.847  1.00  0.00    -0.507 OA
ATOM     25  H   UNL     1       7.649  26.942  72.969  1.00  0.00     0.293 HD
ENDBRANCH   6  24
BRANCH   8  26
ATOM     26  O   UNL     1       7.365  21.429  71.334  1.00  0.00    -0.508 OA
ATOM     27  H   UNL     1       6.801  20.597  71.464  1.00  0.00     0.293 HD
ENDBRANCH   8  26
TORSDOF 6
ENDMDL
MODEL 5
REMARK VINA RESULT:    -4.609      1.538      2.121
REMARK INTER + INTRA:          -5.858
REMARK INTER:                  -5.547
REMARK INTRA:                  -0.312
REMARK UNBOUND:                -0.306
REMARK SMILES O=c1c(O)c(-c2ccc(O)c(O)c2)oc2cc(O)cc(O)c12
REMARK SMILES IDX 5 1 3 2 2 3 1 4 22 5 20 6 19 7 17 8 16 9 15 10 14 11 6 12
REMARK SMILES IDX 7 13 8 14 9 15 13 16 11 17 10 18 12 20 4 22 21 24 18 26
REMARK H PARENT 10 19 12 21 4 23 21 25 18 27
REMARK Flexibility Score: inf
ROOT
ATOM      1  C   UNL     1       2.801  25.675  70.870  1.00  0.00     0.180 A 
ATOM      2  C   UNL     1       2.933  27.032  70.518  1.00  0.00     0.208 A 
ATOM      3  C   UNL     1       1.786  27.753  70.150  1.00  0.00     0.238 A 
ATOM      4  O   UNL     1       1.893  28.966  69.822  1.00  0.00    -0.285 OA
ATOM      5  C   UNL     1       0.529  27.113  70.160  1.00  0.00     0.111 A 
ATOM      6  C   UNL     1      -0.676  27.769  69.807  1.00  0.00     0.134 A 
ATOM      7  C   UNL     1      -1.888  27.065  69.850  1.00  0.00     0.093 A 
ATOM      8  C   UNL     1      -1.920  25.722  70.241  1.00  0.00     0.123 A 
ATOM      9  C   UNL     1      -0.734  25.072  70.590  1.00  0.00     0.094 A 
ATOM     10  C   UNL     1       0.485  25.754  70.551  1.00  0.00     0.146 A 
ATOM     11  O   UNL     1       1.597  25.110  70.883  1.00  0.00    -0.452 OA
ENDROOT
BRANCH   1  12
ATOM     12  C   UNL     1       3.965  24.844  71.251  1.00  0.00     0.025 A 
ATOM     13  C   UNL     1       4.194  24.555  72.605  1.00  0.00     0.016 A 
ATOM     14  C   UNL     1       5.275  23.756  72.986  1.00  0.00     0.051 A 
ATOM     15  C   UNL     1       6.133  23.220  72.021  1.00  0.00     0.157 A 
ATOM     16  C   UNL     1       4.818  24.287  70.280  1.00  0.00     0.062 A 
ATOM     17  C   UNL     1       5.902  23.483  70.661  1.00  0.00     0.158 A 
BRANCH  15  18
ATOM     18  O   UNL     1       7.205  22.429  72.432  1.00  0.00    -0.504 OA
ATOM     19  H   UNL     1       7.929  22.781  73.046  1.00  0.00     0.293 HD
ENDBRANCH  15  18
BRANCH  17  20
ATOM     20  O   UNL     1       6.746  22.941  69.692  1.00  0.00    -0.504 OA
ATOM     21  H   UNL     1       7.299  23.529  69.080  1.00  0.00     0.293 HD
ENDBRANCH  17  20
ENDBRANCH   1  12
BRANCH   2  22
ATOM     22  O   UNL     1       4.183  27.655  70.564  1.00  0.00    -0.502 OA
ATOM     23  H   UNL     1       4.472  28.344  69.880  1.00  0.00     0.293 HD
ENDBRANCH   2  22
BRANCH   6  24
ATOM     24  O   UNL     1      -0.676  29.109  69.414  1.00  0.00    -0.507 OA
ATOM     25  H   UNL     1      -1.331  29.777  69.803  1.00  0.00     0.293 HD
ENDBRANCH   6  24
BRANCH   8  26
ATOM     26  O   UNL     1      -3.125  25.025  70.286  1.00  0.00    -0.508 OA
ATOM     27  H   UNL     1      -3.185  24.095  70.684  1.00  0.00     0.293 HD
ENDBRANCH   8  26
TORSDOF 6
ENDMDL
MODEL 6
REMARK VINA RESULT:    -4.594     10.024     12.614
REMARK INTER + INTRA:          -5.840
REMARK INTER:                  -5.593
REMARK INTRA:                  -0.247
REMARK UNBOUND:                -0.306
REMARK SMILES O=c1c(O)c(-c2ccc(O)c(O)c2)oc2cc(O)cc(O)c12
REMARK SMILES IDX 5 1 3 2 2 3 1 4 22 5 20 6 19 7 17 8 16 9 15 10 14 11 6 12
REMARK SMILES IDX 7 13 8 14 9 15 13 16 11 17 10 18 12 20 4 22 21 24 18 26
REMARK H PARENT 10 19 12 21 4 23 21 25 18 27
REMARK Flexibility Score: inf
ROOT
ATOM      1  C   UNL     1      12.511  18.946  75.078  1.00  0.00     0.180 A 
ATOM      2  C   UNL     1      12.609  20.344  75.213  1.00  0.00     0.208 A 
ATOM      3  C   UNL     1      13.080  20.877  76.424  1.00  0.00     0.238 A 
ATOM      4  O   UNL     1      13.161  22.129  76.561  1.00  0.00    -0.285 OA
ATOM      5  C   UNL     1      13.463  20.008  77.466  1.00  0.00     0.111 A 
ATOM      6  C   UNL     1      13.952  20.464  78.714  1.00  0.00     0.134 A 
ATOM      7  C   UNL     1      14.321  19.534  79.697  1.00  0.00     0.093 A 
ATOM      8  C   UNL     1      14.213  18.160  79.456  1.00  0.00     0.123 A 
ATOM      9  C   UNL     1      13.731  17.707  78.227  1.00  0.00     0.094 A 
ATOM     10  C   UNL     1      13.356  18.616  77.235  1.00  0.00     0.146 A 
ATOM     11  O   UNL     1      12.897  18.157  76.077  1.00  0.00    -0.452 OA
ENDROOT
BRANCH   1  12
ATOM     12  C   UNL     1      12.006  18.309  73.841  1.00  0.00     0.025 A 
ATOM     13  C   UNL     1      12.884  17.561  73.041  1.00  0.00     0.016 A 
ATOM     14  C   UNL     1      12.425  16.934  71.880  1.00  0.00     0.051 A 
ATOM     15  C   UNL     1      11.080  17.030  71.509  1.00  0.00     0.157 A 
ATOM     16  C   UNL     1      10.649  18.388  73.477  1.00  0.00     0.062 A 
ATOM     17  C   UNL     1      10.186  17.757  72.313  1.00  0.00     0.158 A 
BRANCH  15  18
ATOM     18  O   UNL     1      10.651  16.396  70.344  1.00  0.00    -0.504 OA
ATOM     19  H   UNL     1      10.840  16.777  69.424  1.00  0.00     0.293 HD
ENDBRANCH  15  18
BRANCH  17  20
ATOM     20  O   UNL     1       8.841  17.846  71.957  1.00  0.00    -0.504 OA
ATOM     21  H   UNL     1       8.154  17.189  72.307  1.00  0.00     0.293 HD
ENDBRANCH  17  20
ENDBRANCH   1  12
BRANCH   2  22
ATOM     22  O   UNL     1      12.269  21.182  74.149  1.00  0.00    -0.502 OA
ATOM     23  H   UNL     1      12.053  20.826  73.225  1.00  0.00     0.293 HD
ENDBRANCH   2  22
BRANCH   6  24
ATOM     24  O   UNL     1      14.073  21.828  78.983  1.00  0.00    -0.507 OA
ATOM     25  H   UNL     1      13.689  22.530  78.361  1.00  0.00     0.293 HD
ENDBRANCH   6  24
BRANCH   8  26
ATOM     26  O   UNL     1      14.582  17.237  80.432  1.00  0.00    -0.508 OA
ATOM     27  H   UNL     1      15.553  17.072  80.666  1.00  0.00     0.293 HD
ENDBRANCH   8  26
TORSDOF 6
ENDMDL
MODEL 7
REMARK VINA RESULT:    -4.578     12.819     15.473
REMARK INTER + INTRA:          -5.821
REMARK INTER:                  -5.582
REMARK INTRA:                  -0.239
REMARK UNBOUND:                -0.306
REMARK SMILES O=c1c(O)c(-c2ccc(O)c(O)c2)oc2cc(O)cc(O)c12
REMARK SMILES IDX 5 1 3 2 2 3 1 4 22 5 20 6 19 7 17 8 16 9 15 10 14 11 6 12
REMARK SMILES IDX 7 13 8 14 9 15 13 16 11 17 10 18 12 20 4 22 21 24 18 26
REMARK H PARENT 10 19 12 21 4 23 21 25 18 27
REMARK Flexibility Score: inf
ROOT
ATOM      1  C   UNL     1      14.480  19.967  78.892  1.00  0.00     0.180 A 
ATOM      2  C   UNL     1      15.216  19.952  77.691  1.00  0.00     0.208 A 
ATOM      3  C   UNL     1      15.626  18.717  77.163  1.00  0.00     0.238 A 
ATOM      4  O   UNL     1      16.295  18.691  76.095  1.00  0.00    -0.285 OA
ATOM      5  C   UNL     1      15.277  17.524  77.829  1.00  0.00     0.111 A 
ATOM      6  C   UNL     1      15.647  16.240  77.361  1.00  0.00     0.134 A 
ATOM      7  C   UNL     1      15.253  15.099  78.077  1.00  0.00     0.093 A 
ATOM      8  C   UNL     1      14.497  15.218  79.249  1.00  0.00     0.123 A 
ATOM      9  C   UNL     1      14.130  16.483  79.713  1.00  0.00     0.094 A 
ATOM     10  C   UNL     1      14.514  17.632  79.016  1.00  0.00     0.146 A 
ATOM     11  O   UNL     1      14.156  18.821  79.484  1.00  0.00    -0.452 OA
ENDROOT
BRANCH   1  12
ATOM     12  C   UNL     1      14.028  21.229  79.521  1.00  0.00     0.025 A 
ATOM     13  C   UNL     1      12.657  21.517  79.584  1.00  0.00     0.016 A 
ATOM     14  C   UNL     1      12.206  22.692  80.192  1.00  0.00     0.051 A 
ATOM     15  C   UNL     1      13.118  23.589  80.759  1.00  0.00     0.157 A 
ATOM     16  C   UNL     1      14.942  22.122  80.111  1.00  0.00     0.062 A 
ATOM     17  C   UNL     1      14.492  23.301  80.723  1.00  0.00     0.158 A 
BRANCH  15  18
ATOM     18  O   UNL     1      12.639  24.754  81.356  1.00  0.00    -0.504 OA
ATOM     19  H   UNL     1      12.848  24.990  82.319  1.00  0.00     0.293 HD
ENDBRANCH  15  18
BRANCH  17  20
ATOM     20  O   UNL     1      15.405  24.183  81.299  1.00  0.00    -0.504 OA
ATOM     21  H   UNL     1      15.106  25.041  81.746  1.00  0.00     0.293 HD
ENDBRANCH  17  20
ENDBRANCH   1  12
BRANCH   2  22
ATOM     22  O   UNL     1      15.506  21.144  77.025  1.00  0.00    -0.502 OA
ATOM     23  H   UNL     1      16.308  21.244  76.414  1.00  0.00     0.293 HD
ENDBRANCH   2  22
BRANCH   6  24
ATOM     24  O   UNL     1      16.400  16.089  76.196  1.00  0.00    -0.507 OA
ATOM     25  H   UNL     1      17.264  16.599  76.050  1.00  0.00     0.293 HD
ENDBRANCH   6  24
BRANCH   8  26
ATOM     26  O   UNL     1      14.105  14.085  79.957  1.00  0.00    -0.508 OA
ATOM     27  H   UNL     1      14.752  13.580  80.551  1.00  0.00     0.293 HD
ENDBRANCH   8  26
TORSDOF 6
ENDMDL
MODEL 8
REMARK VINA RESULT:    -4.576     10.977     13.738
REMARK INTER + INTRA:          -5.818
REMARK INTER:                  -5.667
REMARK INTRA:                  -0.151
REMARK UNBOUND:                -0.306
REMARK SMILES O=c1c(O)c(-c2ccc(O)c(O)c2)oc2cc(O)cc(O)c12
REMARK SMILES IDX 5 1 3 2 2 3 1 4 22 5 20 6 19 7 17 8 16 9 15 10 14 11 6 12
REMARK SMILES IDX 7 13 8 14 9 15 13 16 11 17 10 18 12 20 4 22 21 24 18 26
REMARK H PARENT 10 19 12 21 4 23 21 25 18 27
REMARK Flexibility Score: inf
ROOT
ATOM      1  C   UNL     1      13.908  19.231  78.600  1.00  0.00     0.180 A 
ATOM      2  C   UNL     1      13.747  19.463  77.220  1.00  0.00     0.208 A 
ATOM      3  C   UNL     1      13.310  20.726  76.790  1.00  0.00     0.238 A 
ATOM      4  O   UNL     1      13.152  20.942  75.557  1.00  0.00    -0.285 OA
ATOM      5  C   UNL     1      13.064  21.738  77.740  1.00  0.00     0.111 A 
ATOM      6  C   UNL     1      12.627  23.039  77.390  1.00  0.00     0.134 A 
ATOM      7  C   UNL     1      12.413  23.994  78.395  1.00  0.00     0.093 A 
ATOM      8  C   UNL     1      12.628  23.674  79.740  1.00  0.00     0.123 A 
ATOM      9  C   UNL     1      13.058  22.393  80.089  1.00  0.00     0.094 A 
ATOM     10  C   UNL     1      13.276  21.427  79.104  1.00  0.00     0.146 A 
ATOM     11  O   UNL     1      13.681  20.215  79.465  1.00  0.00    -0.452 OA
ENDROOT
BRANCH   1  12
ATOM     12  C   UNL     1      14.345  17.921  79.131  1.00  0.00     0.025 A 
ATOM     13  C   UNL     1      15.506  17.847  79.916  1.00  0.00     0.016 A 
ATOM     14  C   UNL     1      15.927  16.624  80.446  1.00  0.00     0.051 A 
ATOM     15  C   UNL     1      15.186  15.461  80.214  1.00  0.00     0.157 A 
ATOM     16  C   UNL     1      13.590  16.754  78.917  1.00  0.00     0.062 A 
ATOM     17  C   UNL     1      14.009  15.525  79.450  1.00  0.00     0.158 A 
BRANCH  15  18
ATOM     18  O   UNL     1      15.631  14.255  80.753  1.00  0.00    -0.504 OA
ATOM     19  H   UNL     1      15.620  13.392  80.222  1.00  0.00     0.293 HD
ENDBRANCH  15  18
BRANCH  17  20
ATOM     20  O   UNL     1      13.258  14.373  79.226  1.00  0.00    -0.504 OA
ATOM     21  H   UNL     1      12.731  14.239  78.372  1.00  0.00     0.293 HD
ENDBRANCH  17  20
ENDBRANCH   1  12
BRANCH   2  22
ATOM     22  O   UNL     1      14.044  18.458  76.296  1.00  0.00    -0.502 OA
ATOM     23  H   UNL     1      14.986  18.112  76.154  1.00  0.00     0.293 HD
ENDBRANCH   2  22
BRANCH   6  24
ATOM     24  O   UNL     1      12.405  23.388  76.057  1.00  0.00    -0.507 OA
ATOM     25  H   UNL     1      11.577  23.085  75.558  1.00  0.00     0.293 HD
ENDBRANCH   6  24
BRANCH   8  26
ATOM     26  O   UNL     1      12.416  24.624  80.737  1.00  0.00    -0.508 OA
ATOM     27  H   UNL     1      12.513  24.393  81.719  1.00  0.00     0.293 HD
ENDBRANCH   8  26
TORSDOF 6
ENDMDL
MODEL 9
REMARK VINA RESULT:    -4.415      2.440      3.828
REMARK INTER + INTRA:          -5.624
REMARK INTER:                  -5.416
REMARK INTRA:                  -0.208
REMARK UNBOUND:                -0.306
REMARK SMILES O=c1c(O)c(-c2ccc(O)c(O)c2)oc2cc(O)cc(O)c12
REMARK SMILES IDX 5 1 3 2 2 3 1 4 22 5 20 6 19 7 17 8 16 9 15 10 14 11 6 12
REMARK SMILES IDX 7 13 8 14 9 15 13 16 11 17 10 18 12 20 4 22 21 24 18 26
REMARK H PARENT 10 19 12 21 4 23 21 25 18 27
REMARK Flexibility Score: inf
ROOT
ATOM      1  C   UNL     1       6.545  24.199  71.606  1.00  0.00     0.180 A 
ATOM      2  C   UNL     1       6.370  23.678  70.309  1.00  0.00     0.208 A 
ATOM      3  C   UNL     1       5.123  23.826  69.681  1.00  0.00     0.238 A 
ATOM      4  O   UNL     1       4.951  23.355  68.524  1.00  0.00    -0.285 OA
ATOM      5  C   UNL     1       4.084  24.508  70.347  1.00  0.00     0.111 A 
ATOM      6  C   UNL     1       2.801  24.704  69.783  1.00  0.00     0.134 A 
ATOM      7  C   UNL     1       1.822  25.400  70.507  1.00  0.00     0.093 A 
ATOM      8  C   UNL     1       2.103  25.905  71.782  1.00  0.00     0.123 A 
ATOM      9  C   UNL     1       3.367  25.713  72.342  1.00  0.00     0.094 A 
ATOM     10  C   UNL     1       4.355  25.020  71.638  1.00  0.00     0.146 A 
ATOM     11  O   UNL     1       5.547  24.848  72.197  1.00  0.00    -0.452 OA
ENDROOT
BRANCH   1  12
ATOM     12  C   UNL     1       7.823  24.065  72.340  1.00  0.00     0.025 A 
ATOM     13  C   UNL     1       8.241  22.798  72.775  1.00  0.00     0.016 A 
ATOM     14  C   UNL     1       9.454  22.646  73.452  1.00  0.00     0.051 A 
ATOM     15  C   UNL     1      10.275  23.752  73.690  1.00  0.00     0.157 A 
ATOM     16  C   UNL     1       8.661  25.174  72.562  1.00  0.00     0.062 A 
ATOM     17  C   UNL     1       9.880  25.022  73.239  1.00  0.00     0.158 A 
BRANCH  15  18
ATOM     18  O   UNL     1      11.478  23.570  74.370  1.00  0.00    -0.504 OA
ATOM     19  H   UNL     1      11.517  23.149  75.291  1.00  0.00     0.293 HD
ENDBRANCH  15  18
BRANCH  17  20
ATOM     20  O   UNL     1      10.700  26.128  73.460  1.00  0.00    -0.504 OA
ATOM     21  H   UNL     1      10.812  26.854  72.763  1.00  0.00     0.293 HD
ENDBRANCH  17  20
ENDBRANCH   1  12
BRANCH   2  22
ATOM     22  O   UNL     1       7.431  23.051  69.651  1.00  0.00    -0.502 OA
ATOM     23  H   UNL     1       7.298  22.243  69.054  1.00  0.00     0.293 HD
ENDBRANCH   2  22
BRANCH   6  24
ATOM     24  O   UNL     1       2.492  24.213  68.513  1.00  0.00    -0.507 OA
ATOM     25  H   UNL     1       1.897  23.402  68.385  1.00  0.00     0.293 HD
ENDBRANCH   6  24
BRANCH   8  26
ATOM     26  O   UNL     1       1.131  26.598  72.500  1.00  0.00    -0.508 OA
ATOM     27  H   UNL     1       0.263  26.894  72.069  1.00  0.00     0.293 HD
ENDBRANCH   8  26
TORSDOF 6
ENDMDL
