MODEL 1
REMARK VINA RESULT:    15.761      0.000      0.000
REMARK INTER + INTRA:          17.066
REMARK INTER:                  17.143
REMARK INTRA:                  -0.078
REMARK UNBOUND:                -0.078
REMARK SMILES CC1(C)CC[C@@]2(C(=O)[O-])CC[C@]3(C)C(=CC[C@H]4[C@@]5(C)CC[C@@H](O)C(C)(C)[C@@H]5CC[C@@]43C)[C@H]2C1
REMARK SMILES IDX 6 1 5 2 10 3 32 4 4 5 11 6 14 7 33 8 2 9 12 10 15 11 1 12
REMARK SMILES IDX 3 13 13 14 30 15 16 16 17 17 29 18 31 19 18 20 28 21 27 22
REMARK SMILES IDX 20 23 19 24 24 25 21 26 22 27 25 28 26 29 7 30 8 31 9 32
REMARK SMILES IDX 23 33
REMARK H PARENT 23 34
REMARK Flexibility Score: inf
ROOT
ATOM      1  C   UNL     1       4.306   3.372 -22.362  1.00  0.00     0.017 C 
ATOM      2  C   UNL     1       5.571   2.851 -21.604  1.00  0.00     0.014 C 
ATOM      3  C   UNL     1       4.732   3.971 -23.694  1.00  0.00     0.014 C 
ATOM      4  C   UNL     1       3.325   2.233 -22.680  1.00  0.00     0.028 C 
ATOM      5  C   UNL     1       5.437   1.541 -20.846  1.00  0.00     0.007 C 
ATOM      6  C   UNL     1       5.413   2.932 -24.639  1.00  0.00     0.013 C 
ATOM      7  C   UNL     1       3.742   1.252 -23.814  1.00  0.00    -0.064 C 
ATOM      8  C   UNL     1       2.890   1.417 -21.437  1.00  0.00     0.015 C 
ATOM      9  C   UNL     1       4.027   1.056 -20.390  1.00  0.00    -0.035 C 
ATOM     10  C   UNL     1       4.601   1.605 -24.963  1.00  0.00    -0.006 C 
ATOM     11  C   UNL     1       2.923   0.260 -24.093  1.00  0.00    -0.027 C 
ATOM     12  C   UNL     1       4.117  -0.467 -20.273  1.00  0.00     0.011 C 
ATOM     13  C   UNL     1       3.761   1.622 -19.010  1.00  0.00     0.011 C 
ATOM     14  C   UNL     1       3.588   1.950 -26.183  1.00  0.00     0.017 C 
ATOM     15  C   UNL     1       5.551   0.307 -25.363  1.00  0.00    -0.020 C 
ATOM     16  C   UNL     1       3.445  -1.108 -24.489  1.00  0.00     0.032 C 
ATOM     17  C   UNL     1       4.992  -1.090 -24.781  1.00  0.00     0.006 C 
ATOM     18  C   UNL     1       6.986   0.300 -24.720  1.00  0.00     0.008 C 
ATOM     19  C   UNL     1       5.912   0.533 -26.942  1.00  0.00     0.012 C 
ATOM     20  C   UNL     1       5.619  -2.493 -25.300  1.00  0.00    -0.025 C 
ATOM     21  C   UNL     1       7.822  -1.058 -24.941  1.00  0.00     0.005 C 
ATOM     22  C   UNL     1       7.092  -2.221 -25.707  1.00  0.00     0.003 C 
ATOM     23  C   UNL     1       4.852  -3.084 -26.567  1.00  0.00     0.010 C 
ATOM     24  C   UNL     1       5.585  -3.518 -24.096  1.00  0.00     0.012 C 
ATOM     25  C   UNL     1       7.978  -3.449 -26.215  1.00  0.00    -0.006 C 
ATOM     26  C   UNL     1       5.784  -3.676 -27.661  1.00  0.00     0.033 C 
ATOM     27  C   UNL     1       7.025  -4.419 -27.106  1.00  0.00     0.120 C 
ATOM     28  C   UNL     1       8.593  -4.249 -25.012  1.00  0.00     0.014 C 
ATOM     29  C   UNL     1       9.145  -2.941 -27.106  1.00  0.00     0.014 C 
ENDROOT
BRANCH   1  30
ATOM     30  C   UNL     1       3.582   4.473 -21.524  1.00  0.00     0.048 C 
ATOM     31  O   UNL     1       2.906   5.372 -22.101  1.00  0.00    -0.550 OA
ATOM     32  O   UNL     1       3.753   4.578 -20.175  1.00  0.00    -0.550 OA
ENDBRANCH   1  30
BRANCH  27  33
ATOM     33  O   UNL     1       7.695  -5.125 -28.120  1.00  0.00    -0.393 OA
ATOM     34  H   UNL     1       7.426  -4.733 -29.001  1.00  0.00     0.210 HD
ENDBRANCH  27  33
TORSDOF 2
ENDMDL
