MODEL 1
REMARK VINA RESULT:    56.619      0.000      0.000
REMARK INTER + INTRA:          61.642
REMARK INTER:                  61.584
REMARK INTRA:                   0.058
REMARK UNBOUND:                 0.058
REMARK SMILES CC(=O)[C@H]1CC[C@@H]2[C@@H]3CC=C4C[C@@H](O)CC[C@@]4(C)[C@@H]3CC[C@]12C
REMARK SMILES IDX 4 1 5 2 6 3 7 4 22 5 21 6 20 7 19 8 8 9 9 10 10 11 11 12
REMARK SMILES IDX 17 13 16 14 15 15 13 16 12 17 18 18 23 19 2 20 1 21 3 22
REMARK SMILES IDX 14 23
REMARK H PARENT 14 24
REMARK Flexibility Score: inf
ROOT
ATOM      1  C   UNL     1      14.204  11.356  24.919  1.00  0.00     0.062 C 
ATOM      2  C   UNL     1      15.156  11.423  23.713  1.00  0.00     0.012 C 
ATOM      3  C   UNL     1      15.691  12.854  23.647  1.00  0.00     0.005 C 
ATOM      4  C   UNL     1      14.915  13.664  24.697  1.00  0.00    -0.001 C 
ATOM      5  C   UNL     1      14.510  12.635  25.757  1.00  0.00    -0.020 C 
ATOM      6  C   UNL     1      15.724  12.336  26.674  1.00  0.00     0.008 C 
ATOM      7  C   UNL     1      16.260  13.562  27.408  1.00  0.00     0.005 C 
ATOM      8  C   UNL     1      16.536  14.813  26.518  1.00  0.00     0.003 C 
ATOM      9  C   UNL     1      15.600  14.957  25.254  1.00  0.00     0.000 C 
ATOM     10  C   UNL     1      16.213  15.808  24.111  1.00  0.00     0.031 C 
ATOM     11  C   UNL     1      17.172  16.842  24.614  1.00  0.00    -0.027 C 
ATOM     12  C   UNL     1      18.087  16.549  25.557  1.00  0.00    -0.065 C 
ATOM     13  C   UNL     1      18.055  15.194  26.283  1.00  0.00    -0.008 C 
ATOM     14  C   UNL     1      18.795  15.359  27.656  1.00  0.00     0.014 C 
ATOM     15  C   UNL     1      20.196  16.008  27.573  1.00  0.00     0.033 C 
ATOM     16  C   UNL     1      20.359  17.048  26.443  1.00  0.00     0.118 C 
ATOM     17  C   UNL     1      19.018  17.645  26.024  1.00  0.00     0.063 C 
ATOM     18  C   UNL     1      18.791  14.125  25.445  1.00  0.00     0.016 C 
ATOM     19  C   UNL     1      13.297  13.109  26.600  1.00  0.00     0.012 C 
ENDROOT
BRANCH   1  20
ATOM     20  C   UNL     1      12.759  11.246  24.446  1.00  0.00     0.133 C 
ATOM     21  C   UNL     1      12.376  11.588  23.036  1.00  0.00     0.088 C 
ATOM     22  O   UNL     1      11.887  10.875  25.218  1.00  0.00    -0.300 OA
ENDBRANCH   1  20
BRANCH  16  23
ATOM     23  O   UNL     1      21.215  18.081  26.855  1.00  0.00    -0.393 OA
ATOM     24  H   UNL     1      20.657  18.897  26.944  1.00  0.00     0.210 HD
ENDBRANCH  16  23
TORSDOF 2
ENDMDL
