MODEL 1
REMARK VINA RESULT:     0.797      0.000      0.000
REMARK INTER + INTRA:           1.406
REMARK INTER:                   0.983
REMARK INTRA:                   0.422
REMARK UNBOUND:                 0.422
REMARK SMILES O=c1c(O)c(-c2cc(O)c(O)c(O)c2)oc2cc(O)cc(O)c12
REMARK SMILES IDX 5 1 3 2 2 3 1 4 23 5 21 6 20 7 18 8 17 9 16 10 15 11 6 12
REMARK SMILES IDX 7 13 8 14 14 15 10 16 12 17 9 18 11 20 13 22 4 24 22 26
REMARK SMILES IDX 19 28
REMARK H PARENT 9 19 11 21 13 23 4 25 22 27 19 29
REMARK Flexibility Score: inf
ROOT
ATOM      1  C   UNL     1       8.316 -33.872  16.141  1.00  0.00     0.180 A 
ATOM      2  C   UNL     1       7.179 -34.654  15.855  1.00  0.00     0.208 A 
ATOM      3  C   UNL     1       7.317 -35.767  15.012  1.00  0.00     0.238 A 
ATOM      4  O   UNL     1       6.308 -36.481  14.757  1.00  0.00    -0.285 OA
ATOM      5  C   UNL     1       8.576 -36.069  14.454  1.00  0.00     0.111 A 
ATOM      6  C   UNL     1       8.798 -37.171  13.593  1.00  0.00     0.134 A 
ATOM      7  C   UNL     1      10.080 -37.398  13.071  1.00  0.00     0.093 A 
ATOM      8  C   UNL     1      11.144 -36.547  13.395  1.00  0.00     0.123 A 
ATOM      9  C   UNL     1      10.929 -35.461  14.244  1.00  0.00     0.094 A 
ATOM     10  C   UNL     1       9.659 -35.217  14.775  1.00  0.00     0.146 A 
ATOM     11  O   UNL     1       9.485 -34.179  15.585  1.00  0.00    -0.452 OA
ENDROOT
BRANCH   1  12
ATOM     12  C   UNL     1       8.256 -32.695  17.036  1.00  0.00     0.029 A 
ATOM     13  C   UNL     1       9.402 -31.905  17.215  1.00  0.00     0.062 A 
ATOM     14  C   UNL     1       9.378 -30.797  18.073  1.00  0.00     0.162 A 
ATOM     15  C   UNL     1       7.091 -32.382  17.756  1.00  0.00     0.062 A 
ATOM     16  C   UNL     1       8.203 -30.478  18.774  1.00  0.00     0.200 A 
ATOM     17  C   UNL     1       7.060 -31.280  18.616  1.00  0.00     0.162 A 
BRANCH  14  18
ATOM     18  O   UNL     1      10.520 -30.013  18.231  1.00  0.00    -0.504 OA
ATOM     19  H   UNL     1      11.174 -30.172  18.989  1.00  0.00     0.293 HD
ENDBRANCH  14  18
BRANCH  16  20
ATOM     20  O   UNL     1       8.161 -29.377  19.630  1.00  0.00    -0.502 OA
ATOM     21  H   UNL     1       7.855 -29.453  20.592  1.00  0.00     0.293 HD
ENDBRANCH  16  20
BRANCH  17  22
ATOM     22  O   UNL     1       5.882 -30.999  19.309  1.00  0.00    -0.504 OA
ATOM     23  H   UNL     1       5.032 -31.533  19.167  1.00  0.00     0.293 HD
ENDBRANCH  17  22
ENDBRANCH   1  12
BRANCH   2  24
ATOM     24  O   UNL     1       5.933 -34.305  16.380  1.00  0.00    -0.502 OA
ATOM     25  H   UNL     1       5.780 -33.441  16.886  1.00  0.00     0.293 HD
ENDBRANCH   2  24
BRANCH   6  26
ATOM     26  O   UNL     1       7.758 -38.037  13.251  1.00  0.00    -0.507 OA
ATOM     27  H   UNL     1       7.611 -38.912  13.740  1.00  0.00     0.293 HD
ENDBRANCH   6  26
BRANCH   8  28
ATOM     28  O   UNL     1      12.416 -36.772  12.876  1.00  0.00    -0.508 OA
ATOM     29  H   UNL     1      12.579 -36.829  11.877  1.00  0.00     0.293 HD
ENDBRANCH   8  28
TORSDOF 7
ENDMDL
MODEL 2
REMARK VINA RESULT:     2.150      2.158      3.195
REMARK INTER + INTRA:           3.075
REMARK INTER:                   2.669
REMARK INTRA:                   0.406
REMARK UNBOUND:                 0.422
REMARK SMILES O=c1c(O)c(-c2cc(O)c(O)c(O)c2)oc2cc(O)cc(O)c12
REMARK SMILES IDX 5 1 3 2 2 3 1 4 23 5 21 6 20 7 18 8 17 9 16 10 15 11 6 12
REMARK SMILES IDX 7 13 8 14 14 15 10 16 12 17 9 18 11 20 13 22 4 24 22 26
REMARK SMILES IDX 19 28
REMARK H PARENT 9 19 11 21 13 23 4 25 22 27 19 29
REMARK Flexibility Score: inf
ROOT
ATOM      1  C   UNL     1       8.517 -33.800  16.900  1.00  0.00     0.180 A 
ATOM      2  C   UNL     1       7.822 -34.321  18.009  1.00  0.00     0.208 A 
ATOM      3  C   UNL     1       7.171 -35.558  17.881  1.00  0.00     0.238 A 
ATOM      4  O   UNL     1       6.554 -36.040  18.870  1.00  0.00    -0.285 OA
ATOM      5  C   UNL     1       7.208 -36.242  16.649  1.00  0.00     0.111 A 
ATOM      6  C   UNL     1       6.576 -37.490  16.436  1.00  0.00     0.134 A 
ATOM      7  C   UNL     1       6.651 -38.102  15.176  1.00  0.00     0.093 A 
ATOM      8  C   UNL     1       7.347 -37.490  14.126  1.00  0.00     0.123 A 
ATOM      9  C   UNL     1       7.972 -36.260  14.332  1.00  0.00     0.094 A 
ATOM     10  C   UNL     1       7.910 -35.634  15.580  1.00  0.00     0.146 A 
ATOM     11  O   UNL     1       8.518 -34.466  15.749  1.00  0.00    -0.452 OA
ENDROOT
BRANCH   1  12
ATOM     12  C   UNL     1       9.244 -32.511  16.962  1.00  0.00     0.029 A 
ATOM     13  C   UNL     1      10.180 -32.199  15.965  1.00  0.00     0.062 A 
ATOM     14  C   UNL     1      10.898 -30.996  16.012  1.00  0.00     0.162 A 
ATOM     15  C   UNL     1       9.058 -31.618  18.030  1.00  0.00     0.062 A 
ATOM     16  C   UNL     1      10.691 -30.097  17.072  1.00  0.00     0.200 A 
ATOM     17  C   UNL     1       9.771 -30.415  18.085  1.00  0.00     0.162 A 
BRANCH  14  18
ATOM     18  O   UNL     1      11.815 -30.691  15.007  1.00  0.00    -0.504 OA
ATOM     19  H   UNL     1      11.808 -31.174  14.116  1.00  0.00     0.293 HD
ENDBRANCH  14  18
BRANCH  16  20
ATOM     20  O   UNL     1      11.394 -28.893  17.132  1.00  0.00    -0.502 OA
ATOM     21  H   UNL     1      12.237 -28.788  17.683  1.00  0.00     0.293 HD
ENDBRANCH  16  20
BRANCH  17  22
ATOM     22  O   UNL     1       9.554 -29.552  19.159  1.00  0.00    -0.504 OA
ATOM     23  H   UNL     1       8.753 -28.932  19.199  1.00  0.00     0.293 HD
ENDBRANCH  17  22
ENDBRANCH   1  12
BRANCH   2  24
ATOM     24  O   UNL     1       7.758 -33.600  19.204  1.00  0.00    -0.502 OA
ATOM     25  H   UNL     1       8.179 -33.935  20.062  1.00  0.00     0.293 HD
ENDBRANCH   2  24
BRANCH   6  26
ATOM     26  O   UNL     1       5.875 -38.125  17.463  1.00  0.00    -0.507 OA
ATOM     27  H   UNL     1       6.344 -38.485  18.285  1.00  0.00     0.293 HD
ENDBRANCH   6  26
BRANCH   8  28
ATOM     28  O   UNL     1       7.421 -38.098  12.875  1.00  0.00    -0.508 OA
ATOM     29  H   UNL     1       7.823 -39.021  12.757  1.00  0.00     0.293 HD
ENDBRANCH   8  28
TORSDOF 7
ENDMDL
