MODEL 1
REMARK VINA RESULT:    -3.596      0.000      0.000
REMARK INTER + INTRA:          -6.463
REMARK INTER:                  -5.489
REMARK INTRA:                  -0.974
REMARK UNBOUND:                -0.974
REMARK SMILES CC(=O)CCC=C(C)CCC=C(C)CCC=C(C)C
REMARK SMILES IDX 10 1 11 2 12 3 13 4 14 5 15 6 16 7 18 8 17 9 19 10 9 11 7 12
REMARK SMILES IDX 6 13 8 14 5 15 4 16 2 17 3 18 1 19
REMARK H PARENT
REMARK Flexibility Score: inf
ROOT
ATOM      1  C   UNL     1      25.402  26.832  28.354  1.00  0.00     0.032 C 
ENDROOT
BRANCH   1   2
ATOM      2  C   UNL     1      23.943  26.437  28.378  1.00  0.00    -0.028 C 
ATOM      3  C   UNL     1      22.907  27.306  28.353  1.00  0.00    -0.077 C 
ATOM      4  C   UNL     1      23.118  28.803  28.361  1.00  0.00     0.039 C 
BRANCH   3   5
ATOM      5  C   UNL     1      21.492  26.765  28.315  1.00  0.00     0.034 C 
BRANCH   5   6
ATOM      6  C   UNL     1      21.347  25.614  27.309  1.00  0.00     0.032 C 
BRANCH   6   7
ATOM      7  C   UNL     1      20.124  25.782  26.438  1.00  0.00    -0.028 C 
ATOM      8  C   UNL     1      20.783  23.949  24.864  1.00  0.00     0.039 C 
ATOM      9  C   UNL     1      19.874  25.064  25.321  1.00  0.00    -0.080 C 
ATOM     10  C   UNL     1      18.633  25.384  24.528  1.00  0.00     0.039 C 
ENDBRANCH   6   7
ENDBRANCH   5   6
ENDBRANCH   3   5
ENDBRANCH   1   2
BRANCH   1  11
ATOM     11  C   UNL     1      26.113  26.413  29.648  1.00  0.00     0.034 C 
BRANCH  11  12
ATOM     12  C   UNL     1      27.113  25.295  29.412  1.00  0.00    -0.077 C 
ATOM     13  C   UNL     1      28.355  25.509  28.921  1.00  0.00    -0.028 C 
ATOM     14  C   UNL     1      26.697  23.875  29.704  1.00  0.00     0.039 C 
BRANCH  13  15
ATOM     15  C   UNL     1      28.944  26.865  28.625  1.00  0.00     0.035 C 
BRANCH  15  16
ATOM     16  C   UNL     1      28.871  27.172  27.126  1.00  0.00     0.079 C 
BRANCH  16  17
ATOM     17  C   UNL     1      28.510  28.617  26.896  1.00  0.00     0.130 C 
ATOM     18  O   UNL     1      28.424  29.375  27.850  1.00  0.00    -0.300 OA
ATOM     19  C   UNL     1      28.267  29.151  25.515  1.00  0.00     0.087 C 
ENDBRANCH  16  17
ENDBRANCH  15  16
ENDBRANCH  13  15
ENDBRANCH  11  12
ENDBRANCH   1  11
TORSDOF 9
ENDMDL
MODEL 2
REMARK VINA RESULT:    -3.451      2.406      7.151
REMARK INTER + INTRA:          -6.242
REMARK INTER:                  -5.005
REMARK INTRA:                  -1.237
REMARK UNBOUND:                -0.974
REMARK SMILES CC(=O)CCC=C(C)CCC=C(C)CCC=C(C)C
REMARK SMILES IDX 10 1 11 2 12 3 13 4 14 5 15 6 16 7 18 8 17 9 19 10 9 11 7 12
REMARK SMILES IDX 6 13 8 14 5 15 4 16 2 17 3 18 1 19
REMARK H PARENT
REMARK Flexibility Score: inf
ROOT
ATOM      1  C   UNL     1      25.518  26.768  29.167  1.00  0.00     0.032 C 
ENDROOT
BRANCH   1   2
ATOM      2  C   UNL     1      26.800  26.209  28.594  1.00  0.00    -0.028 C 
ATOM      3  C   UNL     1      26.869  25.201  27.695  1.00  0.00    -0.077 C 
ATOM      4  C   UNL     1      25.635  24.475  27.211  1.00  0.00     0.039 C 
BRANCH   3   5
ATOM      5  C   UNL     1      28.223  24.787  27.155  1.00  0.00     0.034 C 
BRANCH   5   6
ATOM      6  C   UNL     1      29.123  26.000  26.877  1.00  0.00     0.032 C 
BRANCH   6   7
ATOM      7  C   UNL     1      28.511  26.929  25.855  1.00  0.00    -0.028 C 
ATOM      8  C   UNL     1      28.735  28.954  27.312  1.00  0.00     0.039 C 
ATOM      9  C   UNL     1      28.302  28.250  26.048  1.00  0.00    -0.080 C 
ATOM     10  C   UNL     1      27.633  29.037  24.951  1.00  0.00     0.039 C 
ENDBRANCH   6   7
ENDBRANCH   5   6
ENDBRANCH   3   5
ENDBRANCH   1   2
BRANCH   1  11
ATOM     11  C   UNL     1      25.068  28.022  28.405  1.00  0.00     0.034 C 
BRANCH  11  12
ATOM     12  C   UNL     1      23.776  28.594  28.962  1.00  0.00    -0.077 C 
ATOM     13  C   UNL     1      22.564  28.037  28.733  1.00  0.00    -0.028 C 
ATOM     14  C   UNL     1      23.835  29.859  29.780  1.00  0.00     0.039 C 
BRANCH  13  15
ATOM     15  C   UNL     1      22.335  26.750  27.982  1.00  0.00     0.035 C 
BRANCH  15  16
ATOM     16  C   UNL     1      20.842  26.412  27.931  1.00  0.00     0.079 C 
BRANCH  16  17
ATOM     17  C   UNL     1      20.540  25.510  26.763  1.00  0.00     0.130 C 
ATOM     18  O   UNL     1      21.295  24.585  26.506  1.00  0.00    -0.300 OA
ATOM     19  C   UNL     1      19.321  25.715  25.912  1.00  0.00     0.087 C 
ENDBRANCH  16  17
ENDBRANCH  15  16
ENDBRANCH  13  15
ENDBRANCH  11  12
ENDBRANCH   1  11
TORSDOF 9
ENDMDL
MODEL 3
REMARK VINA RESULT:    -3.412      3.187      7.496
REMARK INTER + INTRA:          -6.181
REMARK INTER:                  -5.438
REMARK INTRA:                  -0.743
REMARK UNBOUND:                -0.974
REMARK SMILES CC(=O)CCC=C(C)CCC=C(C)CCC=C(C)C
REMARK SMILES IDX 10 1 11 2 12 3 13 4 14 5 15 6 16 7 18 8 17 9 19 10 9 11 7 12
REMARK SMILES IDX 6 13 8 14 5 15 4 16 2 17 3 18 1 19
REMARK H PARENT
REMARK Flexibility Score: inf
ROOT
ATOM      1  C   UNL     1      22.116  27.630  27.957  1.00  0.00     0.032 C 
ENDROOT
BRANCH   1   2
ATOM      2  C   UNL     1      23.552  27.371  28.351  1.00  0.00    -0.028 C 
ATOM      3  C   UNL     1      24.332  28.237  29.036  1.00  0.00    -0.077 C 
ATOM      4  C   UNL     1      23.846  29.613  29.431  1.00  0.00     0.039 C 
BRANCH   3   5
ATOM      5  C   UNL     1      25.736  27.816  29.422  1.00  0.00     0.034 C 
BRANCH   5   6
ATOM      6  C   UNL     1      26.413  26.997  28.313  1.00  0.00     0.032 C 
BRANCH   6   7
ATOM      7  C   UNL     1      27.152  27.880  27.336  1.00  0.00    -0.028 C 
ATOM      8  C   UNL     1      27.628  26.009  25.741  1.00  0.00     0.039 C 
ATOM      9  C   UNL     1      27.729  27.446  26.194  1.00  0.00    -0.080 C 
ATOM     10  C   UNL     1      28.477  28.441  25.345  1.00  0.00     0.039 C 
ENDBRANCH   6   7
ENDBRANCH   5   6
ENDBRANCH   3   5
ENDBRANCH   1   2
BRANCH   1  11
ATOM     11  C   UNL     1      21.225  26.420  28.274  1.00  0.00     0.034 C 
BRANCH  11  12
ATOM     12  C   UNL     1      21.384  25.311  27.249  1.00  0.00    -0.077 C 
ATOM     13  C   UNL     1      20.441  25.024  26.322  1.00  0.00    -0.028 C 
ATOM     14  C   UNL     1      22.632  24.466  27.281  1.00  0.00     0.039 C 
BRANCH  13  15
ATOM     15  C   UNL     1      19.165  25.801  26.121  1.00  0.00     0.035 C 
BRANCH  15  16
ATOM     16  C   UNL     1      19.058  26.303  24.677  1.00  0.00     0.079 C 
BRANCH  16  17
ATOM     17  C   UNL     1      18.963  25.146  23.717  1.00  0.00     0.130 C 
ATOM     18  O   UNL     1      18.224  24.209  23.977  1.00  0.00    -0.300 OA
ATOM     19  C   UNL     1      19.749  25.125  22.439  1.00  0.00     0.087 C 
ENDBRANCH  16  17
ENDBRANCH  15  16
ENDBRANCH  13  15
ENDBRANCH  11  12
ENDBRANCH   1  11
TORSDOF 9
ENDMDL
MODEL 4
REMARK VINA RESULT:    -3.276      2.948      7.804
REMARK INTER + INTRA:          -5.974
REMARK INTER:                  -4.597
REMARK INTRA:                  -1.378
REMARK UNBOUND:                -0.974
REMARK SMILES CC(=O)CCC=C(C)CCC=C(C)CCC=C(C)C
REMARK SMILES IDX 10 1 11 2 12 3 13 4 14 5 15 6 16 7 18 8 17 9 19 10 9 11 7 12
REMARK SMILES IDX 6 13 8 14 5 15 4 16 2 17 3 18 1 19
REMARK H PARENT
REMARK Flexibility Score: inf
ROOT
ATOM      1  C   UNL     1      23.326  24.354  26.691  1.00  0.00     0.032 C 
ENDROOT
BRANCH   1   2
ATOM      2  C   UNL     1      24.349  24.137  27.782  1.00  0.00    -0.028 C 
ATOM      3  C   UNL     1      25.681  24.025  27.579  1.00  0.00    -0.077 C 
ATOM      4  C   UNL     1      26.285  24.045  26.194  1.00  0.00     0.039 C 
BRANCH   3   5
ATOM      5  C   UNL     1      26.598  23.876  28.778  1.00  0.00     0.034 C 
BRANCH   5   6
ATOM      6  C   UNL     1      26.558  25.113  29.686  1.00  0.00     0.032 C 
BRANCH   6   7
ATOM      7  C   UNL     1      27.363  26.255  29.112  1.00  0.00    -0.028 C 
ATOM      8  C   UNL     1      25.343  27.648  28.606  1.00  0.00     0.039 C 
ATOM      9  C   UNL     1      26.830  27.384  28.595  1.00  0.00    -0.080 C 
ATOM     10  C   UNL     1      27.763  28.415  28.011  1.00  0.00     0.039 C 
ENDBRANCH   6   7
ENDBRANCH   5   6
ENDBRANCH   3   5
ENDBRANCH   1   2
BRANCH   1  11
ATOM     11  C   UNL     1      21.898  24.178  27.225  1.00  0.00     0.034 C 
BRANCH  11  12
ATOM     12  C   UNL     1      21.119  25.482  27.210  1.00  0.00    -0.077 C 
ATOM     13  C   UNL     1      20.147  25.750  26.307  1.00  0.00    -0.028 C 
ATOM     14  C   UNL     1      21.463  26.545  28.222  1.00  0.00     0.039 C 
BRANCH  13  15
ATOM     15  C   UNL     1      19.648  24.781  25.265  1.00  0.00     0.035 C 
BRANCH  15  16
ATOM     16  C   UNL     1      19.194  25.526  24.006  1.00  0.00     0.079 C 
BRANCH  16  17
ATOM     17  C   UNL     1      19.636  24.794  22.766  1.00  0.00     0.130 C 
ATOM     18  O   UNL     1      20.747  24.289  22.730  1.00  0.00    -0.300 OA
ATOM     19  C   UNL     1      18.734  24.660  21.574  1.00  0.00     0.087 C 
ENDBRANCH  16  17
ENDBRANCH  15  16
ENDBRANCH  13  15
ENDBRANCH  11  12
ENDBRANCH   1  11
TORSDOF 9
ENDMDL
MODEL 5
REMARK VINA RESULT:    -3.200      1.629      3.596
REMARK INTER + INTRA:          -5.858
REMARK INTER:                  -4.949
REMARK INTRA:                  -0.909
REMARK UNBOUND:                -0.974
REMARK SMILES CC(=O)CCC=C(C)CCC=C(C)CCC=C(C)C
REMARK SMILES IDX 10 1 11 2 12 3 13 4 14 5 15 6 16 7 18 8 17 9 19 10 9 11 7 12
REMARK SMILES IDX 6 13 8 14 5 15 4 16 2 17 3 18 1 19
REMARK H PARENT
REMARK Flexibility Score: inf
ROOT
ATOM      1  C   UNL     1      21.746  27.167  28.647  1.00  0.00     0.032 C 
ENDROOT
BRANCH   1   2
ATOM      2  C   UNL     1      20.761  26.647  27.625  1.00  0.00    -0.028 C 
ATOM      3  C   UNL     1      20.905  25.496  26.930  1.00  0.00    -0.077 C 
ATOM      4  C   UNL     1      22.132  24.625  27.069  1.00  0.00     0.039 C 
BRANCH   3   5
ATOM      5  C   UNL     1      19.802  25.065  25.984  1.00  0.00     0.034 C 
BRANCH   5   6
ATOM      6  C   UNL     1      20.351  24.269  24.791  1.00  0.00     0.032 C 
BRANCH   6   7
ATOM      7  C   UNL     1      19.255  23.875  23.829  1.00  0.00    -0.028 C 
ATOM      8  C   UNL     1      20.140  25.303  21.971  1.00  0.00     0.039 C 
ATOM      9  C   UNL     1      19.130  24.355  22.572  1.00  0.00    -0.080 C 
ATOM     10  C   UNL     1      17.951  23.905  21.748  1.00  0.00     0.039 C 
ENDBRANCH   6   7
ENDBRANCH   5   6
ENDBRANCH   3   5
ENDBRANCH   1   2
BRANCH   1  11
ATOM     11  C   UNL     1      22.803  28.067  27.993  1.00  0.00     0.034 C 
BRANCH  11  12
ATOM     12  C   UNL     1      23.857  28.523  28.987  1.00  0.00    -0.077 C 
ATOM     13  C   UNL     1      25.024  27.865  29.178  1.00  0.00    -0.028 C 
ATOM     14  C   UNL     1      23.582  29.745  29.827  1.00  0.00     0.039 C 
BRANCH  13  15
ATOM     15  C   UNL     1      25.475  26.662  28.389  1.00  0.00     0.035 C 
BRANCH  15  16
ATOM     16  C   UNL     1      26.999  26.657  28.234  1.00  0.00     0.079 C 
BRANCH  16  17
ATOM     17  C   UNL     1      27.473  27.933  27.589  1.00  0.00     0.130 C 
ATOM     18  O   UNL     1      27.184  28.161  26.424  1.00  0.00    -0.300 OA
ATOM     19  C   UNL     1      28.283  28.940  28.351  1.00  0.00     0.087 C 
ENDBRANCH  16  17
ENDBRANCH  15  16
ENDBRANCH  13  15
ENDBRANCH  11  12
ENDBRANCH   1  11
TORSDOF 9
ENDMDL
MODEL 6
REMARK VINA RESULT:    -3.011      2.687      8.001
REMARK INTER + INTRA:          -5.570
REMARK INTER:                  -4.674
REMARK INTRA:                  -0.896
REMARK UNBOUND:                -0.974
REMARK SMILES CC(=O)CCC=C(C)CCC=C(C)CCC=C(C)C
REMARK SMILES IDX 10 1 11 2 12 3 13 4 14 5 15 6 16 7 18 8 17 9 19 10 9 11 7 12
REMARK SMILES IDX 6 13 8 14 5 15 4 16 2 17 3 18 1 19
REMARK H PARENT
REMARK Flexibility Score: inf
ROOT
ATOM      1  C   UNL     1      23.523  26.737  28.286  1.00  0.00     0.032 C 
ENDROOT
BRANCH   1   2
ATOM      2  C   UNL     1      24.899  26.118  28.366  1.00  0.00    -0.028 C 
ATOM      3  C   UNL     1      25.951  26.656  29.023  1.00  0.00    -0.077 C 
ATOM      4  C   UNL     1      25.864  28.000  29.709  1.00  0.00     0.039 C 
BRANCH   3   5
ATOM      5  C   UNL     1      27.257  25.889  29.074  1.00  0.00     0.034 C 
BRANCH   5   6
ATOM      6  C   UNL     1      28.166  26.226  27.884  1.00  0.00     0.032 C 
BRANCH   6   7
ATOM      7  C   UNL     1      28.712  27.632  27.976  1.00  0.00    -0.028 C 
ATOM      8  C   UNL     1      27.537  28.406  25.904  1.00  0.00     0.039 C 
ATOM      9  C   UNL     1      28.464  28.611  27.079  1.00  0.00    -0.080 C 
ATOM     10  C   UNL     1      29.123  29.951  27.280  1.00  0.00     0.039 C 
ENDBRANCH   6   7
ENDBRANCH   5   6
ENDBRANCH   3   5
ENDBRANCH   1   2
BRANCH   1  11
ATOM     11  C   UNL     1      22.508  25.761  27.676  1.00  0.00     0.034 C 
BRANCH  11  12
ATOM     12  C   UNL     1      21.081  26.261  27.817  1.00  0.00    -0.077 C 
ATOM     13  C   UNL     1      20.116  26.003  26.904  1.00  0.00    -0.028 C 
ATOM     14  C   UNL     1      20.723  27.112  29.009  1.00  0.00     0.039 C 
BRANCH  13  15
ATOM     15  C   UNL     1      20.292  25.130  25.687  1.00  0.00     0.035 C 
BRANCH  15  16
ATOM     16  C   UNL     1      18.932  24.764  25.083  1.00  0.00     0.079 C 
BRANCH  16  17
ATOM     17  C   UNL     1      18.955  24.925  23.585  1.00  0.00     0.130 C 
ATOM     18  O   UNL     1      19.462  25.922  23.095  1.00  0.00    -0.300 OA
ATOM     19  C   UNL     1      18.378  23.878  22.678  1.00  0.00     0.087 C 
ENDBRANCH  16  17
ENDBRANCH  15  16
ENDBRANCH  13  15
ENDBRANCH  11  12
ENDBRANCH   1  11
TORSDOF 9
ENDMDL
MODEL 7
REMARK VINA RESULT:    -2.748     11.148     15.313
REMARK INTER + INTRA:          -5.168
REMARK INTER:                  -3.942
REMARK INTRA:                  -1.226
REMARK UNBOUND:                -0.974
REMARK SMILES CC(=O)CCC=C(C)CCC=C(C)CCC=C(C)C
REMARK SMILES IDX 10 1 11 2 12 3 13 4 14 5 15 6 16 7 18 8 17 9 19 10 9 11 7 12
REMARK SMILES IDX 6 13 8 14 5 15 4 16 2 17 3 18 1 19
REMARK H PARENT
REMARK Flexibility Score: inf
ROOT
ATOM      1  C   UNL     1      26.286  38.468  19.999  1.00  0.00     0.032 C 
ENDROOT
BRANCH   1   2
ATOM      2  C   UNL     1      26.090  39.817  20.651  1.00  0.00    -0.028 C 
ATOM      3  C   UNL     1      26.492  40.995  20.124  1.00  0.00    -0.077 C 
ATOM      4  C   UNL     1      27.253  41.071  18.820  1.00  0.00     0.039 C 
BRANCH   3   5
ATOM      5  C   UNL     1      26.168  42.280  20.861  1.00  0.00     0.034 C 
BRANCH   5   6
ATOM      6  C   UNL     1      27.436  43.066  21.223  1.00  0.00     0.032 C 
BRANCH   6   7
ATOM      7  C   UNL     1      27.432  43.500  22.671  1.00  0.00    -0.028 C 
ATOM      8  C   UNL     1      28.850  41.579  23.427  1.00  0.00     0.039 C 
ATOM      9  C   UNL     1      28.035  42.826  23.674  1.00  0.00    -0.080 C 
ATOM     10  C   UNL     1      27.899  43.358  25.078  1.00  0.00     0.039 C 
ENDBRANCH   6   7
ENDBRANCH   5   6
ENDBRANCH   3   5
ENDBRANCH   1   2
BRANCH   1  11
ATOM     11  C   UNL     1      27.186  37.563  20.852  1.00  0.00     0.034 C 
BRANCH  11  12
ATOM     12  C   UNL     1      28.384  37.053  20.072  1.00  0.00    -0.077 C 
ATOM     13  C   UNL     1      28.891  35.808  20.230  1.00  0.00    -0.028 C 
ATOM     14  C   UNL     1      29.068  37.981  19.100  1.00  0.00     0.039 C 
BRANCH  13  15
ATOM     15  C   UNL     1      28.299  34.742  21.118  1.00  0.00     0.035 C 
BRANCH  15  16
ATOM     16  C   UNL     1      29.125  34.585  22.398  1.00  0.00     0.079 C 
BRANCH  16  17
ATOM     17  C   UNL     1      28.282  34.013  23.508  1.00  0.00     0.130 C 
ATOM     18  O   UNL     1      28.423  32.842  23.828  1.00  0.00    -0.300 OA
ATOM     19  C   UNL     1      27.280  34.854  24.242  1.00  0.00     0.087 C 
ENDBRANCH  16  17
ENDBRANCH  15  16
ENDBRANCH  13  15
ENDBRANCH  11  12
ENDBRANCH   1  11
TORSDOF 9
ENDMDL
