MODEL 1
REMARK VINA RESULT:    -3.553      0.000      0.000
REMARK INTER + INTRA:          -4.284
REMARK INTER:                  -4.279
REMARK INTRA:                  -0.004
REMARK UNBOUND:                -0.004
REMARK SMILES OCC(O)CO
REMARK SMILES IDX 3 1 5 2 6 3 2 5 1 6 4 8
REMARK H PARENT 6 4 1 7 4 9
REMARK Flexibility Score: inf
ROOT
ATOM      1  C   UNL     1     134.734 134.739 123.124  1.00  0.00     0.165 C 
ENDROOT
BRANCH   1   2
ATOM      2  C   UNL     1     136.208 134.761 123.542  1.00  0.00     0.190 C 
BRANCH   2   3
ATOM      3  O   UNL     1     137.013 134.976 122.416  1.00  0.00    -0.394 OA
ATOM      4  H   UNL     1     137.310 134.077 122.115  1.00  0.00     0.210 HD
ENDBRANCH   2   3
ENDBRANCH   1   2
BRANCH   1   5
ATOM      5  C   UNL     1     133.837 135.375 124.199  1.00  0.00     0.190 C 
BRANCH   5   6
ATOM      6  O   UNL     1     133.418 136.654 123.802  1.00  0.00    -0.394 OA
ATOM      7  H   UNL     1     133.976 137.309 124.298  1.00  0.00     0.210 HD
ENDBRANCH   5   6
ENDBRANCH   1   5
BRANCH   1   8
ATOM      8  O   UNL     1     134.338 133.407 122.914  1.00  0.00    -0.388 OA
ATOM      9  H   UNL     1     133.370 133.425 122.697  1.00  0.00     0.211 HD
ENDBRANCH   1   8
TORSDOF 5
ENDMDL
MODEL 2
REMARK VINA RESULT:    -3.409      1.007      2.791
REMARK INTER + INTRA:          -4.111
REMARK INTER:                  -4.104
REMARK INTRA:                  -0.007
REMARK UNBOUND:                -0.004
REMARK SMILES OCC(O)CO
REMARK SMILES IDX 3 1 5 2 6 3 2 5 1 6 4 8
REMARK H PARENT 6 4 1 7 4 9
REMARK Flexibility Score: inf
ROOT
ATOM      1  C   UNL     1     135.431 134.660 123.641  1.00  0.00     0.165 C 
ENDROOT
BRANCH   1   2
ATOM      2  C   UNL     1     134.540 135.892 123.830  1.00  0.00     0.190 C 
BRANCH   2   3
ATOM      3  O   UNL     1     133.234 135.486 124.134  1.00  0.00    -0.394 OA
ATOM      4  H   UNL     1     133.044 135.832 125.045  1.00  0.00     0.210 HD
ENDBRANCH   2   3
ENDBRANCH   1   2
BRANCH   1   5
ATOM      5  C   UNL     1     136.632 134.970 122.733  1.00  0.00     0.190 C 
BRANCH   5   6
ATOM      6  O   UNL     1     137.037 136.305 122.886  1.00  0.00    -0.394 OA
ATOM      7  H   UNL     1     137.847 136.428 122.325  1.00  0.00     0.210 HD
ENDBRANCH   5   6
ENDBRANCH   1   5
BRANCH   1   8
ATOM      8  O   UNL     1     134.668 133.627 123.070  1.00  0.00    -0.388 OA
ATOM      9  H   UNL     1     133.741 133.734 123.406  1.00  0.00     0.211 HD
ENDBRANCH   1   8
TORSDOF 5
ENDMDL
MODEL 3
REMARK VINA RESULT:    -3.158     11.428     12.088
REMARK INTER + INTRA:          -3.809
REMARK INTER:                  -3.586
REMARK INTRA:                  -0.223
REMARK UNBOUND:                -0.004
REMARK SMILES OCC(O)CO
REMARK SMILES IDX 3 1 5 2 6 3 2 5 1 6 4 8
REMARK H PARENT 6 4 1 7 4 9
REMARK Flexibility Score: inf
ROOT
ATOM      1  C   UNL     1     135.736 122.786 122.312  1.00  0.00     0.165 C 
ENDROOT
BRANCH   1   2
ATOM      2  C   UNL     1     135.335 123.289 120.921  1.00  0.00     0.190 C 
BRANCH   2   3
ATOM      3  O   UNL     1     135.508 124.678 120.856  1.00  0.00    -0.394 OA
ATOM      4  H   UNL     1     136.489 124.833 120.862  1.00  0.00     0.210 HD
ENDBRANCH   2   3
ENDBRANCH   1   2
BRANCH   1   5
ATOM      5  C   UNL     1     137.237 122.991 122.571  1.00  0.00     0.190 C 
BRANCH   5   6
ATOM      6  O   UNL     1     137.502 124.322 122.929  1.00  0.00    -0.394 OA
ATOM      7  H   UNL     1     138.478 124.388 123.096  1.00  0.00     0.210 HD
ENDBRANCH   5   6
ENDBRANCH   1   5
BRANCH   1   8
ATOM      8  O   UNL     1     135.427 121.419 122.411  1.00  0.00    -0.388 OA
ATOM      9  H   UNL     1     135.868 121.082 123.233  1.00  0.00     0.211 HD
ENDBRANCH   1   8
TORSDOF 5
ENDMDL
MODEL 4
REMARK VINA RESULT:    -3.157     18.782     19.631
REMARK INTER + INTRA:          -3.807
REMARK INTER:                  -3.586
REMARK INTRA:                  -0.222
REMARK UNBOUND:                -0.004
REMARK SMILES OCC(O)CO
REMARK SMILES IDX 3 1 5 2 6 3 2 5 1 6 4 8
REMARK H PARENT 6 4 1 7 4 9
REMARK Flexibility Score: inf
ROOT
ATOM      1  C   UNL     1     119.490 123.450 122.329  1.00  0.00     0.165 C 
ENDROOT
BRANCH   1   2
ATOM      2  C   UNL     1     120.142 123.534 120.945  1.00  0.00     0.190 C 
BRANCH   2   3
ATOM      3  O   UNL     1     121.252 122.681 120.894  1.00  0.00    -0.394 OA
ATOM      4  H   UNL     1     121.496 122.605 119.935  1.00  0.00     0.210 HD
ENDBRANCH   2   3
ENDBRANCH   1   2
BRANCH   1   5
ATOM      5  C   UNL     1     118.917 122.048 122.594  1.00  0.00     0.190 C 
BRANCH   5   6
ATOM      6  O   UNL     1     119.938 121.154 122.950  1.00  0.00    -0.394 OA
ATOM      7  H   UNL     1     119.712 120.278 122.540  1.00  0.00     0.210 HD
ENDBRANCH   5   6
ENDBRANCH   1   5
BRANCH   1   8
ATOM      8  O   UNL     1     118.458 124.400 122.408  1.00  0.00    -0.388 OA
ATOM      9  H   UNL     1     117.662 123.997 121.973  1.00  0.00     0.211 HD
ENDBRANCH   1   8
TORSDOF 5
ENDMDL
MODEL 5
REMARK VINA RESULT:    -3.131     11.680     12.622
REMARK INTER + INTRA:          -3.776
REMARK INTER:                  -3.576
REMARK INTRA:                  -0.200
REMARK UNBOUND:                -0.004
REMARK SMILES OCC(O)CO
REMARK SMILES IDX 3 1 5 2 6 3 2 5 1 6 4 8
REMARK H PARENT 6 4 1 7 4 9
REMARK Flexibility Score: inf
ROOT
ATOM      1  C   UNL     1     135.649 122.616 120.355  1.00  0.00     0.165 C 
ENDROOT
BRANCH   1   2
ATOM      2  C   UNL     1     135.904 121.426 121.287  1.00  0.00     0.190 C 
BRANCH   2   3
ATOM      3  O   UNL     1     135.434 121.725 122.572  1.00  0.00    -0.394 OA
ATOM      4  H   UNL     1     135.756 120.992 123.159  1.00  0.00     0.210 HD
ENDBRANCH   2   3
ENDBRANCH   1   2
BRANCH   1   5
ATOM      5  C   UNL     1     135.076 123.817 121.125  1.00  0.00     0.190 C 
BRANCH   5   6
ATOM      6  O   UNL     1     136.109 124.611 121.645  1.00  0.00    -0.394 OA
ATOM      7  H   UNL     1     136.937 124.366 121.155  1.00  0.00     0.210 HD
ENDBRANCH   5   6
ENDBRANCH   1   5
BRANCH   1   8
ATOM      8  O   UNL     1     134.743 122.227 119.355  1.00  0.00    -0.388 OA
ATOM      9  H   UNL     1     135.034 122.669 118.515  1.00  0.00     0.211 HD
ENDBRANCH   1   8
TORSDOF 5
ENDMDL
MODEL 6
REMARK VINA RESULT:    -3.118     11.282     12.040
REMARK INTER + INTRA:          -3.761
REMARK INTER:                  -3.550
REMARK INTRA:                  -0.211
REMARK UNBOUND:                -0.004
REMARK SMILES OCC(O)CO
REMARK SMILES IDX 3 1 5 2 6 3 2 5 1 6 4 8
REMARK H PARENT 6 4 1 7 4 9
REMARK Flexibility Score: inf
ROOT
ATOM      1  C   UNL     1     137.157 123.429 121.948  1.00  0.00     0.165 C 
ENDROOT
BRANCH   1   2
ATOM      2  C   UNL     1     136.346 123.693 120.675  1.00  0.00     0.190 C 
BRANCH   2   3
ATOM      3  O   UNL     1     135.347 124.638 120.941  1.00  0.00    -0.394 OA
ATOM      4  H   UNL     1     135.251 125.177 120.113  1.00  0.00     0.210 HD
ENDBRANCH   2   3
ENDBRANCH   1   2
BRANCH   1   5
ATOM      5  C   UNL     1     136.657 122.174 122.681  1.00  0.00     0.190 C 
BRANCH   5   6
ATOM      6  O   UNL     1     135.296 121.955 122.417  1.00  0.00    -0.394 OA
ATOM      7  H   UNL     1     135.233 121.618 121.485  1.00  0.00     0.210 HD
ENDBRANCH   5   6
ENDBRANCH   1   5
BRANCH   1   8
ATOM      8  O   UNL     1     137.048 124.542 122.798  1.00  0.00    -0.388 OA
ATOM      9  H   UNL     1     137.945 124.687 123.199  1.00  0.00     0.211 HD
ENDBRANCH   1   8
TORSDOF 5
ENDMDL
MODEL 7
REMARK VINA RESULT:    -3.114     19.164     19.685
REMARK INTER + INTRA:          -3.756
REMARK INTER:                  -3.549
REMARK INTRA:                  -0.207
REMARK UNBOUND:                -0.004
REMARK SMILES OCC(O)CO
REMARK SMILES IDX 3 1 5 2 6 3 2 5 1 6 4 8
REMARK H PARENT 6 4 1 7 4 9
REMARK Flexibility Score: inf
ROOT
ATOM      1  C   UNL     1     119.311 121.876 121.960  1.00  0.00     0.165 C 
ENDROOT
BRANCH   1   2
ATOM      2  C   UNL     1     119.948 122.449 120.689  1.00  0.00     0.190 C 
BRANCH   2   3
ATOM      3  O   UNL     1     121.275 122.814 120.952  1.00  0.00    -0.394 OA
ATOM      4  H   UNL     1     121.230 123.675 121.444  1.00  0.00     0.210 HD
ENDBRANCH   2   3
ENDBRANCH   1   2
BRANCH   1   5
ATOM      5  C   UNL     1     118.477 122.937 122.696  1.00  0.00     0.190 C 
BRANCH   5   6
ATOM      6  O   UNL     1     118.970 124.224 122.434  1.00  0.00    -0.394 OA
ATOM      7  H   UNL     1     119.700 124.125 121.768  1.00  0.00     0.210 HD
ENDBRANCH   5   6
ENDBRANCH   1   5
BRANCH   1   8
ATOM      8  O   UNL     1     120.327 121.407 122.809  1.00  0.00    -0.388 OA
ATOM      9  H   UNL     1     119.985 120.580 123.238  1.00  0.00     0.211 HD
ENDBRANCH   1   8
TORSDOF 5
ENDMDL
MODEL 8
REMARK VINA RESULT:    -3.067     11.376     11.839
REMARK INTER + INTRA:          -3.699
REMARK INTER:                  -3.482
REMARK INTRA:                  -0.217
REMARK UNBOUND:                -0.004
REMARK SMILES OCC(O)CO
REMARK SMILES IDX 3 1 5 2 6 3 2 5 1 6 4 8
REMARK H PARENT 6 4 1 7 4 9
REMARK Flexibility Score: inf
ROOT
ATOM      1  C   UNL     1     136.325 122.571 121.740  1.00  0.00     0.165 C 
ENDROOT
BRANCH   1   2
ATOM      2  C   UNL     1     137.450 122.954 122.708  1.00  0.00     0.190 C 
BRANCH   2   3
ATOM      3  O   UNL     1     137.500 124.347 122.843  1.00  0.00    -0.394 OA
ATOM      4  H   UNL     1     136.682 124.604 123.343  1.00  0.00     0.210 HD
ENDBRANCH   2   3
ENDBRANCH   1   2
BRANCH   1   5
ATOM      5  C   UNL     1     136.243 123.553 120.560  1.00  0.00     0.190 C 
BRANCH   5   6
ATOM      6  O   UNL     1     135.455 124.665 120.895  1.00  0.00    -0.394 OA
ATOM      7  H   UNL     1     134.607 124.315 121.276  1.00  0.00     0.210 HD
ENDBRANCH   5   6
ENDBRANCH   1   5
BRANCH   1   8
ATOM      8  O   UNL     1     135.104 122.571 122.435  1.00  0.00    -0.388 OA
ATOM      9  H   UNL     1     134.741 121.648 122.380  1.00  0.00     0.211 HD
ENDBRANCH   1   8
TORSDOF 5
ENDMDL
MODEL 9
REMARK VINA RESULT:    -3.036     18.844     19.415
REMARK INTER + INTRA:          -3.661
REMARK INTER:                  -3.659
REMARK INTRA:                  -0.003
REMARK UNBOUND:                -0.004
REMARK SMILES OCC(O)CO
REMARK SMILES IDX 3 1 5 2 6 3 2 5 1 6 4 8
REMARK H PARENT 6 4 1 7 4 9
REMARK Flexibility Score: inf
ROOT
ATOM      1  C   UNL     1     120.080 123.131 121.611  1.00  0.00     0.165 C 
ENDROOT
BRANCH   1   2
ATOM      2  C   UNL     1     119.536 121.847 122.247  1.00  0.00     0.190 C 
BRANCH   2   3
ATOM      3  O   UNL     1     120.511 121.287 123.083  1.00  0.00    -0.394 OA
ATOM      4  H   UNL     1     120.929 120.551 122.563  1.00  0.00     0.210 HD
ENDBRANCH   2   3
ENDBRANCH   1   2
BRANCH   1   5
ATOM      5  C   UNL     1     119.047 123.769 120.667  1.00  0.00     0.190 C 
BRANCH   5   6
ATOM      6  O   UNL     1     119.676 124.628 119.753  1.00  0.00    -0.394 OA
ATOM      7  H   UNL     1     119.738 125.518 120.188  1.00  0.00     0.210 HD
ENDBRANCH   5   6
ENDBRANCH   1   5
BRANCH   1   8
ATOM      8  O   UNL     1     121.246 122.826 120.891  1.00  0.00    -0.388 OA
ATOM      9  H   UNL     1     120.965 122.616 119.962  1.00  0.00     0.211 HD
ENDBRANCH   1   8
TORSDOF 5
ENDMDL
