MODEL 1
REMARK VINA RESULT:    -5.653      0.000      0.000
REMARK INTER + INTRA:          -8.571
REMARK INTER:                  -8.296
REMARK INTRA:                  -0.275
REMARK UNBOUND:                -0.275
REMARK SMILES O=C([O-])CCCCCCCC(=O)[O-]
REMARK SMILES IDX 7 1 6 2 5 3 4 4 2 5 1 6 3 7 8 8 9 9 10 10 11 11 12 12 13 13
REMARK H PARENT
REMARK Flexibility Score: inf
ROOT
ATOM      1  C   UNL     1     -11.631   0.657 -10.010  1.00  0.00     0.000 C 
ENDROOT
BRANCH   1   2
ATOM      2  C   UNL     1     -13.114   1.060  -9.955  1.00  0.00     0.000 C 
BRANCH   2   3
ATOM      3  C   UNL     1     -13.379   2.550  -9.659  1.00  0.00     0.006 C 
BRANCH   3   4
ATOM      4  C   UNL     1     -12.114   3.428  -9.677  1.00  0.00     0.053 C 
BRANCH   4   5
ATOM      5  C   UNL     1     -11.737   3.926  -8.314  1.00  0.00     0.041 C 
ATOM      6  O   UNL     1     -10.542   3.861  -7.922  1.00  0.00    -0.550 OA
ATOM      7  O   UNL     1     -12.713   4.421  -7.458  1.00  0.00    -0.550 OA
ENDBRANCH   4   5
ENDBRANCH   3   4
ENDBRANCH   2   3
ENDBRANCH   1   2
BRANCH   1   8
ATOM      8  C   UNL     1     -11.398  -0.669 -10.749  1.00  0.00     0.000 C 
BRANCH   8   9
ATOM      9  C   UNL     1     -10.244  -1.456 -10.109  1.00  0.00     0.006 C 
BRANCH   9  10
ATOM     10  C   UNL     1     -10.706  -2.804  -9.539  1.00  0.00     0.053 C 
BRANCH  10  11
ATOM     11  C   UNL     1      -9.707  -3.372  -8.577  1.00  0.00     0.041 C 
ATOM     12  O   UNL     1      -8.481  -3.373  -8.863  1.00  0.00    -0.550 OA
ATOM     13  O   UNL     1     -10.135  -3.933  -7.379  1.00  0.00    -0.550 OA
ENDBRANCH  10  11
ENDBRANCH   9  10
ENDBRANCH   8   9
ENDBRANCH   1   8
TORSDOF 8
ENDMDL
MODEL 2
REMARK VINA RESULT:    -5.642      0.131      6.336
REMARK INTER + INTRA:          -8.556
REMARK INTER:                  -8.286
REMARK INTRA:                  -0.270
REMARK UNBOUND:                -0.275
REMARK SMILES O=C([O-])CCCCCCCC(=O)[O-]
REMARK SMILES IDX 7 1 6 2 5 3 4 4 2 5 1 6 3 7 8 8 9 9 10 10 11 11 12 12 13 13
REMARK H PARENT
REMARK Flexibility Score: inf
ROOT
ATOM      1  C   UNL     1     -11.694   0.665  -9.969  1.00  0.00     0.000 C 
ENDROOT
BRANCH   1   2
ATOM      2  C   UNL     1     -11.329  -0.562 -10.823  1.00  0.00     0.000 C 
BRANCH   2   3
ATOM      3  C   UNL     1     -10.204  -1.448 -10.253  1.00  0.00     0.006 C 
BRANCH   3   4
ATOM      4  C   UNL     1     -10.702  -2.742  -9.582  1.00  0.00     0.053 C 
BRANCH   4   5
ATOM      5  C   UNL     1      -9.715  -3.302  -8.603  1.00  0.00     0.041 C 
ATOM      6  O   UNL     1      -8.485  -3.304  -8.871  1.00  0.00    -0.550 OA
ATOM      7  O   UNL     1     -10.157  -3.861  -7.410  1.00  0.00    -0.550 OA
ENDBRANCH   4   5
ENDBRANCH   3   4
ENDBRANCH   2   3
ENDBRANCH   1   2
BRANCH   1   8
ATOM      8  C   UNL     1     -13.192   0.998 -10.008  1.00  0.00     0.000 C 
BRANCH   8   9
ATOM      9  C   UNL     1     -13.456   2.402  -9.441  1.00  0.00     0.006 C 
BRANCH   9  10
ATOM     10  C   UNL     1     -12.254   3.337  -9.625  1.00  0.00     0.053 C 
BRANCH  10  11
ATOM     11  C   UNL     1     -11.753   3.862  -8.314  1.00  0.00     0.041 C 
ATOM     12  O   UNL     1     -10.531   3.778  -8.023  1.00  0.00    -0.550 OA
ATOM     13  O   UNL     1     -12.642   4.413  -7.399  1.00  0.00    -0.550 OA
ENDBRANCH  10  11
ENDBRANCH   9  10
ENDBRANCH   8   9
ENDBRANCH   1   8
TORSDOF 8
ENDMDL
MODEL 3
REMARK VINA RESULT:    -5.470      1.274      1.705
REMARK INTER + INTRA:          -8.303
REMARK INTER:                  -7.767
REMARK INTRA:                  -0.536
REMARK UNBOUND:                -0.275
REMARK SMILES O=C([O-])CCCCCCCC(=O)[O-]
REMARK SMILES IDX 7 1 6 2 5 3 4 4 2 5 1 6 3 7 8 8 9 9 10 10 11 11 12 12 13 13
REMARK H PARENT
REMARK Flexibility Score: inf
ROOT
ATOM      1  C   UNL     1     -14.076   0.165 -10.739  1.00  0.00     0.000 C 
ENDROOT
BRANCH   1   2
ATOM      2  C   UNL     1     -14.294   1.152  -9.579  1.00  0.00     0.000 C 
BRANCH   2   3
ATOM      3  C   UNL     1     -13.665   2.546  -9.776  1.00  0.00     0.006 C 
BRANCH   3   4
ATOM      4  C   UNL     1     -12.185   2.631  -9.361  1.00  0.00     0.053 C 
BRANCH   4   5
ATOM      5  C   UNL     1     -11.888   3.836  -8.521  1.00  0.00     0.041 C 
ATOM      6  O   UNL     1     -10.874   3.858  -7.775  1.00  0.00    -0.550 OA
ATOM      7  O   UNL     1     -12.755   4.922  -8.530  1.00  0.00    -0.550 OA
ENDBRANCH   4   5
ENDBRANCH   3   4
ENDBRANCH   2   3
ENDBRANCH   1   2
BRANCH   1   8
ATOM      8  C   UNL     1     -13.112  -0.976 -10.382  1.00  0.00     0.000 C 
BRANCH   8   9
ATOM      9  C   UNL     1     -11.769  -0.805 -11.108  1.00  0.00     0.006 C 
BRANCH   9  10
ATOM     10  C   UNL     1     -10.589  -0.712 -10.132  1.00  0.00     0.053 C 
BRANCH  10  11
ATOM     11  C   UNL     1     -10.320  -2.023  -9.459  1.00  0.00     0.041 C 
ATOM     12  O   UNL     1      -9.892  -2.053  -8.275  1.00  0.00    -0.550 OA
ATOM     13  O   UNL     1     -10.510  -3.214 -10.151  1.00  0.00    -0.550 OA
ENDBRANCH  10  11
ENDBRANCH   9  10
ENDBRANCH   8   9
ENDBRANCH   1   8
TORSDOF 8
ENDMDL
MODEL 4
REMARK VINA RESULT:    -4.502      2.408      2.915
REMARK INTER + INTRA:          -6.882
REMARK INTER:                  -6.638
REMARK INTRA:                  -0.243
REMARK UNBOUND:                -0.275
REMARK SMILES O=C([O-])CCCCCCCC(=O)[O-]
REMARK SMILES IDX 7 1 6 2 5 3 4 4 2 5 1 6 3 7 8 8 9 9 10 10 11 11 12 12 13 13
REMARK H PARENT
REMARK Flexibility Score: inf
ROOT
ATOM      1  C   UNL     1     -11.257   0.404  -9.289  1.00  0.00     0.000 C 
ENDROOT
BRANCH   1   2
ATOM      2  C   UNL     1     -12.324   1.192 -10.068  1.00  0.00     0.000 C 
BRANCH   2   3
ATOM      3  C   UNL     1     -13.196   2.137  -9.217  1.00  0.00     0.006 C 
BRANCH   3   4
ATOM      4  C   UNL     1     -12.751   3.611  -9.262  1.00  0.00     0.053 C 
BRANCH   4   5
ATOM      5  C   UNL     1     -11.946   4.008  -8.061  1.00  0.00     0.041 C 
ATOM      6  O   UNL     1     -12.513   4.508  -7.053  1.00  0.00    -0.550 OA
ATOM      7  O   UNL     1     -10.565   3.866  -8.070  1.00  0.00    -0.550 OA
ENDBRANCH   4   5
ENDBRANCH   3   4
ENDBRANCH   2   3
ENDBRANCH   1   2
BRANCH   1   8
ATOM      8  C   UNL     1     -10.569  -0.675 -10.139  1.00  0.00     0.000 C 
BRANCH   8   9
ATOM      9  C   UNL     1     -11.367  -1.987 -10.108  1.00  0.00     0.006 C 
BRANCH   9  10
ATOM     10  C   UNL     1     -12.526  -1.986 -11.114  1.00  0.00     0.053 C 
BRANCH  10  11
ATOM     11  C   UNL     1     -13.778  -2.556 -10.520  1.00  0.00     0.041 C 
ATOM     12  O   UNL     1     -13.744  -3.649  -9.896  1.00  0.00    -0.550 OA
ATOM     13  O   UNL     1     -14.990  -1.896 -10.686  1.00  0.00    -0.550 OA
ENDBRANCH  10  11
ENDBRANCH   9  10
ENDBRANCH   8   9
ENDBRANCH   1   8
TORSDOF 8
ENDMDL
MODEL 5
REMARK VINA RESULT:    -4.348     14.807     16.631
REMARK INTER + INTRA:          -6.657
REMARK INTER:                  -6.148
REMARK INTRA:                  -0.509
REMARK UNBOUND:                -0.275
REMARK SMILES O=C([O-])CCCCCCCC(=O)[O-]
REMARK SMILES IDX 7 1 6 2 5 3 4 4 2 5 1 6 3 7 8 8 9 9 10 10 11 11 12 12 13 13
REMARK H PARENT
REMARK Flexibility Score: inf
ROOT
ATOM      1  C   UNL     1     -11.562   3.873   7.226  1.00  0.00     0.000 C 
ENDROOT
BRANCH   1   2
ATOM      2  C   UNL     1     -12.853   4.637   6.884  1.00  0.00     0.000 C 
BRANCH   2   3
ATOM      3  C   UNL     1     -12.958   5.129   5.427  1.00  0.00     0.006 C 
BRANCH   3   4
ATOM      4  C   UNL     1     -14.012   6.232   5.211  1.00  0.00     0.053 C 
BRANCH   4   5
ATOM      5  C   UNL     1     -13.878   6.906   3.879  1.00  0.00     0.041 C 
ATOM      6  O   UNL     1     -14.026   8.153   3.780  1.00  0.00    -0.550 OA
ATOM      7  O   UNL     1     -13.632   6.152   2.738  1.00  0.00    -0.550 OA
ENDBRANCH   4   5
ENDBRANCH   3   4
ENDBRANCH   2   3
ENDBRANCH   1   2
BRANCH   1   8
ATOM      8  C   UNL     1     -10.883   4.386   8.505  1.00  0.00     0.000 C 
BRANCH   8   9
ATOM      9  C   UNL     1     -10.165   5.719   8.246  1.00  0.00     0.006 C 
BRANCH   9  10
ATOM     10  C   UNL     1      -9.352   5.698   6.945  1.00  0.00     0.053 C 
BRANCH  10  11
ATOM     11  C   UNL     1      -9.643   6.892   6.089  1.00  0.00     0.041 C 
ATOM     12  O   UNL     1     -10.782   7.429   6.114  1.00  0.00    -0.550 OA
ATOM     13  O   UNL     1      -8.665   7.392   5.236  1.00  0.00    -0.550 OA
ENDBRANCH  10  11
ENDBRANCH   9  10
ENDBRANCH   8   9
ENDBRANCH   1   8
TORSDOF 8
ENDMDL
MODEL 6
REMARK VINA RESULT:    -4.237     15.927     16.972
REMARK INTER + INTRA:          -6.494
REMARK INTER:                  -5.997
REMARK INTRA:                  -0.497
REMARK UNBOUND:                -0.275
REMARK SMILES O=C([O-])CCCCCCCC(=O)[O-]
REMARK SMILES IDX 7 1 6 2 5 3 4 4 2 5 1 6 3 7 8 8 9 9 10 10 11 11 12 12 13 13
REMARK H PARENT
REMARK Flexibility Score: inf
ROOT
ATOM      1  C   UNL     1      -9.872   5.664   7.715  1.00  0.00     0.000 C 
ENDROOT
BRANCH   1   2
ATOM      2  C   UNL     1      -9.161   5.875   6.367  1.00  0.00     0.000 C 
BRANCH   2   3
ATOM      3  C   UNL     1      -9.307   7.285   5.761  1.00  0.00     0.006 C 
BRANCH   3   4
ATOM      4  C   UNL     1      -8.068   8.181   5.951  1.00  0.00     0.053 C 
BRANCH   4   5
ATOM      5  C   UNL     1      -8.218   9.519   5.293  1.00  0.00     0.041 C 
ATOM      6  O   UNL     1      -7.219  10.090   4.779  1.00  0.00    -0.550 OA
ATOM      7  O   UNL     1      -9.451  10.158   5.284  1.00  0.00    -0.550 OA
ENDBRANCH   4   5
ENDBRANCH   3   4
ENDBRANCH   2   3
ENDBRANCH   1   2
BRANCH   1   8
ATOM      8  C   UNL     1     -10.549   4.290   7.827  1.00  0.00     0.000 C 
BRANCH   8   9
ATOM      9  C   UNL     1     -11.446   4.021   6.609  1.00  0.00     0.006 C 
BRANCH   9  10
ATOM     10  C   UNL     1     -12.830   4.666   6.753  1.00  0.00     0.053 C 
BRANCH  10  11
ATOM     11  C   UNL     1     -13.057   5.733   5.727  1.00  0.00     0.041 C 
ATOM     12  O   UNL     1     -12.688   6.916   5.950  1.00  0.00    -0.550 OA
ATOM     13  O   UNL     1     -13.707   5.428   4.537  1.00  0.00    -0.550 OA
ENDBRANCH  10  11
ENDBRANCH   9  10
ENDBRANCH   8   9
ENDBRANCH   1   8
TORSDOF 8
ENDMDL
MODEL 7
REMARK VINA RESULT:    -4.234     14.523     16.613
REMARK INTER + INTRA:          -6.489
REMARK INTER:                  -5.953
REMARK INTRA:                  -0.536
REMARK UNBOUND:                -0.275
REMARK SMILES O=C([O-])CCCCCCCC(=O)[O-]
REMARK SMILES IDX 7 1 6 2 5 3 4 4 2 5 1 6 3 7 8 8 9 9 10 10 11 11 12 12 13 13
REMARK H PARENT
REMARK Flexibility Score: inf
ROOT
ATOM      1  C   UNL     1     -11.789   3.880   6.775  1.00  0.00     0.000 C 
ENDROOT
BRANCH   1   2
ATOM      2  C   UNL     1     -10.903   4.202   7.990  1.00  0.00     0.000 C 
BRANCH   2   3
ATOM      3  C   UNL     1     -10.546   5.692   8.167  1.00  0.00     0.006 C 
BRANCH   3   4
ATOM      4  C   UNL     1      -9.187   6.088   7.560  1.00  0.00     0.053 C 
BRANCH   4   5
ATOM      5  C   UNL     1      -9.290   6.473   6.115  1.00  0.00     0.041 C 
ATOM      6  O   UNL     1      -9.505   7.671   5.791  1.00  0.00    -0.550 OA
ATOM      7  O   UNL     1      -9.192   5.503   5.127  1.00  0.00    -0.550 OA
ENDBRANCH   4   5
ENDBRANCH   3   4
ENDBRANCH   2   3
ENDBRANCH   1   2
BRANCH   1   8
ATOM      8  C   UNL     1     -12.905   4.912   6.556  1.00  0.00     0.000 C 
BRANCH   8   9
ATOM      9  C   UNL     1     -12.774   5.575   5.177  1.00  0.00     0.006 C 
BRANCH   9  10
ATOM     10  C   UNL     1     -14.138   5.815   4.516  1.00  0.00     0.053 C 
BRANCH  10  11
ATOM     11  C   UNL     1     -14.068   6.887   3.472  1.00  0.00     0.041 C 
ATOM     12  O   UNL     1     -13.958   8.095   3.809  1.00  0.00    -0.550 OA
ATOM     13  O   UNL     1     -14.161   6.555   2.125  1.00  0.00    -0.550 OA
ENDBRANCH  10  11
ENDBRANCH   9  10
ENDBRANCH   8   9
ENDBRANCH   1   8
TORSDOF 8
ENDMDL
MODEL 8
REMARK VINA RESULT:    -4.218     14.461     16.957
REMARK INTER + INTRA:          -6.465
REMARK INTER:                  -5.995
REMARK INTRA:                  -0.471
REMARK UNBOUND:                -0.275
REMARK SMILES O=C([O-])CCCCCCCC(=O)[O-]
REMARK SMILES IDX 7 1 6 2 5 3 4 4 2 5 1 6 3 7 8 8 9 9 10 10 11 11 12 12 13 13
REMARK H PARENT
REMARK Flexibility Score: inf
ROOT
ATOM      1  C   UNL     1     -10.265   6.894   6.006  1.00  0.00     0.000 C 
ENDROOT
BRANCH   1   2
ATOM      2  C   UNL     1      -9.466   5.909   6.876  1.00  0.00     0.000 C 
BRANCH   2   3
ATOM      3  C   UNL     1      -9.997   5.720   8.311  1.00  0.00     0.006 C 
BRANCH   3   4
ATOM      4  C   UNL     1     -10.554   4.312   8.594  1.00  0.00     0.053 C 
BRANCH   4   5
ATOM      5  C   UNL     1     -11.520   3.852   7.544  1.00  0.00     0.041 C 
ATOM      6  O   UNL     1     -11.116   3.175   6.562  1.00  0.00    -0.550 OA
ATOM      7  O   UNL     1     -12.861   4.207   7.626  1.00  0.00    -0.550 OA
ENDBRANCH   4   5
ENDBRANCH   3   4
ENDBRANCH   2   3
ENDBRANCH   1   2
BRANCH   1   8
ATOM      8  C   UNL     1     -11.612   7.289   6.630  1.00  0.00     0.000 C 
BRANCH   8   9
ATOM      9  C   UNL     1     -12.716   7.340   5.562  1.00  0.00     0.006 C 
BRANCH   9  10
ATOM     10  C   UNL     1     -12.786   6.049   4.737  1.00  0.00     0.053 C 
BRANCH  10  11
ATOM     11  C   UNL     1     -13.896   6.092   3.732  1.00  0.00     0.041 C 
ATOM     12  O   UNL     1     -15.092   5.948   4.101  1.00  0.00    -0.550 OA
ATOM     13  O   UNL     1     -13.608   6.256   2.382  1.00  0.00    -0.550 OA
ENDBRANCH  10  11
ENDBRANCH   9  10
ENDBRANCH   8   9
ENDBRANCH   1   8
TORSDOF 8
ENDMDL
MODEL 9
REMARK VINA RESULT:    -4.186     16.416     17.621
REMARK INTER + INTRA:          -6.419
REMARK INTER:                  -6.125
REMARK INTRA:                  -0.295
REMARK UNBOUND:                -0.275
REMARK SMILES O=C([O-])CCCCCCCC(=O)[O-]
REMARK SMILES IDX 7 1 6 2 5 3 4 4 2 5 1 6 3 7 8 8 9 9 10 10 11 11 12 12 13 13
REMARK H PARENT
REMARK Flexibility Score: inf
ROOT
ATOM      1  C   UNL     1      -9.382   7.690   5.714  1.00  0.00     0.000 C 
ENDROOT
BRANCH   1   2
ATOM      2  C   UNL     1      -8.086   8.429   5.340  1.00  0.00     0.000 C 
BRANCH   2   3
ATOM      3  C   UNL     1      -8.171   9.968   5.387  1.00  0.00     0.006 C 
BRANCH   3   4
ATOM      4  C   UNL     1      -6.806  10.675   5.291  1.00  0.00     0.053 C 
BRANCH   4   5
ATOM      5  C   UNL     1      -6.041  10.630   6.579  1.00  0.00     0.041 C 
ATOM      6  O   UNL     1      -4.787  10.513   6.570  1.00  0.00    -0.550 OA
ATOM      7  O   UNL     1      -6.715  10.675   7.793  1.00  0.00    -0.550 OA
ENDBRANCH   4   5
ENDBRANCH   3   4
ENDBRANCH   2   3
ENDBRANCH   1   2
BRANCH   1   8
ATOM      8  C   UNL     1      -9.206   6.166   5.777  1.00  0.00     0.000 C 
BRANCH   8   9
ATOM      9  C   UNL     1      -9.643   5.620   7.145  1.00  0.00     0.006 C 
BRANCH   9  10
ATOM     10  C   UNL     1     -11.139   5.837   7.406  1.00  0.00     0.053 C 
BRANCH  10  11
ATOM     11  C   UNL     1     -11.979   4.810   6.710  1.00  0.00     0.041 C 
ATOM     12  O   UNL     1     -11.582   3.618   6.625  1.00  0.00    -0.550 OA
ATOM     13  O   UNL     1     -13.185   5.177   6.125  1.00  0.00    -0.550 OA
ENDBRANCH  10  11
ENDBRANCH   9  10
ENDBRANCH   8   9
ENDBRANCH   1   8
TORSDOF 8
ENDMDL
