MODEL 1
REMARK VINA RESULT:    -5.621      0.000      0.000
REMARK INTER + INTRA:          -6.327
REMARK INTER:                  -6.278
REMARK INTRA:                  -0.049
REMARK UNBOUND:                -0.049
REMARK SMILES COc1cc2ccc(=O)oc2c(O)c1O
REMARK SMILES IDX 3 1 14 2 12 3 11 4 5 5 4 6 6 7 7 8 8 9 9 10 10 11 2 12 1 13
REMARK SMILES IDX 15 14 13 16
REMARK H PARENT 15 15 13 17
REMARK Flexibility Score: inf
ROOT
ATOM      1  C   UNL     1       1.750  -3.269 -24.007  1.00  0.00     0.165 A 
ATOM      2  C   UNL     1       3.061  -3.696 -23.717  1.00  0.00     0.204 A 
ATOM      3  C   UNL     1       4.155  -3.150 -24.414  1.00  0.00     0.205 A 
ATOM      4  C   UNL     1       3.943  -2.179 -25.399  1.00  0.00     0.184 A 
ATOM      5  C   UNL     1       2.631  -1.748 -25.692  1.00  0.00     0.025 A 
ATOM      6  C   UNL     1       1.544  -2.291 -24.999  1.00  0.00     0.062 A 
ATOM      7  C   UNL     1       2.455  -0.775 -26.682  1.00  0.00     0.020 A 
ATOM      8  C   UNL     1       3.568  -0.262 -27.346  1.00  0.00     0.094 A 
ATOM      9  C   UNL     1       4.838  -0.736 -27.004  1.00  0.00     0.336 A 
ATOM     10  O   UNL     1       5.857  -0.287 -27.590  1.00  0.00    -0.246 OA
ATOM     11  O   UNL     1       4.978  -1.662 -26.058  1.00  0.00    -0.419 OA
ENDROOT
BRANCH   1  12
ATOM     12  O   UNL     1       0.681  -3.835 -23.292  1.00  0.00    -0.493 OA
ATOM     13  C   UNL     1      -0.654  -3.340 -23.305  1.00  0.00     0.278 C 
ENDBRANCH   1  12
BRANCH   2  14
ATOM     14  O   UNL     1       3.290  -4.664 -22.738  1.00  0.00    -0.502 OA
ATOM     15  H   UNL     1       4.204  -5.072 -22.583  1.00  0.00     0.293 HD
ENDBRANCH   2  14
BRANCH   3  16
ATOM     16  O   UNL     1       5.459  -3.564 -24.138  1.00  0.00    -0.502 OA
ATOM     17  H   UNL     1       5.821  -4.455 -24.455  1.00  0.00     0.293 HD
ENDBRANCH   3  16
TORSDOF 3
ENDMDL
MODEL 2
REMARK VINA RESULT:    -5.592      3.291      3.505
REMARK INTER + INTRA:          -6.295
REMARK INTER:                  -6.247
REMARK INTRA:                  -0.048
REMARK UNBOUND:                -0.049
REMARK SMILES COc1cc2ccc(=O)oc2c(O)c1O
REMARK SMILES IDX 3 1 14 2 12 3 11 4 5 5 4 6 6 7 7 8 8 9 9 10 10 11 2 12 1 13
REMARK SMILES IDX 15 14 13 16
REMARK H PARENT 15 15 13 17
REMARK Flexibility Score: inf
ROOT
ATOM      1  C   UNL     1       2.913  -2.565 -22.571  1.00  0.00     0.165 A 
ATOM      2  C   UNL     1       3.883  -2.716 -23.581  1.00  0.00     0.204 A 
ATOM      3  C   UNL     1       4.732  -1.644 -23.914  1.00  0.00     0.205 A 
ATOM      4  C   UNL     1       4.615  -0.423 -23.242  1.00  0.00     0.184 A 
ATOM      5  C   UNL     1       3.645  -0.267 -22.229  1.00  0.00     0.025 A 
ATOM      6  C   UNL     1       2.800  -1.333 -21.897  1.00  0.00     0.062 A 
ATOM      7  C   UNL     1       3.555   0.967 -21.576  1.00  0.00     0.020 A 
ATOM      8  C   UNL     1       4.417   1.999 -21.939  1.00  0.00     0.094 A 
ATOM      9  C   UNL     1       5.353   1.774 -22.952  1.00  0.00     0.336 A 
ATOM     10  O   UNL     1       6.142   2.693 -23.295  1.00  0.00    -0.246 OA
ATOM     11  O   UNL     1       5.419   0.590 -23.557  1.00  0.00    -0.419 OA
ENDROOT
BRANCH   1  12
ATOM     12  O   UNL     1       2.082  -3.655 -22.264  1.00  0.00    -0.493 OA
ATOM     13  C   UNL     1       0.839  -3.931 -22.902  1.00  0.00     0.278 C 
ENDBRANCH   1  12
BRANCH   2  14
ATOM     14  O   UNL     1       4.013  -3.927 -24.263  1.00  0.00    -0.502 OA
ATOM     15  H   UNL     1       4.750  -4.093 -24.937  1.00  0.00     0.293 HD
ENDBRANCH   2  14
BRANCH   3  16
ATOM     16  O   UNL     1       5.697  -1.780 -24.914  1.00  0.00    -0.502 OA
ATOM     17  H   UNL     1       6.589  -2.229 -24.746  1.00  0.00     0.293 HD
ENDBRANCH   3  16
TORSDOF 3
ENDMDL
MODEL 3
REMARK VINA RESULT:    -5.563      1.135      4.604
REMARK INTER + INTRA:          -6.263
REMARK INTER:                  -6.207
REMARK INTRA:                  -0.056
REMARK UNBOUND:                -0.049
REMARK SMILES COc1cc2ccc(=O)oc2c(O)c1O
REMARK SMILES IDX 3 1 14 2 12 3 11 4 5 5 4 6 6 7 7 8 8 9 9 10 10 11 2 12 1 13
REMARK SMILES IDX 15 14 13 16
REMARK H PARENT 15 15 13 17
REMARK Flexibility Score: inf
ROOT
ATOM      1  C   UNL     1       4.522  -1.673 -26.160  1.00  0.00     0.165 A 
ATOM      2  C   UNL     1       4.904  -2.553 -25.129  1.00  0.00     0.204 A 
ATOM      3  C   UNL     1       3.935  -3.097 -24.265  1.00  0.00     0.205 A 
ATOM      4  C   UNL     1       2.586  -2.764 -24.428  1.00  0.00     0.184 A 
ATOM      5  C   UNL     1       2.198  -1.883 -25.460  1.00  0.00     0.025 A 
ATOM      6  C   UNL     1       3.161  -1.342 -26.319  1.00  0.00     0.062 A 
ATOM      7  C   UNL     1       0.841  -1.572 -25.596  1.00  0.00     0.020 A 
ATOM      8  C   UNL     1      -0.083  -2.135 -24.718  1.00  0.00     0.094 A 
ATOM      9  C   UNL     1       0.373  -2.999 -23.718  1.00  0.00     0.336 A 
ATOM     10  O   UNL     1      -0.444  -3.519 -22.914  1.00  0.00    -0.246 OA
ATOM     11  O   UNL     1       1.670  -3.279 -23.611  1.00  0.00    -0.419 OA
ENDROOT
BRANCH   1  12
ATOM     12  O   UNL     1       5.515  -1.148 -27.004  1.00  0.00    -0.493 OA
ATOM     13  C   UNL     1       5.616   0.221 -27.381  1.00  0.00     0.278 C 
ENDBRANCH   1  12
BRANCH   2  14
ATOM     14  O   UNL     1       6.246  -2.895 -24.951  1.00  0.00    -0.502 OA
ATOM     15  H   UNL     1       6.838  -3.186 -25.719  1.00  0.00     0.293 HD
ENDBRANCH   2  14
BRANCH   3  16
ATOM     16  O   UNL     1       4.301  -3.970 -23.238  1.00  0.00    -0.502 OA
ATOM     17  H   UNL     1       4.818  -3.660 -22.425  1.00  0.00     0.293 HD
ENDBRANCH   3  16
TORSDOF 3
ENDMDL
MODEL 4
REMARK VINA RESULT:    -5.527      3.405      5.291
REMARK INTER + INTRA:          -6.222
REMARK INTER:                  -6.153
REMARK INTRA:                  -0.069
REMARK UNBOUND:                -0.049
REMARK SMILES COc1cc2ccc(=O)oc2c(O)c1O
REMARK SMILES IDX 3 1 14 2 12 3 11 4 5 5 4 6 6 7 7 8 8 9 9 10 10 11 2 12 1 13
REMARK SMILES IDX 15 14 13 16
REMARK H PARENT 15 15 13 17
REMARK Flexibility Score: inf
ROOT
ATOM      1  C   UNL     1       4.492   1.184 -22.601  1.00  0.00     0.165 A 
ATOM      2  C   UNL     1       4.969   0.802 -23.870  1.00  0.00     0.204 A 
ATOM      3  C   UNL     1       4.643  -0.461 -24.399  1.00  0.00     0.205 A 
ATOM      4  C   UNL     1       3.843  -1.343 -23.663  1.00  0.00     0.184 A 
ATOM      5  C   UNL     1       3.363  -0.964 -22.392  1.00  0.00     0.025 A 
ATOM      6  C   UNL     1       3.687   0.292 -21.866  1.00  0.00     0.062 A 
ATOM      7  C   UNL     1       2.565  -1.869 -21.684  1.00  0.00     0.020 A 
ATOM      8  C   UNL     1       2.268  -3.108 -22.247  1.00  0.00     0.094 A 
ATOM      9  C   UNL     1       2.778  -3.416 -23.511  1.00  0.00     0.336 A 
ATOM     10  O   UNL     1       2.522  -4.530 -24.039  1.00  0.00    -0.246 OA
ATOM     11  O   UNL     1       3.535  -2.537 -24.164  1.00  0.00    -0.419 OA
ENDROOT
BRANCH   1  12
ATOM     12  O   UNL     1       4.836   2.452 -22.104  1.00  0.00    -0.493 OA
ATOM     13  C   UNL     1       3.984   3.593 -22.137  1.00  0.00     0.278 C 
ENDBRANCH   1  12
BRANCH   2  14
ATOM     14  O   UNL     1       5.769   1.668 -24.617  1.00  0.00    -0.502 OA
ATOM     15  H   UNL     1       5.380   2.409 -25.187  1.00  0.00     0.293 HD
ENDBRANCH   2  14
BRANCH   3  16
ATOM     16  O   UNL     1       5.109  -0.854 -25.655  1.00  0.00    -0.502 OA
ATOM     17  H   UNL     1       6.091  -1.021 -25.838  1.00  0.00     0.293 HD
ENDBRANCH   3  16
TORSDOF 3
ENDMDL
MODEL 5
REMARK VINA RESULT:    -5.459      4.367      5.921
REMARK INTER + INTRA:          -6.147
REMARK INTER:                  -6.101
REMARK INTRA:                  -0.045
REMARK UNBOUND:                -0.049
REMARK SMILES COc1cc2ccc(=O)oc2c(O)c1O
REMARK SMILES IDX 3 1 14 2 12 3 11 4 5 5 4 6 6 7 7 8 8 9 9 10 10 11 2 12 1 13
REMARK SMILES IDX 15 14 13 16
REMARK H PARENT 15 15 13 17
REMARK Flexibility Score: inf
ROOT
ATOM      1  C   UNL     1       4.565   2.768 -22.401  1.00  0.00     0.165 A 
ATOM      2  C   UNL     1       5.128   2.745 -23.692  1.00  0.00     0.204 A 
ATOM      3  C   UNL     1       5.175   1.544 -24.424  1.00  0.00     0.205 A 
ATOM      4  C   UNL     1       4.660   0.366 -23.870  1.00  0.00     0.184 A 
ATOM      5  C   UNL     1       4.094   0.385 -22.577  1.00  0.00     0.025 A 
ATOM      6  C   UNL     1       4.048   1.579 -21.850  1.00  0.00     0.062 A 
ATOM      7  C   UNL     1       3.589  -0.810 -22.054  1.00  0.00     0.020 A 
ATOM      8  C   UNL     1       3.655  -1.975 -22.815  1.00  0.00     0.094 A 
ATOM      9  C   UNL     1       4.230  -1.919 -24.088  1.00  0.00     0.336 A 
ATOM     10  O   UNL     1       4.301  -2.960 -24.793  1.00  0.00    -0.246 OA
ATOM     11  O   UNL     1       4.704  -0.770 -24.563  1.00  0.00    -0.419 OA
ENDROOT
BRANCH   1  12
ATOM     12  O   UNL     1       4.535   3.985 -21.699  1.00  0.00    -0.493 OA
ATOM     13  C   UNL     1       3.485   4.943 -21.785  1.00  0.00     0.278 C 
ENDBRANCH   1  12
BRANCH   2  14
ATOM     14  O   UNL     1       5.647   3.910 -24.260  1.00  0.00    -0.502 OA
ATOM     15  H   UNL     1       6.482   4.360 -23.906  1.00  0.00     0.293 HD
ENDBRANCH   2  14
BRANCH   3  16
ATOM     16  O   UNL     1       5.731   1.506 -25.704  1.00  0.00    -0.502 OA
ATOM     17  H   UNL     1       6.583   1.000 -25.907  1.00  0.00     0.293 HD
ENDBRANCH   3  16
TORSDOF 3
ENDMDL
MODEL 6
REMARK VINA RESULT:    -5.457      2.446      4.732
REMARK INTER + INTRA:          -6.145
REMARK INTER:                  -6.083
REMARK INTRA:                  -0.062
REMARK UNBOUND:                -0.049
REMARK SMILES COc1cc2ccc(=O)oc2c(O)c1O
REMARK SMILES IDX 3 1 14 2 12 3 11 4 5 5 4 6 6 7 7 8 8 9 9 10 10 11 2 12 1 13
REMARK SMILES IDX 15 14 13 16
REMARK H PARENT 15 15 13 17
REMARK Flexibility Score: inf
ROOT
ATOM      1  C   UNL     1       4.080  -0.199 -23.488  1.00  0.00     0.165 A 
ATOM      2  C   UNL     1       4.811  -1.397 -23.369  1.00  0.00     0.204 A 
ATOM      3  C   UNL     1       4.146  -2.637 -23.358  1.00  0.00     0.205 A 
ATOM      4  C   UNL     1       2.751  -2.684 -23.466  1.00  0.00     0.184 A 
ATOM      5  C   UNL     1       2.014  -1.486 -23.585  1.00  0.00     0.025 A 
ATOM      6  C   UNL     1       2.676  -0.254 -23.596  1.00  0.00     0.062 A 
ATOM      7  C   UNL     1       0.622  -1.569 -23.692  1.00  0.00     0.020 A 
ATOM      8  C   UNL     1       0.005  -2.819 -23.677  1.00  0.00     0.094 A 
ATOM      9  C   UNL     1       0.799  -3.963 -23.555  1.00  0.00     0.336 A 
ATOM     10  O   UNL     1       0.263  -5.102 -23.540  1.00  0.00    -0.246 OA
ATOM     11  O   UNL     1       2.122  -3.857 -23.456  1.00  0.00    -0.419 OA
ENDROOT
BRANCH   1  12
ATOM     12  O   UNL     1       4.776   1.020 -23.495  1.00  0.00    -0.493 OA
ATOM     13  C   UNL     1       4.563   2.079 -22.567  1.00  0.00     0.278 C 
ENDBRANCH   1  12
BRANCH   2  14
ATOM     14  O   UNL     1       6.203  -1.369 -23.260  1.00  0.00    -0.502 OA
ATOM     15  H   UNL     1       6.753  -2.209 -23.128  1.00  0.00     0.293 HD
ENDBRANCH   2  14
BRANCH   3  16
ATOM     16  O   UNL     1       4.859  -3.832 -23.240  1.00  0.00    -0.502 OA
ATOM     17  H   UNL     1       5.494  -4.008 -22.472  1.00  0.00     0.293 HD
ENDBRANCH   3  16
TORSDOF 3
ENDMDL
MODEL 7
REMARK VINA RESULT:    -5.384      5.024      5.619
REMARK INTER + INTRA:          -6.063
REMARK INTER:                  -5.993
REMARK INTRA:                  -0.069
REMARK UNBOUND:                -0.049
REMARK SMILES COc1cc2ccc(=O)oc2c(O)c1O
REMARK SMILES IDX 3 1 14 2 12 3 11 4 5 5 4 6 6 7 7 8 8 9 9 10 10 11 2 12 1 13
REMARK SMILES IDX 15 14 13 16
REMARK H PARENT 15 15 13 17
REMARK Flexibility Score: inf
ROOT
ATOM      1  C   UNL     1       4.221   0.132 -22.577  1.00  0.00     0.165 A 
ATOM      2  C   UNL     1       4.811   0.249 -23.851  1.00  0.00     0.204 A 
ATOM      3  C   UNL     1       5.166   1.514 -24.355  1.00  0.00     0.205 A 
ATOM      4  C   UNL     1       4.933   2.662 -23.590  1.00  0.00     0.184 A 
ATOM      5  C   UNL     1       4.343   2.550 -22.313  1.00  0.00     0.025 A 
ATOM      6  C   UNL     1       3.990   1.292 -21.812  1.00  0.00     0.062 A 
ATOM      7  C   UNL     1       4.125   3.718 -21.575  1.00  0.00     0.020 A 
ATOM      8  C   UNL     1       4.494   4.949 -22.114  1.00  0.00     0.094 A 
ATOM      9  C   UNL     1       5.073   4.985 -23.385  1.00  0.00     0.336 A 
ATOM     10  O   UNL     1       5.413   6.086 -23.891  1.00  0.00    -0.246 OA
ATOM     11  O   UNL     1       5.270   3.859 -24.067  1.00  0.00    -0.419 OA
ENDROOT
BRANCH   1  12
ATOM     12  O   UNL     1       3.879  -1.147 -22.105  1.00  0.00    -0.493 OA
ATOM     13  C   UNL     1       2.562  -1.688 -22.116  1.00  0.00     0.278 C 
ENDBRANCH   1  12
BRANCH   2  14
ATOM     14  O   UNL     1       5.049  -0.886 -24.628  1.00  0.00    -0.502 OA
ATOM     15  H   UNL     1       4.305  -1.504 -24.929  1.00  0.00     0.293 HD
ENDBRANCH   2  14
BRANCH   3  16
ATOM     16  O   UNL     1       5.750   1.644 -25.616  1.00  0.00    -0.502 OA
ATOM     17  H   UNL     1       5.859   0.858 -26.245  1.00  0.00     0.293 HD
ENDBRANCH   3  16
TORSDOF 3
ENDMDL
MODEL 8
REMARK VINA RESULT:    -5.362      1.715      2.829
REMARK INTER + INTRA:          -6.038
REMARK INTER:                  -5.989
REMARK INTRA:                  -0.049
REMARK UNBOUND:                -0.049
REMARK SMILES COc1cc2ccc(=O)oc2c(O)c1O
REMARK SMILES IDX 3 1 14 2 12 3 11 4 5 5 4 6 6 7 7 8 8 9 9 10 10 11 2 12 1 13
REMARK SMILES IDX 15 14 13 16
REMARK H PARENT 15 15 13 17
REMARK Flexibility Score: inf
ROOT
ATOM      1  C   UNL     1       0.789  -2.095 -25.101  1.00  0.00     0.165 A 
ATOM      2  C   UNL     1       0.999  -2.900 -23.963  1.00  0.00     0.204 A 
ATOM      3  C   UNL     1       2.300  -3.302 -23.609  1.00  0.00     0.205 A 
ATOM      4  C   UNL     1       3.392  -2.904 -24.388  1.00  0.00     0.184 A 
ATOM      5  C   UNL     1       3.187  -2.097 -25.528  1.00  0.00     0.025 A 
ATOM      6  C   UNL     1       1.893  -1.697 -25.879  1.00  0.00     0.062 A 
ATOM      7  C   UNL     1       4.301  -1.715 -26.283  1.00  0.00     0.020 A 
ATOM      8  C   UNL     1       5.571  -2.137 -25.895  1.00  0.00     0.094 A 
ATOM      9  C   UNL     1       5.699  -2.936 -24.754  1.00  0.00     0.336 A 
ATOM     10  O   UNL     1       6.837  -3.328 -24.385  1.00  0.00    -0.246 OA
ATOM     11  O   UNL     1       4.623  -3.284 -24.052  1.00  0.00    -0.419 OA
ENDROOT
BRANCH   1  12
ATOM     12  O   UNL     1      -0.523  -1.712 -25.425  1.00  0.00    -0.493 OA
ATOM     13  C   UNL     1      -0.885  -0.964 -26.581  1.00  0.00     0.278 C 
ENDBRANCH   1  12
BRANCH   2  14
ATOM     14  O   UNL     1      -0.079  -3.308 -23.176  1.00  0.00    -0.502 OA
ATOM     15  H   UNL     1      -0.364  -4.277 -23.106  1.00  0.00     0.293 HD
ENDBRANCH   2  14
BRANCH   3  16
ATOM     16  O   UNL     1       2.522  -4.100 -22.486  1.00  0.00    -0.502 OA
ATOM     17  H   UNL     1       1.806  -4.262 -21.789  1.00  0.00     0.293 HD
ENDBRANCH   3  16
TORSDOF 3
ENDMDL
MODEL 9
REMARK VINA RESULT:    -5.214      3.132      3.826
REMARK INTER + INTRA:          -5.873
REMARK INTER:                  -5.818
REMARK INTRA:                  -0.055
REMARK UNBOUND:                -0.049
REMARK SMILES COc1cc2ccc(=O)oc2c(O)c1O
REMARK SMILES IDX 3 1 14 2 12 3 11 4 5 5 4 6 6 7 7 8 8 9 9 10 10 11 2 12 1 13
REMARK SMILES IDX 15 14 13 16
REMARK H PARENT 15 15 13 17
REMARK Flexibility Score: inf
ROOT
ATOM      1  C   UNL     1       1.623  -1.890 -23.337  1.00  0.00     0.165 A 
ATOM      2  C   UNL     1       1.576  -1.301 -24.616  1.00  0.00     0.204 A 
ATOM      3  C   UNL     1       2.457  -0.255 -24.948  1.00  0.00     0.205 A 
ATOM      4  C   UNL     1       3.384   0.204 -24.006  1.00  0.00     0.184 A 
ATOM      5  C   UNL     1       3.436  -0.383 -22.724  1.00  0.00     0.025 A 
ATOM      6  C   UNL     1       2.560  -1.423 -22.394  1.00  0.00     0.062 A 
ATOM      7  C   UNL     1       4.375   0.100 -21.807  1.00  0.00     0.020 A 
ATOM      8  C   UNL     1       5.228   1.137 -22.179  1.00  0.00     0.094 A 
ATOM      9  C   UNL     1       5.120   1.671 -23.467  1.00  0.00     0.336 A 
ATOM     10  O   UNL     1       5.881   2.609 -23.824  1.00  0.00    -0.246 OA
ATOM     11  O   UNL     1       4.218   1.194 -24.320  1.00  0.00    -0.419 OA
ENDROOT
BRANCH   1  12
ATOM     12  O   UNL     1       0.729  -2.932 -23.040  1.00  0.00    -0.493 OA
ATOM     13  C   UNL     1       1.001  -4.315 -23.246  1.00  0.00     0.278 C 
ENDBRANCH   1  12
BRANCH   2  14
ATOM     14  O   UNL     1       0.657  -1.746 -25.567  1.00  0.00    -0.502 OA
ATOM     15  H   UNL     1      -0.204  -1.250 -25.763  1.00  0.00     0.293 HD
ENDBRANCH   2  14
BRANCH   3  16
ATOM     16  O   UNL     1       2.421   0.338 -26.211  1.00  0.00    -0.502 OA
ATOM     17  H   UNL     1       1.638   0.901 -26.521  1.00  0.00     0.293 HD
ENDBRANCH   3  16
TORSDOF 3
ENDMDL
