MODEL 1
REMARK VINA RESULT:    -4.703      0.000      0.000
REMARK INTER + INTRA:          -7.788
REMARK INTER:                  -7.178
REMARK INTRA:                  -0.610
REMARK UNBOUND:                -0.610
REMARK SMILES CCCCCCCCCCC(=O)[O-]
REMARK SMILES IDX 7 1 8 2 9 3 10 4 11 5 12 6 13 7 6 8 5 9 4 10 3 11 2 12 1 13
REMARK H PARENT
REMARK Flexibility Score: inf
ROOT
ATOM      1  C   UNL     1      27.451  36.922  32.052  1.00  0.00     0.000 C 
ENDROOT
BRANCH   1   2
ATOM      2  C   UNL     1      27.655  38.435  32.236  1.00  0.00     0.000 C 
BRANCH   2   3
ATOM      3  C   UNL     1      27.143  38.941  33.596  1.00  0.00     0.006 C 
BRANCH   3   4
ATOM      4  C   UNL     1      27.985  40.104  34.136  1.00  0.00     0.053 C 
BRANCH   4   5
ATOM      5  C   UNL     1      27.338  41.428  33.866  1.00  0.00     0.041 C 
ATOM      6  O   UNL     1      27.653  42.091  32.844  1.00  0.00    -0.550 OA
ATOM      7  O   UNL     1      26.363  41.912  34.728  1.00  0.00    -0.550 OA
ENDBRANCH   4   5
ENDBRANCH   3   4
ENDBRANCH   2   3
ENDBRANCH   1   2
BRANCH   1   8
ATOM      8  C   UNL     1      27.487  36.155  33.382  1.00  0.00     0.000 C 
BRANCH   8   9
ATOM      9  C   UNL     1      28.245  34.828  33.228  1.00  0.00    -0.000 C 
BRANCH   9  10
ATOM     10  C   UNL     1      28.643  34.531  31.771  1.00  0.00    -0.000 C 
BRANCH  10  11
ATOM     11  C   UNL     1      27.877  33.368  31.109  1.00  0.00    -0.000 C 
BRANCH  11  12
ATOM     12  C   UNL     1      27.063  33.754  29.862  1.00  0.00    -0.003 C 
ATOM     13  C   UNL     1      25.565  33.505  30.028  1.00  0.00     0.004 C 
ENDBRANCH  11  12
ENDBRANCH  10  11
ENDBRANCH   9  10
ENDBRANCH   8   9
ENDBRANCH   1   8
TORSDOF 9
ENDMDL
MODEL 2
REMARK VINA RESULT:    -4.670      3.542      7.203
REMARK INTER + INTRA:          -7.737
REMARK INTER:                  -7.348
REMARK INTRA:                  -0.389
REMARK UNBOUND:                -0.610
REMARK SMILES CCCCCCCCCCC(=O)[O-]
REMARK SMILES IDX 7 1 8 2 9 3 10 4 11 5 12 6 13 7 6 8 5 9 4 10 3 11 2 12 1 13
REMARK H PARENT
REMARK Flexibility Score: inf
ROOT
ATOM      1  C   UNL     1      27.451  37.953  32.117  1.00  0.00     0.000 C 
ENDROOT
BRANCH   1   2
ATOM      2  C   UNL     1      27.429  36.649  32.931  1.00  0.00     0.000 C 
BRANCH   2   3
ATOM      3  C   UNL     1      27.987  35.450  32.143  1.00  0.00     0.006 C 
BRANCH   3   4
ATOM      4  C   UNL     1      27.611  35.509  30.657  1.00  0.00     0.053 C 
BRANCH   4   5
ATOM      5  C   UNL     1      26.302  34.833  30.389  1.00  0.00     0.041 C 
ATOM      6  O   UNL     1      26.269  33.611  30.090  1.00  0.00    -0.550 OA
ATOM      7  O   UNL     1      25.116  35.546  30.505  1.00  0.00    -0.550 OA
ENDBRANCH   4   5
ENDBRANCH   3   4
ENDBRANCH   2   3
ENDBRANCH   1   2
BRANCH   1   8
ATOM      8  C   UNL     1      27.868  39.168  32.960  1.00  0.00     0.000 C 
BRANCH   8   9
ATOM      9  C   UNL     1      28.149  40.385  32.065  1.00  0.00    -0.000 C 
BRANCH   9  10
ATOM     10  C   UNL     1      27.600  41.698  32.650  1.00  0.00    -0.000 C 
BRANCH  10  11
ATOM     11  C   UNL     1      27.450  41.717  34.185  1.00  0.00    -0.000 C 
BRANCH  11  12
ATOM     12  C   UNL     1      27.972  42.990  34.873  1.00  0.00    -0.003 C 
ATOM     13  C   UNL     1      26.916  43.677  35.736  1.00  0.00     0.004 C 
ENDBRANCH  11  12
ENDBRANCH  10  11
ENDBRANCH   9  10
ENDBRANCH   8   9
ENDBRANCH   1   8
TORSDOF 9
ENDMDL
MODEL 3
REMARK VINA RESULT:    -4.621      3.963      8.406
REMARK INTER + INTRA:          -7.663
REMARK INTER:                  -7.297
REMARK INTRA:                  -0.365
REMARK UNBOUND:                -0.610
REMARK SMILES CCCCCCCCCCC(=O)[O-]
REMARK SMILES IDX 7 1 8 2 9 3 10 4 11 5 12 6 13 7 6 8 5 9 4 10 3 11 2 12 1 13
REMARK H PARENT
REMARK Flexibility Score: inf
ROOT
ATOM      1  C   UNL     1      27.835  42.531  34.663  1.00  0.00     0.000 C 
ENDROOT
BRANCH   1   2
ATOM      2  C   UNL     1      27.129  41.325  34.023  1.00  0.00     0.000 C 
BRANCH   2   3
ATOM      3  C   UNL     1      28.051  40.100  33.891  1.00  0.00     0.006 C 
BRANCH   3   4
ATOM      4  C   UNL     1      27.876  39.387  32.543  1.00  0.00     0.053 C 
BRANCH   4   5
ATOM      5  C   UNL     1      27.550  37.936  32.723  1.00  0.00     0.041 C 
ATOM      6  O   UNL     1      27.201  37.499  33.850  1.00  0.00    -0.550 OA
ATOM      7  O   UNL     1      27.601  37.073  31.636  1.00  0.00    -0.550 OA
ENDBRANCH   4   5
ENDBRANCH   3   4
ENDBRANCH   2   3
ENDBRANCH   1   2
BRANCH   1   8
ATOM      8  C   UNL     1      26.855  43.491  35.354  1.00  0.00     0.000 C 
BRANCH   8   9
ATOM      9  C   UNL     1      25.489  42.821  35.565  1.00  0.00    -0.000 C 
BRANCH   9  10
ATOM     10  C   UNL     1      24.412  43.802  36.064  1.00  0.00    -0.000 C 
BRANCH  10  11
ATOM     11  C   UNL     1      23.106  43.810  35.245  1.00  0.00    -0.000 C 
BRANCH  11  12
ATOM     12  C   UNL     1      22.042  44.812  35.727  1.00  0.00    -0.003 C 
ATOM     13  C   UNL     1      22.525  45.681  36.886  1.00  0.00     0.004 C 
ENDBRANCH  11  12
ENDBRANCH  10  11
ENDBRANCH   9  10
ENDBRANCH   8   9
ENDBRANCH   1   8
TORSDOF 9
ENDMDL
MODEL 4
REMARK VINA RESULT:    -4.537      3.453      5.027
REMARK INTER + INTRA:          -7.534
REMARK INTER:                  -6.962
REMARK INTRA:                  -0.572
REMARK UNBOUND:                -0.610
REMARK SMILES CCCCCCCCCCC(=O)[O-]
REMARK SMILES IDX 7 1 8 2 9 3 10 4 11 5 12 6 13 7 6 8 5 9 4 10 3 11 2 12 1 13
REMARK H PARENT
REMARK Flexibility Score: inf
ROOT
ATOM      1  C   UNL     1      25.737  35.444  30.657  1.00  0.00     0.000 C 
ENDROOT
BRANCH   1   2
ATOM      2  C   UNL     1      27.204  35.387  30.203  1.00  0.00     0.000 C 
BRANCH   2   3
ATOM      3  C   UNL     1      28.190  35.694  31.344  1.00  0.00     0.006 C 
BRANCH   3   4
ATOM      4  C   UNL     1      27.494  36.337  32.551  1.00  0.00     0.053 C 
BRANCH   4   5
ATOM      5  C   UNL     1      27.448  35.406  33.724  1.00  0.00     0.041 C 
ATOM      6  O   UNL     1      27.960  34.259  33.644  1.00  0.00    -0.550 OA
ATOM      7  O   UNL     1      26.870  35.820  34.917  1.00  0.00    -0.550 OA
ENDBRANCH   4   5
ENDBRANCH   3   4
ENDBRANCH   2   3
ENDBRANCH   1   2
BRANCH   1   8
ATOM      8  C   UNL     1      24.937  34.204  30.229  1.00  0.00     0.000 C 
BRANCH   8   9
ATOM      9  C   UNL     1      25.870  33.111  29.684  1.00  0.00    -0.000 C 
BRANCH   9  10
ATOM     10  C   UNL     1      25.205  32.240  28.604  1.00  0.00    -0.000 C 
BRANCH  10  11
ATOM     11  C   UNL     1      23.669  32.349  28.531  1.00  0.00    -0.000 C 
BRANCH  11  12
ATOM     12  C   UNL     1      22.904  31.132  29.077  1.00  0.00    -0.003 C 
ATOM     13  C   UNL     1      21.606  31.513  29.788  1.00  0.00     0.004 C 
ENDBRANCH  11  12
ENDBRANCH  10  11
ENDBRANCH   9  10
ENDBRANCH   8   9
ENDBRANCH   1   8
TORSDOF 9
ENDMDL
MODEL 5
REMARK VINA RESULT:    -4.401      2.236      3.830
REMARK INTER + INTRA:          -7.327
REMARK INTER:                  -6.634
REMARK INTRA:                  -0.693
REMARK UNBOUND:                -0.610
REMARK SMILES CCCCCCCCCCC(=O)[O-]
REMARK SMILES IDX 7 1 8 2 9 3 10 4 11 5 12 6 13 7 6 8 5 9 4 10 3 11 2 12 1 13
REMARK H PARENT
REMARK Flexibility Score: inf
ROOT
ATOM      1  C   UNL     1      28.695  34.325  31.444  1.00  0.00     0.000 C 
ENDROOT
BRANCH   1   2
ATOM      2  C   UNL     1      28.736  34.669  32.941  1.00  0.00     0.000 C 
BRANCH   2   3
ATOM      3  C   UNL     1      27.442  35.343  33.429  1.00  0.00     0.006 C 
BRANCH   3   4
ATOM      4  C   UNL     1      27.600  36.862  33.578  1.00  0.00     0.053 C 
BRANCH   4   5
ATOM      5  C   UNL     1      27.240  37.583  32.315  1.00  0.00     0.041 C 
ATOM      6  O   UNL     1      26.371  37.107  31.540  1.00  0.00    -0.550 OA
ATOM      7  O   UNL     1      27.842  38.797  32.014  1.00  0.00    -0.550 OA
ENDBRANCH   4   5
ENDBRANCH   3   4
ENDBRANCH   2   3
ENDBRANCH   1   2
BRANCH   1   8
ATOM      8  C   UNL     1      27.537  33.381  31.086  1.00  0.00     0.000 C 
BRANCH   8   9
ATOM      9  C   UNL     1      26.722  33.937  29.908  1.00  0.00    -0.000 C 
BRANCH   9  10
ATOM     10  C   UNL     1      25.220  34.054  30.222  1.00  0.00    -0.000 C 
BRANCH  10  11
ATOM     11  C   UNL     1      24.327  32.993  29.547  1.00  0.00    -0.000 C 
BRANCH  11  12
ATOM     12  C   UNL     1      25.041  32.103  28.516  1.00  0.00    -0.003 C 
ATOM     13  C   UNL     1      24.192  31.826  27.277  1.00  0.00     0.004 C 
ENDBRANCH  11  12
ENDBRANCH  10  11
ENDBRANCH   9  10
ENDBRANCH   8   9
ENDBRANCH   1   8
TORSDOF 9
ENDMDL
MODEL 6
REMARK VINA RESULT:    -4.398      2.207      3.419
REMARK INTER + INTRA:          -7.322
REMARK INTER:                  -6.593
REMARK INTRA:                  -0.729
REMARK UNBOUND:                -0.610
REMARK SMILES CCCCCCCCCCC(=O)[O-]
REMARK SMILES IDX 7 1 8 2 9 3 10 4 11 5 12 6 13 7 6 8 5 9 4 10 3 11 2 12 1 13
REMARK H PARENT
REMARK Flexibility Score: inf
ROOT
ATOM      1  C   UNL     1      28.732  34.325  32.131  1.00  0.00     0.000 C 
ENDROOT
BRANCH   1   2
ATOM      2  C   UNL     1      28.130  34.800  33.463  1.00  0.00     0.000 C 
BRANCH   2   3
ATOM      3  C   UNL     1      27.116  35.943  33.281  1.00  0.00     0.006 C 
BRANCH   3   4
ATOM      4  C   UNL     1      27.497  37.189  34.091  1.00  0.00     0.053 C 
BRANCH   4   5
ATOM      5  C   UNL     1      27.607  38.403  33.220  1.00  0.00     0.041 C 
ATOM      6  O   UNL     1      27.521  38.296  31.969  1.00  0.00    -0.550 OA
ATOM      7  O   UNL     1      27.771  39.657  33.794  1.00  0.00    -0.550 OA
ENDBRANCH   4   5
ENDBRANCH   3   4
ENDBRANCH   2   3
ENDBRANCH   1   2
BRANCH   1   8
ATOM      8  C   UNL     1      27.767  33.438  31.329  1.00  0.00     0.000 C 
BRANCH   8   9
ATOM      9  C   UNL     1      27.396  34.100  29.993  1.00  0.00    -0.000 C 
BRANCH   9  10
ATOM     10  C   UNL     1      27.986  35.514  29.842  1.00  0.00    -0.000 C 
BRANCH  10  11
ATOM     11  C   UNL     1      28.997  35.679  28.689  1.00  0.00    -0.000 C 
BRANCH  11  12
ATOM     12  C   UNL     1      30.017  34.536  28.550  1.00  0.00    -0.003 C 
ATOM     13  C   UNL     1      29.841  33.735  27.261  1.00  0.00     0.004 C 
ENDBRANCH  11  12
ENDBRANCH  10  11
ENDBRANCH   9  10
ENDBRANCH   8   9
ENDBRANCH   1   8
TORSDOF 9
ENDMDL
MODEL 7
REMARK VINA RESULT:    -4.339      7.113     10.282
REMARK INTER + INTRA:          -7.232
REMARK INTER:                  -6.706
REMARK INTRA:                  -0.526
REMARK UNBOUND:                -0.610
REMARK SMILES CCCCCCCCCCC(=O)[O-]
REMARK SMILES IDX 7 1 8 2 9 3 10 4 11 5 12 6 13 7 6 8 5 9 4 10 3 11 2 12 1 13
REMARK H PARENT
REMARK Flexibility Score: inf
ROOT
ATOM      1  C   UNL     1      23.119  43.994  35.246  1.00  0.00     0.000 C 
ENDROOT
BRANCH   1   2
ATOM      2  C   UNL     1      24.304  43.908  36.222  1.00  0.00     0.000 C 
BRANCH   2   3
ATOM      3  C   UNL     1      25.463  43.058  35.674  1.00  0.00     0.006 C 
BRANCH   3   4
ATOM      4  C   UNL     1      26.718  43.898  35.401  1.00  0.00     0.053 C 
BRANCH   4   5
ATOM      5  C   UNL     1      27.864  43.048  34.943  1.00  0.00     0.041 C 
ATOM      6  O   UNL     1      28.802  42.768  35.733  1.00  0.00    -0.550 OA
ATOM      7  O   UNL     1      27.877  42.540  33.651  1.00  0.00    -0.550 OA
ENDBRANCH   4   5
ENDBRANCH   3   4
ENDBRANCH   2   3
ENDBRANCH   1   2
BRANCH   1   8
ATOM      8  C   UNL     1      21.866  44.607  35.890  1.00  0.00     0.000 C 
BRANCH   8   9
ATOM      9  C   UNL     1      22.196  45.950  36.560  1.00  0.00    -0.000 C 
BRANCH   9  10
ATOM     10  C   UNL     1      21.418  47.130  35.951  1.00  0.00    -0.000 C 
BRANCH  10  11
ATOM     11  C   UNL     1      21.434  47.197  34.410  1.00  0.00    -0.000 C 
BRANCH  11  12
ATOM     12  C   UNL     1      20.082  46.915  33.734  1.00  0.00    -0.003 C 
ATOM     13  C   UNL     1      20.182  45.889  32.606  1.00  0.00     0.004 C 
ENDBRANCH  11  12
ENDBRANCH  10  11
ENDBRANCH   9  10
ENDBRANCH   8   9
ENDBRANCH   1   8
TORSDOF 9
ENDMDL
MODEL 8
REMARK VINA RESULT:    -4.066      5.297      7.979
REMARK INTER + INTRA:          -6.815
REMARK INTER:                  -6.428
REMARK INTRA:                  -0.387
REMARK UNBOUND:                -0.610
REMARK SMILES CCCCCCCCCCC(=O)[O-]
REMARK SMILES IDX 7 1 8 2 9 3 10 4 11 5 12 6 13 7 6 8 5 9 4 10 3 11 2 12 1 13
REMARK H PARENT
REMARK Flexibility Score: inf
ROOT
ATOM      1  C   UNL     1      25.758  34.325  30.206  1.00  0.00     0.000 C 
ENDROOT
BRANCH   1   2
ATOM      2  C   UNL     1      24.540  33.444  29.887  1.00  0.00     0.000 C 
BRANCH   2   3
ATOM      3  C   UNL     1      24.838  32.388  28.808  1.00  0.00     0.006 C 
BRANCH   3   4
ATOM      4  C   UNL     1      23.667  32.213  27.832  1.00  0.00     0.053 C 
BRANCH   4   5
ATOM      5  C   UNL     1      22.460  31.641  28.511  1.00  0.00     0.041 C 
ATOM      6  O   UNL     1      22.561  30.602  29.214  1.00  0.00    -0.550 OA
ATOM      7  O   UNL     1      21.232  32.277  28.395  1.00  0.00    -0.550 OA
ENDBRANCH   4   5
ENDBRANCH   3   4
ENDBRANCH   2   3
ENDBRANCH   1   2
BRANCH   1   8
ATOM      8  C   UNL     1      27.091  33.602  29.957  1.00  0.00     0.000 C 
BRANCH   8   9
ATOM      9  C   UNL     1      28.261  34.381  30.579  1.00  0.00    -0.000 C 
BRANCH   9  10
ATOM     10  C   UNL     1      27.993  35.894  30.667  1.00  0.00    -0.000 C 
BRANCH  10  11
ATOM     11  C   UNL     1      27.859  36.451  32.099  1.00  0.00    -0.000 C 
BRANCH  11  12
ATOM     12  C   UNL     1      27.444  37.930  32.185  1.00  0.00    -0.003 C 
ATOM     13  C   UNL     1      27.518  38.488  33.605  1.00  0.00     0.004 C 
ENDBRANCH  11  12
ENDBRANCH  10  11
ENDBRANCH   9  10
ENDBRANCH   8   9
ENDBRANCH   1   8
TORSDOF 9
ENDMDL
MODEL 9
REMARK VINA RESULT:    -4.027      4.043      6.517
REMARK INTER + INTRA:          -6.756
REMARK INTER:                  -6.304
REMARK INTRA:                  -0.452
REMARK UNBOUND:                -0.610
REMARK SMILES CCCCCCCCCCC(=O)[O-]
REMARK SMILES IDX 7 1 8 2 9 3 10 4 11 5 12 6 13 7 6 8 5 9 4 10 3 11 2 12 1 13
REMARK H PARENT
REMARK Flexibility Score: inf
ROOT
ATOM      1  C   UNL     1      24.639  33.432  29.884  1.00  0.00     0.000 C 
ENDROOT
BRANCH   1   2
ATOM      2  C   UNL     1      25.771  34.394  30.278  1.00  0.00     0.000 C 
BRANCH   2   3
ATOM      3  C   UNL     1      27.154  33.902  29.815  1.00  0.00     0.006 C 
BRANCH   3   4
ATOM      4  C   UNL     1      28.202  35.022  29.832  1.00  0.00     0.053 C 
BRANCH   4   5
ATOM      5  C   UNL     1      28.316  35.654  31.185  1.00  0.00     0.041 C 
ATOM      6  O   UNL     1      28.003  36.862  31.350  1.00  0.00    -0.550 OA
ATOM      7  O   UNL     1      28.736  34.898  32.271  1.00  0.00    -0.550 OA
ENDBRANCH   4   5
ENDBRANCH   3   4
ENDBRANCH   2   3
ENDBRANCH   1   2
BRANCH   1   8
ATOM      8  C   UNL     1      25.084  32.388  28.848  1.00  0.00     0.000 C 
BRANCH   8   9
ATOM      9  C   UNL     1      23.909  31.974  27.949  1.00  0.00    -0.000 C 
BRANCH   9  10
ATOM     10  C   UNL     1      22.553  32.024  28.676  1.00  0.00    -0.000 C 
BRANCH  10  11
ATOM     11  C   UNL     1      22.083  30.683  29.275  1.00  0.00    -0.000 C 
BRANCH  11  12
ATOM     12  C   UNL     1      20.838  30.774  30.175  1.00  0.00    -0.003 C 
ATOM     13  C   UNL     1      19.950  29.534  30.091  1.00  0.00     0.004 C 
ENDBRANCH  11  12
ENDBRANCH  10  11
ENDBRANCH   9  10
ENDBRANCH   8   9
ENDBRANCH   1   8
TORSDOF 9
ENDMDL
