MODEL 1
REMARK VINA RESULT:    -4.884      0.000      0.000
REMARK INTER + INTRA:          -6.575
REMARK INTER:                  -6.026
REMARK INTRA:                  -0.550
REMARK UNBOUND:                -0.550
REMARK SMILES CC(C)=CCC[C@H](C)c1ccc(C)cc1
REMARK SMILES IDX 6 1 7 2 8 3 9 4 13 5 12 6 11 7 14 8 10 9 15 10 5 11 4 12
REMARK SMILES IDX 2 13 1 14 3 15
REMARK H PARENT
REMARK Flexibility Score: inf
ROOT
ATOM      1  C   UNL     1      65.922  23.256  59.614  1.00  0.00     0.012 C 
ENDROOT
BRANCH   1   2
ATOM      2  C   UNL     1      66.265  23.183  58.108  1.00  0.00     0.016 C 
ATOM      3  C   UNL     1      65.755  21.889  57.454  1.00  0.00     0.013 C 
BRANCH   2   4
ATOM      4  C   UNL     1      67.761  23.325  57.897  1.00  0.00    -0.045 A 
ATOM      5  C   UNL     1      72.014  23.754  57.272  1.00  0.00     0.044 C 
ATOM      6  C   UNL     1      70.542  23.612  57.519  1.00  0.00    -0.051 A 
ATOM      7  C   UNL     1      70.002  22.369  57.877  1.00  0.00     0.004 A 
ATOM      8  C   UNL     1      69.684  24.705  57.328  1.00  0.00     0.004 A 
ATOM      9  C   UNL     1      68.625  22.226  58.071  1.00  0.00     0.004 A 
ATOM     10  C   UNL     1      68.307  24.565  57.521  1.00  0.00     0.004 A 
ENDBRANCH   2   4
ENDBRANCH   1   2
BRANCH   1  11
ATOM     11  C   UNL     1      65.538  21.890  60.202  1.00  0.00     0.028 C 
BRANCH  11  12
ATOM     12  C   UNL     1      64.096  21.876  60.650  1.00  0.00    -0.028 C 
ATOM     13  C   UNL     1      63.727  21.966  61.946  1.00  0.00    -0.080 C 
ATOM     14  C   UNL     1      62.258  21.943  62.283  1.00  0.00     0.039 C 
ATOM     15  C   UNL     1      64.748  22.089  63.051  1.00  0.00     0.039 C 
ENDBRANCH  11  12
ENDBRANCH   1  11
TORSDOF 4
ENDMDL
MODEL 2
REMARK VINA RESULT:    -4.661     11.805     14.822
REMARK INTER + INTRA:          -6.300
REMARK INTER:                  -5.216
REMARK INTRA:                  -1.084
REMARK UNBOUND:                -0.550
REMARK SMILES CC(C)=CCC[C@H](C)c1ccc(C)cc1
REMARK SMILES IDX 6 1 7 2 8 3 9 4 13 5 12 6 11 7 14 8 10 9 15 10 5 11 4 12
REMARK SMILES IDX 2 13 1 14 3 15
REMARK H PARENT
REMARK Flexibility Score: inf
ROOT
ATOM      1  C   UNL     1      80.371  28.648  63.985  1.00  0.00     0.012 C 
ENDROOT
BRANCH   1   2
ATOM      2  C   UNL     1      79.538  29.196  65.167  1.00  0.00     0.016 C 
ATOM      3  C   UNL     1      80.404  29.510  66.397  1.00  0.00     0.013 C 
BRANCH   2   4
ATOM      4  C   UNL     1      78.435  28.221  65.536  1.00  0.00    -0.045 A 
ATOM      5  C   UNL     1      75.315  25.417  66.570  1.00  0.00     0.044 C 
ATOM      6  C   UNL     1      76.400  26.399  66.241  1.00  0.00    -0.051 A 
ATOM      7  C   UNL     1      76.076  27.713  65.872  1.00  0.00     0.004 A 
ATOM      8  C   UNL     1      77.742  25.993  66.232  1.00  0.00     0.004 A 
ATOM      9  C   UNL     1      77.084  28.618  65.529  1.00  0.00     0.004 A 
ATOM     10  C   UNL     1      78.751  26.897  65.889  1.00  0.00     0.004 A 
ENDBRANCH   2   4
ENDBRANCH   1   2
BRANCH   1  11
ATOM     11  C   UNL     1      79.581  28.613  62.669  1.00  0.00     0.028 C 
BRANCH  11  12
ATOM     12  C   UNL     1      79.341  30.008  62.141  1.00  0.00    -0.028 C 
ATOM     13  C   UNL     1      78.107  30.502  61.903  1.00  0.00    -0.080 C 
ATOM     14  C   UNL     1      77.980  31.909  61.376  1.00  0.00     0.039 C 
ATOM     15  C   UNL     1      76.865  29.680  62.151  1.00  0.00     0.039 C 
ENDBRANCH  11  12
ENDBRANCH   1  11
TORSDOF 4
ENDMDL
MODEL 3
REMARK VINA RESULT:    -4.605     11.939     14.810
REMARK INTER + INTRA:          -6.231
REMARK INTER:                  -5.150
REMARK INTRA:                  -1.081
REMARK UNBOUND:                -0.550
REMARK SMILES CC(C)=CCC[C@H](C)c1ccc(C)cc1
REMARK SMILES IDX 6 1 7 2 8 3 9 4 13 5 12 6 11 7 14 8 10 9 15 10 5 11 4 12
REMARK SMILES IDX 2 13 1 14 3 15
REMARK H PARENT
REMARK Flexibility Score: inf
ROOT
ATOM      1  C   UNL     1      80.385  28.632  63.928  1.00  0.00     0.012 C 
ENDROOT
BRANCH   1   2
ATOM      2  C   UNL     1      79.598  29.165  65.148  1.00  0.00     0.016 C 
ATOM      3  C   UNL     1      80.514  29.483  66.341  1.00  0.00     0.013 C 
BRANCH   2   4
ATOM      4  C   UNL     1      78.524  28.175  65.560  1.00  0.00    -0.045 A 
ATOM      5  C   UNL     1      75.445  25.385  66.744  1.00  0.00     0.044 C 
ATOM      6  C   UNL     1      76.511  26.344  66.304  1.00  0.00    -0.051 A 
ATOM      7  C   UNL     1      77.857  25.951  66.300  1.00  0.00     0.004 A 
ATOM      8  C   UNL     1      76.177  27.661  65.958  1.00  0.00     0.004 A 
ATOM      9  C   UNL     1      78.855  26.856  65.925  1.00  0.00     0.004 A 
ATOM     10  C   UNL     1      77.174  28.567  65.583  1.00  0.00     0.004 A 
ENDBRANCH   2   4
ENDBRANCH   1   2
BRANCH   1  11
ATOM     11  C   UNL     1      79.541  28.604  62.645  1.00  0.00     0.028 C 
BRANCH  11  12
ATOM     12  C   UNL     1      79.301  29.999  62.121  1.00  0.00    -0.028 C 
ATOM     13  C   UNL     1      78.066  30.496  61.889  1.00  0.00    -0.080 C 
ATOM     14  C   UNL     1      77.939  31.903  61.366  1.00  0.00     0.039 C 
ATOM     15  C   UNL     1      76.824  29.675  62.142  1.00  0.00     0.039 C 
ENDBRANCH  11  12
ENDBRANCH   1  11
TORSDOF 4
ENDMDL
MODEL 4
REMARK VINA RESULT:    -4.537     11.718     13.825
REMARK INTER + INTRA:          -6.148
REMARK INTER:                  -5.158
REMARK INTRA:                  -0.990
REMARK UNBOUND:                -0.550
REMARK SMILES CC(C)=CCC[C@H](C)c1ccc(C)cc1
REMARK SMILES IDX 6 1 7 2 8 3 9 4 13 5 12 6 11 7 14 8 10 9 15 10 5 11 4 12
REMARK SMILES IDX 2 13 1 14 3 15
REMARK H PARENT
REMARK Flexibility Score: inf
ROOT
ATOM      1  C   UNL     1      79.240  29.011  65.861  1.00  0.00     0.012 C 
ENDROOT
BRANCH   1   2
ATOM      2  C   UNL     1      79.318  28.318  64.480  1.00  0.00     0.016 C 
ATOM      3  C   UNL     1      80.745  27.867  64.132  1.00  0.00     0.013 C 
BRANCH   2   4
ATOM      4  C   UNL     1      78.776  29.233  63.397  1.00  0.00    -0.045 A 
ATOM      5  C   UNL     1      77.209  31.812  60.307  1.00  0.00     0.044 C 
ATOM      6  C   UNL     1      77.748  30.940  61.400  1.00  0.00    -0.051 A 
ATOM      7  C   UNL     1      79.120  30.938  61.691  1.00  0.00     0.004 A 
ATOM      8  C   UNL     1      76.897  30.069  62.095  1.00  0.00     0.004 A 
ATOM      9  C   UNL     1      79.630  30.097  62.685  1.00  0.00     0.004 A 
ATOM     10  C   UNL     1      77.404  29.227  63.089  1.00  0.00     0.004 A 
ENDBRANCH   2   4
ENDBRANCH   1   2
BRANCH   1  11
ATOM     11  C   UNL     1      78.340  28.258  66.852  1.00  0.00     0.028 C 
BRANCH  11  12
ATOM     12  C   UNL     1      76.883  28.398  66.479  1.00  0.00    -0.028 C 
ATOM     13  C   UNL     1      76.094  27.343  66.183  1.00  0.00    -0.080 C 
ATOM     14  C   UNL     1      74.653  27.595  65.824  1.00  0.00     0.039 C 
ATOM     15  C   UNL     1      76.625  25.929  66.205  1.00  0.00     0.039 C 
ENDBRANCH  11  12
ENDBRANCH   1  11
TORSDOF 4
ENDMDL
MODEL 5
REMARK VINA RESULT:    -4.428     15.102     19.648
REMARK INTER + INTRA:          -6.014
REMARK INTER:                  -5.518
REMARK INTRA:                  -0.496
REMARK UNBOUND:                -0.550
REMARK SMILES CC(C)=CCC[C@H](C)c1ccc(C)cc1
REMARK SMILES IDX 6 1 7 2 8 3 9 4 13 5 12 6 11 7 14 8 10 9 15 10 5 11 4 12
REMARK SMILES IDX 2 13 1 14 3 15
REMARK H PARENT
REMARK Flexibility Score: inf
ROOT
ATOM      1  C   UNL     1      77.046  36.408  48.917  1.00  0.00     0.012 C 
ENDROOT
BRANCH   1   2
ATOM      2  C   UNL     1      75.648  35.811  48.634  1.00  0.00     0.016 C 
ATOM      3  C   UNL     1      74.737  36.790  47.875  1.00  0.00     0.013 C 
BRANCH   2   4
ATOM      4  C   UNL     1      74.987  35.372  49.927  1.00  0.00    -0.045 A 
ATOM      5  C   UNL     1      73.133  34.099  53.616  1.00  0.00     0.044 C 
ATOM      6  C   UNL     1      73.777  34.570  52.346  1.00  0.00    -0.051 A 
ATOM      7  C   UNL     1      72.986  34.954  51.253  1.00  0.00     0.004 A 
ATOM      8  C   UNL     1      75.173  34.566  52.217  1.00  0.00     0.004 A 
ATOM      9  C   UNL     1      73.585  35.358  50.056  1.00  0.00     0.004 A 
ATOM     10  C   UNL     1      75.773  34.969  51.021  1.00  0.00     0.004 A 
ENDBRANCH   2   4
ENDBRANCH   1   2
BRANCH   1  11
ATOM     11  C   UNL     1      78.104  35.950  47.902  1.00  0.00     0.028 C 
BRANCH  11  12
ATOM     12  C   UNL     1      79.301  36.870  47.910  1.00  0.00    -0.028 C 
ATOM     13  C   UNL     1      80.568  36.429  48.064  1.00  0.00    -0.080 C 
ATOM     14  C   UNL     1      81.691  37.434  48.056  1.00  0.00     0.039 C 
ATOM     15  C   UNL     1      80.877  34.961  48.241  1.00  0.00     0.039 C 
ENDBRANCH  11  12
ENDBRANCH   1  11
TORSDOF 4
ENDMDL
MODEL 6
REMARK VINA RESULT:    -4.324     12.897     15.047
REMARK INTER + INTRA:          -5.885
REMARK INTER:                  -5.156
REMARK INTRA:                  -0.729
REMARK UNBOUND:                -0.550
REMARK SMILES CC(C)=CCC[C@H](C)c1ccc(C)cc1
REMARK SMILES IDX 6 1 7 2 8 3 9 4 13 5 12 6 11 7 14 8 10 9 15 10 5 11 4 12
REMARK SMILES IDX 2 13 1 14 3 15
REMARK H PARENT
REMARK Flexibility Score: inf
ROOT
ATOM      1  C   UNL     1      80.173  29.070  64.398  1.00  0.00     0.012 C 
ENDROOT
BRANCH   1   2
ATOM      2  C   UNL     1      79.224  28.605  65.527  1.00  0.00     0.016 C 
ATOM      3  C   UNL     1      79.577  29.235  66.884  1.00  0.00     0.013 C 
BRANCH   2   4
ATOM      4  C   UNL     1      79.229  27.091  65.633  1.00  0.00    -0.045 A 
ATOM      5  C   UNL     1      79.212  22.783  65.956  1.00  0.00     0.044 C 
ATOM      6  C   UNL     1      79.215  24.276  65.813  1.00  0.00    -0.051 A 
ATOM      7  C   UNL     1      80.420  24.966  65.624  1.00  0.00     0.004 A 
ATOM      8  C   UNL     1      78.020  24.999  65.935  1.00  0.00     0.004 A 
ATOM      9  C   UNL     1      80.428  26.361  65.528  1.00  0.00     0.004 A 
ATOM     10  C   UNL     1      78.025  26.394  65.840  1.00  0.00     0.004 A 
ENDBRANCH   2   4
ENDBRANCH   1   2
BRANCH   1  11
ATOM     11  C   UNL     1      79.641  28.728  62.998  1.00  0.00     0.028 C 
BRANCH  11  12
ATOM     12  C   UNL     1      79.321  29.979  62.216  1.00  0.00    -0.028 C 
ATOM     13  C   UNL     1      78.060  30.414  62.007  1.00  0.00    -0.080 C 
ATOM     14  C   UNL     1      77.852  31.677  61.211  1.00  0.00     0.039 C 
ATOM     15  C   UNL     1      76.866  29.666  62.550  1.00  0.00     0.039 C 
ENDBRANCH  11  12
ENDBRANCH   1  11
TORSDOF 4
ENDMDL
MODEL 7
REMARK VINA RESULT:    -4.256     12.232     15.741
REMARK INTER + INTRA:          -5.801
REMARK INTER:                  -4.328
REMARK INTRA:                  -1.473
REMARK UNBOUND:                -0.550
REMARK SMILES CC(C)=CCC[C@H](C)c1ccc(C)cc1
REMARK SMILES IDX 6 1 7 2 8 3 9 4 13 5 12 6 11 7 14 8 10 9 15 10 5 11 4 12
REMARK SMILES IDX 2 13 1 14 3 15
REMARK H PARENT
REMARK Flexibility Score: inf
ROOT
ATOM      1  C   UNL     1      79.887  29.720  67.378  1.00  0.00     0.012 C 
ENDROOT
BRANCH   1   2
ATOM      2  C   UNL     1      79.645  28.386  68.121  1.00  0.00     0.016 C 
ATOM      3  C   UNL     1      80.890  27.484  68.125  1.00  0.00     0.013 C 
BRANCH   2   4
ATOM      4  C   UNL     1      78.464  27.649  67.518  1.00  0.00    -0.045 A 
ATOM      5  C   UNL     1      75.123  25.522  65.792  1.00  0.00     0.044 C 
ATOM      6  C   UNL     1      76.267  26.263  66.417  1.00  0.00    -0.051 A 
ATOM      7  C   UNL     1      76.351  27.658  66.304  1.00  0.00     0.004 A 
ATOM      8  C   UNL     1      77.296  25.562  67.061  1.00  0.00     0.004 A 
ATOM      9  C   UNL     1      77.437  28.347  66.855  1.00  0.00     0.004 A 
ATOM     10  C   UNL     1      78.382  26.248  67.612  1.00  0.00     0.004 A 
ENDBRANCH   2   4
ENDBRANCH   1   2
BRANCH   1  11
ATOM     11  C   UNL     1      80.943  29.599  66.270  1.00  0.00     0.028 C 
BRANCH  11  12
ATOM     12  C   UNL     1      80.309  29.676  64.902  1.00  0.00    -0.028 C 
ATOM     13  C   UNL     1      80.146  28.599  64.103  1.00  0.00    -0.080 C 
ATOM     14  C   UNL     1      79.500  28.789  62.755  1.00  0.00     0.039 C 
ATOM     15  C   UNL     1      80.596  27.223  64.533  1.00  0.00     0.039 C 
ENDBRANCH  11  12
ENDBRANCH   1  11
TORSDOF 4
ENDMDL
MODEL 8
REMARK VINA RESULT:    -4.180      2.488      7.751
REMARK INTER + INTRA:          -5.708
REMARK INTER:                  -5.167
REMARK INTRA:                  -0.541
REMARK UNBOUND:                -0.550
REMARK SMILES CC(C)=CCC[C@H](C)c1ccc(C)cc1
REMARK SMILES IDX 6 1 7 2 8 3 9 4 13 5 12 6 11 7 14 8 10 9 15 10 5 11 4 12
REMARK SMILES IDX 2 13 1 14 3 15
REMARK H PARENT
REMARK Flexibility Score: inf
ROOT
ATOM      1  C   UNL     1      64.493  22.852  61.416  1.00  0.00     0.012 C 
ENDROOT
BRANCH   1   2
ATOM      2  C   UNL     1      63.423  22.081  62.223  1.00  0.00     0.016 C 
ATOM      3  C   UNL     1      62.125  21.875  61.425  1.00  0.00     0.013 C 
BRANCH   2   4
ATOM      4  C   UNL     1      63.128  22.795  63.530  1.00  0.00    -0.045 A 
ATOM      5  C   UNL     1      62.326  24.839  67.250  1.00  0.00     0.044 C 
ATOM      6  C   UNL     1      62.580  24.144  65.946  1.00  0.00    -0.051 A 
ATOM      7  C   UNL     1      61.984  22.903  65.678  1.00  0.00     0.004 A 
ATOM      8  C   UNL     1      63.469  24.696  65.012  1.00  0.00     0.004 A 
ATOM      9  C   UNL     1      62.250  22.236  64.478  1.00  0.00     0.004 A 
ATOM     10  C   UNL     1      63.737  24.031  63.812  1.00  0.00     0.004 A 
ENDBRANCH   2   4
ENDBRANCH   1   2
BRANCH   1  11
ATOM     11  C   UNL     1      65.507  21.921  60.735  1.00  0.00     0.028 C 
BRANCH  11  12
ATOM     12  C   UNL     1      65.286  21.876  59.242  1.00  0.00    -0.028 C 
ATOM     13  C   UNL     1      66.226  22.248  58.346  1.00  0.00    -0.080 C 
ATOM     14  C   UNL     1      65.901  22.163  56.877  1.00  0.00     0.039 C 
ATOM     15  C   UNL     1      67.583  22.745  58.786  1.00  0.00     0.039 C 
ENDBRANCH  11  12
ENDBRANCH   1  11
TORSDOF 4
ENDMDL
